MODEL 1
REMARK VINA RESULT:     -12.1      0.000      0.000
REMARK SMILES CC1(C)CCCC[C@@]1(C(=O)NCCCCNC(=O)c1ccc(-c2c3nc(c(-c4c(F)c(F)c(F)c(F)c4F)c4ccc([nH]4)c(-c4c(F)c(F)c(F)c(F)c4F)c4nc(c(-c5c(F)c(F)c(F)c(F)c5F)c5ccc2[nH]5)C=C4)C=C3)cc1)[NH+]1CC[NH2+]CC1
REMARK SMILES IDX 14 1 13 2 12 3 11 4 9 5 10 6 8 8 1 9 2 10 3 11 4 12 5 13
REMARK SMILES IDX 7 14 6 15 82 16 83 17 87 18 84 20 86 21 85 22 15 25 16 26
REMARK SMILES IDX 17 27 18 29 19 30 20 31 81 32 21 33 80 34 22 35 23 36 24 37
REMARK SMILES IDX 74 38 25 39 79 40 73 41 75 42 26 43 78 44 72 45 71 46 27 48
REMARK SMILES IDX 59 49 39 50 58 51 40 52 43 53 57 54 76 55 41 56 42 57 56 59
REMARK SMILES IDX 77 60 44 61 28 62 29 63 37 64 30 65 31 66 35 67 38 68 32 69
REMARK SMILES IDX 33 70 36 71 34 72 60 73 61 74 69 75 62 76 63 77 67 78 70 79
REMARK SMILES IDX 64 80 65 81 68 82 66 83 45 84 46 85 54 86 47 87 48 88 52 89
REMARK SMILES IDX 55 90 49 91 50 92 53 93 51 94
REMARK H PARENT 11 7 82 19 85 23 85 24 16 28 75 47 43 58
REMARK Flexibility Score: inf
ROOT
ATOM      1  C   UNL A   1      31.607  29.660  26.185  1.00  0.00     0.023 C 
ENDROOT
BRANCH   1   2
ATOM      2  C   UNL A   1      31.421  28.577  27.239  1.00  0.00     0.023 C 
BRANCH   2   3
ATOM      3  C   UNL A   1      32.472  27.451  27.262  1.00  0.00     0.116 C 
BRANCH   3   4
ATOM      4  N   UNL A   1      31.857  26.199  26.875  1.00  0.00    -0.351 N 
ATOM      5  C   UNL A   1      31.668  25.492  25.731  1.00  0.00     0.281 C 
ATOM      6  O   UNL A   1      30.618  24.839  25.849  1.00  0.00    -0.268 OA
ATOM      7  H   UNL A   1      31.471  25.733  27.652  1.00  0.00     0.163 HD
BRANCH   5   8
ATOM      8  C   UNL A   1      32.655  25.312  24.432  1.00  0.00     0.182 C 
ATOM      9  C   UNL A   1      32.894  23.557  22.385  1.00  0.00     0.018 C 
ATOM     10  C   UNL A   1      32.168  23.906  23.710  1.00  0.00     0.029 C 
ATOM     11  C   UNL A   1      30.661  23.931  23.313  1.00  0.00     0.018 C 
ATOM     12  C   UNL A   1      32.431  22.690  24.656  1.00  0.00     0.013 C 
ATOM     13  C   UNL A   1      33.876  22.615  25.143  1.00  0.00     0.001 C 
ATOM     14  C   UNL A   1      34.102  25.132  24.980  1.00  0.00     0.080 C 
ATOM     15  C   UNL A   1      34.292  23.893  25.858  1.00  0.00     0.007 C 
BRANCH   8  16
ATOM     16  N   UNL A   1      32.563  26.463  23.417  1.00  0.00    -0.313 N 
ATOM     17  C   UNL A   1      33.588  27.534  23.516  1.00  0.00     0.325 C 
ATOM     18  C   UNL A   1      31.279  27.168  23.392  1.00  0.00     0.325 C 
ATOM     19  H   UNL A   1      32.713  25.919  22.566  1.00  0.00     0.349 HD
ATOM     20  C   UNL A   1      33.463  28.577  22.377  1.00  0.00     0.322 C 
ATOM     21  C   UNL A   1      31.111  28.352  22.407  1.00  0.00     0.322 C 
ATOM     22  N   UNL A   1      32.203  29.326  22.462  1.00  0.00    -0.337 N 
ATOM     23  H   UNL A   1      32.130  29.976  21.679  1.00  0.00     0.346 HD
ATOM     24  H   UNL A   1      32.162  29.866  23.327  1.00  0.00     0.346 HD
ENDBRANCH   8  16
ENDBRANCH   5   8
ENDBRANCH   3   4
ENDBRANCH   2   3
ENDBRANCH   1   2
BRANCH   1  25
ATOM     25  C   UNL A   1      32.890  30.451  26.310  1.00  0.00     0.116 C 
BRANCH  25  26
ATOM     26  N   UNL A   1      32.706  31.813  26.790  1.00  0.00    -0.352 N 
ATOM     27  C   UNL A   1      33.549  32.543  27.600  1.00  0.00     0.251 C 
ATOM     28  H   UNL A   1      31.882  32.267  26.502  1.00  0.00     0.163 HD
ATOM     29  O   UNL A   1      33.253  33.665  27.976  1.00  0.00    -0.269 OA
BRANCH  27  30
ATOM     30  C   UNL A   1      34.801  31.901  28.051  1.00  0.00     0.039 A 
ATOM     31  C   UNL A   1      35.941  32.688  28.214  1.00  0.00     0.014 A 
ATOM     32  C   UNL A   1      34.796  30.557  28.432  1.00  0.00     0.014 A 
ATOM     33  C   UNL A   1      37.061  32.143  28.842  1.00  0.00     0.010 A 
ATOM     34  C   UNL A   1      35.870  30.051  29.146  1.00  0.00     0.010 A 
ATOM     35  C   UNL A   1      37.014  30.836  29.352  1.00  0.00    -0.014 A 
BRANCH  35  36
ATOM     36  C   UNL A   1      38.162  30.246  30.082  1.00  0.00     0.031 A 
ATOM     37  C   UNL A   1      38.412  30.651  31.507  1.00  0.00     0.074 A 
ATOM     38  C   UNL A   1      39.018  29.426  29.443  1.00  0.00     0.049 A 
ATOM     39  N   UNL A   1      39.413  30.346  32.292  1.00  0.00    -0.248 NA
ATOM     40  C   UNL A   1      37.425  31.558  32.117  1.00  0.00     0.031 C 
ATOM     41  C   UNL A   1      38.917  29.016  28.041  1.00  0.00     0.029 A 
ATOM     42  N   UNL A   1      40.153  28.799  29.891  1.00  0.00    -0.354 N 
ATOM     43  C   UNL A   1      39.191  31.048  33.469  1.00  0.00     0.074 A 
ATOM     44  C   UNL A   1      37.998  31.840  33.277  1.00  0.00     0.031 C 
ATOM     45  C   UNL A   1      39.932  28.184  27.752  1.00  0.00     0.029 A 
ATOM     46  C   UNL A   1      40.769  28.027  28.937  1.00  0.00     0.049 A 
ATOM     47  H   UNL A   1      40.493  28.893  30.810  1.00  0.00     0.167 HD
ATOM     48  C   UNL A   1      39.903  31.012  34.619  1.00  0.00     0.037 A 
ATOM     49  C   UNL A   1      41.884  27.277  29.017  1.00  0.00     0.037 A 
ATOM     50  C   UNL A   1      41.055  30.177  34.824  1.00  0.00     0.049 A 
ATOM     51  C   UNL A   1      42.629  27.213  30.323  1.00  0.00     0.074 A 
ATOM     52  C   UNL A   1      41.803  30.004  35.974  1.00  0.00     0.029 A 
ATOM     53  N   UNL A   1      41.617  29.364  33.850  1.00  0.00    -0.354 N 
ATOM     54  N   UNL A   1      42.373  27.827  31.452  1.00  0.00    -0.248 NA
ATOM     55  C   UNL A   1      43.814  26.344  30.367  1.00  0.00     0.031 C 
ATOM     56  C   UNL A   1      42.836  29.105  35.689  1.00  0.00     0.029 A 
ATOM     57  C   UNL A   1      42.709  28.692  34.371  1.00  0.00     0.049 A 
ATOM     58  H   UNL A   1      41.289  29.278  32.926  1.00  0.00     0.167 HD
ATOM     59  C   UNL A   1      43.344  27.400  32.347  1.00  0.00     0.074 A 
ATOM     60  C   UNL A   1      44.188  26.465  31.634  1.00  0.00     0.031 C 
ATOM     61  C   UNL A   1      43.523  27.753  33.644  1.00  0.00     0.037 A 
BRANCH  48  62
ATOM     62  C   UNL A   1      39.437  31.886  35.745  1.00  0.00     0.064 A 
ATOM     63  C   UNL A   1      39.967  33.170  35.946  1.00  0.00     0.173 A 
ATOM     64  C   UNL A   1      38.444  31.439  36.629  1.00  0.00     0.173 A 
ATOM     65  F   UNL A   1      40.933  33.635  35.140  1.00  0.00    -0.203 F 
ATOM     66  C   UNL A   1      39.544  33.960  37.011  1.00  0.00     0.198 A 
ATOM     67  C   UNL A   1      38.002  32.245  37.674  1.00  0.00     0.198 A 
ATOM     68  F   UNL A   1      37.905  30.220  36.481  1.00  0.00    -0.203 F 
ATOM     69  F   UNL A   1      40.107  35.159  37.217  1.00  0.00    -0.200 F 
ATOM     70  C   UNL A   1      38.557  33.501  37.870  1.00  0.00     0.200 A 
ATOM     71  F   UNL A   1      37.043  31.803  38.500  1.00  0.00    -0.200 F 
ATOM     72  F   UNL A   1      38.151  34.264  38.894  1.00  0.00    -0.200 F 
ENDBRANCH  48  62
BRANCH  49  73
ATOM     73  C   UNL A   1      42.338  26.490  27.841  1.00  0.00     0.064 A 
ATOM     74  C   UNL A   1      43.303  27.005  26.964  1.00  0.00     0.173 A 
ATOM     75  C   UNL A   1      41.819  25.217  27.567  1.00  0.00     0.173 A 
ATOM     76  F   UNL A   1      43.814  28.227  27.175  1.00  0.00    -0.203 F 
ATOM     77  C   UNL A   1      43.718  26.286  25.845  1.00  0.00     0.198 A 
ATOM     78  C   UNL A   1      42.252  24.487  26.461  1.00  0.00     0.198 A 
ATOM     79  F   UNL A   1      40.898  24.678  28.378  1.00  0.00    -0.203 F 
ATOM     80  F   UNL A   1      44.611  26.819  25.001  1.00  0.00    -0.200 F 
ATOM     81  C   UNL A   1      43.195  25.025  25.597  1.00  0.00     0.200 A 
ATOM     82  F   UNL A   1      41.754  23.265  26.229  1.00  0.00    -0.200 F 
ATOM     83  F   UNL A   1      43.595  24.332  24.522  1.00  0.00    -0.200 F 
ENDBRANCH  49  73
BRANCH  61  84
ATOM     84  C   UNL A   1      44.651  27.099  34.382  1.00  0.00     0.064 A 
ATOM     85  C   UNL A   1      45.920  27.692  34.454  1.00  0.00     0.173 A 
ATOM     86  C   UNL A   1      44.443  25.893  35.067  1.00  0.00     0.173 A 
ATOM     87  F   UNL A   1      46.168  28.837  33.803  1.00  0.00    -0.203 F 
ATOM     88  C   UNL A   1      46.948  27.088  35.173  1.00  0.00     0.198 A 
ATOM     89  C   UNL A   1      45.466  25.306  35.805  1.00  0.00     0.198 A 
ATOM     90  F   UNL A   1      43.245  25.293  35.032  1.00  0.00    -0.203 F 
ATOM     91  F   UNL A   1      48.164  27.650  35.198  1.00  0.00    -0.200 F 
ATOM     92  C   UNL A   1      46.719  25.901  35.853  1.00  0.00     0.200 A 
ATOM     93  F   UNL A   1      45.241  24.165  36.471  1.00  0.00    -0.200 F 
ATOM     94  F   UNL A   1      47.708  25.326  36.551  1.00  0.00    -0.200 F 
ENDBRANCH  61  84
ENDBRANCH  35  36
ENDBRANCH  27  30
ENDBRANCH  25  26
ENDBRANCH   1  25
TORSDOF 12
ENDMDL
MODEL 2
REMARK VINA RESULT:     -12.1      1.709      2.524
REMARK SMILES CC1(C)CCCC[C@@]1(C(=O)NCCCCNC(=O)c1ccc(-c2c3nc(c(-c4c(F)c(F)c(F)c(F)c4F)c4ccc([nH]4)c(-c4c(F)c(F)c(F)c(F)c4F)c4nc(c(-c5c(F)c(F)c(F)c(F)c5F)c5ccc2[nH]5)C=C4)C=C3)cc1)[NH+]1CC[NH2+]CC1
REMARK SMILES IDX 14 1 13 2 12 3 11 4 9 5 10 6 8 8 1 9 2 10 3 11 4 12 5 13
REMARK SMILES IDX 7 14 6 15 82 16 83 17 87 18 84 20 86 21 85 22 15 25 16 26
REMARK SMILES IDX 17 27 18 29 19 30 20 31 81 32 21 33 80 34 22 35 23 36 24 37
REMARK SMILES IDX 74 38 25 39 79 40 73 41 75 42 26 43 78 44 72 45 71 46 27 48
REMARK SMILES IDX 59 49 39 50 58 51 40 52 43 53 57 54 76 55 41 56 42 57 56 59
REMARK SMILES IDX 77 60 44 61 28 62 29 63 37 64 30 65 31 66 35 67 38 68 32 69
REMARK SMILES IDX 33 70 36 71 34 72 60 73 61 74 69 75 62 76 63 77 67 78 70 79
REMARK SMILES IDX 64 80 65 81 68 82 66 83 45 84 46 85 54 86 47 87 48 88 52 89
REMARK SMILES IDX 55 90 49 91 50 92 53 93 51 94
REMARK H PARENT 11 7 82 19 85 23 85 24 16 28 75 47 43 58
REMARK Flexibility Score: inf
ROOT
ATOM      1  C   UNL A   1      31.578  31.978  26.897  1.00  0.00     0.023 C 
ENDROOT
BRANCH   1   2
ATOM      2  C   UNL A   1      31.954  30.792  26.022  1.00  0.00     0.023 C 
BRANCH   2   3
ATOM      3  C   UNL A   1      33.054  29.858  26.563  1.00  0.00     0.116 C 
BRANCH   3   4
ATOM      4  N   UNL A   1      32.465  28.612  27.006  1.00  0.00    -0.351 N 
ATOM      5  C   UNL A   1      31.795  27.572  26.447  1.00  0.00     0.281 C 
ATOM      6  O   UNL A   1      31.029  27.100  27.303  1.00  0.00    -0.268 OA
ATOM      7  H   UNL A   1      32.582  28.483  27.975  1.00  0.00     0.163 HD
BRANCH   5   8
ATOM      8  C   UNL A   1      31.993  26.861  24.981  1.00  0.00     0.182 C 
ATOM      9  C   UNL A   1      31.171  24.573  23.788  1.00  0.00     0.018 C 
ATOM     10  C   UNL A   1      31.212  25.408  25.095  1.00  0.00     0.029 C 
ATOM     11  C   UNL A   1      29.710  25.568  25.480  1.00  0.00     0.018 C 
ATOM     12  C   UNL A   1      31.918  24.492  26.146  1.00  0.00     0.013 C 
ATOM     13  C   UNL A   1      33.412  24.322  25.881  1.00  0.00     0.001 C 
ATOM     14  C   UNL A   1      33.519  26.608  24.799  1.00  0.00     0.080 C 
ATOM     15  C   UNL A   1      34.129  25.663  25.837  1.00  0.00     0.007 C 
BRANCH   8  16
ATOM     16  N   UNL A   1      31.399  27.667  23.813  1.00  0.00    -0.313 N 
ATOM     17  C   UNL A   1      32.307  28.617  23.119  1.00  0.00     0.325 C 
ATOM     18  C   UNL A   1      30.208  28.452  24.143  1.00  0.00     0.325 C 
ATOM     19  H   UNL A   1      31.179  26.885  23.195  1.00  0.00     0.349 HD
ATOM     20  C   UNL A   1      31.634  29.287  21.895  1.00  0.00     0.322 C 
ATOM     21  C   UNL A   1      29.558  29.305  23.025  1.00  0.00     0.322 C 
ATOM     22  N   UNL A   1      30.510  30.144  22.294  1.00  0.00    -0.337 N 
ATOM     23  H   UNL A   1      30.062  30.540  21.467  1.00  0.00     0.346 HD
ATOM     24  H   UNL A   1      30.834  30.915  22.877  1.00  0.00     0.346 HD
ENDBRANCH   8  16
ENDBRANCH   5   8
ENDBRANCH   3   4
ENDBRANCH   2   3
ENDBRANCH   1   2
BRANCH   1  25
ATOM     25  C   UNL A   1      32.744  32.832  27.342  1.00  0.00     0.116 C 
BRANCH  25  26
ATOM     26  N   UNL A   1      32.390  34.209  27.657  1.00  0.00    -0.352 N 
ATOM     27  C   UNL A   1      32.992  35.047  28.571  1.00  0.00     0.251 C 
ATOM     28  H   UNL A   1      31.630  34.586  27.158  1.00  0.00     0.163 HD
ATOM     29  O   UNL A   1      32.563  36.170  28.780  1.00  0.00    -0.269 OA
BRANCH  27  30
ATOM     30  C   UNL A   1      34.140  34.522  29.338  1.00  0.00     0.039 A 
ATOM     31  C   UNL A   1      33.896  33.776  30.490  1.00  0.00     0.014 A 
ATOM     32  C   UNL A   1      35.435  34.666  28.837  1.00  0.00     0.014 A 
ATOM     33  C   UNL A   1      34.951  33.097  31.099  1.00  0.00     0.010 A 
ATOM     34  C   UNL A   1      36.461  33.909  29.382  1.00  0.00     0.010 A 
ATOM     35  C   UNL A   1      36.230  33.123  30.521  1.00  0.00    -0.014 A 
BRANCH  35  36
ATOM     36  C   UNL A   1      37.361  32.362  31.104  1.00  0.00     0.031 A 
ATOM     37  C   UNL A   1      37.848  32.710  32.481  1.00  0.00     0.074 A 
ATOM     38  C   UNL A   1      37.997  31.430  30.368  1.00  0.00     0.049 A 
ATOM     39  N   UNL A   1      38.884  32.252  33.135  1.00  0.00    -0.248 NA
ATOM     40  C   UNL A   1      37.093  33.748  33.204  1.00  0.00     0.031 C 
ATOM     41  C   UNL A   1      37.658  31.054  28.994  1.00  0.00     0.029 A 
ATOM     42  N   UNL A   1      39.073  30.636  30.673  1.00  0.00    -0.354 N 
ATOM     43  C   UNL A   1      38.921  32.967  34.324  1.00  0.00     0.074 A 
ATOM     44  C   UNL A   1      37.844  33.930  34.279  1.00  0.00     0.031 C 
ATOM     45  C   UNL A   1      38.492  30.083  28.586  1.00  0.00     0.029 A 
ATOM     46  C   UNL A   1      39.441  29.790  29.656  1.00  0.00     0.049 A 
ATOM     47  H   UNL A   1      39.538  30.669  31.541  1.00  0.00     0.167 HD
ATOM     48  C   UNL A   1      39.760  32.813  35.375  1.00  0.00     0.037 A 
ATOM     49  C   UNL A   1      40.433  28.882  29.599  1.00  0.00     0.037 A 
ATOM     50  C   UNL A   1      40.791  31.814  35.439  1.00  0.00     0.049 A 
ATOM     51  C   UNL A   1      41.320  28.694  30.800  1.00  0.00     0.074 A 
ATOM     52  C   UNL A   1      41.645  31.520  36.486  1.00  0.00     0.029 A 
ATOM     53  N   UNL A   1      41.097  30.937  34.409  1.00  0.00    -0.354 N 
ATOM     54  N   UNL A   1      41.304  29.328  31.948  1.00  0.00    -0.248 NA
ATOM     55  C   UNL A   1      42.358  27.658  30.702  1.00  0.00     0.031 C 
ATOM     56  C   UNL A   1      42.488  30.480  36.079  1.00  0.00     0.029 A 
ATOM     57  C   UNL A   1      42.134  30.104  34.792  1.00  0.00     0.049 A 
ATOM     58  H   UNL A   1      40.645  30.910  33.535  1.00  0.00     0.167 HD
ATOM     59  C   UNL A   1      42.306  28.753  32.716  1.00  0.00     0.074 A 
ATOM     60  C   UNL A   1      42.904  27.709  31.909  1.00  0.00     0.031 C 
ATOM     61  C   UNL A   1      42.700  29.062  33.975  1.00  0.00     0.037 A 
BRANCH  48  62
ATOM     62  C   UNL A   1      39.577  33.736  36.543  1.00  0.00     0.064 A 
ATOM     63  C   UNL A   1      40.179  35.002  36.580  1.00  0.00     0.173 A 
ATOM     64  C   UNL A   1      38.783  33.353  37.635  1.00  0.00     0.173 A 
ATOM     65  F   UNL A   1      40.963  35.407  35.570  1.00  0.00    -0.203 F 
ATOM     66  C   UNL A   1      40.022  35.838  37.682  1.00  0.00     0.198 A 
ATOM     67  C   UNL A   1      38.603  34.204  38.721  1.00  0.00     0.198 A 
ATOM     68  F   UNL A   1      38.185  32.152  37.648  1.00  0.00    -0.203 F 
ATOM     69  F   UNL A   1      40.655  37.019  37.721  1.00  0.00    -0.200 F 
ATOM     70  C   UNL A   1      39.229  35.442  38.749  1.00  0.00     0.200 A 
ATOM     71  F   UNL A   1      37.831  33.823  39.748  1.00  0.00    -0.200 F 
ATOM     72  F   UNL A   1      39.078  36.248  39.809  1.00  0.00    -0.200 F 
ENDBRANCH  48  62
BRANCH  49  73
ATOM     73  C   UNL A   1      40.610  28.048  28.383  1.00  0.00     0.064 A 
ATOM     74  C   UNL A   1      40.003  26.789  28.283  1.00  0.00     0.173 A 
ATOM     75  C   UNL A   1      41.387  28.486  27.301  1.00  0.00     0.173 A 
ATOM     76  F   UNL A   1      39.266  26.320  29.301  1.00  0.00    -0.203 F 
ATOM     77  C   UNL A   1      40.183  25.988  27.157  1.00  0.00     0.198 A 
ATOM     78  C   UNL A   1      41.547  27.695  26.164  1.00  0.00     0.198 A 
ATOM     79  F   UNL A   1      41.985  29.685  27.345  1.00  0.00    -0.203 F 
ATOM     80  F   UNL A   1      39.624  24.772  27.106  1.00  0.00    -0.200 F 
ATOM     81  C   UNL A   1      40.951  26.445  26.096  1.00  0.00     0.200 A 
ATOM     82  F   UNL A   1      42.281  28.143  25.136  1.00  0.00    -0.200 F 
ATOM     83  F   UNL A   1      41.123  25.676  25.012  1.00  0.00    -0.200 F 
ENDBRANCH  49  73
BRANCH  61  84
ATOM     84  C   UNL A   1      43.803  28.240  34.571  1.00  0.00     0.064 A 
ATOM     85  C   UNL A   1      45.140  28.654  34.506  1.00  0.00     0.173 A 
ATOM     86  C   UNL A   1      43.509  27.053  35.256  1.00  0.00     0.173 A 
ATOM     87  F   UNL A   1      45.469  29.775  33.848  1.00  0.00    -0.203 F 
ATOM     88  C   UNL A   1      46.150  27.896  35.093  1.00  0.00     0.198 A 
ATOM     89  C   UNL A   1      44.517  26.310  35.863  1.00  0.00     0.198 A 
ATOM     90  F   UNL A   1      42.243  26.620  35.349  1.00  0.00    -0.203 F 
ATOM     91  F   UNL A   1      47.426  28.288  34.988  1.00  0.00    -0.200 F 
ATOM     92  C   UNL A   1      45.837  26.730  35.776  1.00  0.00     0.200 A 
ATOM     93  F   UNL A   1      44.213  25.191  36.533  1.00  0.00    -0.200 F 
ATOM     94  F   UNL A   1      46.809  26.006  36.348  1.00  0.00    -0.200 F 
ENDBRANCH  61  84
ENDBRANCH  35  36
ENDBRANCH  27  30
ENDBRANCH  25  26
ENDBRANCH   1  25
TORSDOF 12
ENDMDL
MODEL 3
REMARK VINA RESULT:     -12.1      1.699      2.765
REMARK SMILES CC1(C)CCCC[C@@]1(C(=O)NCCCCNC(=O)c1ccc(-c2c3nc(c(-c4c(F)c(F)c(F)c(F)c4F)c4ccc([nH]4)c(-c4c(F)c(F)c(F)c(F)c4F)c4nc(c(-c5c(F)c(F)c(F)c(F)c5F)c5ccc2[nH]5)C=C4)C=C3)cc1)[NH+]1CC[NH2+]CC1
REMARK SMILES IDX 14 1 13 2 12 3 11 4 9 5 10 6 8 8 1 9 2 10 3 11 4 12 5 13
REMARK SMILES IDX 7 14 6 15 82 16 83 17 87 18 84 20 86 21 85 22 15 25 16 26
REMARK SMILES IDX 17 27 18 29 19 30 20 31 81 32 21 33 80 34 22 35 23 36 24 37
REMARK SMILES IDX 74 38 25 39 79 40 73 41 75 42 26 43 78 44 72 45 71 46 27 48
REMARK SMILES IDX 59 49 39 50 58 51 40 52 43 53 57 54 76 55 41 56 42 57 56 59
REMARK SMILES IDX 77 60 44 61 28 62 29 63 37 64 30 65 31 66 35 67 38 68 32 69
REMARK SMILES IDX 33 70 36 71 34 72 60 73 61 74 69 75 62 76 63 77 67 78 70 79
REMARK SMILES IDX 64 80 65 81 68 82 66 83 45 84 46 85 54 86 47 87 48 88 52 89
REMARK SMILES IDX 55 90 49 91 50 92 53 93 51 94
REMARK H PARENT 11 7 82 19 85 23 85 24 16 28 75 47 43 58
REMARK Flexibility Score: inf
ROOT
ATOM      1  C   UNL A   1      31.652  31.942  27.016  1.00  0.00     0.023 C 
ENDROOT
BRANCH   1   2
ATOM      2  C   UNL A   1      31.989  30.756  26.124  1.00  0.00     0.023 C 
BRANCH   2   3
ATOM      3  C   UNL A   1      33.102  29.813  26.623  1.00  0.00     0.116 C 
BRANCH   3   4
ATOM      4  N   UNL A   1      32.521  28.566  27.074  1.00  0.00    -0.351 N 
ATOM      5  C   UNL A   1      31.843  27.526  26.526  1.00  0.00     0.281 C 
ATOM      6  O   UNL A   1      31.092  27.053  27.394  1.00  0.00    -0.268 OA
ATOM      7  H   UNL A   1      32.654  28.437  28.041  1.00  0.00     0.163 HD
BRANCH   5   8
ATOM      8  C   UNL A   1      32.017  26.816  25.056  1.00  0.00     0.182 C 
ATOM      9  C   UNL A   1      31.223  24.503  23.893  1.00  0.00     0.018 C 
ATOM     10  C   UNL A   1      31.279  25.342  25.197  1.00  0.00     0.029 C 
ATOM     11  C   UNL A   1      29.786  25.462  25.625  1.00  0.00     0.018 C 
ATOM     12  C   UNL A   1      32.041  24.450  26.229  1.00  0.00     0.013 C 
ATOM     13  C   UNL A   1      33.531  24.319  25.919  1.00  0.00     0.001 C 
ATOM     14  C   UNL A   1      33.544  26.604  24.829  1.00  0.00     0.080 C 
ATOM     15  C   UNL A   1      34.209  25.679  25.851  1.00  0.00     0.007 C 
BRANCH   8  16
ATOM     16  N   UNL A   1      31.368  27.602  23.904  1.00  0.00    -0.313 N 
ATOM     17  C   UNL A   1      32.225  28.582  23.189  1.00  0.00     0.325 C 
ATOM     18  C   UNL A   1      30.159  28.346  24.266  1.00  0.00     0.325 C 
ATOM     19  H   UNL A   1      31.158  26.813  23.291  1.00  0.00     0.349 HD
ATOM     20  C   UNL A   1      31.499  29.230  21.983  1.00  0.00     0.322 C 
ATOM     21  C   UNL A   1      29.453  29.177  23.165  1.00  0.00     0.322 C 
ATOM     22  N   UNL A   1      30.357  30.048  22.411  1.00  0.00    -0.337 N 
ATOM     23  H   UNL A   1      29.876  30.429  21.596  1.00  0.00     0.346 HD
ATOM     24  H   UNL A   1      30.670  30.830  22.987  1.00  0.00     0.346 HD
ENDBRANCH   8  16
ENDBRANCH   5   8
ENDBRANCH   3   4
ENDBRANCH   2   3
ENDBRANCH   1   2
BRANCH   1  25
ATOM     25  C   UNL A   1      32.822  32.845  27.337  1.00  0.00     0.116 C 
BRANCH  25  26
ATOM     26  N   UNL A   1      32.446  34.209  27.681  1.00  0.00    -0.352 N 
ATOM     27  C   UNL A   1      33.023  35.031  28.624  1.00  0.00     0.251 C 
ATOM     28  H   UNL A   1      31.690  34.589  27.179  1.00  0.00     0.163 HD
ATOM     29  O   UNL A   1      32.578  36.143  28.854  1.00  0.00    -0.269 OA
BRANCH  27  30
ATOM     30  C   UNL A   1      34.166  34.501  29.396  1.00  0.00     0.039 A 
ATOM     31  C   UNL A   1      33.913  33.730  30.530  1.00  0.00     0.014 A 
ATOM     32  C   UNL A   1      35.467  34.665  28.915  1.00  0.00     0.014 A 
ATOM     33  C   UNL A   1      34.966  33.048  31.140  1.00  0.00     0.010 A 
ATOM     34  C   UNL A   1      36.491  33.906  29.459  1.00  0.00     0.010 A 
ATOM     35  C   UNL A   1      36.252  33.096  30.579  1.00  0.00    -0.014 A 
BRANCH  35  36
ATOM     36  C   UNL A   1      37.382  32.333  31.162  1.00  0.00     0.031 A 
ATOM     37  C   UNL A   1      37.870  32.681  32.539  1.00  0.00     0.074 A 
ATOM     38  C   UNL A   1      38.016  31.399  30.426  1.00  0.00     0.049 A 
ATOM     39  N   UNL A   1      38.905  32.221  33.193  1.00  0.00    -0.248 NA
ATOM     40  C   UNL A   1      37.117  33.720  33.261  1.00  0.00     0.031 C 
ATOM     41  C   UNL A   1      37.676  31.023  29.053  1.00  0.00     0.029 A 
ATOM     42  N   UNL A   1      39.090  30.603  30.732  1.00  0.00    -0.354 N 
ATOM     43  C   UNL A   1      38.944  32.937  34.382  1.00  0.00     0.074 A 
ATOM     44  C   UNL A   1      37.869  33.902  34.336  1.00  0.00     0.031 C 
ATOM     45  C   UNL A   1      38.508  30.051  28.645  1.00  0.00     0.029 A 
ATOM     46  C   UNL A   1      39.456  29.757  29.715  1.00  0.00     0.049 A 
ATOM     47  H   UNL A   1      39.556  30.636  31.599  1.00  0.00     0.167 HD
ATOM     48  C   UNL A   1      39.783  32.782  35.432  1.00  0.00     0.037 A 
ATOM     49  C   UNL A   1      40.446  28.847  29.658  1.00  0.00     0.037 A 
ATOM     50  C   UNL A   1      40.812  31.781  35.496  1.00  0.00     0.049 A 
ATOM     51  C   UNL A   1      41.334  28.657  30.859  1.00  0.00     0.074 A 
ATOM     52  C   UNL A   1      41.666  31.485  36.543  1.00  0.00     0.029 A 
ATOM     53  N   UNL A   1      41.117  30.902  34.466  1.00  0.00    -0.354 N 
ATOM     54  N   UNL A   1      41.319  29.292  32.006  1.00  0.00    -0.248 NA
ATOM     55  C   UNL A   1      42.369  27.619  30.761  1.00  0.00     0.031 C 
ATOM     56  C   UNL A   1      42.507  30.444  36.136  1.00  0.00     0.029 A 
ATOM     57  C   UNL A   1      42.152  30.068  34.850  1.00  0.00     0.049 A 
ATOM     58  H   UNL A   1      40.664  30.876  33.593  1.00  0.00     0.167 HD
ATOM     59  C   UNL A   1      42.321  28.715  32.774  1.00  0.00     0.074 A 
ATOM     60  C   UNL A   1      42.916  27.670  31.967  1.00  0.00     0.031 C 
ATOM     61  C   UNL A   1      42.715  29.024  34.033  1.00  0.00     0.037 A 
BRANCH  48  62
ATOM     62  C   UNL A   1      39.602  33.705  36.600  1.00  0.00     0.064 A 
ATOM     63  C   UNL A   1      38.812  33.348  37.703  1.00  0.00     0.173 A 
ATOM     64  C   UNL A   1      40.234  34.958  36.622  1.00  0.00     0.173 A 
ATOM     65  F   UNL A   1      38.172  32.169  37.721  1.00  0.00    -0.203 F 
ATOM     66  C   UNL A   1      38.631  34.225  38.768  1.00  0.00     0.198 A 
ATOM     67  C   UNL A   1      40.076  35.819  37.704  1.00  0.00     0.198 A 
ATOM     68  F   UNL A   1      41.001  35.347  35.592  1.00  0.00    -0.203 F 
ATOM     69  F   UNL A   1      37.825  33.885  39.784  1.00  0.00    -0.200 F 
ATOM     70  C   UNL A   1      39.268  35.457  38.772  1.00  0.00     0.200 A 
ATOM     71  F   UNL A   1      40.697  37.006  37.709  1.00  0.00    -0.200 F 
ATOM     72  F   UNL A   1      39.095  36.299  39.799  1.00  0.00    -0.200 F 
ENDBRANCH  48  62
BRANCH  49  73
ATOM     73  C   UNL A   1      40.622  28.012  28.442  1.00  0.00     0.064 A 
ATOM     74  C   UNL A   1      41.397  28.468  27.366  1.00  0.00     0.173 A 
ATOM     75  C   UNL A   1      40.022  26.750  28.326  1.00  0.00     0.173 A 
ATOM     76  F   UNL A   1      41.974  29.677  27.424  1.00  0.00    -0.203 F 
ATOM     77  C   UNL A   1      41.548  27.704  26.211  1.00  0.00     0.198 A 
ATOM     78  C   UNL A   1      40.194  25.976  27.180  1.00  0.00     0.198 A 
ATOM     79  F   UNL A   1      39.276  26.266  29.328  1.00  0.00    -0.203 F 
ATOM     80  F   UNL A   1      42.260  28.183  25.182  1.00  0.00    -0.200 F 
ATOM     81  C   UNL A   1      40.950  26.456  26.121  1.00  0.00     0.200 A 
ATOM     82  F   UNL A   1      39.624  24.766  27.099  1.00  0.00    -0.200 F 
ATOM     83  F   UNL A   1      41.097  25.720  25.010  1.00  0.00    -0.200 F 
ENDBRANCH  49  73
BRANCH  61  84
ATOM     84  C   UNL A   1      43.816  28.200  34.628  1.00  0.00     0.064 A 
ATOM     85  C   UNL A   1      43.550  27.004  35.309  1.00  0.00     0.173 A 
ATOM     86  C   UNL A   1      45.155  28.588  34.470  1.00  0.00     0.173 A 
ATOM     87  F   UNL A   1      42.285  26.602  35.496  1.00  0.00    -0.203 F 
ATOM     88  C   UNL A   1      44.586  26.233  35.827  1.00  0.00     0.198 A 
ATOM     89  C   UNL A   1      46.190  27.802  34.968  1.00  0.00     0.198 A 
ATOM     90  F   UNL A   1      45.459  29.722  33.821  1.00  0.00    -0.203 F 
ATOM     91  F   UNL A   1      44.309  25.112  36.507  1.00  0.00    -0.200 F 
ATOM     92  C   UNL A   1      45.904  26.628  35.650  1.00  0.00     0.200 A 
ATOM     93  F   UNL A   1      47.462  28.179  34.786  1.00  0.00    -0.200 F 
ATOM     94  F   UNL A   1      46.901  25.880  36.142  1.00  0.00    -0.200 F 
ENDBRANCH  61  84
ENDBRANCH  35  36
ENDBRANCH  27  30
ENDBRANCH  25  26
ENDBRANCH   1  25
TORSDOF 12
ENDMDL
