MODEL 1
REMARK VINA RESULT:     -14.0      0.000      0.000
REMARK SMILES CCN1C(=O)C[C@@H](C(=O)Nc2cccc(C(=O)NCCCCNC(=O)c3ccc(-c4c5nc(c(-c6c(F)c(F)c(F)c(F)c6F)c6ccc([nH]6)c(-c6c(F)c(F)c(F)c(F)c6F)c6nc(c(-c7c(F)c(F)c(F)c(F)c7F)c7ccc4[nH]7)C=C6)C=C5)cc3)c2)S/C1=[NH+]/c1ccccc1
REMARK SMILES IDX 20 1 19 2 18 3 16 4 17 5 15 7 11 8 12 9 89 10 13 11 14 12
REMARK SMILES IDX 10 13 8 14 9 15 7 17 3 18 4 19 91 20 5 21 6 22 90 23 92 24
REMARK SMILES IDX 2 26 1 27 93 28 94 29 98 30 95 31 97 32 96 33 21 34 22 35
REMARK SMILES IDX 23 36 24 37 25 39 26 40 27 41 88 42 28 43 87 44 29 45 30 46
REMARK SMILES IDX 31 47 81 48 32 49 86 50 80 51 82 52 33 53 85 54 79 55 78 56
REMARK SMILES IDX 34 58 66 59 46 60 65 61 47 62 50 63 64 64 83 65 48 66 49 67
REMARK SMILES IDX 63 69 84 70 51 71 35 72 36 73 44 74 37 75 38 76 42 77 45 78
REMARK SMILES IDX 39 79 40 80 43 81 41 82 67 83 68 84 76 85 69 86 70 87 74 88
REMARK SMILES IDX 77 89 71 90 72 91 75 92 73 93 52 94 53 95 61 96 54 97 55 98
REMARK SMILES IDX 59 99 62 100 56 101 57 102 60 103 58 104
REMARK H PARENT 18 6 10 16 92 25 23 38 82 57 50 68
REMARK Flexibility Score: inf
ROOT
ATOM      1  C   UNL A   1      31.742  30.521  26.841  1.00  0.00     0.023 C 
ENDROOT
BRANCH   1   2
ATOM      2  C   UNL A   1      31.863  29.724  25.550  1.00  0.00     0.116 C 
BRANCH   2   3
ATOM      3  N   UNL A   1      31.117  30.224  24.407  1.00  0.00    -0.352 N 
ATOM      4  C   UNL A   1      30.341  29.535  23.495  1.00  0.00     0.251 C 
ATOM      5  O   UNL A   1      29.738  30.158  22.623  1.00  0.00    -0.269 OA
ATOM      6  H   UNL A   1      31.173  31.196  24.261  1.00  0.00     0.163 HD
BRANCH   4   7
ATOM      7  C   UNL A   1      30.249  28.048  23.512  1.00  0.00     0.041 A 
ATOM      8  C   UNL A   1      31.035  25.874  22.766  1.00  0.00     0.041 A 
ATOM      9  C   UNL A   1      29.874  25.295  23.284  1.00  0.00     0.026 A 
ATOM     10  C   UNL A   1      31.232  27.239  22.934  1.00  0.00     0.040 A 
ATOM     11  C   UNL A   1      28.946  26.070  23.988  1.00  0.00     0.003 A 
ATOM     12  C   UNL A   1      29.128  27.450  24.093  1.00  0.00     0.014 A 
BRANCH   8  13
ATOM     13  N   UNL A   1      31.876  25.075  21.973  1.00  0.00    -0.325 N 
ATOM     14  C   UNL A   1      32.691  24.007  22.231  1.00  0.00     0.238 C 
ATOM     15  O   UNL A   1      33.631  23.835  21.442  1.00  0.00    -0.273 OA
ATOM     16  H   UNL A   1      31.880  25.343  21.026  1.00  0.00     0.169 HD
BRANCH  14  17
ATOM     17  C   UNL A   1      32.424  22.966  23.329  1.00  0.00     0.160 C 
ATOM     18  N   UNL A   1      33.799  20.722  24.647  1.00  0.00    -0.191 N 
ATOM     19  C   UNL A   1      33.469  21.868  25.340  1.00  0.00     0.311 C 
ATOM     20  C   UNL A   1      32.999  20.212  23.642  1.00  0.00     0.319 C 
ATOM     21  O   UNL A   1      33.414  21.928  26.567  1.00  0.00    -0.247 OA
ATOM     22  C   UNL A   1      33.342  23.104  24.515  1.00  0.00     0.153 C 
ATOM     23  S   UNL A   1      32.103  21.337  22.637  1.00  0.00    -0.024 SA
ATOM     24  N   UNL A   1      32.834  18.977  23.292  1.00  0.00    -0.235 N 
ATOM     25  H   UNL A   1      32.453  18.797  22.402  1.00  0.00     0.313 HD
BRANCH  18  26
ATOM     26  C   UNL A   1      35.106  20.132  24.951  1.00  0.00     0.243 C 
ATOM     27  C   UNL A   1      36.301  21.066  24.868  1.00  0.00     0.054 C 
ENDBRANCH  18  26
BRANCH  24  28
ATOM     28  C   UNL A   1      33.161  17.882  24.100  1.00  0.00     0.125 A 
ATOM     29  C   UNL A   1      34.263  17.077  23.795  1.00  0.00     0.051 A 
ATOM     30  C   UNL A   1      32.291  17.470  25.114  1.00  0.00     0.051 A 
ATOM     31  C   UNL A   1      34.499  15.892  24.498  1.00  0.00     0.004 A 
ATOM     32  C   UNL A   1      32.531  16.296  25.831  1.00  0.00     0.004 A 
ATOM     33  C   UNL A   1      33.633  15.504  25.519  1.00  0.00     0.000 A 
ENDBRANCH  24  28
ENDBRANCH  14  17
ENDBRANCH   8  13
ENDBRANCH   4   7
ENDBRANCH   2   3
ENDBRANCH   1   2
BRANCH   1  34
ATOM     34  C   UNL A   1      31.594  32.034  26.709  1.00  0.00     0.023 C 
BRANCH  34  35
ATOM     35  C   UNL A   1      32.715  32.895  27.281  1.00  0.00     0.116 C 
BRANCH  35  36
ATOM     36  N   UNL A   1      32.323  34.228  27.702  1.00  0.00    -0.352 N 
ATOM     37  C   UNL A   1      32.930  35.083  28.602  1.00  0.00     0.251 C 
ATOM     38  H   UNL A   1      31.503  34.576  27.282  1.00  0.00     0.163 HD
ATOM     39  O   UNL A   1      32.453  36.179  28.836  1.00  0.00    -0.269 OA
BRANCH  37  40
ATOM     40  C   UNL A   1      34.127  34.631  29.351  1.00  0.00     0.039 A 
ATOM     41  C   UNL A   1      33.943  34.072  30.619  1.00  0.00     0.014 A 
ATOM     42  C   UNL A   1      35.409  34.713  28.805  1.00  0.00     0.014 A 
ATOM     43  C   UNL A   1      35.025  33.489  31.284  1.00  0.00     0.010 A 
ATOM     44  C   UNL A   1      36.473  34.068  29.434  1.00  0.00     0.010 A 
ATOM     45  C   UNL A   1      36.286  33.424  30.669  1.00  0.00    -0.014 A 
BRANCH  45  46
ATOM     46  C   UNL A   1      37.396  32.645  31.281  1.00  0.00     0.031 A 
ATOM     47  C   UNL A   1      37.921  32.998  32.643  1.00  0.00     0.074 A 
ATOM     48  C   UNL A   1      37.974  31.649  30.579  1.00  0.00     0.049 A 
ATOM     49  N   UNL A   1      38.923  32.473  33.307  1.00  0.00    -0.248 NA
ATOM     50  C   UNL A   1      37.247  34.099  33.347  1.00  0.00     0.031 C 
ATOM     51  C   UNL A   1      37.590  31.230  29.229  1.00  0.00     0.029 A 
ATOM     52  N   UNL A   1      39.015  30.812  30.899  1.00  0.00    -0.354 N 
ATOM     53  C   UNL A   1      38.997  33.178  34.500  1.00  0.00     0.074 A 
ATOM     54  C   UNL A   1      37.977  34.204  34.448  1.00  0.00     0.031 C 
ATOM     55  C   UNL A   1      38.365  30.202  28.848  1.00  0.00     0.029 A 
ATOM     56  C   UNL A   1      39.326  29.912  29.908  1.00  0.00     0.049 A 
ATOM     57  H   UNL A   1      39.494  30.852  31.759  1.00  0.00     0.167 HD
ATOM     58  C   UNL A   1      39.824  32.974  35.553  1.00  0.00     0.037 A 
ATOM     59  C   UNL A   1      40.282  28.963  29.855  1.00  0.00     0.037 A 
ATOM     60  C   UNL A   1      40.833  31.947  35.614  1.00  0.00     0.049 A 
ATOM     61  C   UNL A   1      41.203  28.776  31.031  1.00  0.00     0.074 A 
ATOM     62  C   UNL A   1      41.700  31.649  36.652  1.00  0.00     0.029 A 
ATOM     63  N   UNL A   1      41.107  31.048  34.595  1.00  0.00    -0.354 N 
ATOM     64  N   UNL A   1      41.229  29.417  32.173  1.00  0.00    -0.248 NA
ATOM     65  C   UNL A   1      42.227  27.729  30.909  1.00  0.00     0.031 C 
ATOM     66  C   UNL A   1      42.521  30.591  36.249  1.00  0.00     0.029 A 
ATOM     67  C   UNL A   1      42.138  30.203  34.976  1.00  0.00     0.049 A 
ATOM     68  H   UNL A   1      40.640  31.015  33.730  1.00  0.00     0.167 HD
ATOM     69  C   UNL A   1      42.243  28.830  32.916  1.00  0.00     0.074 A 
ATOM     70  C   UNL A   1      42.803  27.774  32.101  1.00  0.00     0.031 C 
ATOM     71  C   UNL A   1      42.673  29.141  34.164  1.00  0.00     0.037 A 
BRANCH  58  72
ATOM     72  C   UNL A   1      39.662  33.875  36.741  1.00  0.00     0.064 A 
ATOM     73  C   UNL A   1      38.871  33.500  37.838  1.00  0.00     0.173 A 
ATOM     74  C   UNL A   1      40.336  35.103  36.806  1.00  0.00     0.173 A 
ATOM     75  F   UNL A   1      38.198  32.340  37.819  1.00  0.00    -0.203 F 
ATOM     76  C   UNL A   1      38.741  34.334  38.944  1.00  0.00     0.198 A 
ATOM     77  C   UNL A   1      40.226  35.922  37.928  1.00  0.00     0.198 A 
ATOM     78  F   UNL A   1      41.111  35.506  35.788  1.00  0.00    -0.203 F 
ATOM     79  F   UNL A   1      37.945  33.974  39.962  1.00  0.00    -0.200 F 
ATOM     80  C   UNL A   1      39.423  35.539  38.993  1.00  0.00     0.200 A 
ATOM     81  F   UNL A   1      40.895  37.082  37.978  1.00  0.00    -0.200 F 
ATOM     82  F   UNL A   1      39.302  36.337  40.063  1.00  0.00    -0.200 F 
ENDBRANCH  58  72
BRANCH  59  83
ATOM     83  C   UNL A   1      40.411  28.096  28.655  1.00  0.00     0.064 A 
ATOM     84  C   UNL A   1      39.779  26.845  28.602  1.00  0.00     0.173 A 
ATOM     85  C   UNL A   1      41.190  28.480  27.554  1.00  0.00     0.173 A 
ATOM     86  F   UNL A   1      39.042  26.425  29.641  1.00  0.00    -0.203 F 
ATOM     87  C   UNL A   1      39.943  26.002  27.507  1.00  0.00     0.198 A 
ATOM     88  C   UNL A   1      41.331  27.646  26.447  1.00  0.00     0.198 A 
ATOM     89  F   UNL A   1      41.814  29.666  27.555  1.00  0.00    -0.203 F 
ATOM     90  F   UNL A   1      39.372  24.789  27.507  1.00  0.00    -0.200 F 
ATOM     91  C   UNL A   1      40.716  26.404  26.428  1.00  0.00     0.200 A 
ATOM     92  F   UNL A   1      42.071  28.043  25.402  1.00  0.00    -0.200 F 
ATOM     93  F   UNL A   1      40.878  25.589  25.377  1.00  0.00    -0.200 F 
ENDBRANCH  59  83
BRANCH  71  94
ATOM     94  C   UNL A   1      43.772  28.300  34.742  1.00  0.00     0.064 A 
ATOM     95  C   UNL A   1      45.122  28.656  34.607  1.00  0.00     0.173 A 
ATOM     96  C   UNL A   1      43.467  27.139  35.469  1.00  0.00     0.173 A 
ATOM     97  F   UNL A   1      45.465  29.747  33.907  1.00  0.00    -0.203 F 
ATOM     98  C   UNL A   1      46.128  27.868  35.159  1.00  0.00     0.198 A 
ATOM     99  C   UNL A   1      44.474  26.368  36.043  1.00  0.00     0.198 A 
ATOM    100  F   UNL A   1      42.191  26.757  35.631  1.00  0.00    -0.203 F 
ATOM    101  F   UNL A   1      47.413  28.202  34.980  1.00  0.00    -0.200 F 
ATOM    102  C   UNL A   1      45.803  26.729  35.882  1.00  0.00     0.200 A 
ATOM    103  F   UNL A   1      44.158  25.274  36.749  1.00  0.00    -0.200 F 
ATOM    104  F   UNL A   1      46.773  25.974  36.416  1.00  0.00    -0.200 F 
ENDBRANCH  71  94
ENDBRANCH  45  46
ENDBRANCH  37  40
ENDBRANCH  35  36
ENDBRANCH  34  35
ENDBRANCH   1  34
TORSDOF 15
ENDMDL
MODEL 2
REMARK VINA RESULT:     -13.8      5.061     11.026
REMARK SMILES CCN1C(=O)C[C@@H](C(=O)Nc2cccc(C(=O)NCCCCNC(=O)c3ccc(-c4c5nc(c(-c6c(F)c(F)c(F)c(F)c6F)c6ccc([nH]6)c(-c6c(F)c(F)c(F)c(F)c6F)c6nc(c(-c7c(F)c(F)c(F)c(F)c7F)c7ccc4[nH]7)C=C6)C=C5)cc3)c2)S/C1=[NH+]/c1ccccc1
REMARK SMILES IDX 20 1 19 2 18 3 16 4 17 5 15 7 11 8 12 9 89 10 13 11 14 12
REMARK SMILES IDX 10 13 8 14 9 15 7 17 3 18 4 19 91 20 5 21 6 22 90 23 92 24
REMARK SMILES IDX 2 26 1 27 93 28 94 29 98 30 95 31 97 32 96 33 21 34 22 35
REMARK SMILES IDX 23 36 24 37 25 39 26 40 27 41 88 42 28 43 87 44 29 45 30 46
REMARK SMILES IDX 31 47 81 48 32 49 86 50 80 51 82 52 33 53 85 54 79 55 78 56
REMARK SMILES IDX 34 58 66 59 46 60 65 61 47 62 50 63 64 64 83 65 48 66 49 67
REMARK SMILES IDX 63 69 84 70 51 71 35 72 36 73 44 74 37 75 38 76 42 77 45 78
REMARK SMILES IDX 39 79 40 80 43 81 41 82 67 83 68 84 76 85 69 86 70 87 74 88
REMARK SMILES IDX 77 89 71 90 72 91 75 92 73 93 52 94 53 95 61 96 54 97 55 98
REMARK SMILES IDX 59 99 62 100 56 101 57 102 60 103 58 104
REMARK H PARENT 18 6 10 16 92 25 23 38 82 57 50 68
REMARK Flexibility Score: inf
ROOT
ATOM      1  C   UNL A   1      38.941  22.735  26.437  1.00  0.00     0.023 C 
ENDROOT
BRANCH   1   2
ATOM      2  C   UNL A   1      37.721  23.492  25.934  1.00  0.00     0.116 C 
BRANCH   2   3
ATOM      3  N   UNL A   1      37.525  23.521  24.494  1.00  0.00    -0.352 N 
ATOM      4  C   UNL A   1      36.486  23.011  23.738  1.00  0.00     0.251 C 
ATOM      5  O   UNL A   1      36.479  23.193  22.523  1.00  0.00    -0.269 OA
ATOM      6  H   UNL A   1      38.236  23.969  23.981  1.00  0.00     0.163 HD
BRANCH   4   7
ATOM      7  C   UNL A   1      35.393  22.207  24.353  1.00  0.00     0.041 A 
ATOM      8  C   UNL A   1      33.271  22.077  25.529  1.00  0.00     0.041 A 
ATOM      9  C   UNL A   1      33.516  20.725  25.786  1.00  0.00     0.026 A 
ATOM     10  C   UNL A   1      34.190  22.789  24.768  1.00  0.00     0.040 A 
ATOM     11  C   UNL A   1      34.648  20.095  25.259  1.00  0.00     0.003 A 
ATOM     12  C   UNL A   1      35.593  20.839  24.551  1.00  0.00     0.014 A 
BRANCH   8  13
ATOM     13  N   UNL A   1      32.181  22.687  26.173  1.00  0.00    -0.325 N 
ATOM     14  C   UNL A   1      31.715  23.971  26.241  1.00  0.00     0.238 C 
ATOM     15  O   UNL A   1      31.040  24.254  27.240  1.00  0.00    -0.273 OA
ATOM     16  H   UNL A   1      31.635  22.051  26.689  1.00  0.00     0.169 HD
BRANCH  14  17
ATOM     17  C   UNL A   1      31.866  25.002  25.110  1.00  0.00     0.160 C 
ATOM     18  N   UNL A   1      31.428  27.876  24.651  1.00  0.00    -0.191 N 
ATOM     19  C   UNL A   1      32.695  27.329  24.624  1.00  0.00     0.311 C 
ATOM     20  C   UNL A   1      30.320  27.189  24.194  1.00  0.00     0.319 C 
ATOM     21  O   UNL A   1      33.663  27.883  24.108  1.00  0.00    -0.247 OA
ATOM     22  C   UNL A   1      32.872  26.079  25.419  1.00  0.00     0.153 C 
ATOM     23  S   UNL A   1      30.274  25.447  24.401  1.00  0.00    -0.024 SA
ATOM     24  N   UNL A   1      29.246  27.663  23.647  1.00  0.00    -0.235 N 
ATOM     25  H   UNL A   1      28.447  27.089  23.626  1.00  0.00     0.313 HD
BRANCH  18  26
ATOM     26  C   UNL A   1      31.299  29.185  25.296  1.00  0.00     0.243 C 
ATOM     27  C   UNL A   1      31.787  29.277  26.732  1.00  0.00     0.054 C 
ENDBRANCH  18  26
BRANCH  24  28
ATOM     28  C   UNL A   1      29.152  28.940  23.084  1.00  0.00     0.125 A 
ATOM     29  C   UNL A   1      28.134  29.817  23.471  1.00  0.00     0.051 A 
ATOM     30  C   UNL A   1      29.960  29.291  21.997  1.00  0.00     0.051 A 
ATOM     31  C   UNL A   1      27.936  31.025  22.798  1.00  0.00     0.004 A 
ATOM     32  C   UNL A   1      29.777  30.505  21.331  1.00  0.00     0.004 A 
ATOM     33  C   UNL A   1      28.761  31.370  21.729  1.00  0.00     0.000 A 
ENDBRANCH  24  28
ENDBRANCH  14  17
ENDBRANCH   8  13
ENDBRANCH   4   7
ENDBRANCH   2   3
ENDBRANCH   1   2
BRANCH   1  34
ATOM     34  C   UNL A   1      39.349  21.487  25.662  1.00  0.00     0.023 C 
BRANCH  34  35
ATOM     35  C   UNL A   1      39.398  20.173  26.436  1.00  0.00     0.116 C 
BRANCH  35  36
ATOM     36  N   UNL A   1      40.413  19.231  26.000  1.00  0.00    -0.352 N 
ATOM     37  C   UNL A   1      41.790  19.346  26.022  1.00  0.00     0.251 C 
ATOM     38  H   UNL A   1      40.069  18.383  25.636  1.00  0.00     0.163 HD
ATOM     39  O   UNL A   1      42.495  18.443  25.609  1.00  0.00    -0.269 OA
BRANCH  37  40
ATOM     40  C   UNL A   1      42.414  20.611  26.478  1.00  0.00     0.039 A 
ATOM     41  C   UNL A   1      43.008  21.439  25.521  1.00  0.00     0.014 A 
ATOM     42  C   UNL A   1      42.382  21.004  27.817  1.00  0.00     0.014 A 
ATOM     43  C   UNL A   1      43.460  22.709  25.887  1.00  0.00     0.010 A 
ATOM     44  C   UNL A   1      42.766  22.299  28.168  1.00  0.00     0.010 A 
ATOM     45  C   UNL A   1      43.284  23.175  27.200  1.00  0.00    -0.014 A 
BRANCH  45  46
ATOM     46  C   UNL A   1      43.588  24.587  27.558  1.00  0.00     0.031 A 
ATOM     47  C   UNL A   1      45.009  25.067  27.648  1.00  0.00     0.074 A 
ATOM     48  C   UNL A   1      42.578  25.428  27.861  1.00  0.00     0.049 A 
ATOM     49  N   UNL A   1      45.465  26.243  28.006  1.00  0.00    -0.248 NA
ATOM     50  C   UNL A   1      46.058  24.094  27.309  1.00  0.00     0.031 C 
ATOM     51  C   UNL A   1      41.155  25.080  27.855  1.00  0.00     0.029 A 
ATOM     52  N   UNL A   1      42.592  26.748  28.243  1.00  0.00    -0.354 N 
ATOM     53  C   UNL A   1      46.848  26.149  27.938  1.00  0.00     0.074 A 
ATOM     54  C   UNL A   1      47.160  24.787  27.557  1.00  0.00     0.031 C 
ATOM     55  C   UNL A   1      40.435  26.162  28.190  1.00  0.00     0.029 A 
ATOM     56  C   UNL A   1      41.342  27.270  28.473  1.00  0.00     0.049 A 
ATOM     57  H   UNL A   1      43.421  27.271  28.343  1.00  0.00     0.167 HD
ATOM     58  C   UNL A   1      47.773  27.115  28.149  1.00  0.00     0.037 A 
ATOM     59  C   UNL A   1      40.967  28.501  28.872  1.00  0.00     0.037 A 
ATOM     60  C   UNL A   1      47.467  28.474  28.516  1.00  0.00     0.049 A 
ATOM     61  C   UNL A   1      42.019  29.548  29.124  1.00  0.00     0.074 A 
ATOM     62  C   UNL A   1      48.339  29.529  28.726  1.00  0.00     0.029 A 
ATOM     63  N   UNL A   1      46.188  28.967  28.726  1.00  0.00    -0.354 N 
ATOM     64  N   UNL A   1      43.321  29.460  29.005  1.00  0.00    -0.248 NA
ATOM     65  C   UNL A   1      41.547  30.870  29.562  1.00  0.00     0.031 C 
ATOM     66  C   UNL A   1      47.591  30.652  29.094  1.00  0.00     0.029 A 
ATOM     67  C   UNL A   1      46.250  30.308  29.074  1.00  0.00     0.049 A 
ATOM     68  H   UNL A   1      45.360  28.442  28.641  1.00  0.00     0.167 HD
ATOM     69  C   UNL A   1      43.818  30.716  29.319  1.00  0.00     0.074 A 
ATOM     70  C   UNL A   1      42.679  31.555  29.622  1.00  0.00     0.031 C 
ATOM     71  C   UNL A   1      45.107  31.137  29.354  1.00  0.00     0.037 A 
BRANCH  58  72
ATOM     72  C   UNL A   1      49.215  26.740  27.971  1.00  0.00     0.064 A 
ATOM     73  C   UNL A   1      50.033  26.452  29.074  1.00  0.00     0.173 A 
ATOM     74  C   UNL A   1      49.773  26.625  26.690  1.00  0.00     0.173 A 
ATOM     75  F   UNL A   1      49.548  26.558  30.321  1.00  0.00    -0.203 F 
ATOM     76  C   UNL A   1      51.365  26.087  28.901  1.00  0.00     0.198 A 
ATOM     77  C   UNL A   1      51.098  26.232  26.520  1.00  0.00     0.198 A 
ATOM     78  F   UNL A   1      49.032  26.883  25.603  1.00  0.00    -0.203 F 
ATOM     79  F   UNL A   1      52.140  25.857  29.971  1.00  0.00    -0.200 F 
ATOM     80  C   UNL A   1      51.895  25.970  27.625  1.00  0.00     0.200 A 
ATOM     81  F   UNL A   1      51.606  26.108  25.285  1.00  0.00    -0.200 F 
ATOM     82  F   UNL A   1      53.175  25.610  27.460  1.00  0.00    -0.200 F 
ENDBRANCH  58  72
BRANCH  59  83
ATOM     83  C   UNL A   1      39.528  28.829  29.042  1.00  0.00     0.064 A 
ATOM     84  C   UNL A   1      38.767  29.301  27.962  1.00  0.00     0.173 A 
ATOM     85  C   UNL A   1      38.891  28.708  30.285  1.00  0.00     0.173 A 
ATOM     86  F   UNL A   1      39.339  29.455  26.759  1.00  0.00    -0.203 F 
ATOM     87  C   UNL A   1      37.434  29.666  28.126  1.00  0.00     0.198 A 
ATOM     88  C   UNL A   1      37.548  29.048  30.441  1.00  0.00     0.198 A 
ATOM     89  F   UNL A   1      39.573  28.261  31.349  1.00  0.00    -0.203 F 
ATOM     90  F   UNL A   1      36.746  30.167  27.090  1.00  0.00    -0.200 F 
ATOM     91  C   UNL A   1      36.824  29.536  29.365  1.00  0.00     0.200 A 
ATOM     92  F   UNL A   1      36.960  28.912  31.638  1.00  0.00    -0.200 F 
ATOM     93  F   UNL A   1      35.542  29.892  29.523  1.00  0.00    -0.200 F 
ENDBRANCH  59  83
BRANCH  71  94
ATOM     94  C   UNL A   1      45.351  32.579  29.688  1.00  0.00     0.064 A 
ATOM     95  C   UNL A   1      45.363  33.573  28.699  1.00  0.00     0.173 A 
ATOM     96  C   UNL A   1      45.543  32.975  31.021  1.00  0.00     0.173 A 
ATOM     97  F   UNL A   1      45.201  33.243  27.409  1.00  0.00    -0.203 F 
ATOM     98  C   UNL A   1      45.581  34.908  29.029  1.00  0.00     0.198 A 
ATOM     99  C   UNL A   1      45.734  34.313  31.350  1.00  0.00     0.198 A 
ATOM    100  F   UNL A   1      45.536  32.062  32.005  1.00  0.00    -0.203 F 
ATOM    101  F   UNL A   1      45.633  35.835  28.063  1.00  0.00    -0.200 F 
ATOM    102  C   UNL A   1      45.760  35.277  30.355  1.00  0.00     0.200 A 
ATOM    103  F   UNL A   1      45.896  34.670  32.632  1.00  0.00    -0.200 F 
ATOM    104  F   UNL A   1      45.965  36.564  30.671  1.00  0.00    -0.200 F 
ENDBRANCH  71  94
ENDBRANCH  45  46
ENDBRANCH  37  40
ENDBRANCH  35  36
ENDBRANCH  34  35
ENDBRANCH   1  34
TORSDOF 15
ENDMDL
MODEL 3
REMARK VINA RESULT:     -13.7      1.847      2.578
REMARK SMILES CCN1C(=O)C[C@@H](C(=O)Nc2cccc(C(=O)NCCCCNC(=O)c3ccc(-c4c5nc(c(-c6c(F)c(F)c(F)c(F)c6F)c6ccc([nH]6)c(-c6c(F)c(F)c(F)c(F)c6F)c6nc(c(-c7c(F)c(F)c(F)c(F)c7F)c7ccc4[nH]7)C=C6)C=C5)cc3)c2)S/C1=[NH+]/c1ccccc1
REMARK SMILES IDX 20 1 19 2 18 3 16 4 17 5 15 7 11 8 12 9 89 10 13 11 14 12
REMARK SMILES IDX 10 13 8 14 9 15 7 17 3 18 4 19 91 20 5 21 6 22 90 23 92 24
REMARK SMILES IDX 2 26 1 27 93 28 94 29 98 30 95 31 97 32 96 33 21 34 22 35
REMARK SMILES IDX 23 36 24 37 25 39 26 40 27 41 88 42 28 43 87 44 29 45 30 46
REMARK SMILES IDX 31 47 81 48 32 49 86 50 80 51 82 52 33 53 85 54 79 55 78 56
REMARK SMILES IDX 34 58 66 59 46 60 65 61 47 62 50 63 64 64 83 65 48 66 49 67
REMARK SMILES IDX 63 69 84 70 51 71 35 72 36 73 44 74 37 75 38 76 42 77 45 78
REMARK SMILES IDX 39 79 40 80 43 81 41 82 67 83 68 84 76 85 69 86 70 87 74 88
REMARK SMILES IDX 77 89 71 90 72 91 75 92 73 93 52 94 53 95 61 96 54 97 55 98
REMARK SMILES IDX 59 99 62 100 56 101 57 102 60 103 58 104
REMARK H PARENT 18 6 10 16 92 25 23 38 82 57 50 68
REMARK Flexibility Score: inf
ROOT
ATOM      1  C   UNL A   1      32.822  33.215  27.691  1.00  0.00     0.023 C 
ENDROOT
BRANCH   1   2
ATOM      2  C   UNL A   1      32.995  31.777  27.223  1.00  0.00     0.116 C 
BRANCH   2   3
ATOM      3  N   UNL A   1      34.237  31.119  27.598  1.00  0.00    -0.352 N 
ATOM      4  C   UNL A   1      34.596  29.790  27.483  1.00  0.00     0.251 C 
ATOM      5  O   UNL A   1      35.728  29.440  27.809  1.00  0.00    -0.269 OA
ATOM      6  H   UNL A   1      34.922  31.707  27.991  1.00  0.00     0.163 HD
BRANCH   4   7
ATOM      7  C   UNL A   1      33.630  28.757  27.014  1.00  0.00     0.041 A 
ATOM      8  C   UNL A   1      32.945  27.091  25.384  1.00  0.00     0.041 A 
ATOM      9  C   UNL A   1      31.676  27.065  25.969  1.00  0.00     0.026 A 
ATOM     10  C   UNL A   1      33.924  27.899  25.948  1.00  0.00     0.040 A 
ATOM     11  C   UNL A   1      31.409  27.813  27.121  1.00  0.00     0.003 A 
ATOM     12  C   UNL A   1      32.384  28.668  27.638  1.00  0.00     0.014 A 
BRANCH   8  13
ATOM     13  N   UNL A   1      33.127  26.412  24.167  1.00  0.00    -0.325 N 
ATOM     14  C   UNL A   1      33.512  25.141  23.837  1.00  0.00     0.238 C 
ATOM     15  O   UNL A   1      34.019  24.999  22.716  1.00  0.00    -0.273 OA
ATOM     16  H   UNL A   1      32.935  26.973  23.381  1.00  0.00     0.169 HD
BRANCH  14  17
ATOM     17  C   UNL A   1      33.228  23.903  24.703  1.00  0.00     0.160 C 
ATOM     18  N   UNL A   1      34.348  21.225  25.187  1.00  0.00    -0.191 N 
ATOM     19  C   UNL A   1      34.347  22.192  26.172  1.00  0.00     0.311 C 
ATOM     20  C   UNL A   1      33.322  21.108  24.269  1.00  0.00     0.319 C 
ATOM     21  O   UNL A   1      34.493  21.944  27.367  1.00  0.00    -0.247 OA
ATOM     22  C   UNL A   1      34.327  23.603  25.687  1.00  0.00     0.153 C 
ATOM     23  S   UNL A   1      32.507  22.568  23.737  1.00  0.00    -0.024 SA
ATOM     24  N   UNL A   1      32.878  20.040  23.688  1.00  0.00    -0.235 N 
ATOM     25  H   UNL A   1      32.338  20.149  22.872  1.00  0.00     0.313 HD
BRANCH  18  26
ATOM     26  C   UNL A   1      35.553  20.397  25.091  1.00  0.00     0.243 C 
ATOM     27  C   UNL A   1      36.813  21.098  24.614  1.00  0.00     0.054 C 
ENDBRANCH  18  26
BRANCH  24  28
ATOM     28  C   UNL A   1      33.117  18.740  24.148  1.00  0.00     0.125 A 
ATOM     29  C   UNL A   1      33.728  17.793  23.321  1.00  0.00     0.051 A 
ATOM     30  C   UNL A   1      32.586  18.319  25.371  1.00  0.00     0.051 A 
ATOM     31  C   UNL A   1      33.820  16.454  23.714  1.00  0.00     0.004 A 
ATOM     32  C   UNL A   1      32.691  16.986  25.777  1.00  0.00     0.004 A 
ATOM     33  C   UNL A   1      33.303  16.052  24.944  1.00  0.00     0.000 A 
ENDBRANCH  24  28
ENDBRANCH  14  17
ENDBRANCH   8  13
ENDBRANCH   4   7
ENDBRANCH   2   3
ENDBRANCH   1   2
BRANCH   1  34
ATOM     34  C   UNL A   1      33.723  33.686  28.827  1.00  0.00     0.023 C 
BRANCH  34  35
ATOM     35  C   UNL A   1      33.736  35.182  29.130  1.00  0.00     0.116 C 
BRANCH  35  36
ATOM     36  N   UNL A   1      32.762  35.626  30.111  1.00  0.00    -0.352 N 
ATOM     37  C   UNL A   1      32.828  35.604  31.491  1.00  0.00     0.251 C 
ATOM     38  H   UNL A   1      31.931  35.999  29.738  1.00  0.00     0.163 HD
ATOM     39  O   UNL A   1      31.904  36.024  32.164  1.00  0.00    -0.269 OA
BRANCH  37  40
ATOM     40  C   UNL A   1      34.001  34.992  32.160  1.00  0.00     0.039 A 
ATOM     41  C   UNL A   1      33.859  33.714  32.707  1.00  0.00     0.014 A 
ATOM     42  C   UNL A   1      35.236  35.641  32.216  1.00  0.00     0.014 A 
ATOM     43  C   UNL A   1      34.980  33.041  33.200  1.00  0.00     0.010 A 
ATOM     44  C   UNL A   1      36.367  34.943  32.639  1.00  0.00     0.010 A 
ATOM     45  C   UNL A   1      36.255  33.624  33.110  1.00  0.00    -0.014 A 
BRANCH  45  46
ATOM     46  C   UNL A   1      37.477  32.848  33.457  1.00  0.00     0.031 A 
ATOM     47  C   UNL A   1      38.223  33.121  34.732  1.00  0.00     0.074 A 
ATOM     48  C   UNL A   1      37.951  31.933  32.587  1.00  0.00     0.049 A 
ATOM     49  N   UNL A   1      39.339  32.589  35.168  1.00  0.00    -0.248 NA
ATOM     50  C   UNL A   1      37.652  34.136  35.628  1.00  0.00     0.031 C 
ATOM     51  C   UNL A   1      37.348  31.601  31.294  1.00  0.00     0.029 A 
ATOM     52  N   UNL A   1      39.055  31.118  32.654  1.00  0.00    -0.354 N 
ATOM     53  C   UNL A   1      39.602  33.206  36.383  1.00  0.00     0.074 A 
ATOM     54  C   UNL A   1      38.560  34.190  36.591  1.00  0.00     0.031 C 
ATOM     55  C   UNL A   1      38.073  30.637  30.704  1.00  0.00     0.029 A 
ATOM     56  C   UNL A   1      39.212  30.309  31.555  1.00  0.00     0.049 A 
ATOM     57  H   UNL A   1      39.676  31.114  33.419  1.00  0.00     0.167 HD
ATOM     58  C   UNL A   1      40.606  32.959  37.258  1.00  0.00     0.037 A 
ATOM     59  C   UNL A   1      40.170  29.408  31.261  1.00  0.00     0.037 A 
ATOM     60  C   UNL A   1      41.638  31.973  37.061  1.00  0.00     0.049 A 
ATOM     61  C   UNL A   1      41.288  29.171  32.241  1.00  0.00     0.074 A 
ATOM     62  C   UNL A   1      42.682  31.634  37.906  1.00  0.00     0.029 A 
ATOM     63  N   UNL A   1      41.755  31.165  35.941  1.00  0.00    -0.354 N 
ATOM     64  N   UNL A   1      41.496  29.725  33.410  1.00  0.00    -0.248 NA
ATOM     65  C   UNL A   1      42.304  28.180  31.860  1.00  0.00     0.031 C 
ATOM     66  C   UNL A   1      43.449  30.645  37.283  1.00  0.00     0.029 A 
ATOM     67  C   UNL A   1      42.860  30.337  36.068  1.00  0.00     0.049 A 
ATOM     68  H   UNL A   1      41.144  31.177  35.169  1.00  0.00     0.167 HD
ATOM     69  C   UNL A   1      42.640  29.128  33.917  1.00  0.00     0.074 A 
ATOM     70  C   UNL A   1      43.078  28.160  32.935  1.00  0.00     0.031 C 
ATOM     71  C   UNL A   1      43.274  29.363  35.092  1.00  0.00     0.037 A 
BRANCH  58  72
ATOM     72  C   UNL A   1      40.630  33.761  38.525  1.00  0.00     0.064 A 
ATOM     73  C   UNL A   1      39.887  33.370  39.649  1.00  0.00     0.173 A 
ATOM     74  C   UNL A   1      41.434  34.905  38.634  1.00  0.00     0.173 A 
ATOM     75  F   UNL A   1      39.095  32.289  39.591  1.00  0.00    -0.203 F 
ATOM     76  C   UNL A   1      39.929  34.110  40.827  1.00  0.00     0.198 A 
ATOM     77  C   UNL A   1      41.495  35.626  39.824  1.00  0.00     0.198 A 
ATOM     78  F   UNL A   1      42.170  35.318  37.591  1.00  0.00    -0.203 F 
ATOM     79  F   UNL A   1      39.177  33.741  41.875  1.00  0.00    -0.200 F 
ATOM     80  C   UNL A   1      40.737  35.232  40.917  1.00  0.00     0.200 A 
ATOM     81  F   UNL A   1      42.286  36.705  39.913  1.00  0.00    -0.200 F 
ATOM     82  F   UNL A   1      40.782  35.938  42.055  1.00  0.00    -0.200 F 
ENDBRANCH  58  72
BRANCH  59  83
ATOM     83  C   UNL A   1      40.111  28.638  29.991  1.00  0.00     0.064 A 
ATOM     84  C   UNL A   1      39.464  27.396  29.934  1.00  0.00     0.173 A 
ATOM     85  C   UNL A   1      40.723  29.109  28.821  1.00  0.00     0.173 A 
ATOM     86  F   UNL A   1      38.884  26.894  31.034  1.00  0.00    -0.203 F 
ATOM     87  C   UNL A   1      39.455  26.642  28.763  1.00  0.00     0.198 A 
ATOM     88  C   UNL A   1      40.690  28.366  27.642  1.00  0.00     0.198 A 
ATOM     89  F   UNL A   1      41.354  30.292  28.822  1.00  0.00    -0.203 F 
ATOM     90  F   UNL A   1      38.877  25.432  28.752  1.00  0.00    -0.200 F 
ATOM     91  C   UNL A   1      40.065  27.129  27.617  1.00  0.00     0.200 A 
ATOM     92  F   UNL A   1      41.272  28.845  26.534  1.00  0.00    -0.200 F 
ATOM     93  F   UNL A   1      40.061  26.400  26.492  1.00  0.00    -0.200 F 
ENDBRANCH  59  83
BRANCH  71  94
ATOM     94  C   UNL A   1      44.481  28.527  35.402  1.00  0.00     0.064 A 
ATOM     95  C   UNL A   1      44.376  27.304  36.079  1.00  0.00     0.173 A 
ATOM     96  C   UNL A   1      45.755  28.943  34.987  1.00  0.00     0.173 A 
ATOM     97  F   UNL A   1      43.182  26.872  36.511  1.00  0.00    -0.203 F 
ATOM     98  C   UNL A   1      45.506  26.537  36.350  1.00  0.00     0.198 A 
ATOM     99  C   UNL A   1      46.879  28.161  35.236  1.00  0.00     0.198 A 
ATOM    100  F   UNL A   1      45.909  30.104  34.333  1.00  0.00    -0.203 F 
ATOM    101  F   UNL A   1      45.388  25.393  37.037  1.00  0.00    -0.200 F 
ATOM    102  C   UNL A   1      46.756  26.963  35.922  1.00  0.00     0.200 A 
ATOM    103  F   UNL A   1      48.084  28.569  34.813  1.00  0.00    -0.200 F 
ATOM    104  F   UNL A   1      47.842  26.221  36.180  1.00  0.00    -0.200 F 
ENDBRANCH  71  94
ENDBRANCH  45  46
ENDBRANCH  37  40
ENDBRANCH  35  36
ENDBRANCH  34  35
ENDBRANCH   1  34
TORSDOF 15
ENDMDL
