MODEL 1
REMARK VINA RESULT:     -12.5      0.000      0.000
REMARK SMILES O=C(NCCCCNC(=O)[C@@H]1CC[C@@H](CN2C(=O)CC3(CCCC3)CC2=O)O1)c1ccc(-c2c3nc(c(-c4c(F)c(F)c(F)c(F)c4F)c4ccc([nH]4)c(-c4c(F)c(F)c(F)c(F)c4F)c4nc(c(-c5c(F)c(F)c(F)c(F)c5F)c5ccc2[nH]5)C=C4)C=C3)cc1
REMARK SMILES IDX 5 1 4 2 3 3 1 4 2 5 29 7 30 8 91 9 31 10 90 11 32 12 33 13
REMARK SMILES IDX 34 14 84 15 35 16 89 17 83 18 85 19 36 20 88 21 82 22 81 23
REMARK SMILES IDX 37 25 69 26 49 27 68 28 50 29 53 30 67 31 86 32 51 33 52 34
REMARK SMILES IDX 66 36 87 37 54 38 38 39 39 40 47 41 40 42 41 43 45 44 48 45
REMARK SMILES IDX 42 46 43 47 46 48 44 49 70 50 71 51 79 52 72 53 73 54 77 55
REMARK SMILES IDX 80 56 74 57 75 58 78 59 76 60 55 61 56 62 64 63 57 64 58 65
REMARK SMILES IDX 62 66 65 67 59 68 60 69 63 70 61 71 6 72 7 73 8 74 9 75
REMARK SMILES IDX 10 77 11 78 12 79 28 80 13 81 14 82 15 83 16 84 17 85 26 86
REMARK SMILES IDX 18 87 19 88 25 89 27 90 20 91 21 92 24 93 22 94 23 95
REMARK H PARENT 3 6 85 24 53 35 8 76
REMARK Flexibility Score: inf
ROOT
ATOM      1  C   UNL A   1      35.327  23.444  26.344  1.00  0.00     0.023 C 
ENDROOT
BRANCH   1   2
ATOM      2  C   UNL A   1      36.693  23.810  25.793  1.00  0.00     0.116 C 
BRANCH   2   3
ATOM      3  N   UNL A   1      37.655  22.723  25.886  1.00  0.00    -0.352 N 
ATOM      4  O   UNL A   1      39.685  21.804  26.261  1.00  0.00    -0.269 OA
ATOM      5  C   UNL A   1      38.952  22.772  26.347  1.00  0.00     0.251 C 
ATOM      6  H   UNL A   1      37.338  21.841  25.582  1.00  0.00     0.163 HD
BRANCH   5   7
ATOM      7  C   UNL A   1      39.444  24.043  26.920  1.00  0.00     0.039 A 
ATOM      8  C   UNL A   1      39.260  24.319  28.276  1.00  0.00     0.014 A 
ATOM      9  C   UNL A   1      40.059  24.973  26.079  1.00  0.00     0.014 A 
ATOM     10  C   UNL A   1      39.577  25.576  28.768  1.00  0.00     0.010 A 
ATOM     11  C   UNL A   1      40.456  26.207  26.596  1.00  0.00     0.010 A 
ATOM     12  C   UNL A   1      40.200  26.524  27.939  1.00  0.00    -0.014 A 
BRANCH  12  13
ATOM     13  C   UNL A   1      40.666  27.797  28.534  1.00  0.00     0.031 A 
ATOM     14  C   UNL A   1      42.107  28.016  28.886  1.00  0.00     0.074 A 
ATOM     15  C   UNL A   1      39.754  28.767  28.734  1.00  0.00     0.049 A 
ATOM     16  N   UNL A   1      42.671  29.075  29.412  1.00  0.00    -0.248 NA
ATOM     17  C   UNL A   1      43.039  26.910  28.621  1.00  0.00     0.031 C 
ATOM     18  C   UNL A   1      38.322  28.648  28.441  1.00  0.00     0.029 A 
ATOM     19  N   UNL A   1      39.887  30.043  29.214  1.00  0.00    -0.354 N 
ATOM     20  C   UNL A   1      44.013  28.757  29.561  1.00  0.00     0.074 A 
ATOM     21  C   UNL A   1      44.182  27.401  29.083  1.00  0.00     0.031 C 
ATOM     22  C   UNL A   1      37.718  29.814  28.708  1.00  0.00     0.029 A 
ATOM     23  C   UNL A   1      38.704  30.739  29.251  1.00  0.00     0.049 A 
ATOM     24  H   UNL A   1      40.747  30.425  29.504  1.00  0.00     0.167 HD
ATOM     25  C   UNL A   1      45.008  29.534  30.052  1.00  0.00     0.037 A 
ATOM     26  C   UNL A   1      38.437  31.979  29.696  1.00  0.00     0.037 A 
ATOM     27  C   UNL A   1      44.830  30.891  30.503  1.00  0.00     0.049 A 
ATOM     28  C   UNL A   1      39.562  32.808  30.242  1.00  0.00     0.074 A 
ATOM     29  C   UNL A   1      45.787  31.778  30.966  1.00  0.00     0.029 A 
ATOM     30  N   UNL A   1      43.613  31.556  30.547  1.00  0.00    -0.354 N 
ATOM     31  N   UNL A   1      40.834  32.509  30.342  1.00  0.00    -0.248 NA
ATOM     32  C   UNL A   1      39.215  34.144  30.742  1.00  0.00     0.031 C 
ATOM     33  C   UNL A   1      45.142  32.966  31.332  1.00  0.00     0.029 A 
ATOM     34  C   UNL A   1      43.791  32.834  31.055  1.00  0.00     0.049 A 
ATOM     35  H   UNL A   1      42.752  31.178  30.259  1.00  0.00     0.167 HD
ATOM     36  C   UNL A   1      41.441  33.619  30.909  1.00  0.00     0.074 A 
ATOM     37  C   UNL A   1      40.402  34.609  31.103  1.00  0.00     0.031 C 
ATOM     38  C   UNL A   1      42.741  33.800  31.245  1.00  0.00     0.037 A 
BRANCH  25  39
ATOM     39  C   UNL A   1      46.384  28.944  30.148  1.00  0.00     0.064 A 
ATOM     40  C   UNL A   1      46.812  28.256  31.292  1.00  0.00     0.173 A 
ATOM     41  C   UNL A   1      47.253  28.990  29.045  1.00  0.00     0.173 A 
ATOM     42  F   UNL A   1      46.024  28.192  32.376  1.00  0.00    -0.203 F 
ATOM     43  C   UNL A   1      48.063  27.643  31.333  1.00  0.00     0.198 A 
ATOM     44  C   UNL A   1      48.492  28.357  29.081  1.00  0.00     0.198 A 
ATOM     45  F   UNL A   1      46.887  29.631  27.925  1.00  0.00    -0.203 F 
ATOM     46  F   UNL A   1      48.461  27.009  32.444  1.00  0.00    -0.200 F 
ATOM     47  C   UNL A   1      48.897  27.685  30.224  1.00  0.00     0.200 A 
ATOM     48  F   UNL A   1      49.291  28.390  28.006  1.00  0.00    -0.200 F 
ATOM     49  F   UNL A   1      50.091  27.079  30.259  1.00  0.00    -0.200 F 
ENDBRANCH  25  39
BRANCH  26  50
ATOM     50  C   UNL A   1      37.045  32.493  29.660  1.00  0.00     0.064 A 
ATOM     51  C   UNL A   1      36.167  32.279  30.730  1.00  0.00     0.173 A 
ATOM     52  C   UNL A   1      36.569  33.219  28.557  1.00  0.00     0.173 A 
ATOM     53  F   UNL A   1      36.572  31.578  31.798  1.00  0.00    -0.203 F 
ATOM     54  C   UNL A   1      34.858  32.757  30.690  1.00  0.00     0.198 A 
ATOM     55  C   UNL A   1      35.271  33.722  28.532  1.00  0.00     0.198 A 
ATOM     56  F   UNL A   1      37.375  33.457  27.511  1.00  0.00    -0.203 F 
ATOM     57  F   UNL A   1      34.025  32.502  31.707  1.00  0.00    -0.200 F 
ATOM     58  C   UNL A   1      34.414  33.483  29.595  1.00  0.00     0.200 A 
ATOM     59  F   UNL A   1      34.853  34.439  27.481  1.00  0.00    -0.200 F 
ATOM     60  F   UNL A   1      33.158  33.947  29.561  1.00  0.00    -0.200 F 
ENDBRANCH  26  50
BRANCH  38  61
ATOM     61  C   UNL A   1      43.104  35.123  31.847  1.00  0.00     0.064 A 
ATOM     62  C   UNL A   1      42.977  35.360  33.223  1.00  0.00     0.173 A 
ATOM     63  C   UNL A   1      43.597  36.161  31.041  1.00  0.00     0.173 A 
ATOM     64  F   UNL A   1      42.490  34.404  34.029  1.00  0.00    -0.203 F 
ATOM     65  C   UNL A   1      43.306  36.596  33.769  1.00  0.00     0.198 A 
ATOM     66  C   UNL A   1      43.951  37.387  31.595  1.00  0.00     0.198 A 
ATOM     67  F   UNL A   1      43.739  35.981  29.720  1.00  0.00    -0.203 F 
ATOM     68  F   UNL A   1      43.130  36.816  35.078  1.00  0.00    -0.200 F 
ATOM     69  C   UNL A   1      43.798  37.606  32.956  1.00  0.00     0.200 A 
ATOM     70  F   UNL A   1      44.436  38.359  30.810  1.00  0.00    -0.200 F 
ATOM     71  F   UNL A   1      44.116  38.796  33.483  1.00  0.00    -0.200 F 
ENDBRANCH  38  61
ENDBRANCH  12  13
ENDBRANCH   5   7
ENDBRANCH   2   3
ENDBRANCH   1   2
BRANCH   1  72
ATOM     72  C   UNL A   1      35.103  21.946  26.531  1.00  0.00     0.023 C 
BRANCH  72  73
ATOM     73  C   UNL A   1      33.711  21.569  27.038  1.00  0.00     0.116 C 
BRANCH  73  74
ATOM     74  N   UNL A   1      33.259  20.319  26.462  1.00  0.00    -0.354 N 
ATOM     75  C   UNL A   1      32.496  20.117  25.342  1.00  0.00     0.249 C 
ATOM     76  H   UNL A   1      33.536  19.505  26.941  1.00  0.00     0.163 HD
ATOM     77  O   UNL A   1      32.155  18.963  25.081  1.00  0.00    -0.272 OA
BRANCH  75  78
ATOM     78  C   UNL A   1      32.136  21.326  24.458  1.00  0.00     0.207 C 
ATOM     79  C   UNL A   1      33.207  21.663  23.438  1.00  0.00     0.045 C 
ATOM     80  O   UNL A   1      31.913  22.531  25.194  1.00  0.00    -0.363 OA
ATOM     81  C   UNL A   1      32.945  23.114  23.134  1.00  0.00     0.037 C 
ATOM     82  C   UNL A   1      32.417  23.658  24.454  1.00  0.00     0.139 C 
BRANCH  82  83
ATOM     83  C   UNL A   1      31.318  24.741  24.324  1.00  0.00     0.160 C 
BRANCH  83  84
ATOM     84  N   UNL A   1      31.738  25.988  24.978  1.00  0.00    -0.280 N 
ATOM     85  C   UNL A   1      31.112  26.359  26.155  1.00  0.00     0.229 C 
ATOM     86  C   UNL A   1      32.671  26.776  24.320  1.00  0.00     0.229 C 
ATOM     87  O   UNL A   1      30.083  25.822  26.568  1.00  0.00    -0.274 OA
ATOM     88  C   UNL A   1      31.823  27.373  27.021  1.00  0.00     0.108 C 
ATOM     89  C   UNL A   1      33.541  27.614  25.221  1.00  0.00     0.108 C 
ATOM     90  O   UNL A   1      32.843  26.774  23.104  1.00  0.00    -0.274 OA
ATOM     91  C   UNL A   1      32.755  28.348  26.300  1.00  0.00    -0.012 C 
ATOM     92  C   UNL A   1      33.735  28.969  27.335  1.00  0.00     0.008 C 
ATOM     93  C   UNL A   1      31.986  29.553  25.712  1.00  0.00     0.008 C 
ATOM     94  C   UNL A   1      33.648  30.474  27.146  1.00  0.00     0.001 C 
ATOM     95  C   UNL A   1      32.214  30.688  26.703  1.00  0.00     0.001 C 
ENDBRANCH  83  84
ENDBRANCH  82  83
ENDBRANCH  75  78
ENDBRANCH  73  74
ENDBRANCH  72  73
ENDBRANCH   1  72
TORSDOF 13
ENDMDL
MODEL 2
REMARK VINA RESULT:     -12.5      3.916      8.952
REMARK SMILES O=C(NCCCCNC(=O)[C@@H]1CC[C@@H](CN2C(=O)CC3(CCCC3)CC2=O)O1)c1ccc(-c2c3nc(c(-c4c(F)c(F)c(F)c(F)c4F)c4ccc([nH]4)c(-c4c(F)c(F)c(F)c(F)c4F)c4nc(c(-c5c(F)c(F)c(F)c(F)c5F)c5ccc2[nH]5)C=C4)C=C3)cc1
REMARK SMILES IDX 5 1 4 2 3 3 1 4 2 5 29 7 30 8 91 9 31 10 90 11 32 12 33 13
REMARK SMILES IDX 34 14 84 15 35 16 89 17 83 18 85 19 36 20 88 21 82 22 81 23
REMARK SMILES IDX 37 25 69 26 49 27 68 28 50 29 53 30 67 31 86 32 51 33 52 34
REMARK SMILES IDX 66 36 87 37 54 38 38 39 39 40 47 41 40 42 41 43 45 44 48 45
REMARK SMILES IDX 42 46 43 47 46 48 44 49 70 50 71 51 79 52 72 53 73 54 77 55
REMARK SMILES IDX 80 56 74 57 75 58 78 59 76 60 55 61 56 62 64 63 57 64 58 65
REMARK SMILES IDX 62 66 65 67 59 68 60 69 63 70 61 71 6 72 7 73 8 74 9 75
REMARK SMILES IDX 10 77 11 78 12 79 28 80 13 81 14 82 15 83 16 84 17 85 26 86
REMARK SMILES IDX 18 87 19 88 25 89 27 90 20 91 21 92 24 93 22 94 23 95
REMARK H PARENT 3 6 85 24 53 35 8 76
REMARK Flexibility Score: inf
ROOT
ATOM      1  C   UNL A   1      31.393  32.081  26.805  1.00  0.00     0.023 C 
ENDROOT
BRANCH   1   2
ATOM      2  C   UNL A   1      32.669  32.864  27.057  1.00  0.00     0.116 C 
BRANCH   2   3
ATOM      3  N   UNL A   1      32.427  34.180  27.626  1.00  0.00    -0.352 N 
ATOM      4  O   UNL A   1      32.693  35.848  29.126  1.00  0.00    -0.269 OA
ATOM      5  C   UNL A   1      33.078  34.784  28.679  1.00  0.00     0.251 C 
ATOM      6  H   UNL A   1      31.707  34.705  27.205  1.00  0.00     0.163 HD
BRANCH   5   7
ATOM      7  C   UNL A   1      34.238  34.089  29.276  1.00  0.00     0.039 A 
ATOM      8  C   UNL A   1      34.043  33.088  30.230  1.00  0.00     0.014 A 
ATOM      9  C   UNL A   1      35.527  34.473  28.899  1.00  0.00     0.014 A 
ATOM     10  C   UNL A   1      35.135  32.559  30.900  1.00  0.00     0.010 A 
ATOM     11  C   UNL A   1      36.629  33.877  29.514  1.00  0.00     0.010 A 
ATOM     12  C   UNL A   1      36.439  32.930  30.532  1.00  0.00    -0.014 A 
BRANCH  12  13
ATOM     13  C   UNL A   1      37.584  32.233  31.160  1.00  0.00     0.031 A 
ATOM     14  C   UNL A   1      38.041  32.570  32.548  1.00  0.00     0.074 A 
ATOM     15  C   UNL A   1      38.196  31.265  30.451  1.00  0.00     0.049 A 
ATOM     16  N   UNL A   1      39.027  32.049  33.236  1.00  0.00    -0.248 NA
ATOM     17  C   UNL A   1      37.309  33.629  33.257  1.00  0.00     0.031 C 
ATOM     18  C   UNL A   1      37.838  30.872  29.085  1.00  0.00     0.029 A 
ATOM     19  N   UNL A   1      39.231  30.429  30.775  1.00  0.00    -0.354 N 
ATOM     20  C   UNL A   1      39.046  32.728  34.447  1.00  0.00     0.074 A 
ATOM     21  C   UNL A   1      37.983  33.710  34.398  1.00  0.00     0.031 C 
ATOM     22  C   UNL A   1      38.612  29.846  28.704  1.00  0.00     0.029 A 
ATOM     23  C   UNL A   1      39.560  29.553  29.770  1.00  0.00     0.049 A 
ATOM     24  H   UNL A   1      39.694  30.453  31.644  1.00  0.00     0.167 HD
ATOM     25  C   UNL A   1      39.878  32.540  35.499  1.00  0.00     0.037 A 
ATOM     26  C   UNL A   1      40.537  28.630  29.705  1.00  0.00     0.037 A 
ATOM     27  C   UNL A   1      40.917  31.542  35.543  1.00  0.00     0.049 A 
ATOM     28  C   UNL A   1      41.446  28.456  30.886  1.00  0.00     0.074 A 
ATOM     29  C   UNL A   1      41.777  31.238  36.584  1.00  0.00     0.029 A 
ATOM     30  N   UNL A   1      41.237  30.687  34.498  1.00  0.00    -0.354 N 
ATOM     31  N   UNL A   1      41.429  29.078  32.039  1.00  0.00    -0.248 NA
ATOM     32  C   UNL A   1      42.513  27.456  30.754  1.00  0.00     0.031 C 
ATOM     33  C   UNL A   1      42.647  30.229  36.155  1.00  0.00     0.029 A 
ATOM     34  C   UNL A   1      42.300  29.874  34.861  1.00  0.00     0.049 A 
ATOM     35  H   UNL A   1      40.778  30.661  33.628  1.00  0.00     0.167 HD
ATOM     36  C   UNL A   1      42.476  28.543  32.773  1.00  0.00     0.074 A 
ATOM     37  C   UNL A   1      43.088  27.524  31.946  1.00  0.00     0.031 C 
ATOM     38  C   UNL A   1      42.897  28.870  34.019  1.00  0.00     0.037 A 
BRANCH  25  39
ATOM     39  C   UNL A   1      39.722  33.435  36.692  1.00  0.00     0.064 A 
ATOM     40  C   UNL A   1      40.383  34.668  36.780  1.00  0.00     0.173 A 
ATOM     41  C   UNL A   1      38.829  33.094  37.721  1.00  0.00     0.173 A 
ATOM     42  F   UNL A   1      41.255  35.036  35.828  1.00  0.00    -0.203 F 
ATOM     43  C   UNL A   1      40.162  35.525  37.857  1.00  0.00     0.198 A 
ATOM     44  C   UNL A   1      38.593  33.962  38.784  1.00  0.00     0.198 A 
ATOM     45  F   UNL A   1      38.167  31.928  37.681  1.00  0.00    -0.203 F 
ATOM     46  F   UNL A   1      40.820  36.689  37.931  1.00  0.00    -0.200 F 
ATOM     47  C   UNL A   1      39.260  35.175  38.852  1.00  0.00     0.200 A 
ATOM     48  F   UNL A   1      37.714  33.627  39.738  1.00  0.00    -0.200 F 
ATOM     49  F   UNL A   1      39.035  36.008  39.877  1.00  0.00    -0.200 F 
ENDBRANCH  25  39
BRANCH  26  50
ATOM     50  C   UNL A   1      40.708  27.823  28.471  1.00  0.00     0.064 A 
ATOM     51  C   UNL A   1      40.054  26.595  28.315  1.00  0.00     0.173 A 
ATOM     52  C   UNL A   1      41.522  28.271  27.419  1.00  0.00     0.173 A 
ATOM     53  F   UNL A   1      39.278  26.118  29.299  1.00  0.00    -0.203 F 
ATOM     54  C   UNL A   1      40.222  25.835  27.158  1.00  0.00     0.198 A 
ATOM     55  C   UNL A   1      41.664  27.526  26.252  1.00  0.00     0.198 A 
ATOM     56  F   UNL A   1      42.163  29.445  27.519  1.00  0.00    -0.203 F 
ATOM     57  F   UNL A   1      39.619  24.644  27.050  1.00  0.00    -0.200 F 
ATOM     58  C   UNL A   1      41.021  26.304  26.125  1.00  0.00     0.200 A 
ATOM     59  F   UNL A   1      42.422  27.992  25.251  1.00  0.00    -0.200 F 
ATOM     60  F   UNL A   1      41.176  25.576  25.012  1.00  0.00    -0.200 F 
ENDBRANCH  26  50
BRANCH  38  61
ATOM     61  C   UNL A   1      44.068  28.107  34.557  1.00  0.00     0.064 A 
ATOM     62  C   UNL A   1      43.899  26.889  35.231  1.00  0.00     0.173 A 
ATOM     63  C   UNL A   1      45.374  28.591  34.384  1.00  0.00     0.173 A 
ATOM     64  F   UNL A   1      42.667  26.398  35.437  1.00  0.00    -0.203 F 
ATOM     65  C   UNL A   1      44.993  26.194  35.737  1.00  0.00     0.198 A 
ATOM     66  C   UNL A   1      46.467  27.880  34.868  1.00  0.00     0.198 A 
ATOM     67  F   UNL A   1      45.586  29.749  33.744  1.00  0.00    -0.203 F 
ATOM     68  F   UNL A   1      44.806  25.059  36.421  1.00  0.00    -0.200 F 
ATOM     69  C   UNL A   1      46.276  26.688  35.550  1.00  0.00     0.200 A 
ATOM     70  F   UNL A   1      47.707  28.352  34.678  1.00  0.00    -0.200 F 
ATOM     71  F   UNL A   1      47.330  26.017  36.036  1.00  0.00    -0.200 F 
ENDBRANCH  38  61
ENDBRANCH  12  13
ENDBRANCH   5   7
ENDBRANCH   2   3
ENDBRANCH   1   2
BRANCH   1  72
ATOM     72  C   UNL A   1      31.587  30.569  26.721  1.00  0.00     0.023 C 
BRANCH  72  73
ATOM     73  C   UNL A   1      32.095  30.067  25.369  1.00  0.00     0.116 C 
BRANCH  73  74
ATOM     74  N   UNL A   1      31.046  30.078  24.371  1.00  0.00    -0.354 N 
ATOM     75  C   UNL A   1      30.551  29.035  23.634  1.00  0.00     0.249 C 
ATOM     76  H   UNL A   1      30.632  30.955  24.199  1.00  0.00     0.163 HD
ATOM     77  O   UNL A   1      29.708  29.290  22.773  1.00  0.00    -0.272 OA
BRANCH  75  78
ATOM     78  C   UNL A   1      31.044  27.608  23.939  1.00  0.00     0.207 C 
ATOM     79  C   UNL A   1      30.753  26.621  22.825  1.00  0.00     0.045 C 
ATOM     80  O   UNL A   1      30.466  27.039  25.117  1.00  0.00    -0.363 OA
ATOM     81  C   UNL A   1      30.764  25.293  23.532  1.00  0.00     0.037 C 
ATOM     82  C   UNL A   1      30.238  25.631  24.920  1.00  0.00     0.139 C 
BRANCH  82  83
ATOM     83  C   UNL A   1      30.874  24.824  26.077  1.00  0.00     0.160 C 
BRANCH  83  84
ATOM     84  N   UNL A   1      32.180  24.282  25.676  1.00  0.00    -0.280 N 
ATOM     85  C   UNL A   1      32.279  22.929  25.408  1.00  0.00     0.229 C 
ATOM     86  C   UNL A   1      33.265  25.146  25.691  1.00  0.00     0.229 C 
ATOM     87  O   UNL A   1      31.394  22.119  25.692  1.00  0.00    -0.274 OA
ATOM     88  C   UNL A   1      33.473  22.473  24.602  1.00  0.00     0.108 C 
ATOM     89  C   UNL A   1      34.355  24.810  24.706  1.00  0.00     0.108 C 
ATOM     90  O   UNL A   1      33.342  26.149  26.396  1.00  0.00    -0.274 OA
ATOM     91  C   UNL A   1      34.733  23.334  24.710  1.00  0.00    -0.012 C 
ATOM     92  C   UNL A   1      35.660  23.025  23.500  1.00  0.00     0.008 C 
ATOM     93  C   UNL A   1      35.574  22.973  25.955  1.00  0.00     0.008 C 
ATOM     94  C   UNL A   1      37.028  22.720  24.087  1.00  0.00     0.001 C 
ATOM     95  C   UNL A   1      36.701  22.093  25.429  1.00  0.00     0.001 C 
ENDBRANCH  83  84
ENDBRANCH  82  83
ENDBRANCH  75  78
ENDBRANCH  73  74
ENDBRANCH  72  73
ENDBRANCH   1  72
TORSDOF 13
ENDMDL
MODEL 3
REMARK VINA RESULT:     -12.5      2.680      4.268
REMARK SMILES O=C(NCCCCNC(=O)[C@@H]1CC[C@@H](CN2C(=O)CC3(CCCC3)CC2=O)O1)c1ccc(-c2c3nc(c(-c4c(F)c(F)c(F)c(F)c4F)c4ccc([nH]4)c(-c4c(F)c(F)c(F)c(F)c4F)c4nc(c(-c5c(F)c(F)c(F)c(F)c5F)c5ccc2[nH]5)C=C4)C=C3)cc1
REMARK SMILES IDX 5 1 4 2 3 3 1 4 2 5 29 7 30 8 91 9 31 10 90 11 32 12 33 13
REMARK SMILES IDX 34 14 84 15 35 16 89 17 83 18 85 19 36 20 88 21 82 22 81 23
REMARK SMILES IDX 37 25 69 26 49 27 68 28 50 29 53 30 67 31 86 32 51 33 52 34
REMARK SMILES IDX 66 36 87 37 54 38 38 39 39 40 47 41 40 42 41 43 45 44 48 45
REMARK SMILES IDX 42 46 43 47 46 48 44 49 70 50 71 51 79 52 72 53 73 54 77 55
REMARK SMILES IDX 80 56 74 57 75 58 78 59 76 60 55 61 56 62 64 63 57 64 58 65
REMARK SMILES IDX 62 66 65 67 59 68 60 69 63 70 61 71 6 72 7 73 8 74 9 75
REMARK SMILES IDX 10 77 11 78 12 79 28 80 13 81 14 82 15 83 16 84 17 85 26 86
REMARK SMILES IDX 18 87 19 88 25 89 27 90 20 91 21 92 24 93 22 94 23 95
REMARK H PARENT 3 6 85 24 53 35 8 76
REMARK Flexibility Score: inf
ROOT
ATOM      1  C   UNL A   1      38.317  19.604  24.998  1.00  0.00     0.023 C 
ENDROOT
BRANCH   1   2
ATOM      2  C   UNL A   1      39.365  19.801  26.078  1.00  0.00     0.116 C 
BRANCH   2   3
ATOM      3  N   UNL A   1      40.507  18.912  25.933  1.00  0.00    -0.352 N 
ATOM      4  O   UNL A   1      42.701  18.399  25.769  1.00  0.00    -0.269 OA
ATOM      5  C   UNL A   1      41.845  19.224  26.028  1.00  0.00     0.251 C 
ATOM      6  H   UNL A   1      40.296  17.968  25.746  1.00  0.00     0.163 HD
BRANCH   5   7
ATOM      7  C   UNL A   1      42.217  20.601  26.419  1.00  0.00     0.039 A 
ATOM      8  C   UNL A   1      42.575  21.535  25.445  1.00  0.00     0.014 A 
ATOM      9  C   UNL A   1      42.239  20.939  27.774  1.00  0.00     0.014 A 
ATOM     10  C   UNL A   1      43.078  22.768  25.831  1.00  0.00     0.010 A 
ATOM     11  C   UNL A   1      42.664  22.212  28.156  1.00  0.00     0.010 A 
ATOM     12  C   UNL A   1      43.104  23.128  27.189  1.00  0.00    -0.014 A 
BRANCH  12  13
ATOM     13  C   UNL A   1      43.500  24.507  27.554  1.00  0.00     0.031 A 
ATOM     14  C   UNL A   1      44.939  24.930  27.572  1.00  0.00     0.074 A 
ATOM     15  C   UNL A   1      42.522  25.383  27.855  1.00  0.00     0.049 A 
ATOM     16  N   UNL A   1      45.445  26.101  27.869  1.00  0.00    -0.248 NA
ATOM     17  C   UNL A   1      45.941  23.915  27.217  1.00  0.00     0.031 C 
ATOM     18  C   UNL A   1      41.091  25.066  27.883  1.00  0.00     0.029 A 
ATOM     19  N   UNL A   1      42.573  26.712  28.179  1.00  0.00    -0.354 N 
ATOM     20  C   UNL A   1      46.822  25.958  27.759  1.00  0.00     0.074 A 
ATOM     21  C   UNL A   1      47.076  24.585  27.380  1.00  0.00     0.031 C 
ATOM     22  C   UNL A   1      40.398  26.177  28.166  1.00  0.00     0.029 A 
ATOM     23  C   UNL A   1      41.336  27.267  28.402  1.00  0.00     0.049 A 
ATOM     24  H   UNL A   1      43.413  27.221  28.244  1.00  0.00     0.167 HD
ATOM     25  C   UNL A   1      47.779  26.897  27.956  1.00  0.00     0.037 A 
ATOM     26  C   UNL A   1      40.997  28.512  28.781  1.00  0.00     0.037 A 
ATOM     27  C   UNL A   1      47.510  28.268  28.310  1.00  0.00     0.049 A 
ATOM     28  C   UNL A   1      42.083  29.523  28.998  1.00  0.00     0.074 A 
ATOM     29  C   UNL A   1      48.409  29.307  28.479  1.00  0.00     0.029 A 
ATOM     30  N   UNL A   1      46.247  28.789  28.550  1.00  0.00    -0.354 N 
ATOM     31  N   UNL A   1      43.378  29.385  28.854  1.00  0.00    -0.248 NA
ATOM     32  C   UNL A   1      41.663  30.859  29.439  1.00  0.00     0.031 C 
ATOM     33  C   UNL A   1      47.694  30.447  28.864  1.00  0.00     0.029 A 
ATOM     34  C   UNL A   1      46.345  30.129  28.893  1.00  0.00     0.049 A 
ATOM     35  H   UNL A   1      45.405  28.283  28.487  1.00  0.00     0.167 HD
ATOM     36  C   UNL A   1      43.928  30.616  29.177  1.00  0.00     0.074 A 
ATOM     37  C   UNL A   1      42.823  31.496  29.497  1.00  0.00     0.031 C 
ATOM     38  C   UNL A   1      45.232  30.984  29.213  1.00  0.00     0.037 A 
BRANCH  25  39
ATOM     39  C   UNL A   1      49.214  26.484  27.811  1.00  0.00     0.064 A 
ATOM     40  C   UNL A   1      49.827  26.380  26.554  1.00  0.00     0.173 A 
ATOM     41  C   UNL A   1      50.009  26.279  28.950  1.00  0.00     0.173 A 
ATOM     42  F   UNL A   1      49.108  26.557  25.436  1.00  0.00    -0.203 F 
ATOM     43  C   UNL A   1      51.182  26.077  26.442  1.00  0.00     0.198 A 
ATOM     44  C   UNL A   1      51.369  25.999  28.834  1.00  0.00     0.198 A 
ATOM     45  F   UNL A   1      49.472  26.374  30.175  1.00  0.00    -0.203 F 
ATOM     46  F   UNL A   1      51.743  25.961  25.231  1.00  0.00    -0.200 F 
ATOM     47  C   UNL A   1      51.953  25.897  27.581  1.00  0.00     0.200 A 
ATOM     48  F   UNL A   1      52.113  25.835  29.936  1.00  0.00    -0.200 F 
ATOM     49  F   UNL A   1      53.261  25.624  27.472  1.00  0.00    -0.200 F 
ENDBRANCH  25  39
BRANCH  26  50
ATOM     50  C   UNL A   1      39.568  28.854  28.993  1.00  0.00     0.064 A 
ATOM     51  C   UNL A   1      38.775  29.333  27.943  1.00  0.00     0.173 A 
ATOM     52  C   UNL A   1      38.965  28.699  30.251  1.00  0.00     0.173 A 
ATOM     53  F   UNL A   1      39.311  29.513  26.727  1.00  0.00    -0.203 F 
ATOM     54  C   UNL A   1      37.436  29.661  28.146  1.00  0.00     0.198 A 
ATOM     55  C   UNL A   1      37.619  28.997  30.445  1.00  0.00     0.198 A 
ATOM     56  F   UNL A   1      39.681  28.236  31.287  1.00  0.00    -0.203 F 
ATOM     57  F   UNL A   1      36.710  30.157  27.136  1.00  0.00    -0.200 F 
ATOM     58  C   UNL A   1      36.857  29.486  29.395  1.00  0.00     0.200 A 
ATOM     59  F   UNL A   1      37.060  28.809  31.648  1.00  0.00    -0.200 F 
ATOM     60  F   UNL A   1      35.568  29.795  29.587  1.00  0.00    -0.200 F 
ENDBRANCH  26  50
BRANCH  38  61
ATOM     61  C   UNL A   1      45.523  32.401  29.602  1.00  0.00     0.064 A 
ATOM     62  C   UNL A   1      45.761  32.757  30.937  1.00  0.00     0.173 A 
ATOM     63  C   UNL A   1      45.578  33.410  28.629  1.00  0.00     0.173 A 
ATOM     64  F   UNL A   1      45.698  31.829  31.904  1.00  0.00    -0.203 F 
ATOM     65  C   UNL A   1      46.019  34.079  31.289  1.00  0.00     0.198 A 
ATOM     66  C   UNL A   1      45.863  34.725  28.981  1.00  0.00     0.198 A 
ATOM     67  F   UNL A   1      45.361  33.117  27.339  1.00  0.00    -0.203 F 
ATOM     68  F   UNL A   1      46.194  34.405  32.575  1.00  0.00    -0.200 F 
ATOM     69  C   UNL A   1      46.075  35.060  30.310  1.00  0.00     0.200 A 
ATOM     70  F   UNL A   1      45.927  35.671  28.033  1.00  0.00    -0.200 F 
ATOM     71  F   UNL A   1      46.325  36.332  30.649  1.00  0.00    -0.200 F 
ENDBRANCH  38  61
ENDBRANCH  12  13
ENDBRANCH   5   7
ENDBRANCH   2   3
ENDBRANCH   1   2
BRANCH   1  72
ATOM     72  C   UNL A   1      37.579  20.878  24.596  1.00  0.00     0.023 C 
BRANCH  72  73
ATOM     73  C   UNL A   1      36.381  21.226  25.479  1.00  0.00     0.116 C 
BRANCH  73  74
ATOM     74  N   UNL A   1      35.315  20.257  25.332  1.00  0.00    -0.354 N 
ATOM     75  C   UNL A   1      33.961  20.456  25.381  1.00  0.00     0.249 C 
ATOM     76  H   UNL A   1      35.603  19.328  25.177  1.00  0.00     0.163 HD
ATOM     77  O   UNL A   1      33.233  19.466  25.315  1.00  0.00    -0.272 OA
BRANCH  75  78
ATOM     78  C   UNL A   1      33.424  21.897  25.482  1.00  0.00     0.207 C 
ATOM     79  C   UNL A   1      33.136  22.332  26.906  1.00  0.00     0.045 C 
ATOM     80  O   UNL A   1      32.207  22.108  24.762  1.00  0.00    -0.363 OA
ATOM     81  C   UNL A   1      32.133  23.440  26.729  1.00  0.00     0.037 C 
ATOM     82  C   UNL A   1      31.358  23.017  25.488  1.00  0.00     0.139 C 
BRANCH  82  83
ATOM     83  C   UNL A   1      30.910  24.176  24.567  1.00  0.00     0.160 C 
BRANCH  83  84
ATOM     84  N   UNL A   1      31.381  25.466  25.089  1.00  0.00    -0.280 N 
ATOM     85  C   UNL A   1      30.641  26.088  26.079  1.00  0.00     0.229 C 
ATOM     86  C   UNL A   1      32.491  26.038  24.484  1.00  0.00     0.229 C 
ATOM     87  O   UNL A   1      29.504  25.732  26.393  1.00  0.00    -0.274 OA
ATOM     88  C   UNL A   1      31.337  27.156  26.891  1.00  0.00     0.108 C 
ATOM     89  C   UNL A   1      33.317  26.923  25.381  1.00  0.00     0.108 C 
ATOM     90  O   UNL A   1      32.838  25.818  23.326  1.00  0.00    -0.274 OA
ATOM     91  C   UNL A   1      32.479  27.901  26.195  1.00  0.00    -0.012 C 
ATOM     92  C   UNL A   1      33.366  28.583  27.274  1.00  0.00     0.008 C 
ATOM     93  C   UNL A   1      31.959  29.062  25.317  1.00  0.00     0.008 C 
ATOM     94  C   UNL A   1      33.495  30.038  26.853  1.00  0.00     0.001 C 
ATOM     95  C   UNL A   1      32.179  30.317  26.152  1.00  0.00     0.001 C 
ENDBRANCH  83  84
ENDBRANCH  82  83
ENDBRANCH  75  78
ENDBRANCH  73  74
ENDBRANCH  72  73
ENDBRANCH   1  72
TORSDOF 13
ENDMDL
