MODEL 1
REMARK VINA RESULT:      -9.7      0.000      0.000
REMARK SMILES CC[C@@H](C)CN(C)C(=O)NC(=O)CCC(=O)NCCCCNC(=O)c1ccc(-c2c3nc(c(-c4c(F)c(F)c(F)c(F)c4F)c4ccc([nH]4)c(-c4c(F)c(F)c(F)c(F)c4F)c4nc(c(-c5c(F)c(F)c(F)c(F)c5F)c5ccc2[nH]5)C=C4)C=C3)cc1
REMARK SMILES IDX 15 1 16 2 17 3 14 5 13 6 11 7 8 8 9 9 10 10 12 12 6 13 7 14
REMARK SMILES IDX 5 15 3 16 4 17 2 18 1 19 18 20 19 21 20 22 21 23 22 24 23 25
REMARK SMILES IDX 24 27 25 28 26 29 87 30 27 31 86 32 28 33 29 34 30 35 80 36
REMARK SMILES IDX 31 37 85 38 79 39 81 40 32 41 84 42 78 43 77 44 33 46 65 47
REMARK SMILES IDX 45 48 64 49 46 50 49 51 63 52 82 53 47 54 48 55 62 57 83 58
REMARK SMILES IDX 50 59 34 60 35 61 43 62 36 63 37 64 41 65 44 66 38 67 39 68
REMARK SMILES IDX 42 69 40 70 66 71 67 72 75 73 68 74 69 75 73 76 76 77 70 78
REMARK SMILES IDX 71 79 74 80 72 81 51 82 52 83 60 84 53 85 54 86 58 87 61 88
REMARK SMILES IDX 55 89 56 90 59 91 57 92
REMARK H PARENT 17 4 10 11 22 26 81 45 49 56
REMARK Flexibility Score: inf
ROOT
ATOM      1  C   UNL A   1      33.405  36.576  31.929  1.00  0.00     0.220 C 
ATOM      2  O   UNL A   1      32.954  37.630  32.371  1.00  0.00    -0.275 OA
ATOM      3  N   UNL A   1      32.739  35.921  30.939  1.00  0.00    -0.356 N 
ATOM      4  H   UNL A   1      31.814  36.218  30.778  1.00  0.00     0.163 HD
ENDROOT
BRANCH   1   5
ATOM      5  C   UNL A   1      34.684  36.008  32.480  1.00  0.00     0.110 C 
BRANCH   5   6
ATOM      6  C   UNL A   1      34.503  34.930  33.534  1.00  0.00     0.110 C 
BRANCH   6   7
ATOM      7  C   UNL A   1      34.244  33.523  33.061  1.00  0.00     0.228 C 
ATOM      8  C   UNL A   1      36.444  32.347  32.757  1.00  0.00     0.323 C 
ATOM      9  O   UNL A   1      36.555  31.153  33.039  1.00  0.00    -0.248 OA
ATOM     10  N   UNL A   1      35.198  32.799  32.373  1.00  0.00    -0.278 N 
ATOM     11  H   UNL A   1      34.947  32.565  31.450  1.00  0.00     0.174 HD
ATOM     12  O   UNL A   1      33.125  33.026  33.222  1.00  0.00    -0.275 OA
BRANCH   8  13
ATOM     13  N   UNL A   1      37.531  33.184  32.650  1.00  0.00    -0.327 N 
ATOM     14  C   UNL A   1      37.826  33.977  31.468  1.00  0.00     0.148 C 
BRANCH  13  15
ATOM     15  C   UNL A   1      38.584  33.135  33.685  1.00  0.00     0.124 C 
BRANCH  15  16
ATOM     16  C   UNL A   1      38.371  32.138  34.853  1.00  0.00     0.005 C 
ATOM     17  C   UNL A   1      38.083  32.923  36.141  1.00  0.00     0.009 C 
BRANCH  16  18
ATOM     18  C   UNL A   1      39.599  31.223  35.043  1.00  0.00     0.002 C 
ATOM     19  C   UNL A   1      39.695  30.065  34.055  1.00  0.00     0.004 C 
ENDBRANCH  16  18
ENDBRANCH  15  16
ENDBRANCH  13  15
ENDBRANCH   8  13
ENDBRANCH   6   7
ENDBRANCH   5   6
ENDBRANCH   1   5
BRANCH   3  20
ATOM     20  C   UNL A   1      33.211  34.843  30.089  1.00  0.00     0.116 C 
BRANCH  20  21
ATOM     21  C   UNL A   1      34.045  35.310  28.898  1.00  0.00     0.023 C 
BRANCH  21  22
ATOM     22  C   UNL A   1      34.762  34.218  28.118  1.00  0.00     0.023 C 
BRANCH  22  23
ATOM     23  C   UNL A   1      35.002  32.949  28.909  1.00  0.00     0.116 C 
BRANCH  23  24
ATOM     24  N   UNL A   1      34.172  31.848  28.437  1.00  0.00    -0.352 N 
ATOM     25  C   UNL A   1      34.537  30.585  28.046  1.00  0.00     0.251 C 
ATOM     26  H   UNL A   1      33.207  32.039  28.393  1.00  0.00     0.163 HD
ATOM     27  O   UNL A   1      33.746  29.866  27.450  1.00  0.00    -0.269 OA
BRANCH  25  28
ATOM     28  C   UNL A   1      35.899  30.108  28.346  1.00  0.00     0.039 A 
ATOM     29  C   UNL A   1      36.884  30.178  27.359  1.00  0.00     0.014 A 
ATOM     30  C   UNL A   1      36.201  29.602  29.612  1.00  0.00     0.014 A 
ATOM     31  C   UNL A   1      38.188  29.791  27.665  1.00  0.00     0.010 A 
ATOM     32  C   UNL A   1      37.518  29.335  29.950  1.00  0.00     0.010 A 
ATOM     33  C   UNL A   1      38.520  29.398  28.973  1.00  0.00    -0.014 A 
BRANCH  33  34
ATOM     34  C   UNL A   1      39.900  29.005  29.342  1.00  0.00     0.031 A 
ATOM     35  C   UNL A   1      40.738  29.935  30.177  1.00  0.00     0.074 A 
ATOM     36  C   UNL A   1      40.420  27.859  28.861  1.00  0.00     0.049 A 
ATOM     37  N   UNL A   1      41.993  29.829  30.531  1.00  0.00    -0.248 NA
ATOM     38  C   UNL A   1      40.090  31.174  30.639  1.00  0.00     0.031 C 
ATOM     39  C   UNL A   1      39.723  26.913  27.988  1.00  0.00     0.029 A 
ATOM     40  N   UNL A   1      41.661  27.302  29.032  1.00  0.00    -0.354 N 
ATOM     41  C   UNL A   1      42.286  30.995  31.227  1.00  0.00     0.074 A 
ATOM     42  C   UNL A   1      41.104  31.825  31.185  1.00  0.00     0.031 C 
ATOM     43  C   UNL A   1      40.536  25.877  27.727  1.00  0.00     0.029 A 
ATOM     44  C   UNL A   1      41.821  26.107  28.377  1.00  0.00     0.049 A 
ATOM     45  H   UNL A   1      42.370  27.719  29.574  1.00  0.00     0.167 HD
ATOM     46  C   UNL A   1      43.428  31.327  31.872  1.00  0.00     0.037 A 
ATOM     47  C   UNL A   1      42.890  25.292  28.307  1.00  0.00     0.037 A 
ATOM     48  C   UNL A   1      44.583  30.473  31.942  1.00  0.00     0.049 A 
ATOM     49  C   UNL A   1      44.143  25.673  29.049  1.00  0.00     0.074 A 
ATOM     50  C   UNL A   1      45.765  30.674  32.631  1.00  0.00     0.029 A 
ATOM     51  N   UNL A   1      44.697  29.251  31.294  1.00  0.00    -0.354 N 
ATOM     52  N   UNL A   1      44.384  26.740  29.773  1.00  0.00    -0.248 NA
ATOM     53  C   UNL A   1      45.268  24.732  28.974  1.00  0.00     0.031 C 
ATOM     54  C   UNL A   1      46.614  29.597  32.359  1.00  0.00     0.029 A 
ATOM     55  C   UNL A   1      45.940  28.696  31.549  1.00  0.00     0.049 A 
ATOM     56  H   UNL A   1      43.998  28.839  30.737  1.00  0.00     0.167 HD
ATOM     57  C   UNL A   1      45.675  26.588  30.261  1.00  0.00     0.074 A 
ATOM     58  C   UNL A   1      46.158  25.315  29.764  1.00  0.00     0.031 C 
ATOM     59  C   UNL A   1      46.397  27.425  31.047  1.00  0.00     0.037 A 
BRANCH  46  60
ATOM     60  C   UNL A   1      43.477  32.666  32.554  1.00  0.00     0.064 A 
ATOM     61  C   UNL A   1      43.203  32.810  33.923  1.00  0.00     0.173 A 
ATOM     62  C   UNL A   1      43.818  33.819  31.831  1.00  0.00     0.173 A 
ATOM     63  F   UNL A   1      42.858  31.742  34.659  1.00  0.00    -0.203 F 
ATOM     64  C   UNL A   1      43.227  34.062  34.533  1.00  0.00     0.198 A 
ATOM     65  C   UNL A   1      43.878  35.064  32.453  1.00  0.00     0.198 A 
ATOM     66  F   UNL A   1      44.094  33.741  30.520  1.00  0.00    -0.203 F 
ATOM     67  F   UNL A   1      42.899  34.181  35.826  1.00  0.00    -0.200 F 
ATOM     68  C   UNL A   1      43.572  35.186  33.799  1.00  0.00     0.200 A 
ATOM     69  F   UNL A   1      44.225  36.148  31.745  1.00  0.00    -0.200 F 
ATOM     70  F   UNL A   1      43.601  36.389  34.389  1.00  0.00    -0.200 F 
ENDBRANCH  46  60
BRANCH  47  71
ATOM     71  C   UNL A   1      42.808  24.024  27.535  1.00  0.00     0.064 A 
ATOM     72  C   UNL A   1      43.152  23.985  26.177  1.00  0.00     0.173 A 
ATOM     73  C   UNL A   1      42.395  22.827  28.138  1.00  0.00     0.173 A 
ATOM     74  F   UNL A   1      43.538  25.107  25.551  1.00  0.00    -0.203 F 
ATOM     75  C   UNL A   1      43.067  22.802  25.445  1.00  0.00     0.198 A 
ATOM     76  C   UNL A   1      42.339  21.638  27.412  1.00  0.00     0.198 A 
ATOM     77  F   UNL A   1      42.061  22.809  29.437  1.00  0.00    -0.203 F 
ATOM     78  F   UNL A   1      43.358  22.803  24.138  1.00  0.00    -0.200 F 
ATOM     79  C   UNL A   1      42.666  21.629  26.065  1.00  0.00     0.200 A 
ATOM     80  F   UNL A   1      41.966  20.503  28.019  1.00  0.00    -0.200 F 
ATOM     81  F   UNL A   1      42.589  20.489  25.363  1.00  0.00    -0.200 F 
ENDBRANCH  47  71
BRANCH  59  82
ATOM     82  C   UNL A   1      47.772  26.975  31.448  1.00  0.00     0.064 A 
ATOM     83  C   UNL A   1      48.913  27.362  30.730  1.00  0.00     0.173 A 
ATOM     84  C   UNL A   1      47.951  26.182  32.592  1.00  0.00     0.173 A 
ATOM     85  F   UNL A   1      48.793  28.109  29.622  1.00  0.00    -0.203 F 
ATOM     86  C   UNL A   1      50.181  26.948  31.128  1.00  0.00     0.198 A 
ATOM     87  C   UNL A   1      49.223  25.799  33.005  1.00  0.00     0.198 A 
ATOM     88  F   UNL A   1      46.892  25.792  33.318  1.00  0.00    -0.203 F 
ATOM     89  F   UNL A   1      51.253  27.287  30.399  1.00  0.00    -0.200 F 
ATOM     90  C   UNL A   1      50.336  26.175  32.270  1.00  0.00     0.200 A 
ATOM     91  F   UNL A   1      49.372  25.066  34.118  1.00  0.00    -0.200 F 
ATOM     92  F   UNL A   1      51.558  25.785  32.656  1.00  0.00    -0.200 F 
ENDBRANCH  59  82
ENDBRANCH  33  34
ENDBRANCH  25  28
ENDBRANCH  23  24
ENDBRANCH  22  23
ENDBRANCH  21  22
ENDBRANCH  20  21
ENDBRANCH   3  20
TORSDOF 17
ENDMDL
MODEL 2
REMARK VINA RESULT:      -9.6      5.647     11.171
REMARK SMILES CC[C@@H](C)CN(C)C(=O)NC(=O)CCC(=O)NCCCCNC(=O)c1ccc(-c2c3nc(c(-c4c(F)c(F)c(F)c(F)c4F)c4ccc([nH]4)c(-c4c(F)c(F)c(F)c(F)c4F)c4nc(c(-c5c(F)c(F)c(F)c(F)c5F)c5ccc2[nH]5)C=C4)C=C3)cc1
REMARK SMILES IDX 15 1 16 2 17 3 14 5 13 6 11 7 8 8 9 9 10 10 12 12 6 13 7 14
REMARK SMILES IDX 5 15 3 16 4 17 2 18 1 19 18 20 19 21 20 22 21 23 22 24 23 25
REMARK SMILES IDX 24 27 25 28 26 29 87 30 27 31 86 32 28 33 29 34 30 35 80 36
REMARK SMILES IDX 31 37 85 38 79 39 81 40 32 41 84 42 78 43 77 44 33 46 65 47
REMARK SMILES IDX 45 48 64 49 46 50 49 51 63 52 82 53 47 54 48 55 62 57 83 58
REMARK SMILES IDX 50 59 34 60 35 61 43 62 36 63 37 64 41 65 44 66 38 67 39 68
REMARK SMILES IDX 42 69 40 70 66 71 67 72 75 73 68 74 69 75 73 76 76 77 70 78
REMARK SMILES IDX 71 79 74 80 72 81 51 82 52 83 60 84 53 85 54 86 58 87 61 88
REMARK SMILES IDX 55 89 56 90 59 91 57 92
REMARK H PARENT 17 4 10 11 22 26 81 45 49 56
REMARK Flexibility Score: inf
ROOT
ATOM      1  C   UNL A   1      39.073  23.588  26.967  1.00  0.00     0.220 C 
ATOM      2  O   UNL A   1      38.704  24.557  27.627  1.00  0.00    -0.275 OA
ATOM      3  N   UNL A   1      40.096  22.814  27.422  1.00  0.00    -0.356 N 
ATOM      4  H   UNL A   1      40.631  23.199  28.153  1.00  0.00     0.163 HD
ENDROOT
BRANCH   1   5
ATOM      5  C   UNL A   1      38.402  23.259  25.662  1.00  0.00     0.110 C 
BRANCH   5   6
ATOM      6  C   UNL A   1      36.966  22.784  25.783  1.00  0.00     0.110 C 
BRANCH   6   7
ATOM      7  C   UNL A   1      36.660  21.366  25.372  1.00  0.00     0.228 C 
ATOM      8  C   UNL A   1      34.174  21.012  25.453  1.00  0.00     0.323 C 
ATOM      9  O   UNL A   1      33.619  20.304  24.611  1.00  0.00    -0.248 OA
ATOM     10  N   UNL A   1      35.492  20.734  25.751  1.00  0.00    -0.278 N 
ATOM     11  H   UNL A   1      35.622  19.950  26.333  1.00  0.00     0.174 HD
ATOM     12  O   UNL A   1      37.506  20.722  24.743  1.00  0.00    -0.275 OA
BRANCH   8  13
ATOM     13  N   UNL A   1      33.488  21.933  26.211  1.00  0.00    -0.327 N 
ATOM     14  C   UNL A   1      33.540  21.984  27.662  1.00  0.00     0.148 C 
BRANCH  13  15
ATOM     15  C   UNL A   1      32.474  22.789  25.561  1.00  0.00     0.124 C 
BRANCH  15  16
ATOM     16  C   UNL A   1      32.997  23.889  24.603  1.00  0.00     0.005 C 
ATOM     17  C   UNL A   1      33.939  24.826  25.376  1.00  0.00     0.009 C 
BRANCH  16  18
ATOM     18  C   UNL A   1      31.836  24.689  23.977  1.00  0.00     0.002 C 
ATOM     19  C   UNL A   1      30.659  23.845  23.501  1.00  0.00     0.004 C 
ENDBRANCH  16  18
ENDBRANCH  15  16
ENDBRANCH  13  15
ENDBRANCH   8  13
ENDBRANCH   6   7
ENDBRANCH   5   6
ENDBRANCH   1   5
BRANCH   3  20
ATOM     20  C   UNL A   1      40.504  21.496  26.971  1.00  0.00     0.116 C 
BRANCH  20  21
ATOM     21  C   UNL A   1      41.634  20.880  27.794  1.00  0.00     0.023 C 
BRANCH  21  22
ATOM     22  C   UNL A   1      42.264  19.620  27.219  1.00  0.00     0.023 C 
BRANCH  22  23
ATOM     23  C   UNL A   1      42.096  19.470  25.722  1.00  0.00     0.116 C 
BRANCH  23  24
ATOM     24  N   UNL A   1      43.274  18.882  25.097  1.00  0.00    -0.352 N 
ATOM     25  C   UNL A   1      44.399  19.494  24.607  1.00  0.00     0.251 C 
ATOM     26  H   UNL A   1      43.260  17.901  25.016  1.00  0.00     0.163 HD
ATOM     27  O   UNL A   1      45.184  18.877  23.898  1.00  0.00    -0.269 OA
BRANCH  25  28
ATOM     28  C   UNL A   1      44.648  20.909  24.939  1.00  0.00     0.039 A 
ATOM     29  C   UNL A   1      44.206  21.905  24.066  1.00  0.00     0.014 A 
ATOM     30  C   UNL A   1      45.308  21.245  26.122  1.00  0.00     0.014 A 
ATOM     31  C   UNL A   1      44.381  23.245  24.414  1.00  0.00     0.010 A 
ATOM     32  C   UNL A   1      45.369  22.570  26.522  1.00  0.00     0.010 A 
ATOM     33  C   UNL A   1      44.934  23.585  25.661  1.00  0.00    -0.014 A 
BRANCH  33  34
ATOM     34  C   UNL A   1      45.110  24.996  26.075  1.00  0.00     0.031 A 
ATOM     35  C   UNL A   1      46.470  25.633  25.978  1.00  0.00     0.074 A 
ATOM     36  C   UNL A   1      44.075  25.672  26.609  1.00  0.00     0.049 A 
ATOM     37  N   UNL A   1      46.863  26.817  26.372  1.00  0.00    -0.248 NA
ATOM     38  C   UNL A   1      47.546  24.809  25.399  1.00  0.00     0.031 C 
ATOM     39  C   UNL A   1      42.729  25.134  26.815  1.00  0.00     0.029 A 
ATOM     40  N   UNL A   1      43.997  26.954  27.087  1.00  0.00    -0.354 N 
ATOM     41  C   UNL A   1      48.227  26.864  26.115  1.00  0.00     0.074 A 
ATOM     42  C   UNL A   1      48.610  25.570  25.600  1.00  0.00     0.031 C 
ATOM     43  C   UNL A   1      41.951  26.090  27.346  1.00  0.00     0.029 A 
ATOM     44  C   UNL A   1      42.753  27.291  27.558  1.00  0.00     0.049 A 
ATOM     45  H   UNL A   1      44.761  27.576  27.091  1.00  0.00     0.167 HD
ATOM     46  C   UNL A   1      49.077  27.907  26.265  1.00  0.00     0.037 A 
ATOM     47  C   UNL A   1      42.313  28.439  28.104  1.00  0.00     0.037 A 
ATOM     48  C   UNL A   1      48.675  29.203  26.739  1.00  0.00     0.049 A 
ATOM     49  C   UNL A   1      43.272  29.591  28.242  1.00  0.00     0.074 A 
ATOM     50  C   UNL A   1      49.434  30.353  26.858  1.00  0.00     0.029 A 
ATOM     51  N   UNL A   1      47.395  29.518  27.175  1.00  0.00    -0.354 N 
ATOM     52  N   UNL A   1      44.543  29.654  27.921  1.00  0.00    -0.248 NA
ATOM     53  C   UNL A   1      42.735  30.836  28.807  1.00  0.00     0.031 C 
ATOM     54  C   UNL A   1      48.627  31.350  27.414  1.00  0.00     0.029 A 
ATOM     55  C   UNL A   1      47.349  30.840  27.585  1.00  0.00     0.049 A 
ATOM     56  H   UNL A   1      46.633  28.896  27.189  1.00  0.00     0.167 HD
ATOM     57  C   UNL A   1      44.950  30.947  28.220  1.00  0.00     0.074 A 
ATOM     58  C   UNL A   1      43.784  31.641  28.730  1.00  0.00     0.031 C 
ATOM     59  C   UNL A   1      46.176  31.511  28.086  1.00  0.00     0.037 A 
BRANCH  46  60
ATOM     60  C   UNL A   1      50.521  27.683  25.908  1.00  0.00     0.064 A 
ATOM     61  C   UNL A   1      50.986  27.818  24.589  1.00  0.00     0.173 A 
ATOM     62  C   UNL A   1      51.454  27.345  26.899  1.00  0.00     0.173 A 
ATOM     63  F   UNL A   1      50.134  28.127  23.600  1.00  0.00    -0.203 F 
ATOM     64  C   UNL A   1      52.321  27.582  24.272  1.00  0.00     0.198 A 
ATOM     65  C   UNL A   1      52.796  27.146  26.583  1.00  0.00     0.198 A 
ATOM     66  F   UNL A   1      51.066  27.206  28.176  1.00  0.00    -0.203 F 
ATOM     67  F   UNL A   1      52.727  27.654  22.997  1.00  0.00    -0.200 F 
ATOM     68  C   UNL A   1      53.226  27.254  25.269  1.00  0.00     0.200 A 
ATOM     69  F   UNL A   1      53.672  26.843  27.550  1.00  0.00    -0.200 F 
ATOM     70  F   UNL A   1      54.511  27.033  24.963  1.00  0.00    -0.200 F 
ENDBRANCH  46  60
BRANCH  47  71
ATOM     71  C   UNL A   1      40.893  28.565  28.526  1.00  0.00     0.064 A 
ATOM     72  C   UNL A   1      39.911  28.999  27.626  1.00  0.00     0.173 A 
ATOM     73  C   UNL A   1      40.487  28.247  29.831  1.00  0.00     0.173 A 
ATOM     74  F   UNL A   1      40.252  29.332  26.372  1.00  0.00    -0.203 F 
ATOM     75  C   UNL A   1      38.580  29.130  28.018  1.00  0.00     0.198 A 
ATOM     76  C   UNL A   1      39.150  28.349  30.213  1.00  0.00     0.198 A 
ATOM     77  F   UNL A   1      41.387  27.820  30.729  1.00  0.00    -0.203 F 
ATOM     78  F   UNL A   1      37.670  29.590  27.150  1.00  0.00    -0.200 F 
ATOM     79  C   UNL A   1      38.200  28.799  29.310  1.00  0.00     0.200 A 
ATOM     80  F   UNL A   1      38.786  28.013  31.458  1.00  0.00    -0.200 F 
ATOM     81  F   UNL A   1      36.919  28.919  29.686  1.00  0.00    -0.200 F 
ENDBRANCH  47  71
BRANCH  59  82
ATOM     82  C   UNL A   1      46.311  32.957  28.463  1.00  0.00     0.064 A 
ATOM     83  C   UNL A   1      46.072  33.986  27.540  1.00  0.00     0.173 A 
ATOM     84  C   UNL A   1      46.643  33.317  29.779  1.00  0.00     0.173 A 
ATOM     85  F   UNL A   1      45.765  33.694  26.268  1.00  0.00    -0.203 F 
ATOM     86  C   UNL A   1      46.186  35.321  27.915  1.00  0.00     0.198 A 
ATOM     87  C   UNL A   1      46.723  34.653  30.157  1.00  0.00     0.198 A 
ATOM     88  F   UNL A   1      46.873  32.370  30.701  1.00  0.00    -0.203 F 
ATOM     89  F   UNL A   1      46.003  36.288  27.004  1.00  0.00    -0.200 F 
ATOM     90  C   UNL A   1      46.503  35.654  29.224  1.00  0.00     0.200 A 
ATOM     91  F   UNL A   1      47.012  34.972  31.427  1.00  0.00    -0.200 F 
ATOM     92  F   UNL A   1      46.603  36.941  29.584  1.00  0.00    -0.200 F 
ENDBRANCH  59  82
ENDBRANCH  33  34
ENDBRANCH  25  28
ENDBRANCH  23  24
ENDBRANCH  22  23
ENDBRANCH  21  22
ENDBRANCH  20  21
ENDBRANCH   3  20
TORSDOF 17
ENDMDL
MODEL 3
REMARK VINA RESULT:      -9.6      5.143      9.929
REMARK SMILES CC[C@@H](C)CN(C)C(=O)NC(=O)CCC(=O)NCCCCNC(=O)c1ccc(-c2c3nc(c(-c4c(F)c(F)c(F)c(F)c4F)c4ccc([nH]4)c(-c4c(F)c(F)c(F)c(F)c4F)c4nc(c(-c5c(F)c(F)c(F)c(F)c5F)c5ccc2[nH]5)C=C4)C=C3)cc1
REMARK SMILES IDX 15 1 16 2 17 3 14 5 13 6 11 7 8 8 9 9 10 10 12 12 6 13 7 14
REMARK SMILES IDX 5 15 3 16 4 17 2 18 1 19 18 20 19 21 20 22 21 23 22 24 23 25
REMARK SMILES IDX 24 27 25 28 26 29 87 30 27 31 86 32 28 33 29 34 30 35 80 36
REMARK SMILES IDX 31 37 85 38 79 39 81 40 32 41 84 42 78 43 77 44 33 46 65 47
REMARK SMILES IDX 45 48 64 49 46 50 49 51 63 52 82 53 47 54 48 55 62 57 83 58
REMARK SMILES IDX 50 59 34 60 35 61 43 62 36 63 37 64 41 65 44 66 38 67 39 68
REMARK SMILES IDX 42 69 40 70 66 71 67 72 75 73 68 74 69 75 73 76 76 77 70 78
REMARK SMILES IDX 71 79 74 80 72 81 51 82 52 83 60 84 53 85 54 86 58 87 61 88
REMARK SMILES IDX 55 89 56 90 59 91 57 92
REMARK H PARENT 17 4 10 11 22 26 81 45 49 56
REMARK Flexibility Score: inf
ROOT
ATOM      1  C   UNL A   1      35.339  22.742  23.614  1.00  0.00     0.220 C 
ATOM      2  O   UNL A   1      35.140  23.642  22.801  1.00  0.00    -0.275 OA
ATOM      3  N   UNL A   1      36.615  22.381  23.920  1.00  0.00    -0.356 N 
ATOM      4  H   UNL A   1      37.312  22.715  23.310  1.00  0.00     0.163 HD
ENDROOT
BRANCH   1   5
ATOM      5  C   UNL A   1      34.180  22.039  24.267  1.00  0.00     0.110 C 
BRANCH   5   6
ATOM      6  C   UNL A   1      32.868  22.800  24.230  1.00  0.00     0.110 C 
BRANCH   6   7
ATOM      7  C   UNL A   1      31.948  22.670  25.417  1.00  0.00     0.228 C 
ATOM      8  C   UNL A   1      31.168  24.958  26.100  1.00  0.00     0.323 C 
ATOM      9  O   UNL A   1      30.018  25.128  26.506  1.00  0.00    -0.248 OA
ATOM     10  N   UNL A   1      31.737  23.717  26.293  1.00  0.00    -0.278 N 
ATOM     11  H   UNL A   1      32.045  23.548  27.213  1.00  0.00     0.174 HD
ATOM     12  O   UNL A   1      31.426  21.578  25.661  1.00  0.00    -0.275 OA
BRANCH   8  13
ATOM     13  N   UNL A   1      31.944  25.993  25.628  1.00  0.00    -0.327 N 
ATOM     14  C   UNL A   1      32.936  26.689  26.430  1.00  0.00     0.148 C 
BRANCH  13  15
ATOM     15  C   UNL A   1      31.628  26.590  24.314  1.00  0.00     0.124 C 
BRANCH  15  16
ATOM     16  C   UNL A   1      30.655  27.797  24.309  1.00  0.00     0.005 C 
ATOM     17  C   UNL A   1      29.411  27.439  23.483  1.00  0.00     0.009 C 
BRANCH  16  18
ATOM     18  C   UNL A   1      31.333  29.062  23.743  1.00  0.00     0.002 C 
ATOM     19  C   UNL A   1      32.838  28.944  23.530  1.00  0.00     0.004 C 
ENDBRANCH  16  18
ENDBRANCH  15  16
ENDBRANCH  13  15
ENDBRANCH   8  13
ENDBRANCH   6   7
ENDBRANCH   5   6
ENDBRANCH   1   5
BRANCH   3  20
ATOM     20  C   UNL A   1      37.086  21.567  25.027  1.00  0.00     0.116 C 
BRANCH  20  21
ATOM     21  C   UNL A   1      36.868  20.068  24.833  1.00  0.00     0.023 C 
BRANCH  21  22
ATOM     22  C   UNL A   1      38.099  19.190  24.996  1.00  0.00     0.023 C 
BRANCH  22  23
ATOM     23  C   UNL A   1      39.232  19.846  25.758  1.00  0.00     0.116 C 
BRANCH  23  24
ATOM     24  N   UNL A   1      40.371  18.951  25.918  1.00  0.00    -0.352 N 
ATOM     25  C   UNL A   1      41.699  19.250  26.082  1.00  0.00     0.251 C 
ATOM     26  H   UNL A   1      40.155  17.991  25.907  1.00  0.00     0.163 HD
ATOM     27  O   UNL A   1      42.552  18.381  25.959  1.00  0.00    -0.269 OA
BRANCH  25  28
ATOM     28  C   UNL A   1      42.088  20.636  26.401  1.00  0.00     0.039 A 
ATOM     29  C   UNL A   1      42.293  21.002  27.733  1.00  0.00     0.014 A 
ATOM     30  C   UNL A   1      42.260  21.569  25.376  1.00  0.00     0.014 A 
ATOM     31  C   UNL A   1      42.727  22.294  28.028  1.00  0.00     0.010 A 
ATOM     32  C   UNL A   1      42.808  22.809  25.660  1.00  0.00     0.010 A 
ATOM     33  C   UNL A   1      43.019  23.196  26.990  1.00  0.00    -0.014 A 
BRANCH  33  34
ATOM     34  C   UNL A   1      43.507  24.568  27.264  1.00  0.00     0.031 A 
ATOM     35  C   UNL A   1      42.558  25.594  27.822  1.00  0.00     0.074 A 
ATOM     36  C   UNL A   1      44.769  24.907  26.940  1.00  0.00     0.049 A 
ATOM     37  N   UNL A   1      42.751  26.868  28.045  1.00  0.00    -0.248 NA
ATOM     38  C   UNL A   1      41.192  25.135  28.127  1.00  0.00     0.031 C 
ATOM     39  C   UNL A   1      45.756  24.013  26.332  1.00  0.00     0.029 A 
ATOM     40  N   UNL A   1      45.432  26.099  27.065  1.00  0.00    -0.354 N 
ATOM     41  C   UNL A   1      41.530  27.361  28.487  1.00  0.00     0.074 A 
ATOM     42  C   UNL A   1      40.584  26.270  28.431  1.00  0.00     0.031 C 
ATOM     43  C   UNL A   1      46.910  24.680  26.168  1.00  0.00     0.029 A 
ATOM     44  C   UNL A   1      46.730  26.056  26.619  1.00  0.00     0.049 A 
ATOM     45  H   UNL A   1      45.019  26.911  27.442  1.00  0.00     0.167 HD
ATOM     46  C   UNL A   1      41.233  28.605  28.930  1.00  0.00     0.037 A 
ATOM     47  C   UNL A   1      47.665  27.023  26.574  1.00  0.00     0.037 A 
ATOM     48  C   UNL A   1      42.194  29.671  29.019  1.00  0.00     0.049 A 
ATOM     49  C   UNL A   1      47.318  28.393  27.092  1.00  0.00     0.074 A 
ATOM     50  C   UNL A   1      42.023  30.947  29.524  1.00  0.00     0.029 A 
ATOM     51  N   UNL A   1      43.511  29.580  28.589  1.00  0.00    -0.354 N 
ATOM     52  N   UNL A   1      46.182  28.830  27.583  1.00  0.00    -0.248 NA
ATOM     53  C   UNL A   1      48.384  29.403  27.058  1.00  0.00     0.031 C 
ATOM     54  C   UNL A   1      43.223  31.645  29.353  1.00  0.00     0.029 A 
ATOM     55  C   UNL A   1      44.159  30.786  28.796  1.00  0.00     0.049 A 
ATOM     56  H   UNL A   1      43.923  28.778  28.197  1.00  0.00     0.167 HD
ATOM     57  C   UNL A   1      46.403  30.152  27.941  1.00  0.00     0.074 A 
ATOM     58  C   UNL A   1      47.788  30.441  27.627  1.00  0.00     0.031 C 
ATOM     59  C   UNL A   1      45.540  31.048  28.480  1.00  0.00     0.037 A 
BRANCH  46  60
ATOM     60  C   UNL A   1      39.815  28.872  29.353  1.00  0.00     0.064 A 
ATOM     61  C   UNL A   1      39.385  28.662  30.673  1.00  0.00     0.173 A 
ATOM     62  C   UNL A   1      38.878  29.360  28.430  1.00  0.00     0.173 A 
ATOM     63  F   UNL A   1      40.236  28.184  31.593  1.00  0.00    -0.203 F 
ATOM     64  C   UNL A   1      38.062  28.890  31.042  1.00  0.00     0.198 A 
ATOM     65  C   UNL A   1      37.565  29.622  28.812  1.00  0.00     0.198 A 
ATOM     66  F   UNL A   1      39.234  29.583  27.156  1.00  0.00    -0.203 F 
ATOM     67  F   UNL A   1      37.661  28.620  32.291  1.00  0.00    -0.200 F 
ATOM     68  C   UNL A   1      37.155  29.377  30.113  1.00  0.00     0.200 A 
ATOM     69  F   UNL A   1      36.692  30.106  27.917  1.00  0.00    -0.200 F 
ATOM     70  F   UNL A   1      35.884  29.601  30.471  1.00  0.00    -0.200 F 
ENDBRANCH  46  60
BRANCH  47  71
ATOM     71  C   UNL A   1      49.024  26.718  26.054  1.00  0.00     0.064 A 
ATOM     72  C   UNL A   1      49.372  27.020  24.730  1.00  0.00     0.173 A 
ATOM     73  C   UNL A   1      50.003  26.130  26.867  1.00  0.00     0.173 A 
ATOM     74  F   UNL A   1      48.465  27.568  23.908  1.00  0.00    -0.203 F 
ATOM     75  C   UNL A   1      50.640  26.726  24.233  1.00  0.00     0.198 A 
ATOM     76  C   UNL A   1      51.281  25.864  26.377  1.00  0.00     0.198 A 
ATOM     77  F   UNL A   1      49.724  25.827  28.143  1.00  0.00    -0.203 F 
ATOM     78  F   UNL A   1      50.931  26.984  22.950  1.00  0.00    -0.200 F 
ATOM     79  C   UNL A   1      51.595  26.155  25.059  1.00  0.00     0.200 A 
ATOM     80  F   UNL A   1      52.206  25.326  27.183  1.00  0.00    -0.200 F 
ATOM     81  F   UNL A   1      52.817  25.877  24.582  1.00  0.00    -0.200 F 
ENDBRANCH  47  71
BRANCH  59  82
ATOM     82  C   UNL A   1      46.077  32.414  28.797  1.00  0.00     0.064 A 
ATOM     83  C   UNL A   1      46.677  32.703  30.031  1.00  0.00     0.173 A 
ATOM     84  C   UNL A   1      46.028  33.434  27.834  1.00  0.00     0.173 A 
ATOM     85  F   UNL A   1      46.736  31.765  30.989  1.00  0.00    -0.203 F 
ATOM     86  C   UNL A   1      47.184  33.970  30.299  1.00  0.00     0.198 A 
ATOM     87  C   UNL A   1      46.568  34.690  28.094  1.00  0.00     0.198 A 
ATOM     88  F   UNL A   1      45.472  33.207  26.634  1.00  0.00    -0.203 F 
ATOM     89  F   UNL A   1      47.708  34.239  31.503  1.00  0.00    -0.200 F 
ATOM     90  C   UNL A   1      47.137  34.960  29.328  1.00  0.00     0.200 A 
ATOM     91  F   UNL A   1      46.536  35.640  27.148  1.00  0.00    -0.200 F 
ATOM     92  F   UNL A   1      47.635  36.177  29.585  1.00  0.00    -0.200 F 
ENDBRANCH  59  82
ENDBRANCH  33  34
ENDBRANCH  25  28
ENDBRANCH  23  24
ENDBRANCH  22  23
ENDBRANCH  21  22
ENDBRANCH  20  21
ENDBRANCH   3  20
TORSDOF 17
ENDMDL
