MODEL 1
REMARK VINA RESULT:     -12.2      0.000      0.000
REMARK SMILES C[C@H](NC(=O)NC1C(C)(C)C1(C)C)C(=O)NCCCCNC(=O)c1ccc(-c2c3nc(c(-c4c(F)c(F)c(F)c(F)c4F)c4ccc([nH]4)c(-c4c(F)c(F)c(F)c(F)c4F)c4nc(c(-c5c(F)c(F)c(F)c(F)c5F)c5ccc2[nH]5)C=C4)C=C3)cc1
REMARK SMILES IDX 18 1 17 2 16 3 14 4 15 5 2 7 1 8 3 9 4 10 5 12 6 13 7 15
REMARK SMILES IDX 8 16 11 17 9 18 10 19 12 20 13 21 19 22 20 23 21 24 22 25
REMARK SMILES IDX 23 27 24 28 25 29 86 30 26 31 85 32 27 33 28 34 29 35 79 36
REMARK SMILES IDX 30 37 84 38 78 39 80 40 31 41 83 42 77 43 76 44 32 46 64 47
REMARK SMILES IDX 44 48 63 49 45 50 48 51 62 52 81 53 46 54 47 55 61 57 82 58
REMARK SMILES IDX 49 59 33 60 34 61 42 62 35 63 36 64 40 65 43 66 37 67 38 68
REMARK SMILES IDX 41 69 39 70 65 71 66 72 74 73 67 74 68 75 72 76 75 77 69 78
REMARK SMILES IDX 70 79 73 80 71 81 50 82 51 83 59 84 52 85 53 86 57 87 60 88
REMARK SMILES IDX 54 89 55 90 58 91 56 92
REMARK H PARENT 16 6 3 11 6 14 21 26 80 45 48 56
REMARK Flexibility Score: inf
ROOT
ATOM      1  C   UNL A   1      31.980  27.546  26.372  1.00  0.00     0.023 C 
ENDROOT
BRANCH   1   2
ATOM      2  C   UNL A   1      31.044  26.918  25.353  1.00  0.00     0.116 C 
BRANCH   2   3
ATOM      3  N   UNL A   1      30.709  27.856  24.297  1.00  0.00    -0.354 N 
ATOM      4  C   UNL A   1      31.338  28.088  23.111  1.00  0.00     0.242 C 
ATOM      5  O   UNL A   1      30.778  28.824  22.295  1.00  0.00    -0.273 OA
ATOM      6  H   UNL A   1      29.908  28.406  24.463  1.00  0.00     0.163 HD
BRANCH   4   7
ATOM      7  C   UNL A   1      32.644  27.362  22.770  1.00  0.00     0.170 C 
ATOM      8  C   UNL A   1      33.829  28.301  23.043  1.00  0.00     0.041 C 
BRANCH   7   9
ATOM      9  N   UNL A   1      32.630  26.831  21.405  1.00  0.00    -0.327 N 
ATOM     10  C   UNL A   1      32.769  25.587  20.906  1.00  0.00     0.315 C 
ATOM     11  H   UNL A   1      32.491  27.519  20.715  1.00  0.00     0.166 HD
ATOM     12  O   UNL A   1      32.801  25.455  19.681  1.00  0.00    -0.249 OA
ATOM     13  N   UNL A   1      32.876  24.489  21.693  1.00  0.00    -0.334 N 
ATOM     14  H   UNL A   1      33.105  23.656  21.223  1.00  0.00     0.165 HD
BRANCH  13  15
ATOM     15  C   UNL A   1      32.706  24.364  23.098  1.00  0.00     0.096 C 
ATOM     16  C   UNL A   1      32.250  23.052  23.707  1.00  0.00    -0.007 C 
ATOM     17  C   UNL A   1      33.612  23.668  24.078  1.00  0.00    -0.007 C 
ATOM     18  C   UNL A   1      31.073  23.124  24.656  1.00  0.00     0.014 C 
ATOM     19  C   UNL A   1      32.223  21.792  22.868  1.00  0.00     0.014 C 
ATOM     20  C   UNL A   1      34.905  23.062  23.599  1.00  0.00     0.014 C 
ATOM     21  C   UNL A   1      33.764  24.354  25.427  1.00  0.00     0.014 C 
ENDBRANCH  13  15
ENDBRANCH   7   9
ENDBRANCH   4   7
ENDBRANCH   2   3
ENDBRANCH   1   2
BRANCH   1  22
ATOM     22  C   UNL A   1      31.751  29.043  26.582  1.00  0.00     0.023 C 
BRANCH  22  23
ATOM     23  C   UNL A   1      32.906  29.931  26.135  1.00  0.00     0.116 C 
BRANCH  23  24
ATOM     24  N   UNL A   1      32.706  31.327  26.491  1.00  0.00    -0.352 N 
ATOM     25  C   UNL A   1      33.437  32.110  27.354  1.00  0.00     0.251 C 
ATOM     26  H   UNL A   1      31.944  31.773  26.055  1.00  0.00     0.163 HD
ATOM     27  O   UNL A   1      33.042  33.217  27.682  1.00  0.00    -0.269 OA
BRANCH  25  28
ATOM     28  C   UNL A   1      34.697  31.572  27.905  1.00  0.00     0.039 A 
ATOM     29  C   UNL A   1      35.756  32.447  28.145  1.00  0.00     0.014 A 
ATOM     30  C   UNL A   1      34.804  30.217  28.227  1.00  0.00     0.014 A 
ATOM     31  C   UNL A   1      36.906  31.972  28.776  1.00  0.00     0.010 A 
ATOM     32  C   UNL A   1      35.914  29.765  28.931  1.00  0.00     0.010 A 
ATOM     33  C   UNL A   1      36.977  30.638  29.210  1.00  0.00    -0.014 A 
BRANCH  33  34
ATOM     34  C   UNL A   1      38.157  30.135  29.956  1.00  0.00     0.031 A 
ATOM     35  C   UNL A   1      38.417  30.610  31.358  1.00  0.00     0.074 A 
ATOM     36  C   UNL A   1      39.025  29.302  29.350  1.00  0.00     0.049 A 
ATOM     37  N   UNL A   1      39.423  30.340  32.151  1.00  0.00    -0.248 NA
ATOM     38  C   UNL A   1      37.431  31.538  31.936  1.00  0.00     0.031 C 
ATOM     39  C   UNL A   1      38.908  28.809  27.977  1.00  0.00     0.029 A 
ATOM     40  N   UNL A   1      40.185  28.728  29.810  1.00  0.00    -0.354 N 
ATOM     41  C   UNL A   1      39.196  31.071  33.309  1.00  0.00     0.074 A 
ATOM     42  C   UNL A   1      37.993  31.843  33.096  1.00  0.00     0.031 C 
ATOM     43  C   UNL A   1      39.937  27.989  27.714  1.00  0.00     0.029 A 
ATOM     44  C   UNL A   1      40.809  27.929  28.883  1.00  0.00     0.049 A 
ATOM     45  H   UNL A   1      40.535  28.875  30.719  1.00  0.00     0.167 HD
ATOM     46  C   UNL A   1      39.912  31.075  34.459  1.00  0.00     0.037 A 
ATOM     47  C   UNL A   1      41.960  27.235  28.966  1.00  0.00     0.037 A 
ATOM     48  C   UNL A   1      41.097  30.289  34.674  1.00  0.00     0.049 A 
ATOM     49  C   UNL A   1      42.745  27.269  30.250  1.00  0.00     0.074 A 
ATOM     50  C   UNL A   1      41.862  30.177  35.822  1.00  0.00     0.029 A 
ATOM     51  N   UNL A   1      41.693  29.480  33.717  1.00  0.00    -0.354 N 
ATOM     52  N   UNL A   1      42.480  27.904  31.366  1.00  0.00    -0.248 NA
ATOM     53  C   UNL A   1      43.986  26.483  30.288  1.00  0.00     0.031 C 
ATOM     54  C   UNL A   1      42.950  29.346  35.542  1.00  0.00     0.029 A 
ATOM     55  C   UNL A   1      42.831  28.888  34.240  1.00  0.00     0.049 A 
ATOM     56  H   UNL A   1      41.357  29.347  32.801  1.00  0.00     0.167 HD
ATOM     57  C   UNL A   1      43.500  27.570  32.247  1.00  0.00     0.074 A 
ATOM     58  C   UNL A   1      44.381  26.663  31.541  1.00  0.00     0.031 C 
ATOM     59  C   UNL A   1      43.692  27.978  33.526  1.00  0.00     0.037 A 
BRANCH  46  60
ATOM     60  C   UNL A   1      39.430  31.959  35.574  1.00  0.00     0.064 A 
ATOM     61  C   UNL A   1      38.523  31.499  36.541  1.00  0.00     0.173 A 
ATOM     62  C   UNL A   1      39.909  33.272  35.699  1.00  0.00     0.173 A 
ATOM     63  F   UNL A   1      38.025  30.256  36.461  1.00  0.00    -0.203 F 
ATOM     64  C   UNL A   1      38.090  32.329  37.571  1.00  0.00     0.198 A 
ATOM     65  C   UNL A   1      39.501  34.088  36.751  1.00  0.00     0.198 A 
ATOM     66  F   UNL A   1      40.782  33.762  34.806  1.00  0.00    -0.203 F 
ATOM     67  F   UNL A   1      37.181  31.883  38.451  1.00  0.00    -0.200 F 
ATOM     68  C   UNL A   1      38.585  33.619  37.681  1.00  0.00     0.200 A 
ATOM     69  F   UNL A   1      39.991  35.330  36.863  1.00  0.00    -0.200 F 
ATOM     70  F   UNL A   1      38.173  34.414  38.678  1.00  0.00    -0.200 F 
ENDBRANCH  46  60
BRANCH  47  71
ATOM     71  C   UNL A   1      42.432  26.433  27.807  1.00  0.00     0.064 A 
ATOM     72  C   UNL A   1      43.347  26.964  26.887  1.00  0.00     0.173 A 
ATOM     73  C   UNL A   1      41.974  25.125  27.586  1.00  0.00     0.173 A 
ATOM     74  F   UNL A   1      43.802  28.217  27.042  1.00  0.00    -0.203 F 
ATOM     75  C   UNL A   1      43.763  26.231  25.777  1.00  0.00     0.198 A 
ATOM     76  C   UNL A   1      42.415  24.382  26.494  1.00  0.00     0.198 A 
ATOM     77  F   UNL A   1      41.103  24.566  28.439  1.00  0.00    -0.203 F 
ATOM     78  F   UNL A   1      44.597  26.785  24.885  1.00  0.00    -0.200 F 
ATOM     79  C   UNL A   1      43.301  24.938  25.584  1.00  0.00     0.200 A 
ATOM     80  F   UNL A   1      41.978  23.126  26.320  1.00  0.00    -0.200 F 
ATOM     81  F   UNL A   1      43.703  24.232  24.519  1.00  0.00    -0.200 F 
ENDBRANCH  47  71
BRANCH  59  82
ATOM     82  C   UNL A   1      44.875  27.416  34.260  1.00  0.00     0.064 A 
ATOM     83  C   UNL A   1      46.128  28.047  34.237  1.00  0.00     0.173 A 
ATOM     84  C   UNL A   1      44.741  26.250  35.030  1.00  0.00     0.173 A 
ATOM     85  F   UNL A   1      46.312  29.156  33.505  1.00  0.00    -0.203 F 
ATOM     86  C   UNL A   1      47.209  27.516  34.936  1.00  0.00     0.198 A 
ATOM     87  C   UNL A   1      45.815  25.741  35.754  1.00  0.00     0.198 A 
ATOM     88  F   UNL A   1      43.563  25.612  35.093  1.00  0.00    -0.203 F 
ATOM     89  F   UNL A   1      48.410  28.107  34.857  1.00  0.00    -0.200 F 
ATOM     90  C   UNL A   1      47.050  26.369  35.700  1.00  0.00     0.200 A 
ATOM     91  F   UNL A   1      45.655  24.644  36.506  1.00  0.00    -0.200 F 
ATOM     92  F   UNL A   1      48.090  25.865  36.378  1.00  0.00    -0.200 F 
ENDBRANCH  59  82
ENDBRANCH  33  34
ENDBRANCH  25  28
ENDBRANCH  23  24
ENDBRANCH  22  23
ENDBRANCH   1  22
TORSDOF 13
ENDMDL
MODEL 2
REMARK VINA RESULT:     -12.1      1.779      7.834
REMARK SMILES C[C@H](NC(=O)NC1C(C)(C)C1(C)C)C(=O)NCCCCNC(=O)c1ccc(-c2c3nc(c(-c4c(F)c(F)c(F)c(F)c4F)c4ccc([nH]4)c(-c4c(F)c(F)c(F)c(F)c4F)c4nc(c(-c5c(F)c(F)c(F)c(F)c5F)c5ccc2[nH]5)C=C4)C=C3)cc1
REMARK SMILES IDX 18 1 17 2 16 3 14 4 15 5 2 7 1 8 3 9 4 10 5 12 6 13 7 15
REMARK SMILES IDX 8 16 11 17 9 18 10 19 12 20 13 21 19 22 20 23 21 24 22 25
REMARK SMILES IDX 23 27 24 28 25 29 86 30 26 31 85 32 27 33 28 34 29 35 79 36
REMARK SMILES IDX 30 37 84 38 78 39 80 40 31 41 83 42 77 43 76 44 32 46 64 47
REMARK SMILES IDX 44 48 63 49 45 50 48 51 62 52 81 53 46 54 47 55 61 57 82 58
REMARK SMILES IDX 49 59 33 60 34 61 42 62 35 63 36 64 40 65 43 66 37 67 38 68
REMARK SMILES IDX 41 69 39 70 65 71 66 72 74 73 67 74 68 75 72 76 75 77 69 78
REMARK SMILES IDX 70 79 73 80 71 81 50 82 51 83 59 84 52 85 53 86 57 87 60 88
REMARK SMILES IDX 54 89 55 90 58 91 56 92
REMARK H PARENT 16 6 3 11 6 14 21 26 80 45 48 56
REMARK Flexibility Score: inf
ROOT
ATOM      1  C   UNL A   1      31.646  30.422  26.558  1.00  0.00     0.023 C 
ENDROOT
BRANCH   1   2
ATOM      2  C   UNL A   1      32.412  29.784  25.411  1.00  0.00     0.116 C 
BRANCH   2   3
ATOM      3  N   UNL A   1      31.587  29.677  24.222  1.00  0.00    -0.354 N 
ATOM      4  C   UNL A   1      31.757  28.899  23.115  1.00  0.00     0.242 C 
ATOM      5  O   UNL A   1      30.838  28.855  22.294  1.00  0.00    -0.273 OA
ATOM      6  H   UNL A   1      30.787  30.251  24.212  1.00  0.00     0.163 HD
BRANCH   4   7
ATOM      7  C   UNL A   1      33.007  28.025  22.966  1.00  0.00     0.170 C 
ATOM      8  C   UNL A   1      34.258  28.903  23.120  1.00  0.00     0.041 C 
BRANCH   7   9
ATOM      9  N   UNL A   1      32.989  27.260  21.717  1.00  0.00    -0.327 N 
ATOM     10  C   UNL A   1      32.896  25.942  21.453  1.00  0.00     0.315 C 
ATOM     11  H   UNL A   1      33.058  27.819  20.910  1.00  0.00     0.166 HD
ATOM     12  O   UNL A   1      32.997  25.577  20.280  1.00  0.00    -0.249 OA
ATOM     13  N   UNL A   1      32.701  25.012  22.420  1.00  0.00    -0.334 N 
ATOM     14  H   UNL A   1      32.782  24.077  22.126  1.00  0.00     0.165 HD
BRANCH  13  15
ATOM     15  C   UNL A   1      32.395  25.190  23.796  1.00  0.00     0.096 C 
ATOM     16  C   UNL A   1      32.219  23.992  24.709  1.00  0.00    -0.007 C 
ATOM     17  C   UNL A   1      33.321  25.036  24.974  1.00  0.00    -0.007 C 
ATOM     18  C   UNL A   1      30.955  23.961  25.541  1.00  0.00     0.014 C 
ATOM     19  C   UNL A   1      32.621  22.611  24.238  1.00  0.00     0.014 C 
ATOM     20  C   UNL A   1      34.775  24.719  24.743  1.00  0.00     0.014 C 
ATOM     21  C   UNL A   1      33.124  26.044  26.095  1.00  0.00     0.014 C 
ENDBRANCH  13  15
ENDBRANCH   7   9
ENDBRANCH   4   7
ENDBRANCH   2   3
ENDBRANCH   1   2
BRANCH   1  22
ATOM     22  C   UNL A   1      31.607  31.949  26.503  1.00  0.00     0.023 C 
BRANCH  22  23
ATOM     23  C   UNL A   1      32.685  32.642  27.328  1.00  0.00     0.116 C 
BRANCH  23  24
ATOM     24  N   UNL A   1      32.384  34.043  27.574  1.00  0.00    -0.352 N 
ATOM     25  C   UNL A   1      32.939  34.895  28.501  1.00  0.00     0.251 C 
ATOM     26  H   UNL A   1      31.687  34.436  26.999  1.00  0.00     0.163 HD
ATOM     27  O   UNL A   1      32.459  35.999  28.703  1.00  0.00    -0.269 OA
BRANCH  25  28
ATOM     28  C   UNL A   1      34.110  34.436  29.273  1.00  0.00     0.039 A 
ATOM     29  C   UNL A   1      33.909  33.846  30.520  1.00  0.00     0.014 A 
ATOM     30  C   UNL A   1      35.396  34.548  28.736  1.00  0.00     0.014 A 
ATOM     31  C   UNL A   1      34.996  33.301  31.203  1.00  0.00     0.010 A 
ATOM     32  C   UNL A   1      36.463  33.930  29.377  1.00  0.00     0.010 A 
ATOM     33  C   UNL A   1      36.274  33.304  30.619  1.00  0.00    -0.014 A 
BRANCH  33  34
ATOM     34  C   UNL A   1      37.427  32.656  31.292  1.00  0.00     0.031 A 
ATOM     35  C   UNL A   1      38.146  31.519  30.623  1.00  0.00     0.074 A 
ATOM     36  C   UNL A   1      37.785  33.050  32.530  1.00  0.00     0.049 A 
ATOM     37  N   UNL A   1      39.131  30.783  31.071  1.00  0.00    -0.248 NA
ATOM     38  C   UNL A   1      37.676  31.138  29.281  1.00  0.00     0.031 C 
ATOM     39  C   UNL A   1      37.133  34.108  33.304  1.00  0.00     0.029 A 
ATOM     40  N   UNL A   1      38.782  32.599  33.360  1.00  0.00    -0.354 N 
ATOM     41  C   UNL A   1      39.387  29.849  30.076  1.00  0.00     0.074 A 
ATOM     42  C   UNL A   1      38.416  30.070  29.027  1.00  0.00     0.031 C 
ATOM     43  C   UNL A   1      37.761  34.242  34.482  1.00  0.00     0.029 A 
ATOM     44  C   UNL A   1      38.832  33.254  34.567  1.00  0.00     0.049 A 
ATOM     45  H   UNL A   1      39.401  31.875  33.113  1.00  0.00     0.167 HD
ATOM     46  C   UNL A   1      40.362  28.911  30.029  1.00  0.00     0.037 A 
ATOM     47  C   UNL A   1      39.645  33.070  35.624  1.00  0.00     0.037 A 
ATOM     48  C   UNL A   1      41.338  28.710  31.066  1.00  0.00     0.049 A 
ATOM     49  C   UNL A   1      40.712  32.010  35.552  1.00  0.00     0.074 A 
ATOM     50  C   UNL A   1      42.403  27.826  31.090  1.00  0.00     0.029 A 
ATOM     51  N   UNL A   1      41.367  29.402  32.269  1.00  0.00    -0.354 N 
ATOM     52  N   UNL A   1      40.993  31.183  34.574  1.00  0.00    -0.248 NA
ATOM     53  C   UNL A   1      41.578  31.862  36.729  1.00  0.00     0.031 C 
ATOM     54  C   UNL A   1      43.041  27.943  32.327  1.00  0.00     0.029 A 
ATOM     55  C   UNL A   1      42.415  28.944  33.052  1.00  0.00     0.049 A 
ATOM     56  H   UNL A   1      40.736  30.112  32.527  1.00  0.00     0.167 HD
ATOM     57  C   UNL A   1      42.085  30.441  35.003  1.00  0.00     0.074 A 
ATOM     58  C   UNL A   1      42.426  30.928  36.324  1.00  0.00     0.031 C 
ATOM     59  C   UNL A   1      42.747  29.447  34.362  1.00  0.00     0.037 A 
BRANCH  46  60
ATOM     60  C   UNL A   1      40.421  28.030  28.814  1.00  0.00     0.064 A 
ATOM     61  C   UNL A   1      41.177  28.381  27.684  1.00  0.00     0.173 A 
ATOM     62  C   UNL A   1      39.742  26.802  28.790  1.00  0.00     0.173 A 
ATOM     63  F   UNL A   1      41.835  29.549  27.649  1.00  0.00    -0.203 F 
ATOM     64  C   UNL A   1      41.225  27.551  26.567  1.00  0.00     0.198 A 
ATOM     65  C   UNL A   1      39.820  25.959  27.685  1.00  0.00     0.198 A 
ATOM     66  F   UNL A   1      39.008  26.415  29.845  1.00  0.00    -0.203 F 
ATOM     67  F   UNL A   1      41.910  27.934  25.480  1.00  0.00    -0.200 F 
ATOM     68  C   UNL A   1      40.555  26.338  26.572  1.00  0.00     0.200 A 
ATOM     69  F   UNL A   1      39.184  24.780  27.697  1.00  0.00    -0.200 F 
ATOM     70  F   UNL A   1      40.609  25.537  25.498  1.00  0.00    -0.200 F 
ENDBRANCH  46  60
BRANCH  47  71
ATOM     71  C   UNL A   1      39.499  33.921  36.834  1.00  0.00     0.064 A 
ATOM     72  C   UNL A   1      40.132  35.169  36.920  1.00  0.00     0.173 A 
ATOM     73  C   UNL A   1      38.735  33.503  37.935  1.00  0.00     0.173 A 
ATOM     74  F   UNL A   1      40.890  35.606  35.903  1.00  0.00    -0.203 F 
ATOM     75  C   UNL A   1      40.030  35.953  38.068  1.00  0.00     0.198 A 
ATOM     76  C   UNL A   1      38.608  34.302  39.069  1.00  0.00     0.198 A 
ATOM     77  F   UNL A   1      38.103  32.321  37.903  1.00  0.00    -0.203 F 
ATOM     78  F   UNL A   1      40.691  37.117  38.142  1.00  0.00    -0.200 F 
ATOM     79  C   UNL A   1      39.264  35.521  39.139  1.00  0.00     0.200 A 
ATOM     80  F   UNL A   1      37.852  33.888  40.096  1.00  0.00    -0.200 F 
ATOM     81  F   UNL A   1      39.164  36.276  40.241  1.00  0.00    -0.200 F 
ENDBRANCH  47  71
BRANCH  59  82
ATOM     82  C   UNL A   1      43.932  28.844  35.060  1.00  0.00     0.064 A 
ATOM     83  C   UNL A   1      43.808  27.725  35.896  1.00  0.00     0.173 A 
ATOM     84  C   UNL A   1      45.217  29.372  34.856  1.00  0.00     0.173 A 
ATOM     85  F   UNL A   1      42.601  27.191  36.135  1.00  0.00    -0.203 F 
ATOM     86  C   UNL A   1      44.922  27.174  36.524  1.00  0.00     0.198 A 
ATOM     87  C   UNL A   1      46.332  28.798  35.458  1.00  0.00     0.198 A 
ATOM     88  F   UNL A   1      45.392  30.436  34.060  1.00  0.00    -0.203 F 
ATOM     89  F   UNL A   1      44.773  26.136  37.360  1.00  0.00    -0.200 F 
ATOM     90  C   UNL A   1      46.183  27.705  36.298  1.00  0.00     0.200 A 
ATOM     91  F   UNL A   1      47.552  29.301  35.225  1.00  0.00    -0.200 F 
ATOM     92  F   UNL A   1      47.255  27.167  36.896  1.00  0.00    -0.200 F 
ENDBRANCH  59  82
ENDBRANCH  33  34
ENDBRANCH  25  28
ENDBRANCH  23  24
ENDBRANCH  22  23
ENDBRANCH   1  22
TORSDOF 13
ENDMDL
MODEL 3
REMARK VINA RESULT:     -12.1      4.229      8.926
REMARK SMILES C[C@H](NC(=O)NC1C(C)(C)C1(C)C)C(=O)NCCCCNC(=O)c1ccc(-c2c3nc(c(-c4c(F)c(F)c(F)c(F)c4F)c4ccc([nH]4)c(-c4c(F)c(F)c(F)c(F)c4F)c4nc(c(-c5c(F)c(F)c(F)c(F)c5F)c5ccc2[nH]5)C=C4)C=C3)cc1
REMARK SMILES IDX 18 1 17 2 16 3 14 4 15 5 2 7 1 8 3 9 4 10 5 12 6 13 7 15
REMARK SMILES IDX 8 16 11 17 9 18 10 19 12 20 13 21 19 22 20 23 21 24 22 25
REMARK SMILES IDX 23 27 24 28 25 29 86 30 26 31 85 32 27 33 28 34 29 35 79 36
REMARK SMILES IDX 30 37 84 38 78 39 80 40 31 41 83 42 77 43 76 44 32 46 64 47
REMARK SMILES IDX 44 48 63 49 45 50 48 51 62 52 81 53 46 54 47 55 61 57 82 58
REMARK SMILES IDX 49 59 33 60 34 61 42 62 35 63 36 64 40 65 43 66 37 67 38 68
REMARK SMILES IDX 41 69 39 70 65 71 66 72 74 73 67 74 68 75 72 76 75 77 69 78
REMARK SMILES IDX 70 79 73 80 71 81 50 82 51 83 59 84 52 85 53 86 57 87 60 88
REMARK SMILES IDX 54 89 55 90 58 91 56 92
REMARK H PARENT 16 6 3 11 6 14 21 26 80 45 48 56
REMARK Flexibility Score: inf
ROOT
ATOM      1  C   UNL A   1      35.104  23.611  23.479  1.00  0.00     0.023 C 
ENDROOT
BRANCH   1   2
ATOM      2  C   UNL A   1      33.970  22.652  23.155  1.00  0.00     0.116 C 
BRANCH   2   3
ATOM      3  N   UNL A   1      33.991  21.495  24.031  1.00  0.00    -0.354 N 
ATOM      4  C   UNL A   1      33.615  21.389  25.336  1.00  0.00     0.242 C 
ATOM      5  O   UNL A   1      33.570  20.262  25.834  1.00  0.00    -0.273 OA
ATOM      6  H   UNL A   1      34.327  20.665  23.622  1.00  0.00     0.163 HD
BRANCH   4   7
ATOM      7  C   UNL A   1      33.157  22.627  26.115  1.00  0.00     0.170 C 
ATOM      8  C   UNL A   1      34.211  22.973  27.179  1.00  0.00     0.041 C 
BRANCH   7   9
ATOM      9  N   UNL A   1      31.812  22.453  26.670  1.00  0.00    -0.327 N 
ATOM     10  C   UNL A   1      30.843  23.326  27.009  1.00  0.00     0.315 C 
ATOM     11  H   UNL A   1      31.568  21.512  26.826  1.00  0.00     0.166 HD
ATOM     12  O   UNL A   1      29.826  22.882  27.545  1.00  0.00    -0.249 OA
ATOM     13  N   UNL A   1      30.946  24.659  26.786  1.00  0.00    -0.334 N 
ATOM     14  H   UNL A   1      30.238  25.208  27.193  1.00  0.00     0.165 HD
BRANCH  13  15
ATOM     15  C   UNL A   1      31.924  25.379  26.050  1.00  0.00     0.096 C 
ATOM     16  C   UNL A   1      31.528  26.210  24.845  1.00  0.00    -0.007 C 
ATOM     17  C   UNL A   1      32.189  26.861  26.075  1.00  0.00    -0.007 C 
ATOM     18  C   UNL A   1      32.309  25.965  23.573  1.00  0.00     0.014 C 
ATOM     19  C   UNL A   1      30.067  26.497  24.566  1.00  0.00     0.014 C 
ATOM     20  C   UNL A   1      31.409  27.744  27.012  1.00  0.00     0.014 C 
ATOM     21  C   UNL A   1      33.654  27.263  25.993  1.00  0.00     0.014 C 
ENDBRANCH  13  15
ENDBRANCH   7   9
ENDBRANCH   4   7
ENDBRANCH   2   3
ENDBRANCH   1   2
BRANCH   1  22
ATOM     22  C   UNL A   1      36.437  22.919  23.765  1.00  0.00     0.023 C 
BRANCH  22  23
ATOM     23  C   UNL A   1      37.150  23.409  25.019  1.00  0.00     0.116 C 
BRANCH  23  24
ATOM     24  N   UNL A   1      38.148  22.465  25.497  1.00  0.00    -0.352 N 
ATOM     25  C   UNL A   1      39.297  22.713  26.212  1.00  0.00     0.251 C 
ATOM     26  H   UNL A   1      37.979  21.520  25.280  1.00  0.00     0.163 HD
ATOM     27  O   UNL A   1      40.124  21.835  26.392  1.00  0.00    -0.269 OA
BRANCH  25  28
ATOM     28  C   UNL A   1      39.528  24.075  26.733  1.00  0.00     0.039 A 
ATOM     29  C   UNL A   1      39.145  24.371  28.041  1.00  0.00     0.014 A 
ATOM     30  C   UNL A   1      40.166  25.034  25.942  1.00  0.00     0.014 A 
ATOM     31  C   UNL A   1      39.468  25.615  28.583  1.00  0.00     0.010 A 
ATOM     32  C   UNL A   1      40.561  26.239  26.510  1.00  0.00     0.010 A 
ATOM     33  C   UNL A   1      40.212  26.543  27.835  1.00  0.00    -0.014 A 
BRANCH  33  34
ATOM     34  C   UNL A   1      40.636  27.839  28.422  1.00  0.00     0.031 A 
ATOM     35  C   UNL A   1      42.073  28.056  28.805  1.00  0.00     0.074 A 
ATOM     36  C   UNL A   1      39.717  28.793  28.668  1.00  0.00     0.049 A 
ATOM     37  N   UNL A   1      42.629  29.088  29.388  1.00  0.00    -0.248 NA
ATOM     38  C   UNL A   1      43.006  26.952  28.523  1.00  0.00     0.031 C 
ATOM     39  C   UNL A   1      38.285  28.682  28.387  1.00  0.00     0.029 A 
ATOM     40  N   UNL A   1      39.851  30.044  29.218  1.00  0.00    -0.354 N 
ATOM     41  C   UNL A   1      43.966  28.753  29.551  1.00  0.00     0.074 A 
ATOM     42  C   UNL A   1      44.129  27.401  29.065  1.00  0.00     0.031 C 
ATOM     43  C   UNL A   1      37.677  29.824  28.743  1.00  0.00     0.029 A 
ATOM     44  C   UNL A   1      38.666  30.733  29.314  1.00  0.00     0.049 A 
ATOM     45  H   UNL A   1      40.714  30.412  29.516  1.00  0.00     0.167 HD
ATOM     46  C   UNL A   1      44.974  29.516  30.038  1.00  0.00     0.037 A 
ATOM     47  C   UNL A   1      38.408  31.956  29.815  1.00  0.00     0.037 A 
ATOM     48  C   UNL A   1      44.811  30.868  30.501  1.00  0.00     0.049 A 
ATOM     49  C   UNL A   1      39.544  32.777  30.364  1.00  0.00     0.074 A 
ATOM     50  C   UNL A   1      45.778  31.746  30.957  1.00  0.00     0.029 A 
ATOM     51  N   UNL A   1      43.598  31.538  30.570  1.00  0.00    -0.354 N 
ATOM     52  N   UNL A   1      40.819  32.479  30.444  1.00  0.00    -0.248 NA
ATOM     53  C   UNL A   1      39.206  34.108  30.886  1.00  0.00     0.031 C 
ATOM     54  C   UNL A   1      45.144  32.926  31.355  1.00  0.00     0.029 A 
ATOM     55  C   UNL A   1      43.789  32.809  31.088  1.00  0.00     0.049 A 
ATOM     56  H   UNL A   1      42.730  31.165  30.293  1.00  0.00     0.167 HD
ATOM     57  C   UNL A   1      41.438  33.594  30.993  1.00  0.00     0.074 A 
ATOM     58  C   UNL A   1      40.401  34.581  31.212  1.00  0.00     0.031 C 
ATOM     59  C   UNL A   1      42.747  33.784  31.290  1.00  0.00     0.037 A 
BRANCH  46  60
ATOM     60  C   UNL A   1      46.345  28.903  30.092  1.00  0.00     0.064 A 
ATOM     61  C   UNL A   1      46.824  28.267  31.248  1.00  0.00     0.173 A 
ATOM     62  C   UNL A   1      47.177  28.921  28.962  1.00  0.00     0.173 A 
ATOM     63  F   UNL A   1      46.074  28.233  32.359  1.00  0.00    -0.203 F 
ATOM     64  C   UNL A   1      48.095  27.700  31.280  1.00  0.00     0.198 A 
ATOM     65  C   UNL A   1      48.434  28.322  28.986  1.00  0.00     0.198 A 
ATOM     66  F   UNL A   1      46.767  29.510  27.829  1.00  0.00    -0.203 F 
ATOM     67  F   UNL A   1      48.552  27.146  32.412  1.00  0.00    -0.200 F 
ATOM     68  C   UNL A   1      48.895  27.720  30.148  1.00  0.00     0.200 A 
ATOM     69  F   UNL A   1      49.200  28.329  27.887  1.00  0.00    -0.200 F 
ATOM     70  F   UNL A   1      50.116  27.166  30.178  1.00  0.00    -0.200 F 
ENDBRANCH  46  60
BRANCH  47  71
ATOM     71  C   UNL A   1      37.020  32.488  29.805  1.00  0.00     0.064 A 
ATOM     72  C   UNL A   1      36.525  33.190  28.697  1.00  0.00     0.173 A 
ATOM     73  C   UNL A   1      36.163  32.319  30.903  1.00  0.00     0.173 A 
ATOM     74  F   UNL A   1      37.312  33.397  27.629  1.00  0.00    -0.203 F 
ATOM     75  C   UNL A   1      35.238  33.726  28.698  1.00  0.00     0.198 A 
ATOM     76  C   UNL A   1      34.866  32.826  30.889  1.00  0.00     0.198 A 
ATOM     77  F   UNL A   1      36.583  31.649  31.986  1.00  0.00    -0.203 F 
ATOM     78  F   UNL A   1      34.811  34.439  27.646  1.00  0.00    -0.200 F 
ATOM     79  C   UNL A   1      34.408  33.538  29.791  1.00  0.00     0.200 A 
ATOM     80  F   UNL A   1      34.060  32.629  31.942  1.00  0.00    -0.200 F 
ATOM     81  F   UNL A   1      33.170  34.051  29.791  1.00  0.00    -0.200 F 
ENDBRANCH  47  71
BRANCH  59  82
ATOM     82  C   UNL A   1      43.142  35.122  31.846  1.00  0.00     0.064 A 
ATOM     83  C   UNL A   1      43.114  35.389  33.223  1.00  0.00     0.173 A 
ATOM     84  C   UNL A   1      43.592  36.138  30.988  1.00  0.00     0.173 A 
ATOM     85  F   UNL A   1      42.678  34.457  34.082  1.00  0.00    -0.203 F 
ATOM     86  C   UNL A   1      43.497  36.634  33.718  1.00  0.00     0.198 A 
ATOM     87  C   UNL A   1      44.006  37.369  31.491  1.00  0.00     0.198 A 
ATOM     88  F   UNL A   1      43.647  35.933  29.665  1.00  0.00    -0.203 F 
ATOM     89  F   UNL A   1      43.412  36.883  35.032  1.00  0.00    -0.200 F 
ATOM     90  C   UNL A   1      43.950  37.618  32.853  1.00  0.00     0.200 A 
ATOM     91  F   UNL A   1      44.461  38.313  30.655  1.00  0.00    -0.200 F 
ATOM     92  F   UNL A   1      44.326  38.812  33.333  1.00  0.00    -0.200 F 
ENDBRANCH  59  82
ENDBRANCH  33  34
ENDBRANCH  25  28
ENDBRANCH  23  24
ENDBRANCH  22  23
ENDBRANCH   1  22
TORSDOF 13
ENDMDL
