MODEL 1
REMARK VINA RESULT:     -13.1      0.000      0.000
REMARK SMILES O=C(NCCCCNC(=O)[C@H]1C[C@H]2CCCC[C@@H]2[N@@H+]1CCn1ccnc1)c1ccc(-c2c3nc(c(-c4c(F)c(F)c(F)c(F)c4F)c4ccc([nH]4)c(-c4c(F)c(F)c(F)c(F)c4F)c4nc(c(-c5c(F)c(F)c(F)c(F)c5F)c5ccc2[nH]5)C=C4)C=C3)cc1
REMARK SMILES IDX 6 1 5 2 4 3 3 4 1 5 2 6 27 8 28 9 89 10 29 11 88 12 30 13
REMARK SMILES IDX 31 14 32 15 82 16 33 17 87 18 81 19 83 20 34 21 86 22 80 23
REMARK SMILES IDX 79 24 35 26 67 27 47 28 66 29 48 30 51 31 65 32 84 33 49 34
REMARK SMILES IDX 50 35 64 37 85 38 52 39 36 40 37 41 45 42 38 43 39 44 43 45
REMARK SMILES IDX 46 46 40 47 41 48 44 49 42 50 68 51 69 52 77 53 70 54 71 55
REMARK SMILES IDX 75 56 78 57 72 58 73 59 76 60 74 61 53 62 54 63 62 64 55 65
REMARK SMILES IDX 56 66 60 67 63 68 57 69 58 70 61 71 59 72 7 73 8 74 9 75
REMARK SMILES IDX 10 77 11 78 12 79 19 80 13 81 18 82 14 84 17 85 15 86 16 87
REMARK SMILES IDX 20 88 21 89 22 90 23 91 26 92 24 93 25 94
REMARK H PARENT 3 7 83 25 51 36 8 76 19 83
REMARK Flexibility Score: inf
ROOT
ATOM      1  C   UNL A   1      32.475  28.088  26.986  1.00  0.00     0.023 C 
ENDROOT
BRANCH   1   2
ATOM      2  C   UNL A   1      32.250  29.575  27.233  1.00  0.00     0.023 C 
BRANCH   2   3
ATOM      3  C   UNL A   1      33.401  30.492  26.809  1.00  0.00     0.116 C 
BRANCH   3   4
ATOM      4  N   UNL A   1      33.715  31.547  27.756  1.00  0.00    -0.352 N 
ATOM      5  O   UNL A   1      34.771  33.023  29.012  1.00  0.00    -0.269 OA
ATOM      6  C   UNL A   1      34.840  31.937  28.425  1.00  0.00     0.251 C 
ATOM      7  H   UNL A   1      32.937  32.113  27.962  1.00  0.00     0.163 HD
BRANCH   6   8
ATOM      8  C   UNL A   1      36.097  31.147  28.543  1.00  0.00     0.039 A 
ATOM      9  C   UNL A   1      36.212  29.772  28.350  1.00  0.00     0.014 A 
ATOM     10  C   UNL A   1      37.247  31.863  28.932  1.00  0.00     0.014 A 
ATOM     11  C   UNL A   1      37.411  29.119  28.617  1.00  0.00     0.010 A 
ATOM     12  C   UNL A   1      38.457  31.219  29.181  1.00  0.00     0.010 A 
ATOM     13  C   UNL A   1      38.529  29.837  29.054  1.00  0.00    -0.014 A 
BRANCH  13  14
ATOM     14  C   UNL A   1      39.784  29.105  29.217  1.00  0.00     0.031 A 
ATOM     15  C   UNL A   1      40.182  28.864  30.637  1.00  0.00     0.074 A 
ATOM     16  C   UNL A   1      40.500  28.572  28.208  1.00  0.00     0.049 A 
ATOM     17  N   UNL A   1      41.254  29.254  31.249  1.00  0.00    -0.248 NA
ATOM     18  C   UNL A   1      39.218  28.171  31.506  1.00  0.00     0.031 C 
ATOM     19  C   UNL A   1      40.136  28.447  26.796  1.00  0.00     0.029 A 
ATOM     20  N   UNL A   1      41.709  27.941  28.270  1.00  0.00    -0.354 N 
ATOM     21  C   UNL A   1      41.174  28.739  32.542  1.00  0.00     0.074 A 
ATOM     22  C   UNL A   1      39.858  28.171  32.677  1.00  0.00     0.031 C 
ATOM     23  C   UNL A   1      41.001  27.603  26.185  1.00  0.00     0.029 A 
ATOM     24  C   UNL A   1      42.056  27.247  27.119  1.00  0.00     0.049 A 
ATOM     25  H   UNL A   1      42.288  27.976  29.066  1.00  0.00     0.167 HD
ATOM     26  C   UNL A   1      42.263  28.665  33.356  1.00  0.00     0.037 A 
ATOM     27  C   UNL A   1      43.108  26.404  26.968  1.00  0.00     0.037 A 
ATOM     28  C   UNL A   1      43.303  29.563  32.933  1.00  0.00     0.049 A 
ATOM     29  C   UNL A   1      44.090  26.711  28.034  1.00  0.00     0.074 A 
ATOM     30  C   UNL A   1      43.405  30.934  32.803  1.00  0.00     0.029 A 
ATOM     31  N   UNL A   1      44.368  29.049  32.239  1.00  0.00    -0.354 N 
ATOM     32  N   UNL A   1      44.790  27.809  28.090  1.00  0.00    -0.248 NA
ATOM     33  C   UNL A   1      43.991  25.965  29.278  1.00  0.00     0.031 C 
ATOM     34  C   UNL A   1      44.198  31.134  31.636  1.00  0.00     0.029 A 
ATOM     35  C   UNL A   1      44.573  29.875  31.165  1.00  0.00     0.049 A 
ATOM     36  H   UNL A   1      44.886  28.244  32.467  1.00  0.00     0.167 HD
ATOM     37  C   UNL A   1      44.850  28.115  29.440  1.00  0.00     0.074 A 
ATOM     38  C   UNL A   1      44.422  26.900  30.127  1.00  0.00     0.031 C 
ATOM     39  C   UNL A   1      44.977  29.405  29.863  1.00  0.00     0.037 A 
BRANCH  26  40
ATOM     40  C   UNL A   1      42.513  27.557  34.347  1.00  0.00     0.064 A 
ATOM     41  C   UNL A   1      43.094  26.348  33.911  1.00  0.00     0.173 A 
ATOM     42  C   UNL A   1      41.928  27.521  35.631  1.00  0.00     0.173 A 
ATOM     43  F   UNL A   1      43.660  26.261  32.697  1.00  0.00    -0.203 F 
ATOM     44  C   UNL A   1      43.023  25.177  34.670  1.00  0.00     0.198 A 
ATOM     45  C   UNL A   1      41.903  26.363  36.407  1.00  0.00     0.198 A 
ATOM     46  F   UNL A   1      41.260  28.566  36.135  1.00  0.00    -0.203 F 
ATOM     47  F   UNL A   1      43.477  24.024  34.160  1.00  0.00    -0.200 F 
ATOM     48  C   UNL A   1      42.422  25.184  35.915  1.00  0.00     0.200 A 
ATOM     49  F   UNL A   1      41.298  26.385  37.604  1.00  0.00    -0.200 F 
ATOM     50  F   UNL A   1      42.295  24.051  36.617  1.00  0.00    -0.200 F 
ENDBRANCH  26  40
BRANCH  27  51
ATOM     51  C   UNL A   1      43.190  25.158  26.171  1.00  0.00     0.064 A 
ATOM     52  C   UNL A   1      44.228  24.951  25.247  1.00  0.00     0.173 A 
ATOM     53  C   UNL A   1      42.428  24.027  26.522  1.00  0.00     0.173 A 
ATOM     54  F   UNL A   1      45.031  25.965  24.896  1.00  0.00    -0.203 F 
ATOM     55  C   UNL A   1      44.505  23.682  24.726  1.00  0.00     0.198 A 
ATOM     56  C   UNL A   1      42.703  22.762  25.999  1.00  0.00     0.198 A 
ATOM     57  F   UNL A   1      41.471  24.109  27.457  1.00  0.00    -0.203 F 
ATOM     58  F   UNL A   1      45.544  23.509  23.897  1.00  0.00    -0.200 F 
ATOM     59  C   UNL A   1      43.749  22.586  25.113  1.00  0.00     0.200 A 
ATOM     60  F   UNL A   1      41.991  21.704  26.412  1.00  0.00    -0.200 F 
ATOM     61  F   UNL A   1      44.055  21.360  24.667  1.00  0.00    -0.200 F 
ENDBRANCH  27  51
BRANCH  39  62
ATOM     62  C   UNL A   1      45.315  30.452  28.840  1.00  0.00     0.064 A 
ATOM     63  C   UNL A   1      44.365  31.096  28.029  1.00  0.00     0.173 A 
ATOM     64  C   UNL A   1      46.633  30.929  28.796  1.00  0.00     0.173 A 
ATOM     65  F   UNL A   1      43.069  30.766  28.086  1.00  0.00    -0.203 F 
ATOM     66  C   UNL A   1      44.730  32.146  27.186  1.00  0.00     0.198 A 
ATOM     67  C   UNL A   1      46.985  32.001  27.982  1.00  0.00     0.198 A 
ATOM     68  F   UNL A   1      47.570  30.388  29.590  1.00  0.00    -0.203 F 
ATOM     69  F   UNL A   1      43.806  32.743  26.417  1.00  0.00    -0.200 F 
ATOM     70  C   UNL A   1      46.037  32.603  27.171  1.00  0.00     0.200 A 
ATOM     71  F   UNL A   1      48.239  32.473  28.009  1.00  0.00    -0.200 F 
ATOM     72  F   UNL A   1      46.377  33.645  26.399  1.00  0.00    -0.200 F 
ENDBRANCH  39  62
ENDBRANCH  13  14
ENDBRANCH   6   8
ENDBRANCH   3   4
ENDBRANCH   2   3
ENDBRANCH   1   2
BRANCH   1  73
ATOM     73  C   UNL A   1      31.388  27.378  26.196  1.00  0.00     0.116 C 
BRANCH  73  74
ATOM     74  N   UNL A   1      30.985  26.084  26.700  1.00  0.00    -0.351 N 
ATOM     75  C   UNL A   1      31.563  24.851  26.562  1.00  0.00     0.278 C 
ATOM     76  H   UNL A   1      30.155  26.091  27.230  1.00  0.00     0.163 HD
ATOM     77  O   UNL A   1      31.107  23.960  27.294  1.00  0.00    -0.268 OA
BRANCH  75  78
ATOM     78  C   UNL A   1      32.707  24.503  25.555  1.00  0.00     0.274 C 
ATOM     79  C   UNL A   1      33.832  23.633  26.128  1.00  0.00     0.085 C 
ATOM     80  N   UNL A   1      32.193  23.811  24.331  1.00  0.00    -0.321 N 
ATOM     81  C   UNL A   1      33.820  22.387  25.249  1.00  0.00     0.054 C 
ATOM     82  C   UNL A   1      32.471  22.391  24.540  1.00  0.00     0.188 C 
ATOM     83  H   UNL A   1      31.188  23.945  24.219  1.00  0.00     0.349 HD
ATOM     84  C   UNL A   1      34.154  21.043  25.871  1.00  0.00     0.010 C 
ATOM     85  C   UNL A   1      32.399  21.350  23.432  1.00  0.00     0.065 C 
ATOM     86  C   UNL A   1      34.079  19.953  24.795  1.00  0.00     0.001 C 
ATOM     87  C   UNL A   1      32.768  19.969  23.994  1.00  0.00     0.006 C 
BRANCH  80  88
ATOM     88  C   UNL A   1      32.627  24.401  23.047  1.00  0.00     0.285 C 
BRANCH  88  89
ATOM     89  C   UNL A   1      33.185  25.847  22.899  1.00  0.00     0.184 C 
BRANCH  89  90
ATOM     90  N   UNL A   1      32.236  26.932  22.754  1.00  0.00    -0.332 N 
ATOM     91  C   UNL A   1      32.517  28.270  22.858  1.00  0.00     0.107 A 
ATOM     92  C   UNL A   1      30.895  26.823  22.519  1.00  0.00     0.199 A 
ATOM     93  C   UNL A   1      31.362  28.906  22.464  1.00  0.00     0.130 A 
ATOM     94  N   UNL A   1      30.354  27.998  22.277  1.00  0.00    -0.245 NA
ENDBRANCH  89  90
ENDBRANCH  88  89
ENDBRANCH  80  88
ENDBRANCH  75  78
ENDBRANCH  73  74
ENDBRANCH   1  73
TORSDOF 14
ENDMDL
MODEL 2
REMARK VINA RESULT:     -13.0      1.070      2.288
REMARK SMILES O=C(NCCCCNC(=O)[C@H]1C[C@H]2CCCC[C@@H]2[N@@H+]1CCn1ccnc1)c1ccc(-c2c3nc(c(-c4c(F)c(F)c(F)c(F)c4F)c4ccc([nH]4)c(-c4c(F)c(F)c(F)c(F)c4F)c4nc(c(-c5c(F)c(F)c(F)c(F)c5F)c5ccc2[nH]5)C=C4)C=C3)cc1
REMARK SMILES IDX 6 1 5 2 4 3 3 4 1 5 2 6 27 8 28 9 89 10 29 11 88 12 30 13
REMARK SMILES IDX 31 14 32 15 82 16 33 17 87 18 81 19 83 20 34 21 86 22 80 23
REMARK SMILES IDX 79 24 35 26 67 27 47 28 66 29 48 30 51 31 65 32 84 33 49 34
REMARK SMILES IDX 50 35 64 37 85 38 52 39 36 40 37 41 45 42 38 43 39 44 43 45
REMARK SMILES IDX 46 46 40 47 41 48 44 49 42 50 68 51 69 52 77 53 70 54 71 55
REMARK SMILES IDX 75 56 78 57 72 58 73 59 76 60 74 61 53 62 54 63 62 64 55 65
REMARK SMILES IDX 56 66 60 67 63 68 57 69 58 70 61 71 59 72 7 73 8 74 9 75
REMARK SMILES IDX 10 77 11 78 12 79 19 80 13 81 18 82 14 84 17 85 15 86 16 87
REMARK SMILES IDX 20 88 21 89 22 90 23 91 26 92 24 93 25 94
REMARK H PARENT 3 7 83 25 51 36 8 76 19 83
REMARK Flexibility Score: inf
ROOT
ATOM      1  C   UNL A   1      31.857  28.180  27.270  1.00  0.00     0.023 C 
ENDROOT
BRANCH   1   2
ATOM      2  C   UNL A   1      31.962  29.667  26.951  1.00  0.00     0.023 C 
BRANCH   2   3
ATOM      3  C   UNL A   1      33.387  30.201  26.777  1.00  0.00     0.116 C 
BRANCH   3   4
ATOM      4  N   UNL A   1      33.715  31.340  27.615  1.00  0.00    -0.352 N 
ATOM      5  O   UNL A   1      34.787  32.935  28.700  1.00  0.00    -0.269 OA
ATOM      6  C   UNL A   1      34.854  31.802  28.209  1.00  0.00     0.251 C 
ATOM      7  H   UNL A   1      32.934  31.912  27.795  1.00  0.00     0.163 HD
BRANCH   6   8
ATOM      8  C   UNL A   1      36.126  31.042  28.356  1.00  0.00     0.039 A 
ATOM      9  C   UNL A   1      36.295  29.685  28.089  1.00  0.00     0.014 A 
ATOM     10  C   UNL A   1      37.229  31.766  28.854  1.00  0.00     0.014 A 
ATOM     11  C   UNL A   1      37.498  29.051  28.388  1.00  0.00     0.010 A 
ATOM     12  C   UNL A   1      38.442  31.142  29.136  1.00  0.00     0.010 A 
ATOM     13  C   UNL A   1      38.565  29.773  28.932  1.00  0.00    -0.014 A 
BRANCH  13  14
ATOM     14  C   UNL A   1      39.831  29.068  29.127  1.00  0.00     0.031 A 
ATOM     15  C   UNL A   1      40.197  28.832  30.556  1.00  0.00     0.074 A 
ATOM     16  C   UNL A   1      40.584  28.553  28.136  1.00  0.00     0.049 A 
ATOM     17  N   UNL A   1      41.244  29.245  31.196  1.00  0.00    -0.248 NA
ATOM     18  C   UNL A   1      39.226  28.117  31.399  1.00  0.00     0.031 C 
ATOM     19  C   UNL A   1      40.260  28.423  26.714  1.00  0.00     0.029 A 
ATOM     20  N   UNL A   1      41.805  27.948  28.228  1.00  0.00    -0.354 N 
ATOM     21  C   UNL A   1      41.142  28.725  32.486  1.00  0.00     0.074 A 
ATOM     22  C   UNL A   1      39.836  28.128  32.585  1.00  0.00     0.031 C 
ATOM     23  C   UNL A   1      41.158  27.600  26.124  1.00  0.00     0.029 A 
ATOM     24  C   UNL A   1      42.196  27.265  27.085  1.00  0.00     0.049 A 
ATOM     25  H   UNL A   1      42.362  27.994  29.038  1.00  0.00     0.167 HD
ATOM     26  C   UNL A   1      42.212  28.673  33.328  1.00  0.00     0.037 A 
ATOM     27  C   UNL A   1      43.269  26.445  26.960  1.00  0.00     0.037 A 
ATOM     28  C   UNL A   1      43.242  29.594  32.933  1.00  0.00     0.049 A 
ATOM     29  C   UNL A   1      44.218  26.771  28.051  1.00  0.00     0.074 A 
ATOM     30  C   UNL A   1      43.318  30.967  32.808  1.00  0.00     0.029 A 
ATOM     31  N   UNL A   1      44.336  29.105  32.266  1.00  0.00    -0.354 N 
ATOM     32  N   UNL A   1      44.892  27.883  28.127  1.00  0.00    -0.248 NA
ATOM     33  C   UNL A   1      44.102  26.020  29.291  1.00  0.00     0.031 C 
ATOM     34  C   UNL A   1      44.136  31.187  31.662  1.00  0.00     0.029 A 
ATOM     35  C   UNL A   1      44.550  29.938  31.198  1.00  0.00     0.049 A 
ATOM     36  H   UNL A   1      44.865  28.311  32.506  1.00  0.00     0.167 HD
ATOM     37  C   UNL A   1      44.910  28.188  29.479  1.00  0.00     0.074 A 
ATOM     38  C   UNL A   1      44.490  26.962  30.153  1.00  0.00     0.031 C 
ATOM     39  C   UNL A   1      44.997  29.479  29.907  1.00  0.00     0.037 A 
BRANCH  26  40
ATOM     40  C   UNL A   1      42.460  27.568  34.323  1.00  0.00     0.064 A 
ATOM     41  C   UNL A   1      43.027  26.352  33.889  1.00  0.00     0.173 A 
ATOM     42  C   UNL A   1      41.885  27.545  35.612  1.00  0.00     0.173 A 
ATOM     43  F   UNL A   1      43.583  26.253  32.672  1.00  0.00    -0.203 F 
ATOM     44  C   UNL A   1      42.952  25.186  34.656  1.00  0.00     0.198 A 
ATOM     45  C   UNL A   1      41.857  26.392  36.395  1.00  0.00     0.198 A 
ATOM     46  F   UNL A   1      41.230  28.598  36.115  1.00  0.00    -0.203 F 
ATOM     47  F   UNL A   1      43.393  24.027  34.149  1.00  0.00    -0.200 F 
ATOM     48  C   UNL A   1      42.361  25.205  35.905  1.00  0.00     0.200 A 
ATOM     49  F   UNL A   1      41.261  26.425  37.596  1.00  0.00    -0.200 F 
ATOM     50  F   UNL A   1      42.230  24.077  36.615  1.00  0.00    -0.200 F 
ENDBRANCH  26  40
BRANCH  27  51
ATOM     51  C   UNL A   1      43.399  25.202  26.163  1.00  0.00     0.064 A 
ATOM     52  C   UNL A   1      44.504  24.988  25.322  1.00  0.00     0.173 A 
ATOM     53  C   UNL A   1      42.599  24.079  26.445  1.00  0.00     0.173 A 
ATOM     54  F   UNL A   1      45.345  25.994  25.043  1.00  0.00    -0.203 F 
ATOM     55  C   UNL A   1      44.806  23.719  24.816  1.00  0.00     0.198 A 
ATOM     56  C   UNL A   1      42.899  22.814  25.938  1.00  0.00     0.198 A 
ATOM     57  F   UNL A   1      41.572  24.168  27.302  1.00  0.00    -0.203 F 
ATOM     58  F   UNL A   1      45.905  23.538  24.071  1.00  0.00    -0.200 F 
ATOM     59  C   UNL A   1      44.010  22.630  25.135  1.00  0.00     0.200 A 
ATOM     60  F   UNL A   1      42.145  21.762  26.286  1.00  0.00    -0.200 F 
ATOM     61  F   UNL A   1      44.335  21.403  24.706  1.00  0.00    -0.200 F 
ENDBRANCH  27  51
BRANCH  39  62
ATOM     62  C   UNL A   1      45.340  30.536  28.895  1.00  0.00     0.064 A 
ATOM     63  C   UNL A   1      46.653  30.901  28.552  1.00  0.00     0.173 A 
ATOM     64  C   UNL A   1      44.297  31.083  28.135  1.00  0.00     0.173 A 
ATOM     65  F   UNL A   1      47.707  30.348  29.164  1.00  0.00    -0.203 F 
ATOM     66  C   UNL A   1      46.904  31.802  27.518  1.00  0.00     0.198 A 
ATOM     67  C   UNL A   1      44.554  31.952  27.079  1.00  0.00     0.198 A 
ATOM     68  F   UNL A   1      43.027  30.727  28.382  1.00  0.00    -0.203 F 
ATOM     69  F   UNL A   1      48.166  32.139  27.210  1.00  0.00    -0.200 F 
ATOM     70  C   UNL A   1      45.855  32.319  26.776  1.00  0.00     0.200 A 
ATOM     71  F   UNL A   1      43.539  32.410  26.332  1.00  0.00    -0.200 F 
ATOM     72  F   UNL A   1      46.099  33.146  25.749  1.00  0.00    -0.200 F 
ENDBRANCH  39  62
ENDBRANCH  13  14
ENDBRANCH   6   8
ENDBRANCH   3   4
ENDBRANCH   2   3
ENDBRANCH   1   2
BRANCH   1  73
ATOM     73  C   UNL A   1      31.557  27.272  26.088  1.00  0.00     0.116 C 
BRANCH  73  74
ATOM     74  N   UNL A   1      30.705  26.137  26.365  1.00  0.00    -0.351 N 
ATOM     75  C   UNL A   1      31.001  24.808  26.500  1.00  0.00     0.278 C 
ATOM     76  H   UNL A   1      29.752  26.358  26.473  1.00  0.00     0.163 HD
ATOM     77  O   UNL A   1      30.093  24.099  26.957  1.00  0.00    -0.268 OA
BRANCH  75  78
ATOM     78  C   UNL A   1      32.360  24.146  26.103  1.00  0.00     0.274 C 
ATOM     79  C   UNL A   1      32.501  22.671  26.494  1.00  0.00     0.085 C 
ATOM     80  N   UNL A   1      32.630  24.241  24.633  1.00  0.00    -0.321 N 
ATOM     81  C   UNL A   1      32.726  21.955  25.166  1.00  0.00     0.054 C 
ATOM     82  C   UNL A   1      32.275  22.932  24.087  1.00  0.00     0.188 C 
ATOM     83  H   UNL A   1      32.053  24.958  24.192  1.00  0.00     0.349 HD
ATOM     84  C   UNL A   1      32.154  20.561  24.974  1.00  0.00     0.010 C 
ATOM     85  C   UNL A   1      32.670  22.471  22.691  1.00  0.00     0.065 C 
ATOM     86  C   UNL A   1      32.512  20.056  23.571  1.00  0.00     0.001 C 
ATOM     87  C   UNL A   1      32.153  21.044  22.451  1.00  0.00     0.006 C 
BRANCH  80  88
ATOM     88  C   UNL A   1      33.955  24.786  24.271  1.00  0.00     0.285 C 
BRANCH  88  89
ATOM     89  C   UNL A   1      35.196  24.751  25.210  1.00  0.00     0.184 C 
BRANCH  89  90
ATOM     90  N   UNL A   1      36.161  23.687  25.025  1.00  0.00    -0.332 N 
ATOM     91  C   UNL A   1      37.274  23.464  25.795  1.00  0.00     0.107 A 
ATOM     92  C   UNL A   1      36.158  22.738  24.044  1.00  0.00     0.199 A 
ATOM     93  C   UNL A   1      37.767  22.255  25.361  1.00  0.00     0.130 A 
ATOM     94  N   UNL A   1      37.079  21.823  24.259  1.00  0.00    -0.245 NA
ENDBRANCH  89  90
ENDBRANCH  88  89
ENDBRANCH  80  88
ENDBRANCH  75  78
ENDBRANCH  73  74
ENDBRANCH   1  73
TORSDOF 14
ENDMDL
MODEL 3
REMARK VINA RESULT:     -12.9      3.481      8.934
REMARK SMILES O=C(NCCCCNC(=O)[C@H]1C[C@H]2CCCC[C@@H]2[N@@H+]1CCn1ccnc1)c1ccc(-c2c3nc(c(-c4c(F)c(F)c(F)c(F)c4F)c4ccc([nH]4)c(-c4c(F)c(F)c(F)c(F)c4F)c4nc(c(-c5c(F)c(F)c(F)c(F)c5F)c5ccc2[nH]5)C=C4)C=C3)cc1
REMARK SMILES IDX 6 1 5 2 4 3 3 4 1 5 2 6 27 8 28 9 89 10 29 11 88 12 30 13
REMARK SMILES IDX 31 14 32 15 82 16 33 17 87 18 81 19 83 20 34 21 86 22 80 23
REMARK SMILES IDX 79 24 35 26 67 27 47 28 66 29 48 30 51 31 65 32 84 33 49 34
REMARK SMILES IDX 50 35 64 37 85 38 52 39 36 40 37 41 45 42 38 43 39 44 43 45
REMARK SMILES IDX 46 46 40 47 41 48 44 49 42 50 68 51 69 52 77 53 70 54 71 55
REMARK SMILES IDX 75 56 78 57 72 58 73 59 76 60 74 61 53 62 54 63 62 64 55 65
REMARK SMILES IDX 56 66 60 67 63 68 57 69 58 70 61 71 59 72 7 73 8 74 9 75
REMARK SMILES IDX 10 77 11 78 12 79 19 80 13 81 18 82 14 84 17 85 15 86 16 87
REMARK SMILES IDX 20 88 21 89 22 90 23 91 26 92 24 93 25 94
REMARK H PARENT 3 7 83 25 51 36 8 76 19 83
REMARK Flexibility Score: inf
ROOT
ATOM      1  C   UNL A   1      38.578  23.615  26.518  1.00  0.00     0.023 C 
ENDROOT
BRANCH   1   2
ATOM      2  C   UNL A   1      39.075  22.223  26.148  1.00  0.00     0.023 C 
BRANCH   2   3
ATOM      3  C   UNL A   1      40.468  21.863  26.671  1.00  0.00     0.116 C 
BRANCH   3   4
ATOM      4  N   UNL A   1      41.564  22.294  25.823  1.00  0.00    -0.352 N 
ATOM      5  O   UNL A   1      43.310  23.359  24.992  1.00  0.00    -0.269 OA
ATOM      6  C   UNL A   1      42.316  23.431  25.725  1.00  0.00     0.251 C 
ATOM      7  H   UNL A   1      41.826  21.609  25.167  1.00  0.00     0.163 HD
BRANCH   6   8
ATOM      8  C   UNL A   1      42.008  24.734  26.375  1.00  0.00     0.039 A 
ATOM      9  C   UNL A   1      41.315  25.790  25.787  1.00  0.00     0.014 A 
ATOM     10  C   UNL A   1      42.513  24.912  27.679  1.00  0.00     0.014 A 
ATOM     11  C   UNL A   1      41.200  27.012  26.443  1.00  0.00     0.010 A 
ATOM     12  C   UNL A   1      42.384  26.126  28.351  1.00  0.00     0.010 A 
ATOM     13  C   UNL A   1      41.754  27.189  27.716  1.00  0.00    -0.014 A 
BRANCH  13  14
ATOM     14  C   UNL A   1      41.509  28.463  28.390  1.00  0.00     0.031 A 
ATOM     15  C   UNL A   1      42.561  29.499  28.160  1.00  0.00     0.074 A 
ATOM     16  C   UNL A   1      40.390  28.767  29.077  1.00  0.00     0.049 A 
ATOM     17  N   UNL A   1      43.310  30.091  29.034  1.00  0.00    -0.248 NA
ATOM     18  C   UNL A   1      42.873  29.856  26.767  1.00  0.00     0.031 C 
ATOM     19  C   UNL A   1      39.141  28.010  29.170  1.00  0.00     0.029 A 
ATOM     20  N   UNL A   1      40.117  29.899  29.790  1.00  0.00    -0.354 N 
ATOM     21  C   UNL A   1      44.094  31.000  28.324  1.00  0.00     0.074 A 
ATOM     22  C   UNL A   1      43.858  30.741  26.928  1.00  0.00     0.031 C 
ATOM     23  C   UNL A   1      38.182  28.795  29.717  1.00  0.00     0.029 A 
ATOM     24  C   UNL A   1      38.783  30.049  30.142  1.00  0.00     0.049 A 
ATOM     25  H   UNL A   1      40.810  30.555  30.035  1.00  0.00     0.167 HD
ATOM     26  C   UNL A   1      44.752  32.019  28.942  1.00  0.00     0.037 A 
ATOM     27  C   UNL A   1      38.210  31.146  30.698  1.00  0.00     0.037 A 
ATOM     28  C   UNL A   1      44.926  31.764  30.346  1.00  0.00     0.049 A 
ATOM     29  C   UNL A   1      39.288  31.955  31.315  1.00  0.00     0.074 A 
ATOM     30  C   UNL A   1      45.585  30.799  31.081  1.00  0.00     0.029 A 
ATOM     31  N   UNL A   1      44.087  32.389  31.233  1.00  0.00    -0.354 N 
ATOM     32  N   UNL A   1      39.963  31.593  32.369  1.00  0.00    -0.248 NA
ATOM     33  C   UNL A   1      39.901  32.993  30.501  1.00  0.00     0.031 C 
ATOM     34  C   UNL A   1      44.747  30.559  32.208  1.00  0.00     0.029 A 
ATOM     35  C   UNL A   1      43.662  31.430  32.115  1.00  0.00     0.049 A 
ATOM     36  H   UNL A   1      43.840  33.342  31.237  1.00  0.00     0.167 HD
ATOM     37  C   UNL A   1      41.255  32.029  32.121  1.00  0.00     0.074 A 
ATOM     38  C   UNL A   1      41.138  32.961  31.003  1.00  0.00     0.031 C 
ATOM     39  C   UNL A   1      42.329  31.386  32.663  1.00  0.00     0.037 A 
BRANCH  26  40
ATOM     40  C   UNL A   1      44.961  33.387  28.342  1.00  0.00     0.064 A 
ATOM     41  C   UNL A   1      46.270  33.870  28.144  1.00  0.00     0.173 A 
ATOM     42  C   UNL A   1      43.936  34.352  28.244  1.00  0.00     0.173 A 
ATOM     43  F   UNL A   1      47.324  33.044  28.235  1.00  0.00    -0.203 F 
ATOM     44  C   UNL A   1      46.535  35.227  27.941  1.00  0.00     0.198 A 
ATOM     45  C   UNL A   1      44.200  35.697  27.991  1.00  0.00     0.198 A 
ATOM     46  F   UNL A   1      42.656  34.056  28.501  1.00  0.00    -0.203 F 
ATOM     47  F   UNL A   1      47.803  35.656  27.883  1.00  0.00    -0.200 F 
ATOM     48  C   UNL A   1      45.500  36.141  27.872  1.00  0.00     0.200 A 
ATOM     49  F   UNL A   1      43.184  36.572  27.948  1.00  0.00    -0.200 F 
ATOM     50  F   UNL A   1      45.753  37.449  27.741  1.00  0.00    -0.200 F 
ENDBRANCH  26  40
BRANCH  27  51
ATOM     51  C   UNL A   1      36.856  31.701  30.470  1.00  0.00     0.064 A 
ATOM     52  C   UNL A   1      35.973  31.929  31.540  1.00  0.00     0.173 A 
ATOM     53  C   UNL A   1      36.519  32.298  29.241  1.00  0.00     0.173 A 
ATOM     54  F   UNL A   1      36.245  31.437  32.756  1.00  0.00    -0.203 F 
ATOM     55  C   UNL A   1      34.835  32.731  31.394  1.00  0.00     0.198 A 
ATOM     56  C   UNL A   1      35.383  33.095  29.095  1.00  0.00     0.198 A 
ATOM     57  F   UNL A   1      37.342  32.205  28.187  1.00  0.00    -0.203 F 
ATOM     58  F   UNL A   1      34.051  32.981  32.451  1.00  0.00    -0.200 F 
ATOM     59  C   UNL A   1      34.548  33.324  30.174  1.00  0.00     0.200 A 
ATOM     60  F   UNL A   1      35.138  33.695  27.922  1.00  0.00    -0.200 F 
ATOM     61  F   UNL A   1      33.497  34.145  30.049  1.00  0.00    -0.200 F 
ENDBRANCH  27  51
BRANCH  39  62
ATOM     62  C   UNL A   1      42.073  30.369  33.738  1.00  0.00     0.064 A 
ATOM     63  C   UNL A   1      41.710  29.034  33.488  1.00  0.00     0.173 A 
ATOM     64  C   UNL A   1      42.360  30.724  35.063  1.00  0.00     0.173 A 
ATOM     65  F   UNL A   1      41.516  28.592  32.240  1.00  0.00    -0.203 F 
ATOM     66  C   UNL A   1      41.607  28.109  34.527  1.00  0.00     0.198 A 
ATOM     67  C   UNL A   1      42.293  29.789  36.091  1.00  0.00     0.198 A 
ATOM     68  F   UNL A   1      42.765  31.971  35.352  1.00  0.00    -0.203 F 
ATOM     69  F   UNL A   1      41.255  26.840  34.266  1.00  0.00    -0.200 F 
ATOM     70  C   UNL A   1      41.907  28.485  35.826  1.00  0.00     0.200 A 
ATOM     71  F   UNL A   1      42.634  30.145  37.338  1.00  0.00    -0.200 F 
ATOM     72  F   UNL A   1      41.857  27.584  36.817  1.00  0.00    -0.200 F 
ENDBRANCH  39  62
ENDBRANCH  13  14
ENDBRANCH   6   8
ENDBRANCH   3   4
ENDBRANCH   2   3
ENDBRANCH   1   2
BRANCH   1  73
ATOM     73  C   UNL A   1      37.159  23.946  26.086  1.00  0.00     0.116 C 
BRANCH  73  74
ATOM     74  N   UNL A   1      36.813  23.592  24.728  1.00  0.00    -0.351 N 
ATOM     75  C   UNL A   1      35.612  23.241  24.173  1.00  0.00     0.278 C 
ATOM     76  H   UNL A   1      37.568  23.605  24.097  1.00  0.00     0.163 HD
ATOM     77  O   UNL A   1      35.582  23.206  22.934  1.00  0.00    -0.268 OA
BRANCH  75  78
ATOM     78  C   UNL A   1      34.326  22.866  24.979  1.00  0.00     0.274 C 
ATOM     79  C   UNL A   1      33.804  23.964  25.912  1.00  0.00     0.085 C 
ATOM     80  N   UNL A   1      33.192  22.470  24.085  1.00  0.00    -0.321 N 
ATOM     81  C   UNL A   1      32.391  24.239  25.407  1.00  0.00     0.054 C 
ATOM     82  C   UNL A   1      32.331  23.648  24.003  1.00  0.00     0.188 C 
ATOM     83  H   UNL A   1      33.519  22.226  23.150  1.00  0.00     0.349 HD
ATOM     84  C   UNL A   1      31.847  25.656  25.472  1.00  0.00     0.010 C 
ATOM     85  C   UNL A   1      30.911  23.612  23.454  1.00  0.00     0.065 C 
ATOM     86  C   UNL A   1      30.420  25.676  24.914  1.00  0.00     0.001 C 
ATOM     87  C   UNL A   1      30.289  25.014  23.533  1.00  0.00     0.006 C 
BRANCH  80  88
ATOM     88  C   UNL A   1      32.546  21.184  24.423  1.00  0.00     0.285 C 
BRANCH  88  89
ATOM     89  C   UNL A   1      33.309  19.949  24.984  1.00  0.00     0.184 C 
BRANCH  89  90
ATOM     90  N   UNL A   1      33.422  18.776  24.141  1.00  0.00    -0.332 N 
ATOM     91  C   UNL A   1      34.392  17.811  24.226  1.00  0.00     0.107 A 
ATOM     92  C   UNL A   1      32.610  18.435  23.098  1.00  0.00     0.199 A 
ATOM     93  C   UNL A   1      33.984  16.822  23.361  1.00  0.00     0.130 A 
ATOM     94  N   UNL A   1      32.888  17.229  22.649  1.00  0.00    -0.245 NA
ENDBRANCH  89  90
ENDBRANCH  88  89
ENDBRANCH  80  88
ENDBRANCH  75  78
ENDBRANCH  73  74
ENDBRANCH   1  73
TORSDOF 14
ENDMDL
