MODEL 1
REMARK VINA RESULT:     -13.2      0.000      0.000
REMARK SMILES Cc1cc(C(=O)NCCCCNC(=O)c2ccc(-c3c4nc(c(-c5c(F)c(F)c(F)c(F)c5F)c5ccc([nH]5)c(-c5c(F)c(F)c(F)c(F)c5F)c5nc(c(-c6c(F)c(F)c(F)c(F)c6F)c6ccc3[nH]6)C=C5)C=C4)cc2)ccc1NS(=O)(=O)c1ccc(C#N)cc1C
REMARK SMILES IDX 8 1 7 2 5 3 6 4 4 6 1 7 2 8 3 9 80 10 79 11 78 12 81 13
REMARK SMILES IDX 82 15 83 16 84 17 85 18 86 19 92 20 87 21 91 22 93 23 88 24
REMARK SMILES IDX 89 25 90 26 9 27 10 28 11 29 12 30 13 31 14 33 15 34 16 35
REMARK SMILES IDX 77 36 17 37 76 38 18 39 19 40 20 41 70 42 21 43 75 44 69 45
REMARK SMILES IDX 71 46 22 47 74 48 68 49 67 50 23 52 55 53 35 54 54 55 36 56
REMARK SMILES IDX 39 57 53 58 72 59 37 60 38 61 52 63 73 64 40 65 24 66 25 67
REMARK SMILES IDX 33 68 26 69 27 70 31 71 34 72 28 73 29 74 32 75 30 76 56 77
REMARK SMILES IDX 57 78 65 79 58 80 59 81 63 82 66 83 60 84 61 85 64 86 62 87
REMARK SMILES IDX 41 88 42 89 50 90 43 91 44 92 48 93 51 94 45 95 46 96 49 97
REMARK SMILES IDX 47 98
REMARK H PARENT 7 5 81 14 12 32 71 51 39 62
REMARK Flexibility Score: inf
ROOT
ATOM      1  C   UNL A   1      34.111  29.220  26.745  1.00  0.00     0.116 C 
ENDROOT
BRANCH   1   2
ATOM      2  N   UNL A   1      32.978  28.838  27.572  1.00  0.00    -0.352 N 
ATOM      3  C   UNL A   1      31.767  28.268  27.249  1.00  0.00     0.251 C 
ATOM      4  O   UNL A   1      31.048  27.875  28.166  1.00  0.00    -0.269 OA
ATOM      5  H   UNL A   1      33.097  29.022  28.532  1.00  0.00     0.163 HD
BRANCH   3   6
ATOM      6  C   UNL A   1      31.348  28.034  25.840  1.00  0.00     0.040 A 
ATOM      7  C   UNL A   1      29.936  25.163  23.818  1.00  0.00     0.046 C 
ATOM      8  C   UNL A   1      30.670  26.438  24.131  1.00  0.00    -0.026 A 
ATOM      9  C   UNL A   1      30.876  26.769  25.484  1.00  0.00     0.019 A 
ATOM     10  C   UNL A   1      31.046  27.357  23.137  1.00  0.00     0.052 A 
ATOM     11  C   UNL A   1      31.211  28.685  23.507  1.00  0.00     0.028 A 
ATOM     12  C   UNL A   1      31.363  29.015  24.854  1.00  0.00     0.016 A 
BRANCH  10  13
ATOM     13  N   UNL A   1      31.642  26.843  21.945  1.00  0.00    -0.279 N 
ATOM     14  H   UNL A   1      31.061  26.817  21.150  1.00  0.00     0.180 HD
BRANCH  13  15
ATOM     15  S   UNL A   1      33.201  26.279  21.729  1.00  0.00     0.262 S 
ATOM     16  O   UNL A   1      33.138  25.456  20.540  1.00  0.00    -0.201 OA
ATOM     17  O   UNL A   1      34.089  27.419  21.815  1.00  0.00    -0.201 OA
BRANCH  15  18
ATOM     18  C   UNL A   1      33.661  25.170  23.077  1.00  0.00     0.090 A 
ATOM     19  C   UNL A   1      34.173  25.675  24.277  1.00  0.00     0.024 A 
ATOM     20  C   UNL A   1      33.769  23.790  22.800  1.00  0.00    -0.029 A 
ATOM     21  C   UNL A   1      35.011  24.873  25.064  1.00  0.00     0.021 A 
ATOM     22  C   UNL A   1      34.603  22.997  23.610  1.00  0.00     0.024 A 
ATOM     23  C   UNL A   1      32.993  23.090  21.717  1.00  0.00     0.046 C 
ATOM     24  C   UNL A   1      35.297  23.562  24.678  1.00  0.00     0.052 A 
BRANCH  24  25
ATOM     25  C   UNL A   1      36.380  22.847  25.291  1.00  0.00     0.099 C 
ATOM     26  N   UNL A   1      37.318  22.366  25.767  1.00  0.00    -0.192 NA
ENDBRANCH  24  25
ENDBRANCH  15  18
ENDBRANCH  13  15
ENDBRANCH  10  13
ENDBRANCH   3   6
ENDBRANCH   1   2
BRANCH   1  27
ATOM     27  C   UNL A   1      35.425  29.317  27.532  1.00  0.00     0.023 C 
BRANCH  27  28
ATOM     28  C   UNL A   1      35.887  30.732  27.847  1.00  0.00     0.023 C 
BRANCH  28  29
ATOM     29  C   UNL A   1      35.790  31.103  29.309  1.00  0.00     0.116 C 
BRANCH  29  30
ATOM     30  N   UNL A   1      34.828  32.152  29.605  1.00  0.00    -0.352 N 
ATOM     31  C   UNL A   1      34.791  33.040  30.667  1.00  0.00     0.251 C 
ATOM     32  H   UNL A   1      34.094  32.244  28.954  1.00  0.00     0.163 HD
ATOM     33  O   UNL A   1      33.769  33.683  30.880  1.00  0.00    -0.269 OA
BRANCH  31  34
ATOM     34  C   UNL A   1      36.039  33.391  31.406  1.00  0.00     0.039 A 
ATOM     35  C   UNL A   1      37.058  33.952  30.617  1.00  0.00     0.014 A 
ATOM     36  C   UNL A   1      36.365  32.722  32.573  1.00  0.00     0.014 A 
ATOM     37  C   UNL A   1      38.355  33.498  30.777  1.00  0.00     0.010 A 
ATOM     38  C   UNL A   1      37.576  32.096  32.600  1.00  0.00     0.010 A 
ATOM     39  C   UNL A   1      38.540  32.445  31.653  1.00  0.00    -0.014 A 
BRANCH  39  40
ATOM     40  C   UNL A   1      39.730  31.639  31.743  1.00  0.00     0.031 A 
ATOM     41  C   UNL A   1      39.712  30.403  30.952  1.00  0.00     0.074 A 
ATOM     42  C   UNL A   1      40.810  32.251  32.276  1.00  0.00     0.049 A 
ATOM     43  N   UNL A   1      40.556  29.449  31.067  1.00  0.00    -0.248 NA
ATOM     44  C   UNL A   1      38.667  30.116  29.965  1.00  0.00     0.031 C 
ATOM     45  C   UNL A   1      42.226  31.944  32.121  1.00  0.00     0.029 A 
ATOM     46  N   UNL A   1      40.792  33.263  33.255  1.00  0.00    -0.354 N 
ATOM     47  C   UNL A   1      40.405  28.641  29.957  1.00  0.00     0.074 A 
ATOM     48  C   UNL A   1      39.130  29.000  29.402  1.00  0.00     0.031 C 
ATOM     49  C   UNL A   1      42.903  32.482  33.155  1.00  0.00     0.029 A 
ATOM     50  C   UNL A   1      41.910  33.009  34.081  1.00  0.00     0.049 A 
ATOM     51  H   UNL A   1      40.138  33.994  33.345  1.00  0.00     0.167 HD
ATOM     52  C   UNL A   1      41.490  27.916  29.563  1.00  0.00     0.037 A 
ATOM     53  C   UNL A   1      41.709  32.534  35.348  1.00  0.00     0.037 A 
ATOM     54  C   UNL A   1      42.552  28.082  30.559  1.00  0.00     0.049 A 
ATOM     55  C   UNL A   1      42.217  31.120  35.505  1.00  0.00     0.074 A 
ATOM     56  C   UNL A   1      43.652  28.922  30.609  1.00  0.00     0.029 A 
ATOM     57  N   UNL A   1      42.320  27.653  31.862  1.00  0.00    -0.354 N 
ATOM     58  N   UNL A   1      42.278  30.256  34.527  1.00  0.00    -0.248 NA
ATOM     59  C   UNL A   1      42.744  30.594  36.759  1.00  0.00     0.031 C 
ATOM     60  C   UNL A   1      44.024  29.065  31.972  1.00  0.00     0.029 A 
ATOM     61  C   UNL A   1      43.164  28.299  32.745  1.00  0.00     0.049 A 
ATOM     62  H   UNL A   1      41.648  26.981  32.120  1.00  0.00     0.167 HD
ATOM     63  C   UNL A   1      42.860  29.102  34.979  1.00  0.00     0.074 A 
ATOM     64  C   UNL A   1      43.131  29.362  36.382  1.00  0.00     0.031 C 
ATOM     65  C   UNL A   1      43.091  28.024  34.171  1.00  0.00     0.037 A 
BRANCH  52  66
ATOM     66  C   UNL A   1      41.737  27.319  28.190  1.00  0.00     0.064 A 
ATOM     67  C   UNL A   1      42.000  25.934  28.075  1.00  0.00     0.173 A 
ATOM     68  C   UNL A   1      41.801  28.021  26.970  1.00  0.00     0.173 A 
ATOM     69  F   UNL A   1      41.916  25.116  29.132  1.00  0.00    -0.203 F 
ATOM     70  C   UNL A   1      42.367  25.329  26.870  1.00  0.00     0.198 A 
ATOM     71  C   UNL A   1      42.174  27.415  25.764  1.00  0.00     0.198 A 
ATOM     72  F   UNL A   1      41.486  29.313  26.870  1.00  0.00    -0.203 F 
ATOM     73  F   UNL A   1      42.632  24.014  26.843  1.00  0.00    -0.200 F 
ATOM     74  C   UNL A   1      42.467  26.071  25.715  1.00  0.00     0.200 A 
ATOM     75  F   UNL A   1      42.246  28.155  24.647  1.00  0.00    -0.200 F 
ATOM     76  F   UNL A   1      42.827  25.494  24.561  1.00  0.00    -0.200 F 
ENDBRANCH  52  66
BRANCH  53  77
ATOM     77  C   UNL A   1      40.457  33.083  35.955  1.00  0.00     0.064 A 
ATOM     78  C   UNL A   1      39.366  32.201  36.098  1.00  0.00     0.173 A 
ATOM     79  C   UNL A   1      40.469  34.223  36.770  1.00  0.00     0.173 A 
ATOM     80  F   UNL A   1      39.290  31.100  35.332  1.00  0.00    -0.203 F 
ATOM     81  C   UNL A   1      38.434  32.360  37.121  1.00  0.00     0.198 A 
ATOM     82  C   UNL A   1      39.513  34.389  37.779  1.00  0.00     0.198 A 
ATOM     83  F   UNL A   1      41.470  35.109  36.684  1.00  0.00    -0.203 F 
ATOM     84  F   UNL A   1      37.491  31.429  37.307  1.00  0.00    -0.200 F 
ATOM     85  C   UNL A   1      38.534  33.431  37.989  1.00  0.00     0.200 A 
ATOM     86  F   UNL A   1      39.607  35.429  38.621  1.00  0.00    -0.200 F 
ATOM     87  F   UNL A   1      37.714  33.523  39.046  1.00  0.00    -0.200 F 
ENDBRANCH  53  77
BRANCH  65  88
ATOM     88  C   UNL A   1      43.357  26.616  34.651  1.00  0.00     0.064 A 
ATOM     89  C   UNL A   1      42.347  25.719  35.030  1.00  0.00     0.173 A 
ATOM     90  C   UNL A   1      44.662  26.064  34.584  1.00  0.00     0.173 A 
ATOM     91  F   UNL A   1      41.052  26.059  34.990  1.00  0.00    -0.203 F 
ATOM     92  C   UNL A   1      42.628  24.404  35.407  1.00  0.00     0.198 A 
ATOM     93  C   UNL A   1      44.924  24.728  34.873  1.00  0.00     0.198 A 
ATOM     94  F   UNL A   1      45.721  26.791  34.201  1.00  0.00    -0.203 F 
ATOM     95  F   UNL A   1      41.634  23.613  35.833  1.00  0.00    -0.200 F 
ATOM     96  C   UNL A   1      43.913  23.905  35.316  1.00  0.00     0.200 A 
ATOM     97  F   UNL A   1      46.161  24.243  34.699  1.00  0.00    -0.200 F 
ATOM     98  F   UNL A   1      44.170  22.630  35.630  1.00  0.00    -0.200 F 
ENDBRANCH  65  88
ENDBRANCH  39  40
ENDBRANCH  31  34
ENDBRANCH  29  30
ENDBRANCH  28  29
ENDBRANCH  27  28
ENDBRANCH   1  27
TORSDOF 15
ENDMDL
MODEL 2
REMARK VINA RESULT:     -12.9      1.500      1.855
REMARK SMILES Cc1cc(C(=O)NCCCCNC(=O)c2ccc(-c3c4nc(c(-c5c(F)c(F)c(F)c(F)c5F)c5ccc([nH]5)c(-c5c(F)c(F)c(F)c(F)c5F)c5nc(c(-c6c(F)c(F)c(F)c(F)c6F)c6ccc3[nH]6)C=C5)C=C4)cc2)ccc1NS(=O)(=O)c1ccc(C#N)cc1C
REMARK SMILES IDX 8 1 7 2 5 3 6 4 4 6 1 7 2 8 3 9 80 10 79 11 78 12 81 13
REMARK SMILES IDX 82 15 83 16 84 17 85 18 86 19 92 20 87 21 91 22 93 23 88 24
REMARK SMILES IDX 89 25 90 26 9 27 10 28 11 29 12 30 13 31 14 33 15 34 16 35
REMARK SMILES IDX 77 36 17 37 76 38 18 39 19 40 20 41 70 42 21 43 75 44 69 45
REMARK SMILES IDX 71 46 22 47 74 48 68 49 67 50 23 52 55 53 35 54 54 55 36 56
REMARK SMILES IDX 39 57 53 58 72 59 37 60 38 61 52 63 73 64 40 65 24 66 25 67
REMARK SMILES IDX 33 68 26 69 27 70 31 71 34 72 28 73 29 74 32 75 30 76 56 77
REMARK SMILES IDX 57 78 65 79 58 80 59 81 63 82 66 83 60 84 61 85 64 86 62 87
REMARK SMILES IDX 41 88 42 89 50 90 43 91 44 92 48 93 51 94 45 95 46 96 49 97
REMARK SMILES IDX 47 98
REMARK H PARENT 7 5 81 14 12 32 71 51 39 62
REMARK Flexibility Score: inf
ROOT
ATOM      1  C   UNL A   1      35.037  30.293  27.692  1.00  0.00     0.116 C 
ENDROOT
BRANCH   1   2
ATOM      2  N   UNL A   1      33.749  30.731  27.180  1.00  0.00    -0.352 N 
ATOM      3  C   UNL A   1      32.842  30.112  26.349  1.00  0.00     0.251 C 
ATOM      4  O   UNL A   1      31.734  30.628  26.212  1.00  0.00    -0.269 OA
ATOM      5  H   UNL A   1      33.478  31.630  27.478  1.00  0.00     0.163 HD
BRANCH   3   6
ATOM      6  C   UNL A   1      33.126  28.808  25.691  1.00  0.00     0.040 A 
ATOM      7  C   UNL A   1      33.808  27.576  22.178  1.00  0.00     0.046 C 
ATOM      8  C   UNL A   1      33.368  27.557  23.616  1.00  0.00    -0.026 A 
ATOM      9  C   UNL A   1      33.309  28.782  24.307  1.00  0.00     0.019 A 
ATOM     10  C   UNL A   1      33.133  26.364  24.319  1.00  0.00     0.052 A 
ATOM     11  C   UNL A   1      33.263  26.385  25.701  1.00  0.00     0.028 A 
ATOM     12  C   UNL A   1      33.256  27.605  26.378  1.00  0.00     0.016 A 
BRANCH  10  13
ATOM     13  N   UNL A   1      32.380  25.342  23.664  1.00  0.00    -0.279 N 
ATOM     14  H   UNL A   1      31.409  25.495  23.603  1.00  0.00     0.180 HD
BRANCH  13  15
ATOM     15  S   UNL A   1      32.940  23.918  22.989  1.00  0.00     0.262 S 
ATOM     16  O   UNL A   1      31.924  22.934  23.300  1.00  0.00    -0.201 OA
ATOM     17  O   UNL A   1      33.320  24.208  21.622  1.00  0.00    -0.201 OA
BRANCH  15  18
ATOM     18  C   UNL A   1      34.439  23.369  23.831  1.00  0.00     0.090 A 
ATOM     19  C   UNL A   1      35.684  23.438  23.196  1.00  0.00     0.024 A 
ATOM     20  C   UNL A   1      34.301  22.608  25.013  1.00  0.00    -0.029 A 
ATOM     21  C   UNL A   1      36.704  22.556  23.576  1.00  0.00     0.021 A 
ATOM     22  C   UNL A   1      35.343  21.740  25.387  1.00  0.00     0.024 A 
ATOM     23  C   UNL A   1      33.122  22.712  25.943  1.00  0.00     0.046 C 
ATOM     24  C   UNL A   1      36.498  21.645  24.614  1.00  0.00     0.052 A 
BRANCH  24  25
ATOM     25  C   UNL A   1      37.402  20.546  24.803  1.00  0.00     0.099 C 
ATOM     26  N   UNL A   1      38.041  19.605  25.011  1.00  0.00    -0.192 NA
ENDBRANCH  24  25
ENDBRANCH  15  18
ENDBRANCH  13  15
ENDBRANCH  10  13
ENDBRANCH   3   6
ENDBRANCH   1   2
BRANCH   1  27
ATOM     27  C   UNL A   1      36.005  31.454  27.957  1.00  0.00     0.023 C 
BRANCH  27  28
ATOM     28  C   UNL A   1      35.440  32.587  28.801  1.00  0.00     0.023 C 
BRANCH  28  29
ATOM     29  C   UNL A   1      35.162  32.206  30.238  1.00  0.00     0.116 C 
BRANCH  29  30
ATOM     30  N   UNL A   1      34.201  33.062  30.915  1.00  0.00    -0.352 N 
ATOM     31  C   UNL A   1      34.270  33.643  32.170  1.00  0.00     0.251 C 
ATOM     32  H   UNL A   1      33.379  33.254  30.407  1.00  0.00     0.163 HD
ATOM     33  O   UNL A   1      33.257  34.123  32.669  1.00  0.00    -0.269 OA
BRANCH  31  34
ATOM     34  C   UNL A   1      35.590  33.898  32.817  1.00  0.00     0.039 A 
ATOM     35  C   UNL A   1      36.544  34.522  31.995  1.00  0.00     0.014 A 
ATOM     36  C   UNL A   1      36.008  33.107  33.873  1.00  0.00     0.014 A 
ATOM     37  C   UNL A   1      37.838  34.035  31.981  1.00  0.00     0.010 A 
ATOM     38  C   UNL A   1      37.201  32.464  33.720  1.00  0.00     0.010 A 
ATOM     39  C   UNL A   1      38.079  32.894  32.724  1.00  0.00    -0.014 A 
BRANCH  39  40
ATOM     40  C   UNL A   1      39.252  32.066  32.617  1.00  0.00     0.031 A 
ATOM     41  C   UNL A   1      39.090  30.851  31.810  1.00  0.00     0.074 A 
ATOM     42  C   UNL A   1      40.413  32.646  32.995  1.00  0.00     0.049 A 
ATOM     43  N   UNL A   1      39.922  29.879  31.777  1.00  0.00    -0.248 NA
ATOM     44  C   UNL A   1      37.903  30.606  30.986  1.00  0.00     0.031 C 
ATOM     45  C   UNL A   1      41.782  32.318  32.622  1.00  0.00     0.029 A 
ATOM     46  N   UNL A   1      40.563  33.634  33.986  1.00  0.00    -0.354 N 
ATOM     47  C   UNL A   1      39.589  29.102  30.685  1.00  0.00     0.074 A 
ATOM     48  C   UNL A   1      38.253  29.496  30.335  1.00  0.00     0.031 C 
ATOM     49  C   UNL A   1      42.618  32.819  33.553  1.00  0.00     0.029 A 
ATOM     50  C   UNL A   1      41.786  33.340  34.629  1.00  0.00     0.049 A 
ATOM     51  H   UNL A   1      39.945  34.374  34.190  1.00  0.00     0.167 HD
ATOM     52  C   UNL A   1      40.587  28.368  30.116  1.00  0.00     0.037 A 
ATOM     53  C   UNL A   1      41.767  32.838  35.902  1.00  0.00     0.037 A 
ATOM     54  C   UNL A   1      41.790  28.491  30.945  1.00  0.00     0.049 A 
ATOM     55  C   UNL A   1      42.263  31.411  35.949  1.00  0.00     0.074 A 
ATOM     56  C   UNL A   1      42.902  29.310  30.846  1.00  0.00     0.029 A 
ATOM     57  N   UNL A   1      41.747  28.033  32.258  1.00  0.00    -0.354 N 
ATOM     58  N   UNL A   1      42.160  30.571  34.955  1.00  0.00    -0.248 NA
ATOM     59  C   UNL A   1      42.962  30.845  37.098  1.00  0.00     0.031 C 
ATOM     60  C   UNL A   1      43.477  29.413  32.142  1.00  0.00     0.029 A 
ATOM     61  C   UNL A   1      42.727  28.643  33.018  1.00  0.00     0.049 A 
ATOM     62  H   UNL A   1      41.107  27.367  32.599  1.00  0.00     0.167 HD
ATOM     63  C   UNL A   1      42.779  29.396  35.289  1.00  0.00     0.074 A 
ATOM     64  C   UNL A   1      43.262  29.617  36.641  1.00  0.00     0.031 C 
ATOM     65  C   UNL A   1      42.863  28.334  34.433  1.00  0.00     0.037 A 
BRANCH  52  66
ATOM     66  C   UNL A   1      40.613  27.801  28.709  1.00  0.00     0.064 A 
ATOM     67  C   UNL A   1      39.983  26.561  28.451  1.00  0.00     0.173 A 
ATOM     68  C   UNL A   1      41.273  28.355  27.594  1.00  0.00     0.173 A 
ATOM     69  F   UNL A   1      39.260  25.934  29.390  1.00  0.00    -0.203 F 
ATOM     70  C   UNL A   1      40.072  25.906  27.220  1.00  0.00     0.198 A 
ATOM     71  C   UNL A   1      41.366  27.696  26.362  1.00  0.00     0.198 A 
ATOM     72  F   UNL A   1      41.837  29.563  27.624  1.00  0.00    -0.203 F 
ATOM     73  F   UNL A   1      39.474  24.716  27.058  1.00  0.00    -0.200 F 
ATOM     74  C   UNL A   1      40.775  26.467  26.177  1.00  0.00     0.200 A 
ATOM     75  F   UNL A   1      42.040  28.270  25.355  1.00  0.00    -0.200 F 
ATOM     76  F   UNL A   1      40.868  25.837  24.999  1.00  0.00    -0.200 F 
ENDBRANCH  52  66
BRANCH  53  77
ATOM     77  C   UNL A   1      40.633  33.393  36.702  1.00  0.00     0.064 A 
ATOM     78  C   UNL A   1      39.510  32.561  36.899  1.00  0.00     0.173 A 
ATOM     79  C   UNL A   1      40.812  34.449  37.606  1.00  0.00     0.173 A 
ATOM     80  F   UNL A   1      39.276  31.543  36.054  1.00  0.00    -0.203 F 
ATOM     81  C   UNL A   1      38.716  32.673  38.037  1.00  0.00     0.198 A 
ATOM     82  C   UNL A   1      39.993  34.570  38.734  1.00  0.00     0.198 A 
ATOM     83  F   UNL A   1      41.851  35.283  37.477  1.00  0.00    -0.203 F 
ATOM     84  F   UNL A   1      37.742  31.780  38.253  1.00  0.00    -0.200 F 
ATOM     85  C   UNL A   1      38.984  33.650  38.977  1.00  0.00     0.200 A 
ATOM     86  F   UNL A   1      40.251  35.519  39.647  1.00  0.00    -0.200 F 
ATOM     87  F   UNL A   1      38.301  33.685  40.130  1.00  0.00    -0.200 F 
ENDBRANCH  53  77
BRANCH  65  88
ATOM     88  C   UNL A   1      43.169  26.911  34.836  1.00  0.00     0.064 A 
ATOM     89  C   UNL A   1      42.220  26.038  35.390  1.00  0.00     0.173 A 
ATOM     90  C   UNL A   1      44.418  26.320  34.515  1.00  0.00     0.173 A 
ATOM     91  F   UNL A   1      40.953  26.418  35.602  1.00  0.00    -0.203 F 
ATOM     92  C   UNL A   1      42.524  24.709  35.691  1.00  0.00     0.198 A 
ATOM     93  C   UNL A   1      44.686  24.972  34.733  1.00  0.00     0.198 A 
ATOM     94  F   UNL A   1      45.409  27.022  33.946  1.00  0.00    -0.203 F 
ATOM     95  F   UNL A   1      41.603  23.940  36.289  1.00  0.00    -0.200 F 
ATOM     96  C   UNL A   1      43.751  24.173  35.351  1.00  0.00     0.200 A 
ATOM     97  F   UNL A   1      45.851  24.453  34.320  1.00  0.00    -0.200 F 
ATOM     98  F   UNL A   1      44.020  22.884  35.595  1.00  0.00    -0.200 F 
ENDBRANCH  65  88
ENDBRANCH  39  40
ENDBRANCH  31  34
ENDBRANCH  29  30
ENDBRANCH  28  29
ENDBRANCH  27  28
ENDBRANCH   1  27
TORSDOF 15
ENDMDL
MODEL 3
REMARK VINA RESULT:     -12.8      4.833     10.489
REMARK SMILES Cc1cc(C(=O)NCCCCNC(=O)c2ccc(-c3c4nc(c(-c5c(F)c(F)c(F)c(F)c5F)c5ccc([nH]5)c(-c5c(F)c(F)c(F)c(F)c5F)c5nc(c(-c6c(F)c(F)c(F)c(F)c6F)c6ccc3[nH]6)C=C5)C=C4)cc2)ccc1NS(=O)(=O)c1ccc(C#N)cc1C
REMARK SMILES IDX 8 1 7 2 5 3 6 4 4 6 1 7 2 8 3 9 80 10 79 11 78 12 81 13
REMARK SMILES IDX 82 15 83 16 84 17 85 18 86 19 92 20 87 21 91 22 93 23 88 24
REMARK SMILES IDX 89 25 90 26 9 27 10 28 11 29 12 30 13 31 14 33 15 34 16 35
REMARK SMILES IDX 77 36 17 37 76 38 18 39 19 40 20 41 70 42 21 43 75 44 69 45
REMARK SMILES IDX 71 46 22 47 74 48 68 49 67 50 23 52 55 53 35 54 54 55 36 56
REMARK SMILES IDX 39 57 53 58 72 59 37 60 38 61 52 63 73 64 40 65 24 66 25 67
REMARK SMILES IDX 33 68 26 69 27 70 31 71 34 72 28 73 29 74 32 75 30 76 56 77
REMARK SMILES IDX 57 78 65 79 58 80 59 81 63 82 66 83 60 84 61 85 64 86 62 87
REMARK SMILES IDX 41 88 42 89 50 90 43 91 44 92 48 93 51 94 45 95 46 96 49 97
REMARK SMILES IDX 47 98
REMARK H PARENT 7 5 81 14 12 32 71 51 39 62
REMARK Flexibility Score: inf
ROOT
ATOM      1  C   UNL A   1      39.105  20.864  26.129  1.00  0.00     0.116 C 
ENDROOT
BRANCH   1   2
ATOM      2  N   UNL A   1      38.743  22.022  25.329  1.00  0.00    -0.352 N 
ATOM      3  C   UNL A   1      37.532  22.646  25.126  1.00  0.00     0.251 C 
ATOM      4  O   UNL A   1      37.527  23.728  24.540  1.00  0.00    -0.269 OA
ATOM      5  H   UNL A   1      39.496  22.432  24.844  1.00  0.00     0.163 HD
BRANCH   3   6
ATOM      6  C   UNL A   1      36.256  22.102  25.666  1.00  0.00     0.040 A 
ATOM      7  C   UNL A   1      33.680  19.537  24.611  1.00  0.00     0.046 C 
ATOM      8  C   UNL A   1      34.270  20.746  25.284  1.00  0.00    -0.026 A 
ATOM      9  C   UNL A   1      35.575  21.134  24.925  1.00  0.00     0.019 A 
ATOM     10  C   UNL A   1      33.620  21.422  26.330  1.00  0.00     0.052 A 
ATOM     11  C   UNL A   1      34.399  22.138  27.227  1.00  0.00     0.028 A 
ATOM     12  C   UNL A   1      35.710  22.476  26.890  1.00  0.00     0.016 A 
BRANCH  10  13
ATOM     13  N   UNL A   1      32.225  21.695  26.181  1.00  0.00    -0.279 N 
ATOM     14  H   UNL A   1      31.631  20.909  26.169  1.00  0.00     0.180 HD
BRANCH  13  15
ATOM     15  S   UNL A   1      31.475  23.181  26.024  1.00  0.00     0.262 S 
ATOM     16  O   UNL A   1      30.463  22.982  25.007  1.00  0.00    -0.201 OA
ATOM     17  O   UNL A   1      31.131  23.635  27.355  1.00  0.00    -0.201 OA
BRANCH  15  18
ATOM     18  C   UNL A   1      32.624  24.398  25.349  1.00  0.00     0.090 A 
ATOM     19  C   UNL A   1      33.027  25.502  26.109  1.00  0.00     0.024 A 
ATOM     20  C   UNL A   1      32.880  24.378  23.961  1.00  0.00    -0.029 A 
ATOM     21  C   UNL A   1      33.435  26.676  25.462  1.00  0.00     0.021 A 
ATOM     22  C   UNL A   1      33.304  25.562  23.331  1.00  0.00     0.024 A 
ATOM     23  C   UNL A   1      32.785  23.141  23.109  1.00  0.00     0.046 C 
ATOM     24  C   UNL A   1      33.485  26.731  24.068  1.00  0.00     0.052 A 
BRANCH  24  25
ATOM     25  C   UNL A   1      33.594  27.995  23.397  1.00  0.00     0.099 C 
ATOM     26  N   UNL A   1      33.648  28.957  22.758  1.00  0.00    -0.192 NA
ENDBRANCH  24  25
ENDBRANCH  15  18
ENDBRANCH  13  15
ENDBRANCH  10  13
ENDBRANCH   3   6
ENDBRANCH   1   2
BRANCH   1  27
ATOM     27  C   UNL A   1      40.550  20.916  26.642  1.00  0.00     0.023 C 
BRANCH  27  28
ATOM     28  C   UNL A   1      41.064  22.306  26.987  1.00  0.00     0.023 C 
BRANCH  28  29
ATOM     29  C   UNL A   1      42.105  22.835  26.027  1.00  0.00     0.116 C 
BRANCH  29  30
ATOM     30  N   UNL A   1      42.802  21.811  25.266  1.00  0.00    -0.352 N 
ATOM     31  C   UNL A   1      44.078  21.828  24.728  1.00  0.00     0.251 C 
ATOM     32  H   UNL A   1      42.291  20.984  25.108  1.00  0.00     0.163 HD
ATOM     33  O   UNL A   1      44.398  20.975  23.907  1.00  0.00    -0.269 OA
BRANCH  31  34
ATOM     34  C   UNL A   1      45.130  22.719  25.300  1.00  0.00     0.039 A 
ATOM     35  C   UNL A   1      45.338  22.580  26.683  1.00  0.00     0.014 A 
ATOM     36  C   UNL A   1      45.439  23.915  24.677  1.00  0.00     0.014 A 
ATOM     37  C   UNL A   1      45.451  23.718  27.461  1.00  0.00     0.010 A 
ATOM     38  C   UNL A   1      45.319  25.045  25.431  1.00  0.00     0.010 A 
ATOM     39  C   UNL A   1      45.258  24.928  26.820  1.00  0.00    -0.014 A 
BRANCH  39  40
ATOM     40  C   UNL A   1      45.038  26.189  27.479  1.00  0.00     0.031 A 
ATOM     41  C   UNL A   1      43.665  26.703  27.410  1.00  0.00     0.074 A 
ATOM     42  C   UNL A   1      46.015  26.584  28.325  1.00  0.00     0.049 A 
ATOM     43  N   UNL A   1      43.312  27.892  27.722  1.00  0.00    -0.248 NA
ATOM     44  C   UNL A   1      42.547  25.895  26.912  1.00  0.00     0.031 C 
ATOM     45  C   UNL A   1      45.955  27.507  29.451  1.00  0.00     0.029 A 
ATOM     46  N   UNL A   1      47.387  26.294  28.203  1.00  0.00    -0.354 N 
ATOM     47  C   UNL A   1      41.936  27.887  27.836  1.00  0.00     0.074 A 
ATOM     48  C   UNL A   1      41.507  26.688  27.171  1.00  0.00     0.031 C 
ATOM     49  C   UNL A   1      47.199  27.956  29.711  1.00  0.00     0.029 A 
ATOM     50  C   UNL A   1      48.059  27.453  28.650  1.00  0.00     0.049 A 
ATOM     51  H   UNL A   1      47.793  25.458  27.875  1.00  0.00     0.167 HD
ATOM     52  C   UNL A   1      41.375  28.817  28.660  1.00  0.00     0.037 A 
ATOM     53  C   UNL A   1      48.702  28.245  27.737  1.00  0.00     0.037 A 
ATOM     54  C   UNL A   1      42.428  29.725  29.125  1.00  0.00     0.049 A 
ATOM     55  C   UNL A   1      48.037  29.595  27.600  1.00  0.00     0.074 A 
ATOM     56  C   UNL A   1      43.179  29.753  30.289  1.00  0.00     0.029 A 
ATOM     57  N   UNL A   1      43.121  30.484  28.187  1.00  0.00    -0.354 N 
ATOM     58  N   UNL A   1      46.765  29.804  27.808  1.00  0.00    -0.248 NA
ATOM     59  C   UNL A   1      48.766  30.816  27.273  1.00  0.00     0.031 C 
ATOM     60  C   UNL A   1      44.378  30.463  30.012  1.00  0.00     0.029 A 
ATOM     61  C   UNL A   1      44.345  30.881  28.690  1.00  0.00     0.049 A 
ATOM     62  H   UNL A   1      42.785  30.707  27.289  1.00  0.00     0.167 HD
ATOM     63  C   UNL A   1      46.500  31.142  27.682  1.00  0.00     0.074 A 
ATOM     64  C   UNL A   1      47.784  31.731  27.344  1.00  0.00     0.031 C 
ATOM     65  C   UNL A   1      45.255  31.672  27.877  1.00  0.00     0.037 A 
BRANCH  52  66
ATOM     66  C   UNL A   1      39.999  28.763  29.293  1.00  0.00     0.064 A 
ATOM     67  C   UNL A   1      38.874  29.175  28.541  1.00  0.00     0.173 A 
ATOM     68  C   UNL A   1      39.700  28.395  30.620  1.00  0.00     0.173 A 
ATOM     69  F   UNL A   1      38.979  29.495  27.244  1.00  0.00    -0.203 F 
ATOM     70  C   UNL A   1      37.592  29.281  29.087  1.00  0.00     0.198 A 
ATOM     71  C   UNL A   1      38.417  28.507  31.169  1.00  0.00     0.198 A 
ATOM     72  F   UNL A   1      40.617  27.889  31.446  1.00  0.00    -0.203 F 
ATOM     73  F   UNL A   1      36.578  29.709  28.320  1.00  0.00    -0.200 F 
ATOM     74  C   UNL A   1      37.364  28.960  30.406  1.00  0.00     0.200 A 
ATOM     75  F   UNL A   1      38.215  28.170  32.452  1.00  0.00    -0.200 F 
ATOM     76  F   UNL A   1      36.138  29.069  30.934  1.00  0.00    -0.200 F 
ENDBRANCH  52  66
BRANCH  53  77
ATOM     77  C   UNL A   1      49.286  27.443  26.619  1.00  0.00     0.064 A 
ATOM     78  C   UNL A   1      48.615  27.476  25.379  1.00  0.00     0.173 A 
ATOM     79  C   UNL A   1      50.636  27.066  26.606  1.00  0.00     0.173 A 
ATOM     80  F   UNL A   1      47.316  27.813  25.329  1.00  0.00    -0.203 F 
ATOM     81  C   UNL A   1      49.302  27.314  24.178  1.00  0.00     0.198 A 
ATOM     82  C   UNL A   1      51.313  26.879  25.396  1.00  0.00     0.198 A 
ATOM     83  F   UNL A   1      51.335  27.006  27.747  1.00  0.00    -0.203 F 
ATOM     84  F   UNL A   1      48.656  27.484  23.019  1.00  0.00    -0.200 F 
ATOM     85  C   UNL A   1      50.661  27.058  24.186  1.00  0.00     0.200 A 
ATOM     86  F   UNL A   1      52.631  26.630  25.401  1.00  0.00    -0.200 F 
ATOM     87  F   UNL A   1      51.348  27.023  23.035  1.00  0.00    -0.200 F 
ENDBRANCH  53  77
BRANCH  65  88
ATOM     88  C   UNL A   1      44.800  33.029  27.394  1.00  0.00     0.064 A 
ATOM     89  C   UNL A   1      44.098  33.234  26.196  1.00  0.00     0.173 A 
ATOM     90  C   UNL A   1      44.919  34.171  28.228  1.00  0.00     0.173 A 
ATOM     91  F   UNL A   1      43.778  32.216  25.386  1.00  0.00    -0.203 F 
ATOM     92  C   UNL A   1      43.637  34.496  25.815  1.00  0.00     0.198 A 
ATOM     93  C   UNL A   1      44.378  35.406  27.885  1.00  0.00     0.198 A 
ATOM     94  F   UNL A   1      45.531  34.119  29.419  1.00  0.00    -0.203 F 
ATOM     95  F   UNL A   1      43.039  34.648  24.626  1.00  0.00    -0.200 F 
ATOM     96  C   UNL A   1      43.765  35.578  26.664  1.00  0.00     0.200 A 
ATOM     97  F   UNL A   1      44.441  36.422  28.757  1.00  0.00    -0.200 F 
ATOM     98  F   UNL A   1      43.277  36.775  26.316  1.00  0.00    -0.200 F 
ENDBRANCH  65  88
ENDBRANCH  39  40
ENDBRANCH  31  34
ENDBRANCH  29  30
ENDBRANCH  28  29
ENDBRANCH  27  28
ENDBRANCH   1  27
TORSDOF 15
ENDMDL
