MODEL 1
REMARK VINA RESULT:     -11.5      0.000      0.000
REMARK SMILES CCOc1cccc(OCC)c1-c1ccc([C@@H](C)C(=O)NCCCCNC(=O)c2ccc(-c3c4nc(c(-c5c(F)c(F)c(F)c(F)c5F)c5ccc([nH]5)c(-c5c(F)c(F)c(F)c(F)c5F)c5nc(c(-c6c(F)c(F)c(F)c(F)c6F)c6ccc3[nH]6)C=C5)C=C4)cc2)cc1F
REMARK SMILES IDX 22 1 21 2 19 3 20 4 17 6 18 7 16 8 13 9 14 10 93 11 15 12
REMARK SMILES IDX 92 13 94 14 12 15 4 16 5 17 6 18 8 19 7 20 3 21 2 22 1 23
REMARK SMILES IDX 9 24 10 25 11 26 23 27 24 28 25 29 26 30 27 31 28 33 29 34
REMARK SMILES IDX 30 35 91 36 31 37 90 38 32 39 33 40 34 41 84 42 35 43 89 44
REMARK SMILES IDX 83 45 85 46 36 47 88 48 82 49 81 50 37 52 69 53 49 54 68 55
REMARK SMILES IDX 50 56 53 57 67 58 86 59 51 60 52 61 66 63 87 64 54 65 38 66
REMARK SMILES IDX 39 67 47 68 40 69 41 70 45 71 48 72 42 73 43 74 46 75 44 76
REMARK SMILES IDX 70 77 71 78 79 79 72 80 73 81 77 82 80 83 74 84 75 85 78 86
REMARK SMILES IDX 76 87 55 88 56 89 64 90 57 91 58 92 62 93 65 94 59 95 60 96
REMARK SMILES IDX 63 97 61 98
REMARK H PARENT 21 5 26 32 85 51 53 62
REMARK Flexibility Score: inf
ROOT
ATOM      1  C   UNL A   1      34.545  29.645  27.120  1.00  0.00     0.116 C 
ENDROOT
BRANCH   1   2
ATOM      2  N   UNL A   1      33.271  29.491  26.434  1.00  0.00    -0.356 N 
ATOM      3  C   UNL A   1      32.886  28.963  25.237  1.00  0.00     0.227 C 
ATOM      4  O   UNL A   1      31.682  29.093  24.975  1.00  0.00    -0.274 OA
ATOM      5  H   UNL A   1      32.515  29.848  26.952  1.00  0.00     0.163 HD
BRANCH   3   6
ATOM      6  C   UNL A   1      33.803  28.242  24.220  1.00  0.00     0.105 C 
ATOM      7  C   UNL A   1      33.601  28.672  22.769  1.00  0.00     0.023 C 
BRANCH   6   8
ATOM      8  C   UNL A   1      33.859  26.734  24.399  1.00  0.00    -0.033 A 
ATOM      9  C   UNL A   1      33.691  23.900  24.639  1.00  0.00     0.025 A 
ATOM     10  C   UNL A   1      33.454  24.550  23.434  1.00  0.00     0.012 A 
ATOM     11  C   UNL A   1      34.006  24.707  25.741  1.00  0.00     0.131 A 
ATOM     12  C   UNL A   1      33.686  25.907  23.301  1.00  0.00     0.005 A 
ATOM     13  C   UNL A   1      34.043  26.110  25.639  1.00  0.00     0.044 A 
ATOM     14  F   UNL A   1      34.243  24.154  26.940  1.00  0.00    -0.206 F 
BRANCH   9  15
ATOM     15  C   UNL A   1      33.499  22.443  24.683  1.00  0.00     0.069 A 
ATOM     16  C   UNL A   1      34.651  21.627  24.499  1.00  0.00     0.130 A 
ATOM     17  C   UNL A   1      34.618  20.237  24.639  1.00  0.00     0.047 A 
ATOM     18  C   UNL A   1      33.432  19.617  24.996  1.00  0.00     0.008 A 
ATOM     19  C   UNL A   1      32.290  21.791  25.028  1.00  0.00     0.130 A 
ATOM     20  C   UNL A   1      32.285  20.388  25.175  1.00  0.00     0.047 A 
BRANCH  16  21
ATOM     21  O   UNL A   1      35.831  22.210  24.101  1.00  0.00    -0.493 OA
BRANCH  21  22
ATOM     22  C   UNL A   1      36.888  22.057  25.053  1.00  0.00     0.226 C 
ATOM     23  C   UNL A   1      37.391  23.437  25.444  1.00  0.00     0.049 C 
ENDBRANCH  21  22
ENDBRANCH  16  21
BRANCH  19  24
ATOM     24  O   UNL A   1      31.020  22.265  25.230  1.00  0.00    -0.493 OA
BRANCH  24  25
ATOM     25  C   UNL A   1      30.572  22.949  26.388  1.00  0.00     0.226 C 
ATOM     26  C   UNL A   1      30.381  24.434  26.100  1.00  0.00     0.049 C 
ENDBRANCH  24  25
ENDBRANCH  19  24
ENDBRANCH   9  15
ENDBRANCH   6   8
ENDBRANCH   3   6
ENDBRANCH   1   2
BRANCH   1  27
ATOM     27  C   UNL A   1      34.550  30.868  28.053  1.00  0.00     0.023 C 
BRANCH  27  28
ATOM     28  C   UNL A   1      33.326  31.769  28.003  1.00  0.00     0.023 C 
BRANCH  28  29
ATOM     29  C   UNL A   1      33.488  33.017  27.152  1.00  0.00     0.116 C 
BRANCH  29  30
ATOM     30  N   UNL A   1      32.796  34.194  27.660  1.00  0.00    -0.352 N 
ATOM     31  C   UNL A   1      33.105  34.945  28.773  1.00  0.00     0.251 C 
ATOM     32  H   UNL A   1      32.010  34.489  27.144  1.00  0.00     0.163 HD
ATOM     33  O   UNL A   1      32.398  35.888  29.111  1.00  0.00    -0.269 OA
BRANCH  31  34
ATOM     34  C   UNL A   1      34.274  34.558  29.590  1.00  0.00     0.039 A 
ATOM     35  C   UNL A   1      34.063  33.973  30.841  1.00  0.00     0.014 A 
ATOM     36  C   UNL A   1      35.566  34.682  29.075  1.00  0.00     0.014 A 
ATOM     37  C   UNL A   1      35.144  33.423  31.531  1.00  0.00     0.010 A 
ATOM     38  C   UNL A   1      36.622  34.048  29.716  1.00  0.00     0.010 A 
ATOM     39  C   UNL A   1      36.423  33.412  30.950  1.00  0.00    -0.014 A 
BRANCH  39  40
ATOM     40  C   UNL A   1      37.572  32.746  31.611  1.00  0.00     0.031 A 
ATOM     41  C   UNL A   1      38.239  31.575  30.944  1.00  0.00     0.074 A 
ATOM     42  C   UNL A   1      37.954  33.133  32.843  1.00  0.00     0.049 A 
ATOM     43  N   UNL A   1      39.187  30.795  31.395  1.00  0.00    -0.248 NA
ATOM     44  C   UNL A   1      37.745  31.207  29.607  1.00  0.00     0.031 C 
ATOM     45  C   UNL A   1      37.339  34.208  33.624  1.00  0.00     0.029 A 
ATOM     46  N   UNL A   1      38.944  32.653  33.663  1.00  0.00    -0.354 N 
ATOM     47  C   UNL A   1      39.381  29.834  30.412  1.00  0.00     0.074 A 
ATOM     48  C   UNL A   1      38.414  30.091  29.369  1.00  0.00     0.031 C 
ATOM     49  C   UNL A   1      37.983  34.324  34.797  1.00  0.00     0.029 A 
ATOM     50  C   UNL A   1      39.032  33.312  34.866  1.00  0.00     0.049 A 
ATOM     51  H   UNL A   1      39.536  31.907  33.414  1.00  0.00     0.167 HD
ATOM     52  C   UNL A   1      40.302  28.842  30.371  1.00  0.00     0.037 A 
ATOM     53  C   UNL A   1      39.866  33.117  35.906  1.00  0.00     0.037 A 
ATOM     54  C   UNL A   1      41.294  28.620  31.388  1.00  0.00     0.049 A 
ATOM     55  C   UNL A   1      40.906  32.035  35.818  1.00  0.00     0.074 A 
ATOM     56  C   UNL A   1      42.321  27.693  31.404  1.00  0.00     0.029 A 
ATOM     57  N   UNL A   1      41.382  29.340  32.571  1.00  0.00    -0.354 N 
ATOM     58  N   UNL A   1      41.129  31.179  34.850  1.00  0.00    -0.248 NA
ATOM     59  C   UNL A   1      41.817  31.897  36.963  1.00  0.00     0.031 C 
ATOM     60  C   UNL A   1      43.012  27.831  32.613  1.00  0.00     0.029 A 
ATOM     61  C   UNL A   1      42.441  28.870  33.330  1.00  0.00     0.049 A 
ATOM     62  H   UNL A   1      40.783  30.076  32.830  1.00  0.00     0.167 HD
ATOM     63  C   UNL A   1      42.219  30.420  35.254  1.00  0.00     0.074 A 
ATOM     64  C   UNL A   1      42.621  30.927  36.551  1.00  0.00     0.031 C 
ATOM     65  C   UNL A   1      42.831  29.396  34.612  1.00  0.00     0.037 A 
BRANCH  52  66
ATOM     66  C   UNL A   1      40.287  27.936  29.176  1.00  0.00     0.064 A 
ATOM     67  C   UNL A   1      39.541  26.748  29.162  1.00  0.00     0.173 A 
ATOM     68  C   UNL A   1      41.011  28.268  28.020  1.00  0.00     0.173 A 
ATOM     69  F   UNL A   1      38.844  26.376  30.247  1.00  0.00    -0.203 F 
ATOM     70  C   UNL A   1      39.544  25.911  28.049  1.00  0.00     0.198 A 
ATOM     71  C   UNL A   1      40.989  27.444  26.898  1.00  0.00     0.198 A 
ATOM     72  F   UNL A   1      41.740  29.394  27.980  1.00  0.00    -0.203 F 
ATOM     73  F   UNL A   1      38.867  24.755  28.081  1.00  0.00    -0.200 F 
ATOM     74  C   UNL A   1      40.262  26.263  26.917  1.00  0.00     0.200 A 
ATOM     75  F   UNL A   1      41.675  27.790  25.800  1.00  0.00    -0.200 F 
ATOM     76  F   UNL A   1      40.262  25.458  25.845  1.00  0.00    -0.200 F 
ENDBRANCH  52  66
BRANCH  53  77
ATOM     77  C   UNL A   1      39.777  33.993  37.103  1.00  0.00     0.064 A 
ATOM     78  C   UNL A   1      40.468  35.212  37.153  1.00  0.00     0.173 A 
ATOM     79  C   UNL A   1      39.007  33.632  38.219  1.00  0.00     0.173 A 
ATOM     80  F   UNL A   1      41.233  35.589  36.118  1.00  0.00    -0.203 F 
ATOM     81  C   UNL A   1      40.409  36.028  38.280  1.00  0.00     0.198 A 
ATOM     82  C   UNL A   1      38.928  34.463  39.336  1.00  0.00     0.198 A 
ATOM     83  F   UNL A   1      38.322  32.480  38.219  1.00  0.00    -0.203 F 
ATOM     84  F   UNL A   1      41.113  37.167  38.317  1.00  0.00    -0.200 F 
ATOM     85  C   UNL A   1      39.635  35.655  39.369  1.00  0.00     0.200 A 
ATOM     86  F   UNL A   1      38.170  34.105  40.381  1.00  0.00    -0.200 F 
ATOM     87  F   UNL A   1      39.576  36.442  40.452  1.00  0.00    -0.200 F 
ENDBRANCH  53  77
BRANCH  65  88
ATOM     88  C   UNL A   1      44.020  28.777  35.284  1.00  0.00     0.064 A 
ATOM     89  C   UNL A   1      43.886  27.692  36.163  1.00  0.00     0.173 A 
ATOM     90  C   UNL A   1      45.314  29.247  35.009  1.00  0.00     0.173 A 
ATOM     91  F   UNL A   1      42.668  27.219  36.467  1.00  0.00    -0.203 F 
ATOM     92  C   UNL A   1      45.002  27.114  36.759  1.00  0.00     0.198 A 
ATOM     93  C   UNL A   1      46.429  28.648  35.586  1.00  0.00     0.198 A 
ATOM     94  F   UNL A   1      45.494  30.278  34.170  1.00  0.00    -0.203 F 
ATOM     95  F   UNL A   1      44.848  26.106  37.628  1.00  0.00    -0.200 F 
ATOM     96  C   UNL A   1      46.272  27.587  36.465  1.00  0.00     0.200 A 
ATOM     97  F   UNL A   1      47.657  29.098  35.291  1.00  0.00    -0.200 F 
ATOM     98  F   UNL A   1      47.347  27.023  37.034  1.00  0.00    -0.200 F 
ENDBRANCH  65  88
ENDBRANCH  39  40
ENDBRANCH  31  34
ENDBRANCH  29  30
ENDBRANCH  28  29
ENDBRANCH  27  28
ENDBRANCH   1  27
TORSDOF 17
ENDMDL
MODEL 2
REMARK VINA RESULT:     -11.4      0.847      7.436
REMARK SMILES CCOc1cccc(OCC)c1-c1ccc([C@@H](C)C(=O)NCCCCNC(=O)c2ccc(-c3c4nc(c(-c5c(F)c(F)c(F)c(F)c5F)c5ccc([nH]5)c(-c5c(F)c(F)c(F)c(F)c5F)c5nc(c(-c6c(F)c(F)c(F)c(F)c6F)c6ccc3[nH]6)C=C5)C=C4)cc2)cc1F
REMARK SMILES IDX 22 1 21 2 19 3 20 4 17 6 18 7 16 8 13 9 14 10 93 11 15 12
REMARK SMILES IDX 92 13 94 14 12 15 4 16 5 17 6 18 8 19 7 20 3 21 2 22 1 23
REMARK SMILES IDX 9 24 10 25 11 26 23 27 24 28 25 29 26 30 27 31 28 33 29 34
REMARK SMILES IDX 30 35 91 36 31 37 90 38 32 39 33 40 34 41 84 42 35 43 89 44
REMARK SMILES IDX 83 45 85 46 36 47 88 48 82 49 81 50 37 52 69 53 49 54 68 55
REMARK SMILES IDX 50 56 53 57 67 58 86 59 51 60 52 61 66 63 87 64 54 65 38 66
REMARK SMILES IDX 39 67 47 68 40 69 41 70 45 71 48 72 42 73 43 74 46 75 44 76
REMARK SMILES IDX 70 77 71 78 79 79 72 80 73 81 77 82 80 83 74 84 75 85 78 86
REMARK SMILES IDX 76 87 55 88 56 89 64 90 57 91 58 92 62 93 65 94 59 95 60 96
REMARK SMILES IDX 63 97 61 98
REMARK H PARENT 21 5 26 32 85 51 53 62
REMARK Flexibility Score: inf
ROOT
ATOM      1  C   UNL A   1      34.146  29.586  26.829  1.00  0.00     0.116 C 
ENDROOT
BRANCH   1   2
ATOM      2  N   UNL A   1      33.033  29.542  25.893  1.00  0.00    -0.356 N 
ATOM      3  C   UNL A   1      32.853  29.033  24.641  1.00  0.00     0.227 C 
ATOM      4  O   UNL A   1      31.748  29.273  24.135  1.00  0.00    -0.274 OA
ATOM      5  H   UNL A   1      32.224  29.982  26.244  1.00  0.00     0.163 HD
BRANCH   3   6
ATOM      6  C   UNL A   1      33.886  28.207  23.836  1.00  0.00     0.105 C 
ATOM      7  C   UNL A   1      34.079  28.668  22.394  1.00  0.00     0.023 C 
BRANCH   6   8
ATOM      8  C   UNL A   1      33.712  26.703  23.969  1.00  0.00    -0.033 A 
ATOM      9  C   UNL A   1      33.645  23.880  24.347  1.00  0.00     0.025 A 
ATOM     10  C   UNL A   1      33.808  24.759  25.410  1.00  0.00     0.012 A 
ATOM     11  C   UNL A   1      33.527  24.447  23.070  1.00  0.00     0.131 A 
ATOM     12  C   UNL A   1      33.688  26.125  25.227  1.00  0.00     0.005 A 
ATOM     13  C   UNL A   1      33.608  25.838  22.873  1.00  0.00     0.044 A 
ATOM     14  F   UNL A   1      33.372  23.663  21.993  1.00  0.00    -0.206 F 
BRANCH   9  15
ATOM     15  C   UNL A   1      33.707  22.438  24.632  1.00  0.00     0.069 A 
ATOM     16  C   UNL A   1      32.471  21.754  24.804  1.00  0.00     0.130 A 
ATOM     17  C   UNL A   1      32.394  20.368  24.959  1.00  0.00     0.047 A 
ATOM     18  C   UNL A   1      33.555  19.614  24.919  1.00  0.00     0.008 A 
ATOM     19  C   UNL A   1      34.886  21.654  24.613  1.00  0.00     0.130 A 
ATOM     20  C   UNL A   1      34.781  20.255  24.759  1.00  0.00     0.047 A 
BRANCH  16  21
ATOM     21  O   UNL A   1      31.307  22.481  24.892  1.00  0.00    -0.493 OA
BRANCH  21  22
ATOM     22  C   UNL A   1      30.781  22.549  26.221  1.00  0.00     0.226 C 
ATOM     23  C   UNL A   1      30.380  23.987  26.510  1.00  0.00     0.049 C 
ENDBRANCH  21  22
ENDBRANCH  16  21
BRANCH  19  24
ATOM     24  O   UNL A   1      36.209  21.995  24.512  1.00  0.00    -0.493 OA
BRANCH  24  25
ATOM     25  C   UNL A   1      37.080  22.246  25.603  1.00  0.00     0.226 C 
ATOM     26  C   UNL A   1      37.069  23.725  25.974  1.00  0.00     0.049 C 
ENDBRANCH  24  25
ENDBRANCH  19  24
ENDBRANCH   9  15
ENDBRANCH   6   8
ENDBRANCH   3   6
ENDBRANCH   1   2
BRANCH   1  27
ATOM     27  C   UNL A   1      33.964  30.687  27.887  1.00  0.00     0.023 C 
BRANCH  27  28
ATOM     28  C   UNL A   1      32.865  31.705  27.629  1.00  0.00     0.023 C 
BRANCH  28  29
ATOM     29  C   UNL A   1      33.339  33.016  27.027  1.00  0.00     0.116 C 
BRANCH  29  30
ATOM     30  N   UNL A   1      32.734  34.208  27.609  1.00  0.00    -0.352 N 
ATOM     31  C   UNL A   1      33.106  34.873  28.757  1.00  0.00     0.251 C 
ATOM     32  H   UNL A   1      31.965  34.584  27.121  1.00  0.00     0.163 HD
ATOM     33  O   UNL A   1      32.469  35.842  29.156  1.00  0.00    -0.269 OA
BRANCH  31  34
ATOM     34  C   UNL A   1      34.254  34.363  29.535  1.00  0.00     0.039 A 
ATOM     35  C   UNL A   1      34.014  33.536  30.634  1.00  0.00     0.014 A 
ATOM     36  C   UNL A   1      35.561  34.620  29.115  1.00  0.00     0.014 A 
ATOM     37  C   UNL A   1      35.085  32.888  31.252  1.00  0.00     0.010 A 
ATOM     38  C   UNL A   1      36.611  33.899  29.666  1.00  0.00     0.010 A 
ATOM     39  C   UNL A   1      36.385  33.026  30.740  1.00  0.00    -0.014 A 
BRANCH  39  40
ATOM     40  C   UNL A   1      37.529  32.273  31.309  1.00  0.00     0.031 A 
ATOM     41  C   UNL A   1      38.046  32.623  32.677  1.00  0.00     0.074 A 
ATOM     42  C   UNL A   1      38.158  31.343  30.565  1.00  0.00     0.049 A 
ATOM     43  N   UNL A   1      39.091  32.159  33.312  1.00  0.00    -0.248 NA
ATOM     44  C   UNL A   1      37.311  33.665  33.413  1.00  0.00     0.031 C 
ATOM     45  C   UNL A   1      37.797  30.964  29.197  1.00  0.00     0.029 A 
ATOM     46  N   UNL A   1      39.246  30.556  30.849  1.00  0.00    -0.354 N 
ATOM     47  C   UNL A   1      39.152  32.869  34.503  1.00  0.00     0.074 A 
ATOM     48  C   UNL A   1      38.077  33.836  34.478  1.00  0.00     0.031 C 
ATOM     49  C   UNL A   1      38.630  29.999  28.773  1.00  0.00     0.029 A 
ATOM     50  C   UNL A   1      39.603  29.715  29.822  1.00  0.00     0.049 A 
ATOM     51  H   UNL A   1      39.725  30.590  31.708  1.00  0.00     0.167 HD
ATOM     52  C   UNL A   1      40.011  32.712  35.537  1.00  0.00     0.037 A 
ATOM     53  C   UNL A   1      40.605  28.819  29.740  1.00  0.00     0.037 A 
ATOM     54  C   UNL A   1      41.049  31.716  35.579  1.00  0.00     0.049 A 
ATOM     55  C   UNL A   1      41.521  28.634  30.919  1.00  0.00     0.074 A 
ATOM     56  C   UNL A   1      41.921  31.422  36.611  1.00  0.00     0.029 A 
ATOM     57  N   UNL A   1      41.348  30.849  34.538  1.00  0.00    -0.354 N 
ATOM     58  N   UNL A   1      41.523  29.260  32.071  1.00  0.00    -0.248 NA
ATOM     59  C   UNL A   1      42.569  27.612  30.790  1.00  0.00     0.031 C 
ATOM     60  C   UNL A   1      42.771  30.397  36.183  1.00  0.00     0.029 A 
ATOM     61  C   UNL A   1      42.402  30.026  34.900  1.00  0.00     0.049 A 
ATOM     62  H   UNL A   1      40.881  30.823  33.672  1.00  0.00     0.167 HD
ATOM     63  C   UNL A   1      42.549  28.692  32.813  1.00  0.00     0.074 A 
ATOM     64  C   UNL A   1      43.140  27.660  31.985  1.00  0.00     0.031 C 
ATOM     65  C   UNL A   1      42.966  28.997  34.065  1.00  0.00     0.037 A 
BRANCH  52  66
ATOM     66  C   UNL A   1      39.850  33.626  36.715  1.00  0.00     0.064 A 
ATOM     67  C   UNL A   1      38.972  33.323  37.767  1.00  0.00     0.173 A 
ATOM     68  C   UNL A   1      40.598  34.809  36.807  1.00  0.00     0.173 A 
ATOM     69  F   UNL A   1      38.221  32.211  37.721  1.00  0.00    -0.203 F 
ATOM     70  C   UNL A   1      38.825  34.185  38.850  1.00  0.00     0.198 A 
ATOM     71  C   UNL A   1      40.471  35.655  37.905  1.00  0.00     0.198 A 
ATOM     72  F   UNL A   1      41.454  35.145  35.829  1.00  0.00    -0.203 F 
ATOM     73  F   UNL A   1      37.939  33.901  39.814  1.00  0.00    -0.200 F 
ATOM     74  C   UNL A   1      39.579  35.347  38.921  1.00  0.00     0.200 A 
ATOM     75  F   UNL A   1      41.208  36.772  37.979  1.00  0.00    -0.200 F 
ATOM     76  F   UNL A   1      39.439  36.175  39.966  1.00  0.00    -0.200 F 
ENDBRANCH  52  66
BRANCH  53  77
ATOM     77  C   UNL A   1      40.770  27.999  28.512  1.00  0.00     0.064 A 
ATOM     78  C   UNL A   1      40.190  26.726  28.417  1.00  0.00     0.173 A 
ATOM     79  C   UNL A   1      41.508  28.465  27.414  1.00  0.00     0.173 A 
ATOM     80  F   UNL A   1      39.493  26.231  29.449  1.00  0.00    -0.203 F 
ATOM     81  C   UNL A   1      40.358  25.942  27.278  1.00  0.00     0.198 A 
ATOM     82  C   UNL A   1      41.653  27.689  26.265  1.00  0.00     0.198 A 
ATOM     83  F   UNL A   1      42.076  29.679  27.453  1.00  0.00    -0.203 F 
ATOM     84  F   UNL A   1      39.829  24.712  27.231  1.00  0.00    -0.200 F 
ATOM     85  C   UNL A   1      41.086  26.426  26.201  1.00  0.00     0.200 A 
ATOM     86  F   UNL A   1      42.346  28.165  25.222  1.00  0.00    -0.200 F 
ATOM     87  F   UNL A   1      41.245  25.672  25.104  1.00  0.00    -0.200 F 
ENDBRANCH  53  77
BRANCH  65  88
ATOM     88  C   UNL A   1      44.093  28.185  34.631  1.00  0.00     0.064 A 
ATOM     89  C   UNL A   1      45.427  28.601  34.519  1.00  0.00     0.173 A 
ATOM     90  C   UNL A   1      43.828  26.998  35.333  1.00  0.00     0.173 A 
ATOM     91  F   UNL A   1      45.730  29.720  33.844  1.00  0.00    -0.203 F 
ATOM     92  C   UNL A   1      46.459  27.847  35.071  1.00  0.00     0.198 A 
ATOM     93  C   UNL A   1      44.859  26.262  35.907  1.00  0.00     0.198 A 
ATOM     94  F   UNL A   1      42.567  26.563  35.473  1.00  0.00    -0.203 F 
ATOM     95  F   UNL A   1      47.730  28.240  34.916  1.00  0.00    -0.200 F 
ATOM     96  C   UNL A   1      46.174  26.683  35.770  1.00  0.00     0.200 A 
ATOM     97  F   UNL A   1      44.581  25.144  36.593  1.00  0.00    -0.200 F 
ATOM     98  F   UNL A   1      47.168  25.963  36.307  1.00  0.00    -0.200 F 
ENDBRANCH  65  88
ENDBRANCH  39  40
ENDBRANCH  31  34
ENDBRANCH  29  30
ENDBRANCH  28  29
ENDBRANCH  27  28
ENDBRANCH   1  27
TORSDOF 17
ENDMDL
MODEL 3
REMARK VINA RESULT:     -11.4      3.406      8.592
REMARK SMILES CCOc1cccc(OCC)c1-c1ccc([C@@H](C)C(=O)NCCCCNC(=O)c2ccc(-c3c4nc(c(-c5c(F)c(F)c(F)c(F)c5F)c5ccc([nH]5)c(-c5c(F)c(F)c(F)c(F)c5F)c5nc(c(-c6c(F)c(F)c(F)c(F)c6F)c6ccc3[nH]6)C=C5)C=C4)cc2)cc1F
REMARK SMILES IDX 22 1 21 2 19 3 20 4 17 6 18 7 16 8 13 9 14 10 93 11 15 12
REMARK SMILES IDX 92 13 94 14 12 15 4 16 5 17 6 18 8 19 7 20 3 21 2 22 1 23
REMARK SMILES IDX 9 24 10 25 11 26 23 27 24 28 25 29 26 30 27 31 28 33 29 34
REMARK SMILES IDX 30 35 91 36 31 37 90 38 32 39 33 40 34 41 84 42 35 43 89 44
REMARK SMILES IDX 83 45 85 46 36 47 88 48 82 49 81 50 37 52 69 53 49 54 68 55
REMARK SMILES IDX 50 56 53 57 67 58 86 59 51 60 52 61 66 63 87 64 54 65 38 66
REMARK SMILES IDX 39 67 47 68 40 69 41 70 45 71 48 72 42 73 43 74 46 75 44 76
REMARK SMILES IDX 70 77 71 78 79 79 72 80 73 81 77 82 80 83 74 84 75 85 78 86
REMARK SMILES IDX 76 87 55 88 56 89 64 90 57 91 58 92 62 93 65 94 59 95 60 96
REMARK SMILES IDX 63 97 61 98
REMARK H PARENT 21 5 26 32 85 51 53 62
REMARK Flexibility Score: inf
ROOT
ATOM      1  C   UNL A   1      31.591  29.590  25.497  1.00  0.00     0.116 C 
ENDROOT
BRANCH   1   2
ATOM      2  N   UNL A   1      31.194  28.945  24.255  1.00  0.00    -0.356 N 
ATOM      3  C   UNL A   1      31.851  28.248  23.285  1.00  0.00     0.227 C 
ATOM      4  O   UNL A   1      31.151  27.915  22.318  1.00  0.00    -0.274 OA
ATOM      5  H   UNL A   1      30.230  29.030  24.074  1.00  0.00     0.163 HD
BRANCH   3   6
ATOM      6  C   UNL A   1      33.349  27.856  23.299  1.00  0.00     0.105 C 
ATOM      7  C   UNL A   1      34.124  28.275  22.053  1.00  0.00     0.023 C 
BRANCH   6   8
ATOM      8  C   UNL A   1      33.607  26.417  23.713  1.00  0.00    -0.033 A 
ATOM      9  C   UNL A   1      33.835  23.655  24.374  1.00  0.00     0.025 A 
ATOM     10  C   UNL A   1      33.633  24.084  23.067  1.00  0.00     0.012 A 
ATOM     11  C   UNL A   1      33.908  24.649  25.360  1.00  0.00     0.131 A 
ATOM     12  C   UNL A   1      33.676  25.428  22.746  1.00  0.00     0.005 A 
ATOM     13  C   UNL A   1      33.749  26.011  25.045  1.00  0.00     0.044 A 
ATOM     14  F   UNL A   1      34.096  24.315  26.646  1.00  0.00    -0.206 F 
BRANCH   9  15
ATOM     15  C   UNL A   1      33.856  22.207  24.626  1.00  0.00     0.069 A 
ATOM     16  C   UNL A   1      32.601  21.549  24.755  1.00  0.00     0.130 A 
ATOM     17  C   UNL A   1      32.488  20.162  24.875  1.00  0.00     0.047 A 
ATOM     18  C   UNL A   1      33.631  19.381  24.842  1.00  0.00     0.008 A 
ATOM     19  C   UNL A   1      35.017  21.395  24.614  1.00  0.00     0.130 A 
ATOM     20  C   UNL A   1      34.875  19.996  24.724  1.00  0.00     0.047 A 
BRANCH  16  21
ATOM     21  O   UNL A   1      31.453  22.302  24.835  1.00  0.00    -0.493 OA
BRANCH  21  22
ATOM     22  C   UNL A   1      30.946  22.422  26.168  1.00  0.00     0.226 C 
ATOM     23  C   UNL A   1      30.477  23.852  26.381  1.00  0.00     0.049 C 
ENDBRANCH  21  22
ENDBRANCH  16  21
BRANCH  19  24
ATOM     24  O   UNL A   1      36.349  21.705  24.550  1.00  0.00    -0.493 OA
BRANCH  24  25
ATOM     25  C   UNL A   1      37.070  22.447  25.521  1.00  0.00     0.226 C 
ATOM     26  C   UNL A   1      38.459  21.857  25.730  1.00  0.00     0.049 C 
ENDBRANCH  24  25
ENDBRANCH  19  24
ENDBRANCH   9  15
ENDBRANCH   6   8
ENDBRANCH   3   6
ENDBRANCH   1   2
BRANCH   1  27
ATOM     27  C   UNL A   1      31.693  28.587  26.659  1.00  0.00     0.023 C 
BRANCH  27  28
ATOM     28  C   UNL A   1      33.055  28.443  27.317  1.00  0.00     0.023 C 
BRANCH  28  29
ATOM     29  C   UNL A   1      34.022  29.581  27.037  1.00  0.00     0.116 C 
BRANCH  29  30
ATOM     30  N   UNL A   1      33.912  30.712  27.949  1.00  0.00    -0.352 N 
ATOM     31  C   UNL A   1      34.849  31.168  28.850  1.00  0.00     0.251 C 
ATOM     32  H   UNL A   1      33.064  31.212  27.916  1.00  0.00     0.163 HD
ATOM     33  O   UNL A   1      34.598  32.110  29.595  1.00  0.00    -0.269 OA
BRANCH  31  34
ATOM     34  C   UNL A   1      36.145  30.465  28.948  1.00  0.00     0.039 A 
ATOM     35  C   UNL A   1      37.145  30.755  28.017  1.00  0.00     0.014 A 
ATOM     36  C   UNL A   1      36.401  29.602  30.015  1.00  0.00     0.014 A 
ATOM     37  C   UNL A   1      38.432  30.253  28.214  1.00  0.00     0.010 A 
ATOM     38  C   UNL A   1      37.702  29.187  30.263  1.00  0.00     0.010 A 
ATOM     39  C   UNL A   1      38.731  29.508  29.366  1.00  0.00    -0.014 A 
BRANCH  39  40
ATOM     40  C   UNL A   1      40.111  29.046  29.658  1.00  0.00     0.031 A 
ATOM     41  C   UNL A   1      41.032  29.916  30.466  1.00  0.00     0.074 A 
ATOM     42  C   UNL A   1      40.561  27.896  29.122  1.00  0.00     0.049 A 
ATOM     43  N   UNL A   1      42.299  29.746  30.747  1.00  0.00    -0.248 NA
ATOM     44  C   UNL A   1      40.464  31.166  30.997  1.00  0.00     0.031 C 
ATOM     45  C   UNL A   1      39.786  27.000  28.261  1.00  0.00     0.029 A 
ATOM     46  N   UNL A   1      41.789  27.289  29.210  1.00  0.00    -0.354 N 
ATOM     47  C   UNL A   1      42.680  30.875  31.459  1.00  0.00     0.074 A 
ATOM     48  C   UNL A   1      41.531  31.750  31.517  1.00  0.00     0.031 C 
ATOM     49  C   UNL A   1      40.547  25.945  27.923  1.00  0.00     0.029 A 
ATOM     50  C   UNL A   1      41.872  26.107  28.514  1.00  0.00     0.049 A 
ATOM     51  H   UNL A   1      42.540  27.665  29.724  1.00  0.00     0.167 HD
ATOM     52  C   UNL A   1      43.874  31.145  32.037  1.00  0.00     0.037 A 
ATOM     53  C   UNL A   1      42.903  25.253  28.370  1.00  0.00     0.037 A 
ATOM     54  C   UNL A   1      45.000  30.250  32.018  1.00  0.00     0.049 A 
ATOM     55  C   UNL A   1      44.207  25.556  29.056  1.00  0.00     0.074 A 
ATOM     56  C   UNL A   1      46.228  30.394  32.639  1.00  0.00     0.029 A 
ATOM     57  N   UNL A   1      45.029  29.038  31.344  1.00  0.00    -0.354 N 
ATOM     58  N   UNL A   1      44.534  26.592  29.790  1.00  0.00    -0.248 NA
ATOM     59  C   UNL A   1      45.283  24.568  28.900  1.00  0.00     0.031 C 
ATOM     60  C   UNL A   1      47.013  29.283  32.313  1.00  0.00     0.029 A 
ATOM     61  C   UNL A   1      46.261  28.429  31.524  1.00  0.00     0.049 A 
ATOM     62  H   UNL A   1      44.286  28.666  30.816  1.00  0.00     0.167 HD
ATOM     63  C   UNL A   1      45.839  26.369  30.206  1.00  0.00     0.074 A 
ATOM     64  C   UNL A   1      46.240  25.092  29.653  1.00  0.00     0.031 C 
ATOM     65  C   UNL A   1      46.635  27.152  30.974  1.00  0.00     0.037 A 
BRANCH  52  66
ATOM     66  C   UNL A   1      44.014  32.456  32.753  1.00  0.00     0.064 A 
ATOM     67  C   UNL A   1      43.730  32.580  34.121  1.00  0.00     0.173 A 
ATOM     68  C   UNL A   1      44.460  33.597  32.069  1.00  0.00     0.173 A 
ATOM     69  F   UNL A   1      43.286  31.522  34.817  1.00  0.00    -0.203 F 
ATOM     70  C   UNL A   1      43.856  33.805  34.771  1.00  0.00     0.198 A 
ATOM     71  C   UNL A   1      44.613  34.814  32.729  1.00  0.00     0.198 A 
ATOM     72  F   UNL A   1      44.748  33.532  30.760  1.00  0.00    -0.203 F 
ATOM     73  F   UNL A   1      43.525  33.910  36.065  1.00  0.00    -0.200 F 
ATOM     74  C   UNL A   1      44.303  34.918  34.077  1.00  0.00     0.200 A 
ATOM     75  F   UNL A   1      45.055  35.887  32.059  1.00  0.00    -0.200 F 
ATOM     76  F   UNL A   1      44.426  36.096  34.705  1.00  0.00    -0.200 F 
ENDBRANCH  52  66
BRANCH  53  77
ATOM     77  C   UNL A   1      42.732  24.009  27.575  1.00  0.00     0.064 A 
ATOM     78  C   UNL A   1      42.296  22.824  28.185  1.00  0.00     0.173 A 
ATOM     79  C   UNL A   1      43.002  23.976  26.199  1.00  0.00     0.173 A 
ATOM     80  F   UNL A   1      42.046  22.802  29.502  1.00  0.00    -0.203 F 
ATOM     81  C   UNL A   1      42.155  21.647  27.452  1.00  0.00     0.198 A 
ATOM     82  C   UNL A   1      42.835  22.804  25.463  1.00  0.00     0.198 A 
ATOM     83  F   UNL A   1      43.415  25.084  25.569  1.00  0.00    -0.203 F 
ATOM     84  F   UNL A   1      41.778  20.518  28.068  1.00  0.00    -0.200 F 
ATOM     85  C   UNL A   1      42.420  21.639  26.091  1.00  0.00     0.200 A 
ATOM     86  F   UNL A   1      43.079  22.803  24.146  1.00  0.00    -0.200 F 
ATOM     87  F   UNL A   1      42.280  20.508  25.385  1.00  0.00    -0.200 F 
ENDBRANCH  53  77
BRANCH  65  88
ATOM     88  C   UNL A   1      48.006  26.634  31.292  1.00  0.00     0.064 A 
ATOM     89  C   UNL A   1      49.118  26.967  30.505  1.00  0.00     0.173 A 
ATOM     90  C   UNL A   1      48.216  25.832  32.424  1.00  0.00     0.173 A 
ATOM     91  F   UNL A   1      48.963  27.719  29.404  1.00  0.00    -0.203 F 
ATOM     92  C   UNL A   1      50.388  26.499  30.827  1.00  0.00     0.198 A 
ATOM     93  C   UNL A   1      49.491  25.388  32.759  1.00  0.00     0.198 A 
ATOM     94  F   UNL A   1      47.185  25.492  33.213  1.00  0.00    -0.203 F 
ATOM     95  F   UNL A   1      51.429  26.793  30.038  1.00  0.00    -0.200 F 
ATOM     96  C   UNL A   1      50.574  25.716  31.957  1.00  0.00     0.200 A 
ATOM     97  F   UNL A   1      49.672  24.642  33.858  1.00  0.00    -0.200 F 
ATOM     98  F   UNL A   1      51.799  25.272  32.271  1.00  0.00    -0.200 F 
ENDBRANCH  65  88
ENDBRANCH  39  40
ENDBRANCH  31  34
ENDBRANCH  29  30
ENDBRANCH  28  29
ENDBRANCH  27  28
ENDBRANCH   1  27
TORSDOF 17
ENDMDL
