MODEL 1
REMARK VINA RESULT:     -12.9      0.000      0.000
REMARK SMILES C[C@@H](NC(=O)c1cc(C(=O)NCCCCNC(=O)c2ccc(-c3c4nc(c(-c5c(F)c(F)c(F)c(F)c5F)c5ccc([nH]5)c(-c5c(F)c(F)c(F)c(F)c5F)c5nc(c(-c6c(F)c(F)c(F)c(F)c6F)c6ccc3[nH]6)C=C5)C=C4)cc2)n(C)n1)c1ccccc1
REMARK SMILES IDX 13 1 12 2 11 3 9 4 10 5 8 7 6 8 7 9 84 10 82 11 83 12 4 13
REMARK SMILES IDX 3 14 5 16 2 17 1 18 85 19 86 20 90 21 87 22 89 23 88 24
REMARK SMILES IDX 14 25 15 26 16 27 17 28 18 30 19 31 20 32 81 33 21 34 80 35
REMARK SMILES IDX 22 36 23 37 24 38 74 39 25 40 79 41 73 42 75 43 26 44 78 45
REMARK SMILES IDX 72 46 71 47 27 49 59 50 39 51 58 52 40 53 43 54 57 55 76 56
REMARK SMILES IDX 41 57 42 58 56 60 77 61 44 62 28 63 29 64 37 65 30 66 31 67
REMARK SMILES IDX 35 68 38 69 32 70 33 71 36 72 34 73 60 74 61 75 69 76 62 77
REMARK SMILES IDX 63 78 67 79 70 80 64 81 65 82 68 83 66 84 45 85 46 86 54 87
REMARK SMILES IDX 47 88 48 89 52 90 55 91 49 92 50 93 53 94 51 95
REMARK H PARENT 11 6 3 15 16 29 75 48 43 59
REMARK Flexibility Score: inf
ROOT
ATOM      1  C   UNL A   1      31.646  30.678  26.127  1.00  0.00     0.023 C 
ENDROOT
BRANCH   1   2
ATOM      2  C   UNL A   1      33.004  30.083  26.507  1.00  0.00     0.116 C 
BRANCH   2   3
ATOM      3  N   UNL A   1      33.709  29.596  25.352  1.00  0.00    -0.351 N 
ATOM      4  C   UNL A   1      33.608  28.510  24.531  1.00  0.00     0.269 C 
ATOM      5  O   UNL A   1      34.401  28.571  23.580  1.00  0.00    -0.268 OA
ATOM      6  H   UNL A   1      34.446  30.193  25.088  1.00  0.00     0.163 HD
BRANCH   4   7
ATOM      7  C   UNL A   1      32.716  27.369  24.664  1.00  0.00     0.126 A 
ATOM      8  C   UNL A   1      32.014  25.381  25.476  1.00  0.00     0.151 A 
ATOM      9  C   UNL A   1      33.141  26.200  25.309  1.00  0.00     0.069 A 
ATOM     10  N   UNL A   1      30.988  25.880  24.782  1.00  0.00    -0.167 NA
ATOM     11  N   UNL A   1      31.390  27.104  24.396  1.00  0.00    -0.262 N 
ATOM     12  C   UNL A   1      30.311  27.927  23.917  1.00  0.00     0.174 C 
BRANCH   8  13
ATOM     13  C   UNL A   1      31.834  24.179  26.279  1.00  0.00     0.272 C 
ATOM     14  N   UNL A   1      32.522  23.037  25.942  1.00  0.00    -0.344 N 
ATOM     15  H   UNL A   1      32.738  22.465  26.713  1.00  0.00     0.164 HD
ATOM     16  O   UNL A   1      31.182  24.171  27.323  1.00  0.00    -0.267 OA
BRANCH  14  17
ATOM     17  C   UNL A   1      32.998  22.502  24.664  1.00  0.00     0.109 C 
ATOM     18  C   UNL A   1      32.269  21.181  24.380  1.00  0.00     0.036 C 
BRANCH  17  19
ATOM     19  C   UNL A   1      34.484  22.276  24.474  1.00  0.00    -0.026 A 
ATOM     20  C   UNL A   1      35.247  22.989  23.538  1.00  0.00     0.006 A 
ATOM     21  C   UNL A   1      35.144  21.357  25.312  1.00  0.00     0.006 A 
ATOM     22  C   UNL A   1      36.623  22.759  23.421  1.00  0.00     0.000 A 
ATOM     23  C   UNL A   1      36.516  21.130  25.194  1.00  0.00     0.000 A 
ATOM     24  C   UNL A   1      37.255  21.829  24.244  1.00  0.00     0.000 A 
ENDBRANCH  17  19
ENDBRANCH  14  17
ENDBRANCH   8  13
ENDBRANCH   4   7
ENDBRANCH   2   3
ENDBRANCH   1   2
BRANCH   1  25
ATOM     25  C   UNL A   1      31.384  32.097  26.635  1.00  0.00     0.023 C 
BRANCH  25  26
ATOM     26  C   UNL A   1      32.596  32.807  27.222  1.00  0.00     0.116 C 
BRANCH  26  27
ATOM     27  N   UNL A   1      32.340  34.184  27.615  1.00  0.00    -0.352 N 
ATOM     28  C   UNL A   1      33.006  34.933  28.557  1.00  0.00     0.251 C 
ATOM     29  H   UNL A   1      31.600  34.635  27.150  1.00  0.00     0.163 HD
ATOM     30  O   UNL A   1      32.621  36.057  28.844  1.00  0.00    -0.269 OA
BRANCH  28  31
ATOM     31  C   UNL A   1      34.161  34.337  29.260  1.00  0.00     0.039 A 
ATOM     32  C   UNL A   1      33.921  33.508  30.358  1.00  0.00     0.014 A 
ATOM     33  C   UNL A   1      35.464  34.560  28.811  1.00  0.00     0.014 A 
ATOM     34  C   UNL A   1      34.989  32.847  30.967  1.00  0.00     0.010 A 
ATOM     35  C   UNL A   1      36.515  33.841  29.367  1.00  0.00     0.010 A 
ATOM     36  C   UNL A   1      36.289  32.984  30.452  1.00  0.00    -0.014 A 
BRANCH  36  37
ATOM     37  C   UNL A   1      37.433  32.254  31.048  1.00  0.00     0.031 A 
ATOM     38  C   UNL A   1      37.908  32.610  32.427  1.00  0.00     0.074 A 
ATOM     39  C   UNL A   1      38.086  31.329  30.321  1.00  0.00     0.049 A 
ATOM     40  N   UNL A   1      38.928  32.140  33.100  1.00  0.00    -0.248 NA
ATOM     41  C   UNL A   1      37.156  33.659  33.131  1.00  0.00     0.031 C 
ATOM     42  C   UNL A   1      37.751  30.936  28.952  1.00  0.00     0.029 A 
ATOM     43  N   UNL A   1      39.176  30.556  30.632  1.00  0.00    -0.354 N 
ATOM     44  C   UNL A   1      38.953  32.854  34.290  1.00  0.00     0.074 A 
ATOM     45  C   UNL A   1      37.882  33.824  34.226  1.00  0.00     0.031 C 
ATOM     46  C   UNL A   1      38.594  29.970  28.553  1.00  0.00     0.029 A 
ATOM     47  C   UNL A   1      39.547  29.700  29.626  1.00  0.00     0.049 A 
ATOM     48  H   UNL A   1      39.646  30.611  31.495  1.00  0.00     0.167 HD
ATOM     49  C   UNL A   1      39.780  32.697  35.351  1.00  0.00     0.037 A 
ATOM     50  C   UNL A   1      40.541  28.793  29.580  1.00  0.00     0.037 A 
ATOM     51  C   UNL A   1      40.816  31.703  35.425  1.00  0.00     0.049 A 
ATOM     52  C   UNL A   1      41.436  28.626  30.777  1.00  0.00     0.074 A 
ATOM     53  C   UNL A   1      41.657  31.408  36.483  1.00  0.00     0.029 A 
ATOM     54  N   UNL A   1      41.152  30.838  34.393  1.00  0.00    -0.354 N 
ATOM     55  N   UNL A   1      41.406  29.254  31.927  1.00  0.00    -0.248 NA
ATOM     56  C   UNL A   1      42.499  27.617  30.670  1.00  0.00     0.031 C 
ATOM     57  C   UNL A   1      42.526  30.387  36.078  1.00  0.00     0.029 A 
ATOM     58  C   UNL A   1      42.199  30.020  34.782  1.00  0.00     0.049 A 
ATOM     59  H   UNL A   1      40.709  30.811  33.513  1.00  0.00     0.167 HD
ATOM     60  C   UNL A   1      42.420  28.697  32.693  1.00  0.00     0.074 A 
ATOM     61  C   UNL A   1      43.046  27.675  31.876  1.00  0.00     0.031 C 
ATOM     62  C   UNL A   1      42.798  29.000  33.959  1.00  0.00     0.037 A 
BRANCH  49  63
ATOM     63  C   UNL A   1      39.589  33.630  36.512  1.00  0.00     0.064 A 
ATOM     64  C   UNL A   1      40.224  34.881  36.565  1.00  0.00     0.173 A 
ATOM     65  C   UNL A   1      38.769  33.265  37.589  1.00  0.00     0.173 A 
ATOM     66  F   UNL A   1      41.031  35.271  35.566  1.00  0.00    -0.203 F 
ATOM     67  C   UNL A   1      40.078  35.712  37.672  1.00  0.00     0.198 A 
ATOM     68  C   UNL A   1      38.600  34.113  38.681  1.00  0.00     0.198 A 
ATOM     69  F   UNL A   1      38.136  32.083  37.588  1.00  0.00    -0.203 F 
ATOM     70  F   UNL A   1      40.748  36.872  37.729  1.00  0.00    -0.200 F 
ATOM     71  C   UNL A   1      39.265  35.330  38.727  1.00  0.00     0.200 A 
ATOM     72  F   UNL A   1      37.805  33.747  39.696  1.00  0.00    -0.200 F 
ATOM     73  F   UNL A   1      39.130  36.129  39.795  1.00  0.00    -0.200 F 
ENDBRANCH  49  63
BRANCH  50  74
ATOM     74  C   UNL A   1      40.698  27.930  28.384  1.00  0.00     0.064 A 
ATOM     75  C   UNL A   1      41.484  28.352  27.302  1.00  0.00     0.173 A 
ATOM     76  C   UNL A   1      40.092  26.669  28.299  1.00  0.00     0.173 A 
ATOM     77  F   UNL A   1      42.069  29.559  27.332  1.00  0.00    -0.203 F 
ATOM     78  C   UNL A   1      41.647  27.551  26.174  1.00  0.00     0.198 A 
ATOM     79  C   UNL A   1      40.273  25.859  27.180  1.00  0.00     0.198 A 
ATOM     80  F   UNL A   1      39.337  26.218  29.312  1.00  0.00    -0.203 F 
ATOM     81  F   UNL A   1      42.377  27.992  25.141  1.00  0.00    -0.200 F 
ATOM     82  C   UNL A   1      41.046  26.302  26.117  1.00  0.00     0.200 A 
ATOM     83  F   UNL A   1      39.703  24.648  27.132  1.00  0.00    -0.200 F 
ATOM     84  F   UNL A   1      41.209  25.528  25.035  1.00  0.00    -0.200 F 
ENDBRANCH  50  74
BRANCH  62  85
ATOM     85  C   UNL A   1      43.910  28.190  34.555  1.00  0.00     0.064 A 
ATOM     86  C   UNL A   1      45.243  28.621  34.506  1.00  0.00     0.173 A 
ATOM     87  C   UNL A   1      43.631  26.986  35.219  1.00  0.00     0.173 A 
ATOM     88  F   UNL A   1      45.563  29.756  33.868  1.00  0.00    -0.203 F 
ATOM     89  C   UNL A   1      46.260  27.863  35.081  1.00  0.00     0.198 A 
ATOM     90  C   UNL A   1      44.645  26.245  35.816  1.00  0.00     0.198 A 
ATOM     91  F   UNL A   1      42.370  26.534  35.297  1.00  0.00    -0.203 F 
ATOM     92  F   UNL A   1      47.533  28.272  34.984  1.00  0.00    -0.200 F 
ATOM     93  C   UNL A   1      45.960  26.681  35.741  1.00  0.00     0.200 A 
ATOM     94  F   UNL A   1      44.352  25.108  36.462  1.00  0.00    -0.200 F 
ATOM     95  F   UNL A   1      46.940  25.956  36.299  1.00  0.00    -0.200 F 
ENDBRANCH  62  85
ENDBRANCH  36  37
ENDBRANCH  28  31
ENDBRANCH  26  27
ENDBRANCH  25  26
ENDBRANCH   1  25
TORSDOF 14
ENDMDL
MODEL 2
REMARK VINA RESULT:     -12.8      0.784      7.222
REMARK SMILES C[C@@H](NC(=O)c1cc(C(=O)NCCCCNC(=O)c2ccc(-c3c4nc(c(-c5c(F)c(F)c(F)c(F)c5F)c5ccc([nH]5)c(-c5c(F)c(F)c(F)c(F)c5F)c5nc(c(-c6c(F)c(F)c(F)c(F)c6F)c6ccc3[nH]6)C=C5)C=C4)cc2)n(C)n1)c1ccccc1
REMARK SMILES IDX 13 1 12 2 11 3 9 4 10 5 8 7 6 8 7 9 84 10 82 11 83 12 4 13
REMARK SMILES IDX 3 14 5 16 2 17 1 18 85 19 86 20 90 21 87 22 89 23 88 24
REMARK SMILES IDX 14 25 15 26 16 27 17 28 18 30 19 31 20 32 81 33 21 34 80 35
REMARK SMILES IDX 22 36 23 37 24 38 74 39 25 40 79 41 73 42 75 43 26 44 78 45
REMARK SMILES IDX 72 46 71 47 27 49 59 50 39 51 58 52 40 53 43 54 57 55 76 56
REMARK SMILES IDX 41 57 42 58 56 60 77 61 44 62 28 63 29 64 37 65 30 66 31 67
REMARK SMILES IDX 35 68 38 69 32 70 33 71 36 72 34 73 60 74 61 75 69 76 62 77
REMARK SMILES IDX 63 78 67 79 70 80 64 81 65 82 68 83 66 84 45 85 46 86 54 87
REMARK SMILES IDX 47 88 48 89 52 90 55 91 49 92 50 93 53 94 51 95
REMARK H PARENT 11 6 3 15 16 29 75 48 43 59
REMARK Flexibility Score: inf
ROOT
ATOM      1  C   UNL A   1      31.781  30.456  26.678  1.00  0.00     0.023 C 
ENDROOT
BRANCH   1   2
ATOM      2  C   UNL A   1      33.229  29.971  26.572  1.00  0.00     0.116 C 
BRANCH   2   3
ATOM      3  N   UNL A   1      33.608  29.737  25.205  1.00  0.00    -0.351 N 
ATOM      4  C   UNL A   1      33.236  28.866  24.222  1.00  0.00     0.269 C 
ATOM      5  O   UNL A   1      33.790  29.118  23.143  1.00  0.00    -0.268 OA
ATOM      6  H   UNL A   1      34.310  30.360  24.902  1.00  0.00     0.163 HD
BRANCH   4   7
ATOM      7  C   UNL A   1      32.312  27.748  24.323  1.00  0.00     0.126 A 
ATOM      8  C   UNL A   1      31.522  25.788  25.124  1.00  0.00     0.151 A 
ATOM      9  C   UNL A   1      32.675  26.578  25.005  1.00  0.00     0.069 A 
ATOM     10  N   UNL A   1      30.545  26.300  24.371  1.00  0.00    -0.167 NA
ATOM     11  N   UNL A   1      30.996  27.509  23.990  1.00  0.00    -0.262 N 
ATOM     12  C   UNL A   1      29.962  28.350  23.445  1.00  0.00     0.174 C 
BRANCH   8  13
ATOM     13  C   UNL A   1      31.272  24.602  25.932  1.00  0.00     0.272 C 
ATOM     14  N   UNL A   1      32.094  23.508  25.792  1.00  0.00    -0.344 N 
ATOM     15  H   UNL A   1      32.193  22.981  26.616  1.00  0.00     0.164 HD
ATOM     16  O   UNL A   1      30.427  24.575  26.827  1.00  0.00    -0.267 OA
BRANCH  14  17
ATOM     17  C   UNL A   1      32.854  22.972  24.660  1.00  0.00     0.109 C 
ATOM     18  C   UNL A   1      32.518  21.482  24.502  1.00  0.00     0.036 C 
BRANCH  17  19
ATOM     19  C   UNL A   1      34.361  23.123  24.653  1.00  0.00    -0.026 A 
ATOM     20  C   UNL A   1      35.139  22.925  23.503  1.00  0.00     0.006 A 
ATOM     21  C   UNL A   1      35.007  23.541  25.832  1.00  0.00     0.006 A 
ATOM     22  C   UNL A   1      36.527  23.103  23.545  1.00  0.00     0.000 A 
ATOM     23  C   UNL A   1      36.391  23.720  25.871  1.00  0.00     0.000 A 
ATOM     24  C   UNL A   1      37.151  23.495  24.728  1.00  0.00     0.000 A 
ENDBRANCH  17  19
ENDBRANCH  14  17
ENDBRANCH   8  13
ENDBRANCH   4   7
ENDBRANCH   2   3
ENDBRANCH   1   2
BRANCH   1  25
ATOM     25  C   UNL A   1      31.595  31.974  26.714  1.00  0.00     0.023 C 
BRANCH  25  26
ATOM     26  C   UNL A   1      32.733  32.748  27.363  1.00  0.00     0.116 C 
BRANCH  26  27
ATOM     27  N   UNL A   1      32.403  34.129  27.679  1.00  0.00    -0.352 N 
ATOM     28  C   UNL A   1      33.006  34.955  28.599  1.00  0.00     0.251 C 
ATOM     29  H   UNL A   1      31.656  34.521  27.172  1.00  0.00     0.163 HD
ATOM     30  O   UNL A   1      32.561  36.072  28.819  1.00  0.00    -0.269 OA
BRANCH  28  31
ATOM     31  C   UNL A   1      34.166  34.449  29.362  1.00  0.00     0.039 A 
ATOM     32  C   UNL A   1      33.944  33.869  30.613  1.00  0.00     0.014 A 
ATOM     33  C   UNL A   1      35.454  34.510  28.827  1.00  0.00     0.014 A 
ATOM     34  C   UNL A   1      35.010  33.286  31.299  1.00  0.00     0.010 A 
ATOM     35  C   UNL A   1      36.499  33.861  29.474  1.00  0.00     0.010 A 
ATOM     36  C   UNL A   1      36.288  33.249  30.718  1.00  0.00    -0.014 A 
BRANCH  36  37
ATOM     37  C   UNL A   1      37.426  32.592  31.403  1.00  0.00     0.031 A 
ATOM     38  C   UNL A   1      38.136  31.447  30.742  1.00  0.00     0.074 A 
ATOM     39  C   UNL A   1      37.768  32.978  32.647  1.00  0.00     0.049 A 
ATOM     40  N   UNL A   1      39.107  30.698  31.199  1.00  0.00    -0.248 NA
ATOM     41  C   UNL A   1      37.668  31.071  29.399  1.00  0.00     0.031 C 
ATOM     42  C   UNL A   1      37.118  34.042  33.412  1.00  0.00     0.029 A 
ATOM     43  N   UNL A   1      38.745  32.510  33.489  1.00  0.00    -0.354 N 
ATOM     44  C   UNL A   1      39.345  29.750  30.213  1.00  0.00     0.074 A 
ATOM     45  C   UNL A   1      38.384  29.984  29.158  1.00  0.00     0.031 C 
ATOM     46  C   UNL A   1      37.737  34.171  34.597  1.00  0.00     0.029 A 
ATOM     47  C   UNL A   1      38.805  33.179  34.686  1.00  0.00     0.049 A 
ATOM     48  H   UNL A   1      39.346  31.767  33.256  1.00  0.00     0.167 HD
ATOM     49  C   UNL A   1      40.297  28.787  30.180  1.00  0.00     0.037 A 
ATOM     50  C   UNL A   1      39.634  33.013  35.733  1.00  0.00     0.037 A 
ATOM     51  C   UNL A   1      41.277  28.587  31.213  1.00  0.00     0.049 A 
ATOM     52  C   UNL A   1      40.694  31.948  35.666  1.00  0.00     0.074 A 
ATOM     53  C   UNL A   1      42.332  27.693  31.243  1.00  0.00     0.029 A 
ATOM     54  N   UNL A   1      41.319  29.296  32.406  1.00  0.00    -0.354 N 
ATOM     55  N   UNL A   1      40.960  31.104  34.699  1.00  0.00    -0.248 NA
ATOM     56  C   UNL A   1      41.572  31.818  36.836  1.00  0.00     0.031 C 
ATOM     57  C   UNL A   1      42.992  27.838  32.470  1.00  0.00     0.029 A 
ATOM     58  C   UNL A   1      42.372  28.849  33.186  1.00  0.00     0.049 A 
ATOM     59  H   UNL A   1      40.692  30.013  32.658  1.00  0.00     0.167 HD
ATOM     60  C   UNL A   1      42.055  30.367  35.126  1.00  0.00     0.074 A 
ATOM     61  C   UNL A   1      42.406  30.866  36.441  1.00  0.00     0.031 C 
ATOM     62  C   UNL A   1      42.713  29.369  34.486  1.00  0.00     0.037 A 
BRANCH  49  63
ATOM     63  C   UNL A   1      40.314  27.881  28.983  1.00  0.00     0.064 A 
ATOM     64  C   UNL A   1      41.040  28.202  27.826  1.00  0.00     0.173 A 
ATOM     65  C   UNL A   1      39.588  26.681  28.990  1.00  0.00     0.173 A 
ATOM     66  F   UNL A   1      41.739  29.346  27.763  1.00  0.00    -0.203 F 
ATOM     67  C   UNL A   1      41.003  27.377  26.705  1.00  0.00     0.198 A 
ATOM     68  C   UNL A   1      39.578  25.843  27.877  1.00  0.00     0.198 A 
ATOM     69  F   UNL A   1      38.879  26.325  30.072  1.00  0.00    -0.203 F 
ATOM     70  F   UNL A   1      41.650  27.740  25.587  1.00  0.00    -0.200 F 
ATOM     71  C   UNL A   1      40.276  26.198  26.733  1.00  0.00     0.200 A 
ATOM     72  F   UNL A   1      38.883  24.698  27.909  1.00  0.00    -0.200 F 
ATOM     73  F   UNL A   1      40.236  25.408  25.650  1.00  0.00    -0.200 F 
ENDBRANCH  49  63
BRANCH  50  74
ATOM     74  C   UNL A   1      39.536  33.919  36.903  1.00  0.00     0.064 A 
ATOM     75  C   UNL A   1      40.178  35.166  36.891  1.00  0.00     0.173 A 
ATOM     76  C   UNL A   1      38.794  33.576  38.042  1.00  0.00     0.173 A 
ATOM     77  F   UNL A   1      40.914  35.528  35.830  1.00  0.00    -0.203 F 
ATOM     78  C   UNL A   1      40.090  36.031  37.979  1.00  0.00     0.198 A 
ATOM     79  C   UNL A   1      38.689  34.452  39.120  1.00  0.00     0.198 A 
ATOM     80  F   UNL A   1      38.157  32.397  38.098  1.00  0.00    -0.203 F 
ATOM     81  F   UNL A   1      40.739  37.203  37.954  1.00  0.00    -0.200 F 
ATOM     82  C   UNL A   1      39.341  35.676  39.091  1.00  0.00     0.200 A 
ATOM     83  F   UNL A   1      37.954  34.112  40.188  1.00  0.00    -0.200 F 
ATOM     84  F   UNL A   1      39.251  36.511  40.135  1.00  0.00    -0.200 F 
ENDBRANCH  50  74
BRANCH  62  85
ATOM     85  C   UNL A   1      43.905  28.780  35.179  1.00  0.00     0.064 A 
ATOM     86  C   UNL A   1      45.194  29.298  34.994  1.00  0.00     0.173 A 
ATOM     87  C   UNL A   1      43.746  27.708  36.071  1.00  0.00     0.173 A 
ATOM     88  F   UNL A   1      45.399  30.310  34.139  1.00  0.00    -0.203 F 
ATOM     89  C   UNL A   1      46.287  28.749  35.661  1.00  0.00     0.198 A 
ATOM     90  C   UNL A   1      44.836  27.179  36.756  1.00  0.00     0.198 A 
ATOM     91  F   UNL A   1      42.531  27.182  36.286  1.00  0.00    -0.203 F 
ATOM     92  F   UNL A   1      47.517  29.230  35.436  1.00  0.00    -0.200 F 
ATOM     93  C   UNL A   1      46.106  27.696  36.545  1.00  0.00     0.200 A 
ATOM     94  F   UNL A   1      44.658  26.169  37.618  1.00  0.00    -0.200 F 
ATOM     95  F   UNL A   1      47.158  27.173  37.190  1.00  0.00    -0.200 F 
ENDBRANCH  62  85
ENDBRANCH  36  37
ENDBRANCH  28  31
ENDBRANCH  26  27
ENDBRANCH  25  26
ENDBRANCH   1  25
TORSDOF 14
ENDMDL
MODEL 3
REMARK VINA RESULT:     -12.7      5.298      9.979
REMARK SMILES C[C@@H](NC(=O)c1cc(C(=O)NCCCCNC(=O)c2ccc(-c3c4nc(c(-c5c(F)c(F)c(F)c(F)c5F)c5ccc([nH]5)c(-c5c(F)c(F)c(F)c(F)c5F)c5nc(c(-c6c(F)c(F)c(F)c(F)c6F)c6ccc3[nH]6)C=C5)C=C4)cc2)n(C)n1)c1ccccc1
REMARK SMILES IDX 13 1 12 2 11 3 9 4 10 5 8 7 6 8 7 9 84 10 82 11 83 12 4 13
REMARK SMILES IDX 3 14 5 16 2 17 1 18 85 19 86 20 90 21 87 22 89 23 88 24
REMARK SMILES IDX 14 25 15 26 16 27 17 28 18 30 19 31 20 32 81 33 21 34 80 35
REMARK SMILES IDX 22 36 23 37 24 38 74 39 25 40 79 41 73 42 75 43 26 44 78 45
REMARK SMILES IDX 72 46 71 47 27 49 59 50 39 51 58 52 40 53 43 54 57 55 76 56
REMARK SMILES IDX 41 57 42 58 56 60 77 61 44 62 28 63 29 64 37 65 30 66 31 67
REMARK SMILES IDX 35 68 38 69 32 70 33 71 36 72 34 73 60 74 61 75 69 76 62 77
REMARK SMILES IDX 63 78 67 79 70 80 64 81 65 82 68 83 66 84 45 85 46 86 54 87
REMARK SMILES IDX 47 88 48 89 52 90 55 91 49 92 50 93 53 94 51 95
REMARK H PARENT 11 6 3 15 16 29 75 48 43 59
REMARK Flexibility Score: inf
ROOT
ATOM      1  C   UNL A   1      37.160  21.133  24.638  1.00  0.00     0.023 C 
ENDROOT
BRANCH   1   2
ATOM      2  C   UNL A   1      37.319  22.428  25.438  1.00  0.00     0.116 C 
BRANCH   2   3
ATOM      3  N   UNL A   1      36.296  22.559  26.441  1.00  0.00    -0.351 N 
ATOM      4  C   UNL A   1      34.972  22.890  26.449  1.00  0.00     0.269 C 
ATOM      5  O   UNL A   1      34.470  22.768  27.576  1.00  0.00    -0.268 OA
ATOM      6  H   UNL A   1      36.634  22.360  27.345  1.00  0.00     0.163 HD
BRANCH   4   7
ATOM      7  C   UNL A   1      34.156  23.340  25.333  1.00  0.00     0.126 A 
ATOM      8  C   UNL A   1      33.460  24.773  23.730  1.00  0.00     0.151 A 
ATOM      9  C   UNL A   1      34.149  24.688  24.950  1.00  0.00     0.069 A 
ATOM     10  N   UNL A   1      32.866  23.607  23.466  1.00  0.00    -0.167 NA
ATOM     11  N   UNL A   1      33.373  22.745  24.367  1.00  0.00    -0.262 N 
ATOM     12  C   UNL A   1      33.105  21.368  24.043  1.00  0.00     0.174 C 
BRANCH   8  13
ATOM     13  C   UNL A   1      33.358  25.873  22.781  1.00  0.00     0.272 C 
ATOM     14  N   UNL A   1      32.849  27.079  23.202  1.00  0.00    -0.344 N 
ATOM     15  H   UNL A   1      33.223  27.853  22.725  1.00  0.00     0.164 HD
ATOM     16  O   UNL A   1      33.821  25.810  21.641  1.00  0.00    -0.267 OA
BRANCH  14  17
ATOM     17  C   UNL A   1      31.860  27.441  24.221  1.00  0.00     0.109 C 
ATOM     18  C   UNL A   1      30.611  27.996  23.521  1.00  0.00     0.036 C 
BRANCH  17  19
ATOM     19  C   UNL A   1      32.260  28.408  25.317  1.00  0.00    -0.026 A 
ATOM     20  C   UNL A   1      33.305  28.147  26.215  1.00  0.00     0.006 A 
ATOM     21  C   UNL A   1      31.600  29.648  25.404  1.00  0.00     0.006 A 
ATOM     22  C   UNL A   1      33.651  29.085  27.195  1.00  0.00     0.000 A 
ATOM     23  C   UNL A   1      31.948  30.583  26.380  1.00  0.00     0.000 A 
ATOM     24  C   UNL A   1      32.971  30.299  27.279  1.00  0.00     0.000 A 
ENDBRANCH  17  19
ENDBRANCH  14  17
ENDBRANCH   8  13
ENDBRANCH   4   7
ENDBRANCH   2   3
ENDBRANCH   1   2
BRANCH   1  25
ATOM     25  C   UNL A   1      37.994  19.949  25.130  1.00  0.00     0.023 C 
BRANCH  25  26
ATOM     26  C   UNL A   1      39.321  20.319  25.777  1.00  0.00     0.116 C 
BRANCH  26  27
ATOM     27  N   UNL A   1      40.265  19.215  25.862  1.00  0.00    -0.352 N 
ATOM     28  C   UNL A   1      41.613  19.271  26.126  1.00  0.00     0.251 C 
ATOM     29  H   UNL A   1      39.892  18.316  25.711  1.00  0.00     0.163 HD
ATOM     30  O   UNL A   1      42.300  18.261  26.079  1.00  0.00    -0.269 OA
BRANCH  28  31
ATOM     31  C   UNL A   1      42.232  20.582  26.411  1.00  0.00     0.039 A 
ATOM     32  C   UNL A   1      42.683  21.357  25.340  1.00  0.00     0.014 A 
ATOM     33  C   UNL A   1      42.326  21.059  27.720  1.00  0.00     0.014 A 
ATOM     34  C   UNL A   1      43.168  22.644  25.578  1.00  0.00     0.010 A 
ATOM     35  C   UNL A   1      42.735  22.368  27.947  1.00  0.00     0.010 A 
ATOM     36  C   UNL A   1      43.165  23.169  26.880  1.00  0.00    -0.014 A 
BRANCH  36  37
ATOM     37  C   UNL A   1      43.628  24.550  27.154  1.00  0.00     0.031 A 
ATOM     38  C   UNL A   1      42.651  25.583  27.636  1.00  0.00     0.074 A 
ATOM     39  C   UNL A   1      44.905  24.888  26.896  1.00  0.00     0.049 A 
ATOM     40  N   UNL A   1      42.840  26.857  27.869  1.00  0.00    -0.248 NA
ATOM     41  C   UNL A   1      41.270  25.130  27.853  1.00  0.00     0.031 C 
ATOM     42  C   UNL A   1      45.932  23.985  26.375  1.00  0.00     0.029 A 
ATOM     43  N   UNL A   1      45.554  26.089  27.031  1.00  0.00    -0.354 N 
ATOM     44  C   UNL A   1      41.598  27.359  28.232  1.00  0.00     0.074 A 
ATOM     45  C   UNL A   1      40.654  26.267  28.138  1.00  0.00     0.031 C 
ATOM     46  C   UNL A   1      47.091  24.654  26.269  1.00  0.00     0.029 A 
ATOM     47  C   UNL A   1      46.881  26.039  26.684  1.00  0.00     0.049 A 
ATOM     48  H   UNL A   1      45.111  26.909  27.348  1.00  0.00     0.167 HD
ATOM     49  C   UNL A   1      41.278  28.613  28.633  1.00  0.00     0.037 A 
ATOM     50  C   UNL A   1      47.821  27.002  26.705  1.00  0.00     0.037 A 
ATOM     51  C   UNL A   1      42.229  29.683  28.765  1.00  0.00     0.049 A 
ATOM     52  C   UNL A   1      47.447  28.381  27.170  1.00  0.00     0.074 A 
ATOM     53  C   UNL A   1      42.025  30.968  29.237  1.00  0.00     0.029 A 
ATOM     54  N   UNL A   1      43.571  29.591  28.421  1.00  0.00    -0.354 N 
ATOM     55  N   UNL A   1      46.286  28.829  27.583  1.00  0.00    -0.248 NA
ATOM     56  C   UNL A   1      48.516  29.388  27.177  1.00  0.00     0.031 C 
ATOM     57  C   UNL A   1      43.238  31.663  29.145  1.00  0.00     0.029 A 
ATOM     58  C   UNL A   1      44.204  30.800  28.655  1.00  0.00     0.049 A 
ATOM     59  H   UNL A   1      44.008  28.783  28.065  1.00  0.00     0.167 HD
ATOM     60  C   UNL A   1      46.490  30.157  27.930  1.00  0.00     0.074 A 
ATOM     61  C   UNL A   1      47.890  30.441  27.683  1.00  0.00     0.031 C 
ATOM     62  C   UNL A   1      45.601  31.058  28.414  1.00  0.00     0.037 A 
BRANCH  49  63
ATOM     63  C   UNL A   1      39.837  28.883  28.954  1.00  0.00     0.064 A 
ATOM     64  C   UNL A   1      39.315  28.672  30.240  1.00  0.00     0.173 A 
ATOM     65  C   UNL A   1      38.963  29.351  27.961  1.00  0.00     0.173 A 
ATOM     66  F   UNL A   1      40.106  28.211  31.221  1.00  0.00    -0.203 F 
ATOM     67  C   UNL A   1      37.965  28.877  30.508  1.00  0.00     0.198 A 
ATOM     68  C   UNL A   1      37.619  29.585  28.241  1.00  0.00     0.198 A 
ATOM     69  F   UNL A   1      39.411  29.573  26.716  1.00  0.00    -0.203 F 
ATOM     70  F   UNL A   1      37.477  28.603  31.727  1.00  0.00    -0.200 F 
ATOM     71  C   UNL A   1      37.119  29.336  29.510  1.00  0.00     0.200 A 
ATOM     72  F   UNL A   1      36.805  30.039  27.278  1.00  0.00    -0.200 F 
ATOM     73  F   UNL A   1      35.818  29.527  29.769  1.00  0.00    -0.200 F 
ENDBRANCH  49  63
BRANCH  50  74
ATOM     74  C   UNL A   1      49.221  26.675  26.337  1.00  0.00     0.064 A 
ATOM     75  C   UNL A   1      50.105  26.158  27.294  1.00  0.00     0.173 A 
ATOM     76  C   UNL A   1      49.700  26.851  25.031  1.00  0.00     0.173 A 
ATOM     77  F   UNL A   1      49.695  25.989  28.560  1.00  0.00    -0.203 F 
ATOM     78  C   UNL A   1      51.420  25.840  26.963  1.00  0.00     0.198 A 
ATOM     79  C   UNL A   1      51.009  26.511  24.696  1.00  0.00     0.198 A 
ATOM     80  F   UNL A   1      48.890  27.336  24.078  1.00  0.00    -0.203 F 
ATOM     81  F   UNL A   1      52.253  25.376  27.904  1.00  0.00    -0.200 F 
ATOM     82  C   UNL A   1      51.869  26.011  25.662  1.00  0.00     0.200 A 
ATOM     83  F   UNL A   1      51.437  26.666  23.436  1.00  0.00    -0.200 F 
ATOM     84  F   UNL A   1      53.132  25.698  25.341  1.00  0.00    -0.200 F 
ENDBRANCH  50  74
BRANCH  62  85
ATOM     85  C   UNL A   1      46.123  32.424  28.750  1.00  0.00     0.064 A 
ATOM     86  C   UNL A   1      46.632  32.726  30.021  1.00  0.00     0.173 A 
ATOM     87  C   UNL A   1      46.151  33.430  27.772  1.00  0.00     0.173 A 
ATOM     88  F   UNL A   1      46.612  31.802  30.993  1.00  0.00    -0.203 F 
ATOM     89  C   UNL A   1      47.129  33.995  30.307  1.00  0.00     0.198 A 
ATOM     90  C   UNL A   1      46.672  34.688  28.054  1.00  0.00     0.198 A 
ATOM     91  F   UNL A   1      45.680  33.188  26.539  1.00  0.00    -0.203 F 
ATOM     92  F   UNL A   1      47.570  34.275  31.541  1.00  0.00    -0.200 F 
ATOM     93  C   UNL A   1      47.156  34.971  29.323  1.00  0.00     0.200 A 
ATOM     94  F   UNL A   1      46.707  35.627  27.099  1.00  0.00    -0.200 F 
ATOM     95  F   UNL A   1      47.640  36.190  29.600  1.00  0.00    -0.200 F 
ENDBRANCH  62  85
ENDBRANCH  36  37
ENDBRANCH  28  31
ENDBRANCH  26  27
ENDBRANCH  25  26
ENDBRANCH   1  25
TORSDOF 14
ENDMDL
