MODEL 1
REMARK VINA RESULT:     -12.0      0.000      0.000
REMARK SMILES C/C(=N/[NH+]=C1\NC(=O)[C@H](CC(=O)NCCCCNC(=O)c2ccc(-c3c4nc(c(-c5c(F)c(F)c(F)c(F)c5F)c5ccc([nH]5)c(-c5c(F)c(F)c(F)c(F)c5F)c5nc(c(-c6c(F)c(F)c(F)c(F)c6F)c6ccc3[nH]6)C=C5)C=C4)cc2)S1)c1ccc(OC(C)C)cc1
REMARK SMILES IDX 14 1 13 2 11 3 12 4 10 6 9 7 4 8 5 9 6 11 84 12 7 13 8 15
REMARK SMILES IDX 3 16 1 17 2 18 85 19 86 20 94 21 87 22 93 23 88 24 89 25
REMARK SMILES IDX 90 26 91 27 92 28 15 29 16 30 17 31 18 32 19 33 20 35 21 36
REMARK SMILES IDX 22 37 83 38 23 39 82 40 24 41 25 42 26 43 76 44 27 45 81 46
REMARK SMILES IDX 75 47 77 48 28 49 80 50 74 51 73 52 29 54 61 55 41 56 60 57
REMARK SMILES IDX 42 58 45 59 59 60 78 61 43 62 44 63 58 65 79 66 46 67 30 68
REMARK SMILES IDX 31 69 39 70 32 71 33 72 37 73 40 74 34 75 35 76 38 77 36 78
REMARK SMILES IDX 62 79 63 80 71 81 64 82 65 83 69 84 72 85 66 86 67 87 70 88
REMARK SMILES IDX 68 89 47 90 48 91 56 92 49 93 50 94 54 95 57 96 51 97 52 98
REMARK SMILES IDX 55 99 53 100
REMARK H PARENT 13 5 4 10 6 14 18 34 77 53 45 64
REMARK Flexibility Score: inf
ROOT
ATOM      1  C   UNL A   1      39.107  22.167  26.116  1.00  0.00     0.116 C 
ENDROOT
BRANCH   1   2
ATOM      2  N   UNL A   1      38.196  21.089  25.787  1.00  0.00    -0.356 N 
ATOM      3  C   UNL A   1      36.975  21.149  25.181  1.00  0.00     0.221 C 
ATOM      4  O   UNL A   1      36.344  20.108  25.001  1.00  0.00    -0.275 OA
ATOM      5  H   UNL A   1      38.501  20.187  26.036  1.00  0.00     0.163 HD
BRANCH   3   6
ATOM      6  C   UNL A   1      36.420  22.481  24.734  1.00  0.00     0.127 C 
BRANCH   6   7
ATOM      7  C   UNL A   1      34.904  22.448  24.578  1.00  0.00     0.183 C 
ATOM      8  N   UNL A   1      33.739  26.072  24.817  1.00  0.00    -0.142 N 
ATOM      9  C   UNL A   1      33.904  24.796  24.872  1.00  0.00     0.337 C 
ATOM     10  H   UNL A   1      33.877  26.580  23.986  1.00  0.00     0.343 HD
ATOM     11  N   UNL A   1      33.749  24.018  25.963  1.00  0.00    -0.202 N 
ATOM     12  S   UNL A   1      34.429  23.860  23.505  1.00  0.00    -0.020 SA
ATOM     13  C   UNL A   1      34.147  22.717  25.870  1.00  0.00     0.322 C 
ATOM     14  H   UNL A   1      33.362  24.376  26.794  1.00  0.00     0.316 HD
ATOM     15  O   UNL A   1      33.951  21.893  26.753  1.00  0.00    -0.246 OA
BRANCH   8  16
ATOM     16  N   UNL A   1      33.353  26.693  26.008  1.00  0.00    -0.090 NA
ATOM     17  C   UNL A   1      31.768  27.942  27.308  1.00  0.00     0.071 C 
ATOM     18  C   UNL A   1      32.263  27.411  25.977  1.00  0.00     0.088 C 
BRANCH  18  19
ATOM     19  C   UNL A   1      31.501  27.831  24.759  1.00  0.00    -0.000 A 
ATOM     20  C   UNL A   1      31.877  28.939  24.004  1.00  0.00     0.014 A 
ATOM     21  C   UNL A   1      30.331  27.143  24.415  1.00  0.00     0.014 A 
ATOM     22  C   UNL A   1      31.052  29.387  22.968  1.00  0.00     0.047 A 
ATOM     23  C   UNL A   1      29.510  27.597  23.369  1.00  0.00     0.047 A 
ATOM     24  C   UNL A   1      29.856  28.733  22.649  1.00  0.00     0.119 A 
BRANCH  24  25
ATOM     25  O   UNL A   1      29.170  29.319  21.634  1.00  0.00    -0.491 OA
BRANCH  25  26
ATOM     26  C   UNL A   1      28.045  30.190  21.776  1.00  0.00     0.167 C 
ATOM     27  C   UNL A   1      27.654  30.511  23.213  1.00  0.00     0.052 C 
ATOM     28  C   UNL A   1      28.113  31.417  20.876  1.00  0.00     0.052 C 
ENDBRANCH  25  26
ENDBRANCH  24  25
ENDBRANCH  18  19
ENDBRANCH   8  16
ENDBRANCH   6   7
ENDBRANCH   3   6
ENDBRANCH   1   2
BRANCH   1  29
ATOM     29  C   UNL A   1      40.553  21.702  26.244  1.00  0.00     0.023 C 
BRANCH  29  30
ATOM     30  C   UNL A   1      40.768  20.191  26.136  1.00  0.00     0.023 C 
BRANCH  30  31
ATOM     31  C   UNL A   1      42.165  19.680  26.481  1.00  0.00     0.116 C 
BRANCH  31  32
ATOM     32  N   UNL A   1      42.914  19.183  25.339  1.00  0.00    -0.352 N 
ATOM     33  C   UNL A   1      43.948  19.759  24.640  1.00  0.00     0.251 C 
ATOM     34  H   UNL A   1      42.637  18.295  25.015  1.00  0.00     0.163 HD
ATOM     35  O   UNL A   1      44.432  19.168  23.685  1.00  0.00    -0.269 OA
BRANCH  33  36
ATOM     36  C   UNL A   1      44.427  21.113  25.002  1.00  0.00     0.039 A 
ATOM     37  C   UNL A   1      43.958  22.197  24.256  1.00  0.00     0.014 A 
ATOM     38  C   UNL A   1      45.294  21.325  26.078  1.00  0.00     0.014 A 
ATOM     39  C   UNL A   1      44.285  23.497  24.643  1.00  0.00     0.010 A 
ATOM     40  C   UNL A   1      45.566  22.625  26.501  1.00  0.00     0.010 A 
ATOM     41  C   UNL A   1      45.053  23.724  25.796  1.00  0.00    -0.014 A 
BRANCH  41  42
ATOM     42  C   UNL A   1      45.268  25.107  26.292  1.00  0.00     0.031 A 
ATOM     43  C   UNL A   1      46.619  25.755  26.214  1.00  0.00     0.074 A 
ATOM     44  C   UNL A   1      44.236  25.768  26.852  1.00  0.00     0.049 A 
ATOM     45  N   UNL A   1      46.972  26.971  26.550  1.00  0.00    -0.248 NA
ATOM     46  C   UNL A   1      47.726  24.924  25.718  1.00  0.00     0.031 C 
ATOM     47  C   UNL A   1      42.894  25.218  27.061  1.00  0.00     0.029 A 
ATOM     48  N   UNL A   1      44.149  27.046  27.343  1.00  0.00    -0.354 N 
ATOM     49  C   UNL A   1      48.336  27.050  26.308  1.00  0.00     0.074 A 
ATOM     50  C   UNL A   1      48.760  25.743  25.851  1.00  0.00     0.031 C 
ATOM     51  C   UNL A   1      42.110  26.164  27.603  1.00  0.00     0.029 A 
ATOM     52  C   UNL A   1      42.895  27.379  27.793  1.00  0.00     0.049 A 
ATOM     53  H   UNL A   1      44.914  27.666  27.371  1.00  0.00     0.167 HD
ATOM     54  C   UNL A   1      49.156  28.122  26.431  1.00  0.00     0.037 A 
ATOM     55  C   UNL A   1      42.426  28.541  28.287  1.00  0.00     0.037 A 
ATOM     56  C   UNL A   1      48.729  29.425  26.870  1.00  0.00     0.049 A 
ATOM     57  C   UNL A   1      43.346  29.727  28.370  1.00  0.00     0.074 A 
ATOM     58  C   UNL A   1      49.471  30.589  26.973  1.00  0.00     0.029 A 
ATOM     59  N   UNL A   1      47.443  29.735  27.285  1.00  0.00    -0.354 N 
ATOM     60  N   UNL A   1      44.612  29.816  28.047  1.00  0.00    -0.248 NA
ATOM     61  C   UNL A   1      42.763  30.980  28.868  1.00  0.00     0.031 C 
ATOM     62  C   UNL A   1      48.642  31.595  27.483  1.00  0.00     0.029 A 
ATOM     63  C   UNL A   1      47.372  31.069  27.657  1.00  0.00     0.049 A 
ATOM     64  H   UNL A   1      46.690  29.101  27.311  1.00  0.00     0.167 HD
ATOM     65  C   UNL A   1      44.974  31.136  28.279  1.00  0.00     0.074 A 
ATOM     66  C   UNL A   1      43.784  31.816  28.749  1.00  0.00     0.031 C 
ATOM     67  C   UNL A   1      46.181  31.730  28.122  1.00  0.00     0.037 A 
BRANCH  54  68
ATOM     68  C   UNL A   1      50.601  27.930  26.070  1.00  0.00     0.064 A 
ATOM     69  C   UNL A   1      51.572  27.676  27.051  1.00  0.00     0.173 A 
ATOM     70  C   UNL A   1      51.015  27.968  24.731  1.00  0.00     0.173 A 
ATOM     71  F   UNL A   1      51.230  27.642  28.348  1.00  0.00    -0.203 F 
ATOM     72  C   UNL A   1      52.909  27.497  26.707  1.00  0.00     0.198 A 
ATOM     73  C   UNL A   1      52.349  27.761  24.388  1.00  0.00     0.198 A 
ATOM     74  F   UNL A   1      50.127  28.203  23.754  1.00  0.00    -0.203 F 
ATOM     75  F   UNL A   1      53.826  27.306  27.665  1.00  0.00    -0.200 F 
ATOM     76  C   UNL A   1      53.296  27.533  25.376  1.00  0.00     0.200 A 
ATOM     77  F   UNL A   1      52.720  27.786  23.101  1.00  0.00    -0.200 F 
ATOM     78  F   UNL A   1      54.582  27.358  25.046  1.00  0.00    -0.200 F 
ENDBRANCH  54  68
BRANCH  55  79
ATOM     79  C   UNL A   1      40.998  28.655  28.683  1.00  0.00     0.064 A 
ATOM     80  C   UNL A   1      40.593  28.375  29.995  1.00  0.00     0.173 A 
ATOM     81  C   UNL A   1      40.015  29.042  27.763  1.00  0.00     0.173 A 
ATOM     82  F   UNL A   1      41.497  27.985  30.906  1.00  0.00    -0.203 F 
ATOM     83  C   UNL A   1      39.253  28.457  30.367  1.00  0.00     0.198 A 
ATOM     84  C   UNL A   1      38.678  29.148  28.142  1.00  0.00     0.198 A 
ATOM     85  F   UNL A   1      40.353  29.327  26.497  1.00  0.00    -0.203 F 
ATOM     86  F   UNL A   1      38.887  28.142  31.618  1.00  0.00    -0.200 F 
ATOM     87  C   UNL A   1      38.298  28.847  29.443  1.00  0.00     0.200 A 
ATOM     88  F   UNL A   1      37.759  29.539  27.249  1.00  0.00    -0.200 F 
ATOM     89  F   UNL A   1      37.009  28.928  29.801  1.00  0.00    -0.200 F 
ENDBRANCH  55  79
BRANCH  67  90
ATOM     90  C   UNL A   1      46.264  33.195  28.439  1.00  0.00     0.064 A 
ATOM     91  C   UNL A   1      46.559  33.652  29.732  1.00  0.00     0.173 A 
ATOM     92  C   UNL A   1      46.056  34.153  27.435  1.00  0.00     0.173 A 
ATOM     93  F   UNL A   1      46.751  32.775  30.730  1.00  0.00    -0.203 F 
ATOM     94  C   UNL A   1      46.606  35.013  30.017  1.00  0.00     0.198 A 
ATOM     95  C   UNL A   1      46.133  35.514  27.717  1.00  0.00     0.198 A 
ATOM     96  F   UNL A   1      45.778  33.768  26.181  1.00  0.00    -0.203 F 
ATOM     97  F   UNL A   1      46.831  35.426  31.272  1.00  0.00    -0.200 F 
ATOM     98  C   UNL A   1      46.397  35.943  29.010  1.00  0.00     0.200 A 
ATOM     99  F   UNL A   1      45.940  36.411  26.740  1.00  0.00    -0.200 F 
ATOM    100  F   UNL A   1      46.439  37.254  29.286  1.00  0.00    -0.200 F 
ENDBRANCH  67  90
ENDBRANCH  41  42
ENDBRANCH  33  36
ENDBRANCH  31  32
ENDBRANCH  30  31
ENDBRANCH  29  30
ENDBRANCH   1  29
TORSDOF 16
ENDMDL
MODEL 2
REMARK VINA RESULT:     -11.7      6.419     12.254
REMARK SMILES C/C(=N/[NH+]=C1\NC(=O)[C@H](CC(=O)NCCCCNC(=O)c2ccc(-c3c4nc(c(-c5c(F)c(F)c(F)c(F)c5F)c5ccc([nH]5)c(-c5c(F)c(F)c(F)c(F)c5F)c5nc(c(-c6c(F)c(F)c(F)c(F)c6F)c6ccc3[nH]6)C=C5)C=C4)cc2)S1)c1ccc(OC(C)C)cc1
REMARK SMILES IDX 14 1 13 2 11 3 12 4 10 6 9 7 4 8 5 9 6 11 84 12 7 13 8 15
REMARK SMILES IDX 3 16 1 17 2 18 85 19 86 20 94 21 87 22 93 23 88 24 89 25
REMARK SMILES IDX 90 26 91 27 92 28 15 29 16 30 17 31 18 32 19 33 20 35 21 36
REMARK SMILES IDX 22 37 83 38 23 39 82 40 24 41 25 42 26 43 76 44 27 45 81 46
REMARK SMILES IDX 75 47 77 48 28 49 80 50 74 51 73 52 29 54 61 55 41 56 60 57
REMARK SMILES IDX 42 58 45 59 59 60 78 61 43 62 44 63 58 65 79 66 46 67 30 68
REMARK SMILES IDX 31 69 39 70 32 71 33 72 37 73 40 74 34 75 35 76 38 77 36 78
REMARK SMILES IDX 62 79 63 80 71 81 64 82 65 83 69 84 72 85 66 86 67 87 70 88
REMARK SMILES IDX 68 89 47 90 48 91 56 92 49 93 50 94 54 95 57 96 51 97 52 98
REMARK SMILES IDX 55 99 53 100
REMARK H PARENT 13 5 4 10 6 14 18 34 77 53 45 64
REMARK Flexibility Score: inf
ROOT
ATOM      1  C   UNL A   1      33.278  31.569  27.626  1.00  0.00     0.116 C 
ENDROOT
BRANCH   1   2
ATOM      2  N   UNL A   1      34.167  30.458  27.352  1.00  0.00    -0.356 N 
ATOM      3  C   UNL A   1      33.868  29.137  27.187  1.00  0.00     0.221 C 
ATOM      4  O   UNL A   1      34.780  28.338  26.973  1.00  0.00    -0.275 OA
ATOM      5  H   UNL A   1      35.121  30.689  27.273  1.00  0.00     0.163 HD
BRANCH   3   6
ATOM      6  C   UNL A   1      32.433  28.674  27.262  1.00  0.00     0.127 C 
BRANCH   6   7
ATOM      7  C   UNL A   1      31.889  28.268  25.897  1.00  0.00     0.183 C 
ATOM      8  N   UNL A   1      33.350  24.822  25.161  1.00  0.00    -0.142 N 
ATOM      9  C   UNL A   1      32.891  26.025  25.145  1.00  0.00     0.337 C 
ATOM     10  H   UNL A   1      32.885  24.095  25.634  1.00  0.00     0.343 HD
ATOM     11  N   UNL A   1      33.459  27.086  24.535  1.00  0.00    -0.202 N 
ATOM     12  S   UNL A   1      31.444  26.489  25.988  1.00  0.00    -0.020 SA
ATOM     13  C   UNL A   1      32.923  28.315  24.783  1.00  0.00     0.322 C 
ATOM     14  H   UNL A   1      34.231  26.977  23.934  1.00  0.00     0.316 HD
ATOM     15  O   UNL A   1      33.282  29.331  24.202  1.00  0.00    -0.246 OA
BRANCH   8  16
ATOM     16  N   UNL A   1      34.545  24.610  24.470  1.00  0.00    -0.090 NA
ATOM     17  C   UNL A   1      35.980  23.229  23.130  1.00  0.00     0.071 C 
ATOM     18  C   UNL A   1      34.763  23.406  24.016  1.00  0.00     0.088 C 
BRANCH  18  19
ATOM     19  C   UNL A   1      33.986  22.170  24.346  1.00  0.00    -0.000 A 
ATOM     20  C   UNL A   1      34.326  21.354  25.421  1.00  0.00     0.014 A 
ATOM     21  C   UNL A   1      32.939  21.776  23.502  1.00  0.00     0.014 A 
ATOM     22  C   UNL A   1      33.672  20.131  25.602  1.00  0.00     0.047 A 
ATOM     23  C   UNL A   1      32.284  20.548  23.694  1.00  0.00     0.047 A 
ATOM     24  C   UNL A   1      32.657  19.708  24.735  1.00  0.00     0.119 A 
BRANCH  24  25
ATOM     25  O   UNL A   1      32.153  18.487  25.044  1.00  0.00    -0.491 OA
BRANCH  25  26
ATOM     26  C   UNL A   1      32.648  17.231  24.573  1.00  0.00     0.167 C 
ATOM     27  C   UNL A   1      33.628  17.319  23.409  1.00  0.00     0.052 C 
ATOM     28  C   UNL A   1      33.113  16.306  25.690  1.00  0.00     0.052 C 
ENDBRANCH  25  26
ENDBRANCH  24  25
ENDBRANCH  18  19
ENDBRANCH   8  16
ENDBRANCH   6   7
ENDBRANCH   3   6
ENDBRANCH   1   2
BRANCH   1  29
ATOM     29  C   UNL A   1      33.997  32.765  28.241  1.00  0.00     0.023 C 
BRANCH  29  30
ATOM     30  C   UNL A   1      33.295  34.112  28.070  1.00  0.00     0.023 C 
BRANCH  30  31
ATOM     31  C   UNL A   1      33.704  35.217  29.042  1.00  0.00     0.116 C 
BRANCH  31  32
ATOM     32  N   UNL A   1      32.720  35.492  30.076  1.00  0.00    -0.352 N 
ATOM     33  C   UNL A   1      32.801  35.332  31.440  1.00  0.00     0.251 C 
ATOM     34  H   UNL A   1      31.862  35.849  29.750  1.00  0.00     0.163 HD
ATOM     35  O   UNL A   1      31.837  35.613  32.137  1.00  0.00    -0.269 OA
BRANCH  33  36
ATOM     36  C   UNL A   1      34.024  34.764  32.050  1.00  0.00     0.039 A 
ATOM     37  C   UNL A   1      33.993  33.428  32.461  1.00  0.00     0.014 A 
ATOM     38  C   UNL A   1      35.196  35.511  32.187  1.00  0.00     0.014 A 
ATOM     39  C   UNL A   1      35.160  32.819  32.925  1.00  0.00     0.010 A 
ATOM     40  C   UNL A   1      36.375  34.884  32.589  1.00  0.00     0.010 A 
ATOM     41  C   UNL A   1      36.372  33.528  32.947  1.00  0.00    -0.014 A 
BRANCH  41  42
ATOM     42  C   UNL A   1      37.639  32.835  33.292  1.00  0.00     0.031 A 
ATOM     43  C   UNL A   1      38.356  33.128  34.577  1.00  0.00     0.074 A 
ATOM     44  C   UNL A   1      38.162  31.956  32.414  1.00  0.00     0.049 A 
ATOM     45  N   UNL A   1      39.442  32.578  35.060  1.00  0.00    -0.248 NA
ATOM     46  C   UNL A   1      37.799  34.197  35.419  1.00  0.00     0.031 C 
ATOM     47  C   UNL A   1      37.603  31.645  31.097  1.00  0.00     0.029 A 
ATOM     48  N   UNL A   1      39.277  31.160  32.498  1.00  0.00    -0.354 N 
ATOM     49  C   UNL A   1      39.698  33.231  36.257  1.00  0.00     0.074 A 
ATOM     50  C   UNL A   1      38.687  34.259  36.401  1.00  0.00     0.031 C 
ATOM     51  C   UNL A   1      38.356  30.699  30.512  1.00  0.00     0.029 A 
ATOM     52  C   UNL A   1      39.456  30.348  31.404  1.00  0.00     0.049 A 
ATOM     53  H   UNL A   1      39.889  31.170  33.268  1.00  0.00     0.167 HD
ATOM     54  C   UNL A   1      40.671  32.981  37.166  1.00  0.00     0.037 A 
ATOM     55  C   UNL A   1      40.393  29.414  31.157  1.00  0.00     0.037 A 
ATOM     56  C   UNL A   1      41.665  31.949  37.029  1.00  0.00     0.049 A 
ATOM     57  C   UNL A   1      41.434  29.125  32.202  1.00  0.00     0.074 A 
ATOM     58  C   UNL A   1      42.657  31.578  37.921  1.00  0.00     0.029 A 
ATOM     59  N   UNL A   1      41.795  31.122  35.923  1.00  0.00    -0.354 N 
ATOM     60  N   UNL A   1      41.607  29.684  33.375  1.00  0.00    -0.248 NA
ATOM     61  C   UNL A   1      42.397  28.058  31.897  1.00  0.00     0.031 C 
ATOM     62  C   UNL A   1      43.409  30.551  37.340  1.00  0.00     0.029 A 
ATOM     63  C   UNL A   1      42.859  30.251  36.104  1.00  0.00     0.049 A 
ATOM     64  H   UNL A   1      41.218  31.150  35.127  1.00  0.00     0.167 HD
ATOM     65  C   UNL A   1      42.682  29.025  33.957  1.00  0.00     0.074 A 
ATOM     66  C   UNL A   1      43.105  28.008  33.016  1.00  0.00     0.031 C 
ATOM     67  C   UNL A   1      43.267  29.245  35.158  1.00  0.00     0.037 A 
BRANCH  54  68
ATOM     68  C   UNL A   1      40.697  33.834  38.402  1.00  0.00     0.064 A 
ATOM     69  C   UNL A   1      39.947  33.496  39.540  1.00  0.00     0.173 A 
ATOM     70  C   UNL A   1      41.500  34.982  38.462  1.00  0.00     0.173 A 
ATOM     71  F   UNL A   1      39.153  32.415  39.529  1.00  0.00    -0.203 F 
ATOM     72  C   UNL A   1      39.979  34.292  40.682  1.00  0.00     0.198 A 
ATOM     73  C   UNL A   1      41.551  35.761  39.615  1.00  0.00     0.198 A 
ATOM     74  F   UNL A   1      42.238  35.348  37.404  1.00  0.00    -0.203 F 
ATOM     75  F   UNL A   1      39.218  33.977  41.738  1.00  0.00    -0.200 F 
ATOM     76  C   UNL A   1      40.786  35.420  40.721  1.00  0.00     0.200 A 
ATOM     77  F   UNL A   1      42.337  36.845  39.656  1.00  0.00    -0.200 F 
ATOM     78  F   UNL A   1      40.818  36.184  41.822  1.00  0.00    -0.200 F 
ENDBRANCH  54  68
BRANCH  55  79
ATOM     79  C   UNL A   1      40.351  28.639  29.890  1.00  0.00     0.064 A 
ATOM     80  C   UNL A   1      39.610  27.453  29.798  1.00  0.00     0.173 A 
ATOM     81  C   UNL A   1      41.048  29.064  28.751  1.00  0.00     0.173 A 
ATOM     82  F   UNL A   1      38.941  26.999  30.868  1.00  0.00    -0.203 F 
ATOM     83  C   UNL A   1      39.586  26.709  28.621  1.00  0.00     0.198 A 
ATOM     84  C   UNL A   1      41.003  28.333  27.566  1.00  0.00     0.198 A 
ATOM     85  F   UNL A   1      41.766  30.197  28.786  1.00  0.00    -0.203 F 
ATOM     86  F   UNL A   1      38.904  25.556  28.574  1.00  0.00    -0.200 F 
ATOM     87  C   UNL A   1      40.278  27.151  27.505  1.00  0.00     0.200 A 
ATOM     88  F   UNL A   1      41.662  28.771  26.485  1.00  0.00    -0.200 F 
ATOM     89  F   UNL A   1      40.252  26.436  26.372  1.00  0.00    -0.200 F 
ENDBRANCH  55  79
BRANCH  67  90
ATOM     90  C   UNL A   1      44.413  28.350  35.530  1.00  0.00     0.064 A 
ATOM     91  C   UNL A   1      45.737  28.675  35.200  1.00  0.00     0.173 A 
ATOM     92  C   UNL A   1      44.185  27.157  36.233  1.00  0.00     0.173 A 
ATOM     93  F   UNL A   1      46.005  29.797  34.515  1.00  0.00    -0.203 F 
ATOM     94  C   UNL A   1      46.787  27.821  35.527  1.00  0.00     0.198 A 
ATOM     95  C   UNL A   1      45.240  26.320  36.585  1.00  0.00     0.198 A 
ATOM     96  F   UNL A   1      42.938  26.804  36.578  1.00  0.00    -0.203 F 
ATOM     97  F   UNL A   1      48.037  28.124  35.150  1.00  0.00    -0.200 F 
ATOM     98  C   UNL A   1      46.538  26.648  36.223  1.00  0.00     0.200 A 
ATOM     99  F   UNL A   1      44.999  25.191  37.266  1.00  0.00    -0.200 F 
ATOM    100  F   UNL A   1      47.550  25.825  36.534  1.00  0.00    -0.200 F 
ENDBRANCH  67  90
ENDBRANCH  41  42
ENDBRANCH  33  36
ENDBRANCH  31  32
ENDBRANCH  30  31
ENDBRANCH  29  30
ENDBRANCH   1  29
TORSDOF 16
ENDMDL
MODEL 3
REMARK VINA RESULT:     -11.4      1.405      7.376
REMARK SMILES C/C(=N/[NH+]=C1\NC(=O)[C@H](CC(=O)NCCCCNC(=O)c2ccc(-c3c4nc(c(-c5c(F)c(F)c(F)c(F)c5F)c5ccc([nH]5)c(-c5c(F)c(F)c(F)c(F)c5F)c5nc(c(-c6c(F)c(F)c(F)c(F)c6F)c6ccc3[nH]6)C=C5)C=C4)cc2)S1)c1ccc(OC(C)C)cc1
REMARK SMILES IDX 14 1 13 2 11 3 12 4 10 6 9 7 4 8 5 9 6 11 84 12 7 13 8 15
REMARK SMILES IDX 3 16 1 17 2 18 85 19 86 20 94 21 87 22 93 23 88 24 89 25
REMARK SMILES IDX 90 26 91 27 92 28 15 29 16 30 17 31 18 32 19 33 20 35 21 36
REMARK SMILES IDX 22 37 83 38 23 39 82 40 24 41 25 42 26 43 76 44 27 45 81 46
REMARK SMILES IDX 75 47 77 48 28 49 80 50 74 51 73 52 29 54 61 55 41 56 60 57
REMARK SMILES IDX 42 58 45 59 59 60 78 61 43 62 44 63 58 65 79 66 46 67 30 68
REMARK SMILES IDX 31 69 39 70 32 71 33 72 37 73 40 74 34 75 35 76 38 77 36 78
REMARK SMILES IDX 62 79 63 80 71 81 64 82 65 83 69 84 72 85 66 86 67 87 70 88
REMARK SMILES IDX 68 89 47 90 48 91 56 92 49 93 50 94 54 95 57 96 51 97 52 98
REMARK SMILES IDX 55 99 53 100
REMARK H PARENT 13 5 4 10 6 14 18 34 77 53 45 64
REMARK Flexibility Score: inf
ROOT
ATOM      1  C   UNL A   1      37.716  21.744  25.369  1.00  0.00     0.116 C 
ENDROOT
BRANCH   1   2
ATOM      2  N   UNL A   1      36.913  20.553  25.172  1.00  0.00    -0.356 N 
ATOM      3  C   UNL A   1      35.594  20.449  24.840  1.00  0.00     0.221 C 
ATOM      4  O   UNL A   1      35.090  19.332  24.733  1.00  0.00    -0.275 OA
ATOM      5  H   UNL A   1      37.388  19.699  25.296  1.00  0.00     0.163 HD
BRANCH   3   6
ATOM      6  C   UNL A   1      34.777  21.697  24.602  1.00  0.00     0.127 C 
BRANCH   6   7
ATOM      7  C   UNL A   1      33.377  21.589  25.198  1.00  0.00     0.183 C 
ATOM      8  N   UNL A   1      31.966  25.132  25.229  1.00  0.00    -0.142 N 
ATOM      9  C   UNL A   1      32.311  23.912  25.453  1.00  0.00     0.337 C 
ATOM     10  H   UNL A   1      31.638  25.427  24.350  1.00  0.00     0.343 HD
ATOM     11  N   UNL A   1      32.779  23.417  26.618  1.00  0.00    -0.202 N 
ATOM     12  S   UNL A   1      32.276  22.686  24.221  1.00  0.00    -0.020 SA
ATOM     13  C   UNL A   1      33.265  22.142  26.610  1.00  0.00     0.322 C 
ATOM     14  H   UNL A   1      32.770  23.954  27.442  1.00  0.00     0.316 HD
ATOM     15  O   UNL A   1      33.609  21.552  27.624  1.00  0.00    -0.246 OA
BRANCH   8  16
ATOM     16  N   UNL A   1      32.085  26.012  26.307  1.00  0.00    -0.090 NA
ATOM     17  C   UNL A   1      31.509  28.058  27.423  1.00  0.00     0.071 C 
ATOM     18  C   UNL A   1      31.513  27.179  26.188  1.00  0.00     0.088 C 
BRANCH  18  19
ATOM     19  C   UNL A   1      30.938  27.771  24.939  1.00  0.00    -0.000 A 
ATOM     20  C   UNL A   1      31.407  28.970  24.411  1.00  0.00     0.014 A 
ATOM     21  C   UNL A   1      29.843  27.145  24.329  1.00  0.00     0.014 A 
ATOM     22  C   UNL A   1      30.742  29.564  23.333  1.00  0.00     0.047 A 
ATOM     23  C   UNL A   1      29.183  27.746  23.244  1.00  0.00     0.047 A 
ATOM     24  C   UNL A   1      29.617  28.969  22.749  1.00  0.00     0.119 A 
BRANCH  24  25
ATOM     25  O   UNL A   1      29.084  29.696  21.734  1.00  0.00    -0.491 OA
BRANCH  25  26
ATOM     26  C   UNL A   1      28.554  31.019  21.839  1.00  0.00     0.167 C 
ATOM     27  C   UNL A   1      27.936  31.570  20.560  1.00  0.00     0.052 C 
ATOM     28  C   UNL A   1      27.685  31.228  23.072  1.00  0.00     0.052 C 
ENDBRANCH  25  26
ENDBRANCH  24  25
ENDBRANCH  18  19
ENDBRANCH   8  16
ENDBRANCH   6   7
ENDBRANCH   3   6
ENDBRANCH   1   2
BRANCH   1  29
ATOM     29  C   UNL A   1      39.130  21.433  25.848  1.00  0.00     0.023 C 
BRANCH  29  30
ATOM     30  C   UNL A   1      39.707  20.102  25.364  1.00  0.00     0.023 C 
BRANCH  30  31
ATOM     31  C   UNL A   1      40.315  19.199  26.436  1.00  0.00     0.116 C 
BRANCH  31  32
ATOM     32  N   UNL A   1      41.635  18.689  26.103  1.00  0.00    -0.352 N 
ATOM     33  C   UNL A   1      42.846  19.338  26.047  1.00  0.00     0.251 C 
ATOM     34  H   UNL A   1      41.667  17.729  25.884  1.00  0.00     0.163 HD
ATOM     35  O   UNL A   1      43.848  18.715  25.724  1.00  0.00    -0.269 OA
BRANCH  33  36
ATOM     36  C   UNL A   1      42.924  20.792  26.313  1.00  0.00     0.039 A 
ATOM     37  C   UNL A   1      42.826  21.222  27.639  1.00  0.00     0.014 A 
ATOM     38  C   UNL A   1      43.125  21.720  25.288  1.00  0.00     0.014 A 
ATOM     39  C   UNL A   1      43.020  22.570  27.946  1.00  0.00     0.010 A 
ATOM     40  C   UNL A   1      43.383  23.054  25.603  1.00  0.00     0.010 A 
ATOM     41  C   UNL A   1      43.348  23.489  26.935  1.00  0.00    -0.014 A 
BRANCH  41  42
ATOM     42  C   UNL A   1      43.706  24.888  27.284  1.00  0.00     0.031 A 
ATOM     43  C   UNL A   1      42.653  25.877  27.690  1.00  0.00     0.074 A 
ATOM     44  C   UNL A   1      44.994  25.273  27.195  1.00  0.00     0.049 A 
ATOM     45  N   UNL A   1      42.795  27.120  28.076  1.00  0.00    -0.248 NA
ATOM     46  C   UNL A   1      41.257  25.423  27.629  1.00  0.00     0.031 C 
ATOM     47  C   UNL A   1      46.098  24.428  26.734  1.00  0.00     0.029 A 
ATOM     48  N   UNL A   1      45.595  26.470  27.493  1.00  0.00    -0.354 N 
ATOM     49  C   UNL A   1      41.511  27.595  28.305  1.00  0.00     0.074 A 
ATOM     50  C   UNL A   1      40.598  26.525  27.958  1.00  0.00     0.031 C 
ATOM     51  C   UNL A   1      47.246  25.121  26.816  1.00  0.00     0.029 A 
ATOM     52  C   UNL A   1      46.957  26.460  27.318  1.00  0.00     0.049 A 
ATOM     53  H   UNL A   1      45.097  27.261  27.802  1.00  0.00     0.167 HD
ATOM     54  C   UNL A   1      41.129  28.803  28.783  1.00  0.00     0.037 A 
ATOM     55  C   UNL A   1      47.873  27.419  27.554  1.00  0.00     0.037 A 
ATOM     56  C   UNL A   1      42.039  29.860  29.143  1.00  0.00     0.049 A 
ATOM     57  C   UNL A   1      47.427  28.734  28.128  1.00  0.00     0.074 A 
ATOM     58  C   UNL A   1      41.753  31.099  29.691  1.00  0.00     0.029 A 
ATOM     59  N   UNL A   1      43.416  29.802  28.985  1.00  0.00    -0.354 N 
ATOM     60  N   UNL A   1      46.217  29.137  28.430  1.00  0.00    -0.248 NA
ATOM     61  C   UNL A   1      48.477  29.720  28.413  1.00  0.00     0.031 C 
ATOM     62  C   UNL A   1      42.954  31.804  29.831  1.00  0.00     0.029 A 
ATOM     63  C   UNL A   1      43.993  30.988  29.412  1.00  0.00     0.049 A 
ATOM     64  H   UNL A   1      43.910  29.032  28.622  1.00  0.00     0.167 HD
ATOM     65  C   UNL A   1      46.361  30.412  28.961  1.00  0.00     0.074 A 
ATOM     66  C   UNL A   1      47.780  30.705  28.961  1.00  0.00     0.031 C 
ATOM     67  C   UNL A   1      45.406  31.264  29.405  1.00  0.00     0.037 A 
BRANCH  54  68
ATOM     68  C   UNL A   1      39.657  29.041  28.960  1.00  0.00     0.064 A 
ATOM     69  C   UNL A   1      38.850  29.455  27.888  1.00  0.00     0.173 A 
ATOM     70  C   UNL A   1      39.040  28.824  30.200  1.00  0.00     0.173 A 
ATOM     71  F   UNL A   1      39.393  29.690  26.685  1.00  0.00    -0.203 F 
ATOM     72  C   UNL A   1      37.485  29.671  28.061  1.00  0.00     0.198 A 
ATOM     73  C   UNL A   1      37.670  29.013  30.362  1.00  0.00     0.198 A 
ATOM     74  F   UNL A   1      39.765  28.424  31.255  1.00  0.00    -0.203 F 
ATOM     75  F   UNL A   1      36.743  30.114  27.037  1.00  0.00    -0.200 F 
ATOM     76  C   UNL A   1      36.895  29.444  29.295  1.00  0.00     0.200 A 
ATOM     77  F   UNL A   1      37.099  28.784  31.552  1.00  0.00    -0.200 F 
ATOM     78  F   UNL A   1      35.581  29.649  29.459  1.00  0.00    -0.200 F 
ENDBRANCH  54  68
BRANCH  55  79
ATOM     79  C   UNL A   1      49.312  27.146  27.306  1.00  0.00     0.064 A 
ATOM     80  C   UNL A   1      49.862  27.302  26.025  1.00  0.00     0.173 A 
ATOM     81  C   UNL A   1      50.164  26.723  28.335  1.00  0.00     0.173 A 
ATOM     82  F   UNL A   1      49.081  27.688  25.005  1.00  0.00    -0.203 F 
ATOM     83  C   UNL A   1      51.205  27.024  25.780  1.00  0.00     0.198 A 
ATOM     84  C   UNL A   1      51.513  26.470  28.094  1.00  0.00     0.198 A 
ATOM     85  F   UNL A   1      49.687  26.566  29.579  1.00  0.00    -0.203 F 
ATOM     86  F   UNL A   1      51.694  27.140  24.538  1.00  0.00    -0.200 F 
ATOM     87  C   UNL A   1      52.030  26.613  26.815  1.00  0.00     0.200 A 
ATOM     88  F   UNL A   1      52.310  26.086  29.100  1.00  0.00    -0.200 F 
ATOM     89  F   UNL A   1      53.322  26.348  26.579  1.00  0.00    -0.200 F 
ENDBRANCH  55  79
BRANCH  67  90
ATOM     90  C   UNL A   1      45.871  32.583  29.949  1.00  0.00     0.064 A 
ATOM     91  C   UNL A   1      46.195  32.747  31.305  1.00  0.00     0.173 A 
ATOM     92  C   UNL A   1      46.002  33.695  29.103  1.00  0.00     0.173 A 
ATOM     93  F   UNL A   1      46.071  31.717  32.156  1.00  0.00    -0.203 F 
ATOM     94  C   UNL A   1      46.598  33.983  31.800  1.00  0.00     0.198 A 
ATOM     95  C   UNL A   1      46.434  34.922  29.597  1.00  0.00     0.198 A 
ATOM     96  F   UNL A   1      45.711  33.589  27.798  1.00  0.00    -0.203 F 
ATOM     97  F   UNL A   1      46.846  34.130  33.108  1.00  0.00    -0.200 F 
ATOM     98  C   UNL A   1      46.721  35.068  30.946  1.00  0.00     0.200 A 
ATOM     99  F   UNL A   1      46.562  35.968  28.768  1.00  0.00    -0.200 F 
ATOM    100  F   UNL A   1      47.106  36.260  31.425  1.00  0.00    -0.200 F 
ENDBRANCH  67  90
ENDBRANCH  41  42
ENDBRANCH  33  36
ENDBRANCH  31  32
ENDBRANCH  30  31
ENDBRANCH  29  30
ENDBRANCH   1  29
TORSDOF 16
ENDMDL
