MODEL 1
REMARK VINA RESULT:     -12.6      0.000      0.000
REMARK SMILES COc1ccc(C(=O)c2ccccc2)cc1[C@@H](C)C(=O)NCCCCNC(=O)c1ccc(-c2c3nc(c(-c4c(F)c(F)c(F)c(F)c4F)c4ccc([nH]4)c(-c4c(F)c(F)c(F)c(F)c4F)c4nc(c(-c5c(F)c(F)c(F)c(F)c5F)c5ccc2[nH]5)C=C4)C=C3)cc1
REMARK SMILES IDX 23 1 22 2 21 3 19 4 20 5 17 7 18 8 16 9 3 10 4 11 5 12 15 13
REMARK SMILES IDX 6 14 2 15 1 16 7 17 8 18 9 19 10 20 14 21 11 22 13 23 12 24
REMARK SMILES IDX 24 25 25 26 26 27 27 28 28 30 29 31 30 32 91 33 31 34 90 35
REMARK SMILES IDX 32 36 33 37 34 38 84 39 35 40 89 41 83 42 85 43 36 44 88 45
REMARK SMILES IDX 82 46 81 47 37 49 69 50 49 51 68 52 50 53 53 54 67 55 86 56
REMARK SMILES IDX 51 57 52 58 66 60 87 61 54 62 38 63 39 64 47 65 40 66 41 67
REMARK SMILES IDX 45 68 48 69 42 70 43 71 46 72 44 73 70 74 71 75 79 76 72 77
REMARK SMILES IDX 73 78 77 79 80 80 74 81 75 82 78 83 76 84 55 85 56 86 64 87
REMARK SMILES IDX 57 88 58 89 62 90 65 91 59 92 60 93 63 94 61 95
REMARK H PARENT 21 6 26 29 85 48 53 59
REMARK Flexibility Score: inf
ROOT
ATOM      1  C   UNL A   1      31.605  29.859  26.108  1.00  0.00     0.023 C 
ENDROOT
BRANCH   1   2
ATOM      2  C   UNL A   1      33.008  29.564  25.582  1.00  0.00     0.116 C 
BRANCH   2   3
ATOM      3  N   UNL A   1      33.080  29.732  24.149  1.00  0.00    -0.356 N 
ATOM      4  C   UNL A   1      33.022  28.838  23.126  1.00  0.00     0.227 C 
ATOM      5  O   UNL A   1      33.249  29.300  22.001  1.00  0.00    -0.274 OA
ATOM      6  H   UNL A   1      33.194  30.666  23.860  1.00  0.00     0.163 HD
BRANCH   4   7
ATOM      7  C   UNL A   1      32.720  27.336  23.298  1.00  0.00     0.109 C 
ATOM      8  C   UNL A   1      33.438  26.393  22.335  1.00  0.00     0.023 C 
BRANCH   7   9
ATOM      9  C   UNL A   1      31.237  27.047  23.506  1.00  0.00     0.007 A 
ATOM     10  C   UNL A   1      30.805  25.890  24.172  1.00  0.00     0.122 A 
ATOM     11  C   UNL A   1      29.451  25.671  24.436  1.00  0.00     0.047 A 
ATOM     12  C   UNL A   1      28.500  26.622  24.067  1.00  0.00     0.016 A 
ATOM     13  C   UNL A   1      30.246  27.955  23.077  1.00  0.00     0.020 A 
ATOM     14  C   UNL A   1      28.887  27.774  23.375  1.00  0.00     0.023 A 
BRANCH  10  15
ATOM     15  O   UNL A   1      31.668  24.868  24.467  1.00  0.00    -0.496 OA
ATOM     16  C   UNL A   1      31.231  23.617  23.935  1.00  0.00     0.278 C 
ENDBRANCH  10  15
BRANCH  14  17
ATOM     17  C   UNL A   1      27.833  28.794  23.077  1.00  0.00     0.193 C 
ATOM     18  O   UNL A   1      26.650  28.508  23.259  1.00  0.00    -0.289 OA
BRANCH  17  19
ATOM     19  C   UNL A   1      28.134  30.178  22.638  1.00  0.00     0.022 A 
ATOM     20  C   UNL A   1      28.448  31.125  23.623  1.00  0.00     0.012 A 
ATOM     21  C   UNL A   1      28.065  30.566  21.296  1.00  0.00     0.012 A 
ATOM     22  C   UNL A   1      28.724  32.445  23.265  1.00  0.00     0.001 A 
ATOM     23  C   UNL A   1      28.347  31.887  20.941  1.00  0.00     0.001 A 
ATOM     24  C   UNL A   1      28.669  32.823  21.924  1.00  0.00     0.000 A 
ENDBRANCH  17  19
ENDBRANCH  14  17
ENDBRANCH   7   9
ENDBRANCH   4   7
ENDBRANCH   2   3
ENDBRANCH   1   2
BRANCH   1  25
ATOM     25  C   UNL A   1      31.332  31.303  26.498  1.00  0.00     0.023 C 
BRANCH  25  26
ATOM     26  C   UNL A   1      32.565  32.108  26.881  1.00  0.00     0.116 C 
BRANCH  26  27
ATOM     27  N   UNL A   1      32.283  33.450  27.378  1.00  0.00    -0.352 N 
ATOM     28  C   UNL A   1      33.041  34.211  28.234  1.00  0.00     0.251 C 
ATOM     29  H   UNL A   1      31.447  33.861  27.061  1.00  0.00     0.163 HD
ATOM     30  O   UNL A   1      32.695  35.334  28.583  1.00  0.00    -0.269 OA
BRANCH  28  31
ATOM     31  C   UNL A   1      34.280  33.629  28.764  1.00  0.00     0.039 A 
ATOM     32  C   UNL A   1      35.497  34.255  28.484  1.00  0.00     0.014 A 
ATOM     33  C   UNL A   1      34.208  32.524  29.613  1.00  0.00     0.014 A 
ATOM     34  C   UNL A   1      36.653  33.799  29.110  1.00  0.00     0.010 A 
ATOM     35  C   UNL A   1      35.341  32.133  30.303  1.00  0.00     0.010 A 
ATOM     36  C   UNL A   1      36.572  32.756  30.046  1.00  0.00    -0.014 A 
BRANCH  36  37
ATOM     37  C   UNL A   1      37.767  32.244  30.747  1.00  0.00     0.031 A 
ATOM     38  C   UNL A   1      38.570  31.159  30.090  1.00  0.00     0.074 A 
ATOM     39  C   UNL A   1      38.045  32.668  31.992  1.00  0.00     0.049 A 
ATOM     40  N   UNL A   1      39.529  30.422  30.583  1.00  0.00    -0.248 NA
ATOM     41  C   UNL A   1      38.203  30.823  28.704  1.00  0.00     0.031 C 
ATOM     42  C   UNL A   1      37.293  33.685  32.729  1.00  0.00     0.029 A 
ATOM     43  N   UNL A   1      39.023  32.278  32.868  1.00  0.00    -0.354 N 
ATOM     44  C   UNL A   1      39.850  29.514  29.583  1.00  0.00     0.074 A 
ATOM     45  C   UNL A   1      38.950  29.753  28.479  1.00  0.00     0.031 C 
ATOM     46  C   UNL A   1      37.844  33.847  33.943  1.00  0.00     0.029 A 
ATOM     47  C   UNL A   1      38.959  32.917  34.082  1.00  0.00     0.049 A 
ATOM     48  H   UNL A   1      39.706  31.603  32.649  1.00  0.00     0.167 HD
ATOM     49  C   UNL A   1      40.827  28.577  29.585  1.00  0.00     0.037 A 
ATOM     50  C   UNL A   1      39.714  32.751  35.184  1.00  0.00     0.037 A 
ATOM     51  C   UNL A   1      41.739  28.389  30.682  1.00  0.00     0.049 A 
ATOM     52  C   UNL A   1      40.820  31.731  35.146  1.00  0.00     0.074 A 
ATOM     53  C   UNL A   1      42.810  27.520  30.778  1.00  0.00     0.029 A 
ATOM     54  N   UNL A   1      41.685  29.098  31.875  1.00  0.00    -0.354 N 
ATOM     55  N   UNL A   1      41.153  30.906  34.180  1.00  0.00    -0.248 NA
ATOM     56  C   UNL A   1      41.661  31.622  36.344  1.00  0.00     0.031 C 
ATOM     57  C   UNL A   1      43.382  27.678  32.045  1.00  0.00     0.029 A 
ATOM     58  C   UNL A   1      42.699  28.679  32.719  1.00  0.00     0.049 A 
ATOM     59  H   UNL A   1      41.024  29.796  32.088  1.00  0.00     0.167 HD
ATOM     60  C   UNL A   1      42.251  30.198  34.643  1.00  0.00     0.074 A 
ATOM     61  C   UNL A   1      42.542  30.706  35.969  1.00  0.00     0.031 C 
ATOM     62  C   UNL A   1      42.958  29.213  34.033  1.00  0.00     0.037 A 
BRANCH  49  63
ATOM     63  C   UNL A   1      40.952  27.700  28.372  1.00  0.00     0.064 A 
ATOM     64  C   UNL A   1      41.765  28.056  27.284  1.00  0.00     0.173 A 
ATOM     65  C   UNL A   1      40.252  26.487  28.295  1.00  0.00     0.173 A 
ATOM     66  F   UNL A   1      42.442  29.213  27.296  1.00  0.00    -0.203 F 
ATOM     67  C   UNL A   1      41.844  27.248  26.152  1.00  0.00     0.198 A 
ATOM     68  C   UNL A   1      40.360  25.665  27.176  1.00  0.00     0.198 A 
ATOM     69  F   UNL A   1      39.459  26.097  29.305  1.00  0.00    -0.203 F 
ATOM     70  F   UNL A   1      42.577  27.640  25.100  1.00  0.00    -0.200 F 
ATOM     71  C   UNL A   1      41.147  26.050  26.102  1.00  0.00     0.200 A 
ATOM     72  F   UNL A   1      39.694  24.502  27.133  1.00  0.00    -0.200 F 
ATOM     73  F   UNL A   1      41.226  25.272  25.012  1.00  0.00    -0.200 F 
ENDBRANCH  49  63
BRANCH  50  74
ATOM     74  C   UNL A   1      39.471  33.588  36.388  1.00  0.00     0.064 A 
ATOM     75  C   UNL A   1      40.027  34.871  36.493  1.00  0.00     0.173 A 
ATOM     76  C   UNL A   1      38.669  33.138  37.446  1.00  0.00     0.173 A 
ATOM     77  F   UNL A   1      40.814  35.341  35.515  1.00  0.00    -0.203 F 
ATOM     78  C   UNL A   1      39.805  35.664  37.618  1.00  0.00     0.198 A 
ATOM     79  C   UNL A   1      38.426  33.943  38.559  1.00  0.00     0.198 A 
ATOM     80  F   UNL A   1      38.105  31.923  37.393  1.00  0.00    -0.203 F 
ATOM     81  F   UNL A   1      40.382  36.870  37.709  1.00  0.00    -0.200 F 
ATOM     82  C   UNL A   1      39.000  35.202  38.647  1.00  0.00     0.200 A 
ATOM     83  F   UNL A   1      37.632  33.499  39.543  1.00  0.00    -0.200 F 
ATOM     84  F   UNL A   1      38.779  35.968  39.724  1.00  0.00    -0.200 F 
ENDBRANCH  50  74
BRANCH  62  85
ATOM     85  C   UNL A   1      44.124  28.650  34.788  1.00  0.00     0.064 A 
ATOM     86  C   UNL A   1      43.987  27.535  35.627  1.00  0.00     0.173 A 
ATOM     87  C   UNL A   1      45.400  29.214  34.642  1.00  0.00     0.173 A 
ATOM     88  F   UNL A   1      42.782  26.972  35.809  1.00  0.00    -0.203 F 
ATOM     89  C   UNL A   1      45.080  27.023  36.318  1.00  0.00     0.198 A 
ATOM     90  C   UNL A   1      46.498  28.679  35.308  1.00  0.00     0.198 A 
ATOM     91  F   UNL A   1      45.584  30.276  33.843  1.00  0.00    -0.203 F 
ATOM     92  F   UNL A   1      44.917  25.990  37.155  1.00  0.00    -0.200 F 
ATOM     93  C   UNL A   1      46.336  27.591  36.153  1.00  0.00     0.200 A 
ATOM     94  F   UNL A   1      47.712  29.220  35.137  1.00  0.00    -0.200 F 
ATOM     95  F   UNL A   1      47.389  27.093  36.815  1.00  0.00    -0.200 F 
ENDBRANCH  62  85
ENDBRANCH  36  37
ENDBRANCH  28  31
ENDBRANCH  26  27
ENDBRANCH  25  26
ENDBRANCH   1  25
TORSDOF 15
ENDMDL
MODEL 2
REMARK VINA RESULT:     -12.5      2.091      4.308
REMARK SMILES COc1ccc(C(=O)c2ccccc2)cc1[C@@H](C)C(=O)NCCCCNC(=O)c1ccc(-c2c3nc(c(-c4c(F)c(F)c(F)c(F)c4F)c4ccc([nH]4)c(-c4c(F)c(F)c(F)c(F)c4F)c4nc(c(-c5c(F)c(F)c(F)c(F)c5F)c5ccc2[nH]5)C=C4)C=C3)cc1
REMARK SMILES IDX 23 1 22 2 21 3 19 4 20 5 17 7 18 8 16 9 3 10 4 11 5 12 15 13
REMARK SMILES IDX 6 14 2 15 1 16 7 17 8 18 9 19 10 20 14 21 11 22 13 23 12 24
REMARK SMILES IDX 24 25 25 26 26 27 27 28 28 30 29 31 30 32 91 33 31 34 90 35
REMARK SMILES IDX 32 36 33 37 34 38 84 39 35 40 89 41 83 42 85 43 36 44 88 45
REMARK SMILES IDX 82 46 81 47 37 49 69 50 49 51 68 52 50 53 53 54 67 55 86 56
REMARK SMILES IDX 51 57 52 58 66 60 87 61 54 62 38 63 39 64 47 65 40 66 41 67
REMARK SMILES IDX 45 68 48 69 42 70 43 71 46 72 44 73 70 74 71 75 79 76 72 77
REMARK SMILES IDX 73 78 77 79 80 80 74 81 75 82 78 83 76 84 55 85 56 86 64 87
REMARK SMILES IDX 57 88 58 89 62 90 65 91 59 92 60 93 63 94 61 95
REMARK H PARENT 21 6 26 29 85 48 53 59
REMARK Flexibility Score: inf
ROOT
ATOM      1  C   UNL A   1      33.125  27.131  26.098  1.00  0.00     0.023 C 
ENDROOT
BRANCH   1   2
ATOM      2  C   UNL A   1      31.790  27.524  26.725  1.00  0.00     0.116 C 
BRANCH   2   3
ATOM      3  N   UNL A   1      30.911  26.384  26.851  1.00  0.00    -0.356 N 
ATOM      4  C   UNL A   1      29.948  25.885  26.030  1.00  0.00     0.227 C 
ATOM      5  O   UNL A   1      29.277  24.957  26.500  1.00  0.00    -0.274 OA
ATOM      6  H   UNL A   1      31.030  25.876  27.686  1.00  0.00     0.163 HD
BRANCH   4   7
ATOM      7  C   UNL A   1      29.651  26.413  24.613  1.00  0.00     0.109 C 
ATOM      8  C   UNL A   1      28.196  26.329  24.156  1.00  0.00     0.023 C 
BRANCH   7   9
ATOM      9  C   UNL A   1      30.682  25.966  23.583  1.00  0.00     0.007 A 
ATOM     10  C   UNL A   1      30.980  26.752  22.459  1.00  0.00     0.122 A 
ATOM     11  C   UNL A   1      31.985  26.380  21.563  1.00  0.00     0.047 A 
ATOM     12  C   UNL A   1      32.739  25.229  21.791  1.00  0.00     0.016 A 
ATOM     13  C   UNL A   1      31.409  24.768  23.747  1.00  0.00     0.020 A 
ATOM     14  C   UNL A   1      32.454  24.404  22.883  1.00  0.00     0.023 A 
BRANCH  10  15
ATOM     15  O   UNL A   1      30.212  27.833  22.117  1.00  0.00    -0.496 OA
ATOM     16  C   UNL A   1      30.853  29.073  22.420  1.00  0.00     0.278 C 
ENDBRANCH  10  15
BRANCH  14  17
ATOM     17  C   UNL A   1      33.348  23.227  23.119  1.00  0.00     0.193 C 
ATOM     18  O   UNL A   1      33.043  22.134  22.642  1.00  0.00    -0.289 OA
BRANCH  17  19
ATOM     19  C   UNL A   1      34.639  23.312  23.842  1.00  0.00     0.022 A 
ATOM     20  C   UNL A   1      35.769  22.739  23.239  1.00  0.00     0.012 A 
ATOM     21  C   UNL A   1      34.747  23.894  25.109  1.00  0.00     0.012 A 
ATOM     22  C   UNL A   1      37.005  22.778  23.885  1.00  0.00     0.001 A 
ATOM     23  C   UNL A   1      35.988  23.936  25.750  1.00  0.00     0.001 A 
ATOM     24  C   UNL A   1      37.110  23.373  25.140  1.00  0.00     0.000 A 
ENDBRANCH  17  19
ENDBRANCH  14  17
ENDBRANCH   7   9
ENDBRANCH   4   7
ENDBRANCH   2   3
ENDBRANCH   1   2
BRANCH   1  25
ATOM     25  C   UNL A   1      33.469  27.814  24.784  1.00  0.00     0.023 C 
BRANCH  25  26
ATOM     26  C   UNL A   1      34.028  29.222  24.921  1.00  0.00     0.116 C 
BRANCH  26  27
ATOM     27  N   UNL A   1      33.162  30.152  25.637  1.00  0.00    -0.352 N 
ATOM     28  C   UNL A   1      33.435  30.845  26.791  1.00  0.00     0.251 C 
ATOM     29  H   UNL A   1      32.271  30.301  25.245  1.00  0.00     0.163 HD
ATOM     30  O   UNL A   1      32.618  31.603  27.301  1.00  0.00    -0.269 OA
BRANCH  28  31
ATOM     31  C   UNL A   1      34.736  30.630  27.435  1.00  0.00     0.039 A 
ATOM     32  C   UNL A   1      35.585  31.722  27.630  1.00  0.00     0.014 A 
ATOM     33  C   UNL A   1      35.056  29.363  27.924  1.00  0.00     0.014 A 
ATOM     34  C   UNL A   1      36.747  31.552  28.377  1.00  0.00     0.010 A 
ATOM     35  C   UNL A   1      36.161  29.218  28.741  1.00  0.00     0.010 A 
ATOM     36  C   UNL A   1      37.021  30.305  28.961  1.00  0.00    -0.014 A 
BRANCH  36  37
ATOM     37  C   UNL A   1      38.234  30.076  29.774  1.00  0.00     0.031 A 
ATOM     38  C   UNL A   1      39.290  29.155  29.235  1.00  0.00     0.074 A 
ATOM     39  C   UNL A   1      38.318  30.594  31.011  1.00  0.00     0.049 A 
ATOM     40  N   UNL A   1      40.335  28.649  29.834  1.00  0.00    -0.248 NA
ATOM     41  C   UNL A   1      39.113  28.699  27.846  1.00  0.00     0.031 C 
ATOM     42  C   UNL A   1      37.319  31.461  31.637  1.00  0.00     0.029 A 
ATOM     43  N   UNL A   1      39.280  30.445  31.975  1.00  0.00    -0.354 N 
ATOM     44  C   UNL A   1      40.913  27.789  28.910  1.00  0.00     0.074 A 
ATOM     45  C   UNL A   1      40.076  27.798  27.732  1.00  0.00     0.031 C 
ATOM     46  C   UNL A   1      37.725  31.778  32.877  1.00  0.00     0.029 A 
ATOM     47  C   UNL A   1      38.990  31.102  33.145  1.00  0.00     0.049 A 
ATOM     48  H   UNL A   1      40.101  29.918  31.841  1.00  0.00     0.167 HD
ATOM     49  C   UNL A   1      42.055  27.073  29.032  1.00  0.00     0.037 A 
ATOM     50  C   UNL A   1      39.670  31.137  34.306  1.00  0.00     0.037 A 
ATOM     51  C   UNL A   1      42.894  27.118  30.200  1.00  0.00     0.049 A 
ATOM     52  C   UNL A   1      40.959  30.364  34.402  1.00  0.00     0.074 A 
ATOM     53  C   UNL A   1      44.106  26.491  30.420  1.00  0.00     0.029 A 
ATOM     54  N   UNL A   1      42.601  27.845  31.347  1.00  0.00    -0.354 N 
ATOM     55  N   UNL A   1      41.528  29.590  33.508  1.00  0.00    -0.248 NA
ATOM     56  C   UNL A   1      41.703  30.475  35.662  1.00  0.00     0.031 C 
ATOM     57  C   UNL A   1      44.530  26.811  31.714  1.00  0.00     0.029 A 
ATOM     58  C   UNL A   1      43.605  27.674  32.284  1.00  0.00     0.049 A 
ATOM     59  H   UNL A   1      41.797  28.400  31.474  1.00  0.00     0.167 HD
ATOM     60  C   UNL A   1      42.705  29.139  34.086  1.00  0.00     0.074 A 
ATOM     61  C   UNL A   1      42.779  29.746  35.401  1.00  0.00     0.031 C 
ATOM     62  C   UNL A   1      43.643  28.298  33.582  1.00  0.00     0.037 A 
BRANCH  49  63
ATOM     63  C   UNL A   1      42.453  26.197  27.879  1.00  0.00     0.064 A 
ATOM     64  C   UNL A   1      43.314  26.651  26.867  1.00  0.00     0.173 A 
ATOM     65  C   UNL A   1      41.970  24.884  27.784  1.00  0.00     0.173 A 
ATOM     66  F   UNL A   1      43.791  27.904  26.899  1.00  0.00    -0.203 F 
ATOM     67  C   UNL A   1      43.647  25.837  25.787  1.00  0.00     0.198 A 
ATOM     68  C   UNL A   1      42.332  24.060  26.720  1.00  0.00     0.198 A 
ATOM     69  F   UNL A   1      41.143  24.396  28.721  1.00  0.00    -0.203 F 
ATOM     70  F   UNL A   1      44.419  26.315  24.802  1.00  0.00    -0.200 F 
ATOM     71  C   UNL A   1      43.160  24.540  25.719  1.00  0.00     0.200 A 
ATOM     72  F   UNL A   1      41.870  22.803  26.660  1.00  0.00    -0.200 F 
ATOM     73  F   UNL A   1      43.483  23.756  24.679  1.00  0.00    -0.200 F 
ENDBRANCH  49  63
BRANCH  50  74
ATOM     74  C   UNL A   1      39.165  31.950  35.443  1.00  0.00     0.064 A 
ATOM     75  C   UNL A   1      38.367  31.370  36.440  1.00  0.00     0.173 A 
ATOM     76  C   UNL A   1      39.479  33.310  35.571  1.00  0.00     0.173 A 
ATOM     77  F   UNL A   1      38.026  30.076  36.355  1.00  0.00    -0.203 F 
ATOM     78  C   UNL A   1      37.888  32.124  37.510  1.00  0.00     0.198 A 
ATOM     79  C   UNL A   1      39.021  34.057  36.657  1.00  0.00     0.198 A 
ATOM     80  F   UNL A   1      40.246  33.913  34.650  1.00  0.00    -0.203 F 
ATOM     81  F   UNL A   1      37.094  31.552  38.426  1.00  0.00    -0.200 F 
ATOM     82  C   UNL A   1      38.220  33.464  37.621  1.00  0.00     0.200 A 
ATOM     83  F   UNL A   1      39.360  35.348  36.769  1.00  0.00    -0.200 F 
ATOM     84  F   UNL A   1      37.767  34.186  38.655  1.00  0.00    -0.200 F 
ENDBRANCH  50  74
BRANCH  62  85
ATOM     85  C   UNL A   1      44.834  28.016  34.449  1.00  0.00     0.064 A 
ATOM     86  C   UNL A   1      44.855  26.929  35.335  1.00  0.00     0.173 A 
ATOM     87  C   UNL A   1      45.979  28.822  34.364  1.00  0.00     0.173 A 
ATOM     88  F   UNL A   1      43.777  26.140  35.460  1.00  0.00    -0.203 F 
ATOM     89  C   UNL A   1      45.969  26.679  36.129  1.00  0.00     0.198 A 
ATOM     90  C   UNL A   1      47.103  28.549  35.135  1.00  0.00     0.198 A 
ATOM     91  F   UNL A   1      46.009  29.868  33.524  1.00  0.00    -0.203 F 
ATOM     92  F   UNL A   1      45.949  25.667  37.007  1.00  0.00    -0.200 F 
ATOM     93  C   UNL A   1      47.095  27.484  36.024  1.00  0.00     0.200 A 
ATOM     94  F   UNL A   1      48.194  29.320  35.023  1.00  0.00    -0.200 F 
ATOM     95  F   UNL A   1      48.169  27.238  36.786  1.00  0.00    -0.200 F 
ENDBRANCH  62  85
ENDBRANCH  36  37
ENDBRANCH  28  31
ENDBRANCH  26  27
ENDBRANCH  25  26
ENDBRANCH   1  25
TORSDOF 15
ENDMDL
MODEL 3
REMARK VINA RESULT:     -12.5      2.093      4.300
REMARK SMILES COc1ccc(C(=O)c2ccccc2)cc1[C@@H](C)C(=O)NCCCCNC(=O)c1ccc(-c2c3nc(c(-c4c(F)c(F)c(F)c(F)c4F)c4ccc([nH]4)c(-c4c(F)c(F)c(F)c(F)c4F)c4nc(c(-c5c(F)c(F)c(F)c(F)c5F)c5ccc2[nH]5)C=C4)C=C3)cc1
REMARK SMILES IDX 23 1 22 2 21 3 19 4 20 5 17 7 18 8 16 9 3 10 4 11 5 12 15 13
REMARK SMILES IDX 6 14 2 15 1 16 7 17 8 18 9 19 10 20 14 21 11 22 13 23 12 24
REMARK SMILES IDX 24 25 25 26 26 27 27 28 28 30 29 31 30 32 91 33 31 34 90 35
REMARK SMILES IDX 32 36 33 37 34 38 84 39 35 40 89 41 83 42 85 43 36 44 88 45
REMARK SMILES IDX 82 46 81 47 37 49 69 50 49 51 68 52 50 53 53 54 67 55 86 56
REMARK SMILES IDX 51 57 52 58 66 60 87 61 54 62 38 63 39 64 47 65 40 66 41 67
REMARK SMILES IDX 45 68 48 69 42 70 43 71 46 72 44 73 70 74 71 75 79 76 72 77
REMARK SMILES IDX 73 78 77 79 80 80 74 81 75 82 78 83 76 84 55 85 56 86 64 87
REMARK SMILES IDX 57 88 58 89 62 90 65 91 59 92 60 93 63 94 61 95
REMARK H PARENT 21 6 26 29 85 48 53 59
REMARK Flexibility Score: inf
ROOT
ATOM      1  C   UNL A   1      33.122  27.152  26.130  1.00  0.00     0.023 C 
ENDROOT
BRANCH   1   2
ATOM      2  C   UNL A   1      31.784  27.516  26.769  1.00  0.00     0.116 C 
BRANCH   2   3
ATOM      3  N   UNL A   1      30.909  26.370  26.849  1.00  0.00    -0.356 N 
ATOM      4  C   UNL A   1      29.972  25.882  25.993  1.00  0.00     0.227 C 
ATOM      5  O   UNL A   1      29.294  24.941  26.426  1.00  0.00    -0.274 OA
ATOM      6  H   UNL A   1      31.008  25.846  27.677  1.00  0.00     0.163 HD
BRANCH   4   7
ATOM      7  C   UNL A   1      29.711  26.435  24.579  1.00  0.00     0.109 C 
ATOM      8  C   UNL A   1      28.265  26.379  24.091  1.00  0.00     0.023 C 
BRANCH   7   9
ATOM      9  C   UNL A   1      30.756  25.988  23.562  1.00  0.00     0.007 A 
ATOM     10  C   UNL A   1      31.072  26.776  22.445  1.00  0.00     0.122 A 
ATOM     11  C   UNL A   1      32.089  26.405  21.563  1.00  0.00     0.047 A 
ATOM     12  C   UNL A   1      32.838  25.252  21.799  1.00  0.00     0.016 A 
ATOM     13  C   UNL A   1      31.479  24.789  23.734  1.00  0.00     0.020 A 
ATOM     14  C   UNL A   1      32.536  24.425  22.885  1.00  0.00     0.023 A 
BRANCH  10  15
ATOM     15  O   UNL A   1      30.311  27.859  22.094  1.00  0.00    -0.496 OA
ATOM     16  C   UNL A   1      30.841  29.084  22.603  1.00  0.00     0.278 C 
ENDBRANCH  10  15
BRANCH  14  17
ATOM     17  C   UNL A   1      33.424  23.246  23.131  1.00  0.00     0.193 C 
ATOM     18  O   UNL A   1      33.110  22.149  22.670  1.00  0.00    -0.289 OA
BRANCH  17  19
ATOM     19  C   UNL A   1      34.720  23.332  23.846  1.00  0.00     0.022 A 
ATOM     20  C   UNL A   1      35.817  22.648  23.302  1.00  0.00     0.012 A 
ATOM     21  C   UNL A   1      34.860  24.025  25.052  1.00  0.00     0.012 A 
ATOM     22  C   UNL A   1      37.055  22.685  23.945  1.00  0.00     0.001 A 
ATOM     23  C   UNL A   1      36.103  24.064  25.690  1.00  0.00     0.001 A 
ATOM     24  C   UNL A   1      37.194  23.390  25.139  1.00  0.00     0.000 A 
ENDBRANCH  17  19
ENDBRANCH  14  17
ENDBRANCH   7   9
ENDBRANCH   4   7
ENDBRANCH   2   3
ENDBRANCH   1   2
BRANCH   1  25
ATOM     25  C   UNL A   1      33.467  27.890  24.846  1.00  0.00     0.023 C 
BRANCH  25  26
ATOM     26  C   UNL A   1      34.067  29.273  25.044  1.00  0.00     0.116 C 
BRANCH  26  27
ATOM     27  N   UNL A   1      33.211  30.210  25.764  1.00  0.00    -0.352 N 
ATOM     28  C   UNL A   1      33.498  30.908  26.911  1.00  0.00     0.251 C 
ATOM     29  H   UNL A   1      32.317  30.359  25.380  1.00  0.00     0.163 HD
ATOM     30  O   UNL A   1      32.688  31.670  27.426  1.00  0.00    -0.269 OA
BRANCH  28  31
ATOM     31  C   UNL A   1      34.805  30.691  27.543  1.00  0.00     0.039 A 
ATOM     32  C   UNL A   1      35.688  31.768  27.659  1.00  0.00     0.014 A 
ATOM     33  C   UNL A   1      35.098  29.446  28.099  1.00  0.00     0.014 A 
ATOM     34  C   UNL A   1      36.859  31.607  28.394  1.00  0.00     0.010 A 
ATOM     35  C   UNL A   1      36.215  29.316  28.904  1.00  0.00     0.010 A 
ATOM     36  C   UNL A   1      37.109  30.388  29.045  1.00  0.00    -0.014 A 
BRANCH  36  37
ATOM     37  C   UNL A   1      38.331  30.171  29.847  1.00  0.00     0.031 A 
ATOM     38  C   UNL A   1      39.399  29.274  29.292  1.00  0.00     0.074 A 
ATOM     39  C   UNL A   1      38.414  30.677  31.090  1.00  0.00     0.049 A 
ATOM     40  N   UNL A   1      40.455  28.779  29.879  1.00  0.00    -0.248 NA
ATOM     41  C   UNL A   1      39.221  28.830  27.899  1.00  0.00     0.031 C 
ATOM     42  C   UNL A   1      37.404  31.520  31.731  1.00  0.00     0.029 A 
ATOM     43  N   UNL A   1      39.384  30.534  32.046  1.00  0.00    -0.354 N 
ATOM     44  C   UNL A   1      41.042  27.939  28.942  1.00  0.00     0.074 A 
ATOM     45  C   UNL A   1      40.198  27.946  27.769  1.00  0.00     0.031 C 
ATOM     46  C   UNL A   1      37.813  31.830  32.972  1.00  0.00     0.029 A 
ATOM     47  C   UNL A   1      39.091  31.173  33.225  1.00  0.00     0.049 A 
ATOM     48  H   UNL A   1      40.213  30.022  31.902  1.00  0.00     0.167 HD
ATOM     49  C   UNL A   1      42.197  27.242  29.049  1.00  0.00     0.037 A 
ATOM     50  C   UNL A   1      39.778  31.206  34.382  1.00  0.00     0.037 A 
ATOM     51  C   UNL A   1      43.042  27.287  30.212  1.00  0.00     0.049 A 
ATOM     52  C   UNL A   1      41.080  30.455  34.462  1.00  0.00     0.074 A 
ATOM     53  C   UNL A   1      44.266  26.679  30.418  1.00  0.00     0.029 A 
ATOM     54  N   UNL A   1      42.744  27.997  31.369  1.00  0.00    -0.354 N 
ATOM     55  N   UNL A   1      41.656  29.700  33.556  1.00  0.00    -0.248 NA
ATOM     56  C   UNL A   1      41.830  30.564  35.719  1.00  0.00     0.031 C 
ATOM     57  C   UNL A   1      44.693  26.992  31.713  1.00  0.00     0.029 A 
ATOM     58  C   UNL A   1      43.758  27.833  32.298  1.00  0.00     0.049 A 
ATOM     59  H   UNL A   1      41.932  28.537  31.508  1.00  0.00     0.167 HD
ATOM     60  C   UNL A   1      42.844  29.263  34.122  1.00  0.00     0.074 A 
ATOM     61  C   UNL A   1      42.916  29.856  35.443  1.00  0.00     0.031 C 
ATOM     62  C   UNL A   1      43.793  28.444  33.602  1.00  0.00     0.037 A 
BRANCH  49  63
ATOM     63  C   UNL A   1      42.603  26.385  27.884  1.00  0.00     0.064 A 
ATOM     64  C   UNL A   1      42.135  25.069  27.736  1.00  0.00     0.173 A 
ATOM     65  C   UNL A   1      43.468  26.885  26.900  1.00  0.00     0.173 A 
ATOM     66  F   UNL A   1      41.320  24.534  28.657  1.00  0.00    -0.203 F 
ATOM     67  C   UNL A   1      42.547  24.276  26.668  1.00  0.00     0.198 A 
ATOM     68  C   UNL A   1      43.851  26.100  25.814  1.00  0.00     0.198 A 
ATOM     69  F   UNL A   1      43.947  28.135  26.991  1.00  0.00    -0.203 F 
ATOM     70  F   UNL A   1      42.137  23.003  26.583  1.00  0.00    -0.200 F 
ATOM     71  C   UNL A   1      43.399  24.795  25.704  1.00  0.00     0.200 A 
ATOM     72  F   UNL A   1      44.666  26.607  24.878  1.00  0.00    -0.200 F 
ATOM     73  F   UNL A   1      43.792  24.031  24.675  1.00  0.00    -0.200 F 
ENDBRANCH  49  63
BRANCH  50  74
ATOM     74  C   UNL A   1      39.266  31.998  35.531  1.00  0.00     0.064 A 
ATOM     75  C   UNL A   1      39.578  33.360  35.658  1.00  0.00     0.173 A 
ATOM     76  C   UNL A   1      38.446  31.425  36.513  1.00  0.00     0.173 A 
ATOM     77  F   UNL A   1      40.372  33.951  34.753  1.00  0.00    -0.203 F 
ATOM     78  C   UNL A   1      39.104  34.111  36.732  1.00  0.00     0.198 A 
ATOM     79  C   UNL A   1      37.951  32.185  37.573  1.00  0.00     0.198 A 
ATOM     80  F   UNL A   1      38.111  30.129  36.435  1.00  0.00    -0.203 F 
ATOM     81  F   UNL A   1      39.451  35.401  36.848  1.00  0.00    -0.200 F 
ATOM     82  C   UNL A   1      38.286  33.525  37.684  1.00  0.00     0.200 A 
ATOM     83  F   UNL A   1      37.146  31.617  38.481  1.00  0.00    -0.200 F 
ATOM     84  F   UNL A   1      37.823  34.250  38.712  1.00  0.00    -0.200 F 
ENDBRANCH  50  74
BRANCH  62  85
ATOM     85  C   UNL A   1      44.994  28.172  34.459  1.00  0.00     0.064 A 
ATOM     86  C   UNL A   1      45.045  27.068  35.322  1.00  0.00     0.173 A 
ATOM     87  C   UNL A   1      46.119  29.006  34.386  1.00  0.00     0.173 A 
ATOM     88  F   UNL A   1      43.986  26.250  35.435  1.00  0.00    -0.203 F 
ATOM     89  C   UNL A   1      46.168  26.828  36.107  1.00  0.00     0.198 A 
ATOM     90  C   UNL A   1      47.252  28.745  35.148  1.00  0.00     0.198 A 
ATOM     91  F   UNL A   1      46.121  30.070  33.568  1.00  0.00    -0.203 F 
ATOM     92  F   UNL A   1      46.176  25.798  36.964  1.00  0.00    -0.200 F 
ATOM     93  C   UNL A   1      47.273  27.662  36.014  1.00  0.00     0.200 A 
ATOM     94  F   UNL A   1      48.324  29.543  35.047  1.00  0.00    -0.200 F 
ATOM     95  F   UNL A   1      48.356  27.426  36.767  1.00  0.00    -0.200 F 
ENDBRANCH  62  85
ENDBRANCH  36  37
ENDBRANCH  28  31
ENDBRANCH  26  27
ENDBRANCH  25  26
ENDBRANCH   1  25
TORSDOF 15
ENDMDL
