MODEL 1
REMARK VINA RESULT:     -13.7      0.000      0.000
REMARK SMILES COc1cccc(C(=O)Nc2ccc(NC(=O)[C@@H]3[C@@H](C(=O)NCCCCNC(=O)c4ccc(-c5c6nc(c(-c7c(F)c(F)c(F)c(F)c7F)c7ccc([nH]7)c(-c7c(F)c(F)c(F)c(F)c7F)c7nc(c(-c8c(F)c(F)c(F)c(F)c8F)c8ccc5[nH]8)C=C7)C=C6)cc4)[C@@H]4C=C[C@H]3C4)cc2)c1
REMARK SMILES IDX 23 1 22 2 20 3 21 4 19 6 18 7 96 8 93 9 95 10 97 11 94 12
REMARK SMILES IDX 16 13 15 14 17 16 14 17 11 18 12 19 99 20 13 21 98 22 10 23
REMARK SMILES IDX 8 24 9 25 7 27 3 28 4 29 100 30 5 31 6 32 2 33 1 34 24 35
REMARK SMILES IDX 25 36 26 37 27 38 28 39 29 41 30 42 31 43 92 44 32 45 91 46
REMARK SMILES IDX 33 47 34 48 35 49 85 50 36 51 90 52 84 53 86 54 37 55 89 56
REMARK SMILES IDX 83 57 82 58 38 60 70 61 50 62 69 63 51 64 54 65 68 66 87 67
REMARK SMILES IDX 52 68 53 69 67 71 88 72 55 73 39 74 40 75 48 76 41 77 42 78
REMARK SMILES IDX 46 79 49 80 43 81 44 82 47 83 45 84 71 85 72 86 80 87 73 88
REMARK SMILES IDX 74 89 78 90 81 91 75 92 76 93 79 94 77 95 56 96 57 97 65 98
REMARK SMILES IDX 58 99 59 100 63 101 66 102 60 103 61 104 64 105 62 106
REMARK H PARENT 22 5 15 15 10 26 27 40 86 59 54 70
REMARK Flexibility Score: inf
ROOT
ATOM      1  C   UNL A   1      32.729  29.862  25.726  1.00  0.00     0.116 C 
ENDROOT
BRANCH   1   2
ATOM      2  N   UNL A   1      32.635  29.508  24.325  1.00  0.00    -0.356 N 
ATOM      3  C   UNL A   1      31.617  29.381  23.446  1.00  0.00     0.224 C 
ATOM      4  O   UNL A   1      31.950  29.048  22.303  1.00  0.00    -0.275 OA
ATOM      5  H   UNL A   1      33.512  29.315  23.922  1.00  0.00     0.163 HD
BRANCH   3   6
ATOM      6  C   UNL A   1      30.127  29.518  23.779  1.00  0.00     0.098 C 
ATOM      7  C   UNL A   1      29.349  28.412  22.980  1.00  0.00     0.099 C 
ATOM      8  C   UNL A   1      28.327  29.247  22.146  1.00  0.00     0.025 C 
ATOM      9  C   UNL A   1      29.376  30.799  23.359  1.00  0.00     0.025 C 
ATOM     10  C   UNL A   1      27.295  29.865  23.046  1.00  0.00    -0.027 C 
ATOM     11  C   UNL A   1      29.141  30.520  21.874  1.00  0.00     0.017 C 
ATOM     12  C   UNL A   1      27.932  30.765  23.807  1.00  0.00    -0.027 C 
BRANCH   7  13
ATOM     13  C   UNL A   1      28.741  27.141  23.611  1.00  0.00     0.228 C 
ATOM     14  N   UNL A   1      29.439  26.123  24.193  1.00  0.00    -0.326 N 
ATOM     15  H   UNL A   1      28.928  25.615  24.864  1.00  0.00     0.169 HD
ATOM     16  O   UNL A   1      27.516  27.110  23.799  1.00  0.00    -0.274 OA
BRANCH  14  17
ATOM     17  C   UNL A   1      30.743  25.671  24.008  1.00  0.00     0.041 A 
ATOM     18  C   UNL A   1      33.383  24.901  23.602  1.00  0.00     0.041 A 
ATOM     19  C   UNL A   1      32.394  24.490  22.708  1.00  0.00     0.028 A 
ATOM     20  C   UNL A   1      33.063  25.692  24.704  1.00  0.00     0.028 A 
ATOM     21  C   UNL A   1      31.068  24.822  22.960  1.00  0.00     0.028 A 
ATOM     22  C   UNL A   1      31.728  26.044  24.929  1.00  0.00     0.028 A 
BRANCH  18  23
ATOM     23  N   UNL A   1      34.690  24.458  23.423  1.00  0.00    -0.322 N 
ATOM     24  C   UNL A   1      35.160  23.161  23.506  1.00  0.00     0.255 C 
ATOM     25  O   UNL A   1      36.165  22.856  22.863  1.00  0.00    -0.269 OA
ATOM     26  H   UNL A   1      35.358  25.149  23.213  1.00  0.00     0.170 HD
BRANCH  24  27
ATOM     27  C   UNL A   1      34.618  22.200  24.532  1.00  0.00     0.043 A 
ATOM     28  C   UNL A   1      33.107  20.446  25.323  1.00  0.00     0.119 A 
ATOM     29  C   UNL A   1      33.501  20.700  26.631  1.00  0.00     0.046 A 
ATOM     30  C   UNL A   1      33.691  21.177  24.290  1.00  0.00     0.060 A 
ATOM     31  C   UNL A   1      34.461  21.676  26.901  1.00  0.00     0.005 A 
ATOM     32  C   UNL A   1      35.013  22.423  25.857  1.00  0.00     0.014 A 
BRANCH  28  33
ATOM     33  O   UNL A   1      32.144  19.485  25.170  1.00  0.00    -0.497 OA
ATOM     34  C   UNL A   1      32.570  18.173  24.805  1.00  0.00     0.278 C 
ENDBRANCH  28  33
ENDBRANCH  24  27
ENDBRANCH  18  23
ENDBRANCH  14  17
ENDBRANCH   7  13
ENDBRANCH   3   6
ENDBRANCH   1   2
BRANCH   1  35
ATOM     35  C   UNL A   1      31.726  30.950  26.118  1.00  0.00     0.023 C 
BRANCH  35  36
ATOM     36  C   UNL A   1      32.108  31.686  27.405  1.00  0.00     0.023 C 
BRANCH  36  37
ATOM     37  C   UNL A   1      33.093  32.833  27.212  1.00  0.00     0.116 C 
BRANCH  37  38
ATOM     38  N   UNL A   1      32.590  34.132  27.629  1.00  0.00    -0.352 N 
ATOM     39  C   UNL A   1      33.062  34.899  28.672  1.00  0.00     0.251 C 
ATOM     40  H   UNL A   1      31.836  34.500  27.114  1.00  0.00     0.163 HD
ATOM     41  O   UNL A   1      32.512  35.945  28.997  1.00  0.00    -0.269 OA
BRANCH  39  42
ATOM     42  C   UNL A   1      34.224  34.395  29.432  1.00  0.00     0.039 A 
ATOM     43  C   UNL A   1      34.005  33.570  30.536  1.00  0.00     0.014 A 
ATOM     44  C   UNL A   1      35.520  34.647  28.974  1.00  0.00     0.014 A 
ATOM     45  C   UNL A   1      35.090  32.932  31.138  1.00  0.00     0.010 A 
ATOM     46  C   UNL A   1      36.587  33.949  29.524  1.00  0.00     0.010 A 
ATOM     47  C   UNL A   1      36.384  33.082  30.609  1.00  0.00    -0.014 A 
BRANCH  47  48
ATOM     48  C   UNL A   1      37.538  32.340  31.174  1.00  0.00     0.031 A 
ATOM     49  C   UNL A   1      38.062  32.693  32.536  1.00  0.00     0.074 A 
ATOM     50  C   UNL A   1      38.159  31.403  30.433  1.00  0.00     0.049 A 
ATOM     51  N   UNL A   1      39.087  32.200  33.184  1.00  0.00    -0.248 NA
ATOM     52  C   UNL A   1      37.357  33.767  33.252  1.00  0.00     0.031 C 
ATOM     53  C   UNL A   1      37.779  31.007  29.076  1.00  0.00     0.029 A 
ATOM     54  N   UNL A   1      39.244  30.612  30.718  1.00  0.00    -0.354 N 
ATOM     55  C   UNL A   1      39.157  32.915  34.373  1.00  0.00     0.074 A 
ATOM     56  C   UNL A   1      38.117  33.917  34.326  1.00  0.00     0.031 C 
ATOM     57  C   UNL A   1      38.593  30.023  28.662  1.00  0.00     0.029 A 
ATOM     58  C   UNL A   1      39.572  29.742  29.708  1.00  0.00     0.049 A 
ATOM     59  H   UNL A   1      39.742  30.666  31.566  1.00  0.00     0.167 HD
ATOM     60  C   UNL A   1      39.996  32.732  35.421  1.00  0.00     0.037 A 
ATOM     61  C   UNL A   1      40.547  28.817  29.639  1.00  0.00     0.037 A 
ATOM     62  C   UNL A   1      41.016  31.719  35.471  1.00  0.00     0.049 A 
ATOM     63  C   UNL A   1      41.477  28.640  30.809  1.00  0.00     0.074 A 
ATOM     64  C   UNL A   1      41.873  31.405  36.511  1.00  0.00     0.029 A 
ATOM     65  N   UNL A   1      41.319  30.855  34.428  1.00  0.00    -0.354 N 
ATOM     66  N   UNL A   1      41.487  29.267  31.960  1.00  0.00    -0.248 NA
ATOM     67  C   UNL A   1      42.528  27.624  30.668  1.00  0.00     0.031 C 
ATOM     68  C   UNL A   1      42.726  30.382  36.080  1.00  0.00     0.029 A 
ATOM     69  C   UNL A   1      42.369  30.025  34.789  1.00  0.00     0.049 A 
ATOM     70  H   UNL A   1      40.858  30.835  33.558  1.00  0.00     0.167 HD
ATOM     71  C   UNL A   1      42.522  28.703  32.693  1.00  0.00     0.074 A 
ATOM     72  C   UNL A   1      43.111  27.676  31.858  1.00  0.00     0.031 C 
ATOM     73  C   UNL A   1      42.943  29.006  33.947  1.00  0.00     0.037 A 
BRANCH  60  74
ATOM     74  C   UNL A   1      39.838  33.660  36.592  1.00  0.00     0.064 A 
ATOM     75  C   UNL A   1      38.983  33.354  37.664  1.00  0.00     0.173 A 
ATOM     76  C   UNL A   1      40.534  34.876  36.637  1.00  0.00     0.173 A 
ATOM     77  F   UNL A   1      38.283  32.209  37.663  1.00  0.00    -0.203 F 
ATOM     78  C   UNL A   1      38.795  34.253  38.710  1.00  0.00     0.198 A 
ATOM     79  C   UNL A   1      40.370  35.758  37.703  1.00  0.00     0.198 A 
ATOM     80  F   UNL A   1      41.368  35.217  35.642  1.00  0.00    -0.203 F 
ATOM     81  F   UNL A   1      37.917  33.971  39.683  1.00  0.00    -0.200 F 
ATOM     82  C   UNL A   1      39.490  35.452  38.731  1.00  0.00     0.200 A 
ATOM     83  F   UNL A   1      41.052  36.911  37.728  1.00  0.00    -0.200 F 
ATOM     84  F   UNL A   1      39.302  36.319  39.735  1.00  0.00    -0.200 F 
ENDBRANCH  60  74
BRANCH  61  85
ATOM     85  C   UNL A   1      40.655  27.946  28.440  1.00  0.00     0.064 A 
ATOM     86  C   UNL A   1      41.407  28.355  27.329  1.00  0.00     0.173 A 
ATOM     87  C   UNL A   1      40.033  26.691  28.382  1.00  0.00     0.173 A 
ATOM     88  F   UNL A   1      42.003  29.557  27.331  1.00  0.00    -0.203 F 
ATOM     89  C   UNL A   1      41.526  27.546  26.203  1.00  0.00     0.198 A 
ATOM     90  C   UNL A   1      40.173  25.871  27.263  1.00  0.00     0.198 A 
ATOM     91  F   UNL A   1      39.308  26.252  29.420  1.00  0.00    -0.203 F 
ATOM     92  F   UNL A   1      42.225  27.974  25.143  1.00  0.00    -0.200 F 
ATOM     93  C   UNL A   1      40.915  26.301  26.173  1.00  0.00     0.200 A 
ATOM     94  F   UNL A   1      39.593  24.663  27.244  1.00  0.00    -0.200 F 
ATOM     95  F   UNL A   1      41.038  25.517  25.093  1.00  0.00    -0.200 F 
ENDBRANCH  61  85
BRANCH  73  96
ATOM     96  C   UNL A   1      44.074  28.195  34.506  1.00  0.00     0.064 A 
ATOM     97  C   UNL A   1      43.852  26.981  35.173  1.00  0.00     0.173 A 
ATOM     98  C   UNL A   1      45.401  28.617  34.336  1.00  0.00     0.173 A 
ATOM     99  F   UNL A   1      42.600  26.542  35.375  1.00  0.00    -0.203 F 
ATOM    100  C   UNL A   1      44.916  26.232  35.670  1.00  0.00     0.198 A 
ATOM    101  C   UNL A   1      46.463  27.851  34.807  1.00  0.00     0.198 A 
ATOM    102  F   UNL A   1      45.668  29.768  33.700  1.00  0.00    -0.203 F 
ATOM    103  F   UNL A   1      44.678  25.099  36.344  1.00  0.00    -0.200 F 
ATOM    104  C   UNL A   1      46.221  26.664  35.479  1.00  0.00     0.200 A 
ATOM    105  F   UNL A   1      47.724  28.264  34.611  1.00  0.00    -0.200 F 
ATOM    106  F   UNL A   1      47.243  25.937  35.951  1.00  0.00    -0.200 F 
ENDBRANCH  73  96
ENDBRANCH  47  48
ENDBRANCH  39  42
ENDBRANCH  37  38
ENDBRANCH  36  37
ENDBRANCH  35  36
ENDBRANCH   1  35
TORSDOF 16
ENDMDL
MODEL 2
REMARK VINA RESULT:     -13.7      0.606      7.000
REMARK SMILES COc1cccc(C(=O)Nc2ccc(NC(=O)[C@@H]3[C@@H](C(=O)NCCCCNC(=O)c4ccc(-c5c6nc(c(-c7c(F)c(F)c(F)c(F)c7F)c7ccc([nH]7)c(-c7c(F)c(F)c(F)c(F)c7F)c7nc(c(-c8c(F)c(F)c(F)c(F)c8F)c8ccc5[nH]8)C=C7)C=C6)cc4)[C@@H]4C=C[C@H]3C4)cc2)c1
REMARK SMILES IDX 23 1 22 2 20 3 21 4 19 6 18 7 96 8 93 9 95 10 97 11 94 12
REMARK SMILES IDX 16 13 15 14 17 16 14 17 11 18 12 19 99 20 13 21 98 22 10 23
REMARK SMILES IDX 8 24 9 25 7 27 3 28 4 29 100 30 5 31 6 32 2 33 1 34 24 35
REMARK SMILES IDX 25 36 26 37 27 38 28 39 29 41 30 42 31 43 92 44 32 45 91 46
REMARK SMILES IDX 33 47 34 48 35 49 85 50 36 51 90 52 84 53 86 54 37 55 89 56
REMARK SMILES IDX 83 57 82 58 38 60 70 61 50 62 69 63 51 64 54 65 68 66 87 67
REMARK SMILES IDX 52 68 53 69 67 71 88 72 55 73 39 74 40 75 48 76 41 77 42 78
REMARK SMILES IDX 46 79 49 80 43 81 44 82 47 83 45 84 71 85 72 86 80 87 73 88
REMARK SMILES IDX 74 89 78 90 81 91 75 92 76 93 79 94 77 95 56 96 57 97 65 98
REMARK SMILES IDX 58 99 59 100 63 101 66 102 60 103 61 104 64 105 62 106
REMARK H PARENT 22 5 15 15 10 26 27 40 86 59 54 70
REMARK Flexibility Score: inf
ROOT
ATOM      1  C   UNL A   1      32.760  29.715  25.624  1.00  0.00     0.116 C 
ENDROOT
BRANCH   1   2
ATOM      2  N   UNL A   1      32.629  29.428  24.212  1.00  0.00    -0.356 N 
ATOM      3  C   UNL A   1      31.588  29.358  23.352  1.00  0.00     0.224 C 
ATOM      4  O   UNL A   1      31.890  29.073  22.187  1.00  0.00    -0.275 OA
ATOM      5  H   UNL A   1      33.493  29.241  23.779  1.00  0.00     0.163 HD
BRANCH   3   6
ATOM      6  C   UNL A   1      30.109  29.502  23.726  1.00  0.00     0.098 C 
ATOM      7  C   UNL A   1      29.306  28.389  22.962  1.00  0.00     0.099 C 
ATOM      8  C   UNL A   1      28.262  29.218  22.149  1.00  0.00     0.025 C 
ATOM      9  C   UNL A   1      29.350  30.780  23.315  1.00  0.00     0.025 C 
ATOM     10  C   UNL A   1      27.258  29.848  23.072  1.00  0.00    -0.027 C 
ATOM     11  C   UNL A   1      29.071  30.487  21.839  1.00  0.00     0.017 C 
ATOM     12  C   UNL A   1      27.919  30.755  23.805  1.00  0.00    -0.027 C 
BRANCH   7  13
ATOM     13  C   UNL A   1      28.714  27.126  23.623  1.00  0.00     0.228 C 
ATOM     14  N   UNL A   1      29.425  26.123  24.212  1.00  0.00    -0.326 N 
ATOM     15  H   UNL A   1      28.926  25.624  24.899  1.00  0.00     0.169 HD
ATOM     16  O   UNL A   1      27.491  27.093  23.829  1.00  0.00    -0.274 OA
BRANCH  14  17
ATOM     17  C   UNL A   1      30.729  25.674  24.017  1.00  0.00     0.041 A 
ATOM     18  C   UNL A   1      33.368  24.911  23.592  1.00  0.00     0.041 A 
ATOM     19  C   UNL A   1      32.379  24.525  22.688  1.00  0.00     0.028 A 
ATOM     20  C   UNL A   1      33.048  25.673  24.715  1.00  0.00     0.028 A 
ATOM     21  C   UNL A   1      31.053  24.852  22.947  1.00  0.00     0.028 A 
ATOM     22  C   UNL A   1      31.714  26.021  24.948  1.00  0.00     0.028 A 
BRANCH  18  23
ATOM     23  N   UNL A   1      34.674  24.472  23.403  1.00  0.00    -0.322 N 
ATOM     24  C   UNL A   1      35.148  23.176  23.484  1.00  0.00     0.255 C 
ATOM     25  O   UNL A   1      36.149  22.872  22.833  1.00  0.00    -0.269 OA
ATOM     26  H   UNL A   1      35.339  25.164  23.186  1.00  0.00     0.170 HD
BRANCH  24  27
ATOM     27  C   UNL A   1      34.618  22.215  24.517  1.00  0.00     0.043 A 
ATOM     28  C   UNL A   1      33.115  20.462  25.326  1.00  0.00     0.119 A 
ATOM     29  C   UNL A   1      33.525  20.717  26.629  1.00  0.00     0.046 A 
ATOM     30  C   UNL A   1      33.687  21.193  24.286  1.00  0.00     0.060 A 
ATOM     31  C   UNL A   1      34.489  21.691  26.887  1.00  0.00     0.005 A 
ATOM     32  C   UNL A   1      35.029  22.438  25.837  1.00  0.00     0.014 A 
BRANCH  28  33
ATOM     33  O   UNL A   1      32.149  19.502  25.184  1.00  0.00    -0.497 OA
ATOM     34  C   UNL A   1      32.521  18.278  24.551  1.00  0.00     0.278 C 
ENDBRANCH  28  33
ENDBRANCH  24  27
ENDBRANCH  18  23
ENDBRANCH  14  17
ENDBRANCH   7  13
ENDBRANCH   3   6
ENDBRANCH   1   2
BRANCH   1  35
ATOM     35  C   UNL A   1      31.820  30.835  26.080  1.00  0.00     0.023 C 
BRANCH  35  36
ATOM     36  C   UNL A   1      32.229  31.459  27.417  1.00  0.00     0.023 C 
BRANCH  36  37
ATOM     37  C   UNL A   1      33.241  32.593  27.306  1.00  0.00     0.116 C 
BRANCH  37  38
ATOM     38  N   UNL A   1      32.693  33.913  27.569  1.00  0.00    -0.352 N 
ATOM     39  C   UNL A   1      33.103  34.791  28.549  1.00  0.00     0.251 C 
ATOM     40  H   UNL A   1      31.955  34.210  26.989  1.00  0.00     0.163 HD
ATOM     41  O   UNL A   1      32.518  35.851  28.745  1.00  0.00    -0.269 OA
BRANCH  39  42
ATOM     42  C   UNL A   1      34.241  34.395  29.403  1.00  0.00     0.039 A 
ATOM     43  C   UNL A   1      33.988  33.709  30.593  1.00  0.00     0.014 A 
ATOM     44  C   UNL A   1      35.550  34.599  28.961  1.00  0.00     0.014 A 
ATOM     45  C   UNL A   1      35.055  33.159  31.305  1.00  0.00     0.010 A 
ATOM     46  C   UNL A   1      36.602  33.982  29.628  1.00  0.00     0.010 A 
ATOM     47  C   UNL A   1      36.365  33.254  30.804  1.00  0.00    -0.014 A 
BRANCH  47  48
ATOM     48  C   UNL A   1      37.503  32.596  31.494  1.00  0.00     0.031 A 
ATOM     49  C   UNL A   1      38.213  31.446  30.840  1.00  0.00     0.074 A 
ATOM     50  C   UNL A   1      37.847  32.985  32.736  1.00  0.00     0.049 A 
ATOM     51  N   UNL A   1      39.193  30.709  31.297  1.00  0.00    -0.248 NA
ATOM     52  C   UNL A   1      37.735  31.052  29.506  1.00  0.00     0.031 C 
ATOM     53  C   UNL A   1      37.200  34.054  33.499  1.00  0.00     0.029 A 
ATOM     54  N   UNL A   1      38.828  32.524  33.577  1.00  0.00    -0.354 N 
ATOM     55  C   UNL A   1      39.435  29.757  30.315  1.00  0.00     0.074 A 
ATOM     56  C   UNL A   1      38.457  29.968  29.271  1.00  0.00     0.031 C 
ATOM     57  C   UNL A   1      37.825  34.191  34.679  1.00  0.00     0.029 A 
ATOM     58  C   UNL A   1      38.893  33.200  34.771  1.00  0.00     0.049 A 
ATOM     59  H   UNL A   1      39.427  31.777  33.348  1.00  0.00     0.167 HD
ATOM     60  C   UNL A   1      40.404  28.812  30.274  1.00  0.00     0.037 A 
ATOM     61  C   UNL A   1      39.727  33.042  35.815  1.00  0.00     0.037 A 
ATOM     62  C   UNL A   1      41.389  28.619  31.306  1.00  0.00     0.049 A 
ATOM     63  C   UNL A   1      40.787  31.977  35.756  1.00  0.00     0.074 A 
ATOM     64  C   UNL A   1      42.453  27.737  31.332  1.00  0.00     0.029 A 
ATOM     65  N   UNL A   1      41.423  29.324  32.501  1.00  0.00    -0.354 N 
ATOM     66  N   UNL A   1      41.059  31.133  34.790  1.00  0.00    -0.248 NA
ATOM     67  C   UNL A   1      41.657  31.845  36.932  1.00  0.00     0.031 C 
ATOM     68  C   UNL A   1      43.104  27.875  32.564  1.00  0.00     0.029 A 
ATOM     69  C   UNL A   1      42.475  28.878  33.285  1.00  0.00     0.049 A 
ATOM     70  H   UNL A   1      40.792  30.036  32.757  1.00  0.00     0.167 HD
ATOM     71  C   UNL A   1      42.149  30.391  35.226  1.00  0.00     0.074 A 
ATOM     72  C   UNL A   1      42.493  30.892  36.541  1.00  0.00     0.031 C 
ATOM     73  C   UNL A   1      42.807  29.389  34.592  1.00  0.00     0.037 A 
BRANCH  60  74
ATOM     74  C   UNL A   1      40.432  27.913  29.070  1.00  0.00     0.064 A 
ATOM     75  C   UNL A   1      41.202  28.225  27.937  1.00  0.00     0.173 A 
ATOM     76  C   UNL A   1      39.669  26.737  29.040  1.00  0.00     0.173 A 
ATOM     77  F   UNL A   1      41.938  29.345  27.909  1.00  0.00    -0.203 F 
ATOM     78  C   UNL A   1      41.166  27.418  26.803  1.00  0.00     0.198 A 
ATOM     79  C   UNL A   1      39.664  25.914  27.916  1.00  0.00     0.198 A 
ATOM     80  F   UNL A   1      38.920  26.388  30.097  1.00  0.00    -0.203 F 
ATOM     81  F   UNL A   1      41.850  27.776  25.707  1.00  0.00    -0.200 F 
ATOM     82  C   UNL A   1      40.400  26.263  26.794  1.00  0.00     0.200 A 
ATOM     83  F   UNL A   1      38.932  24.791  27.913  1.00  0.00    -0.200 F 
ATOM     84  F   UNL A   1      40.361  25.492  25.699  1.00  0.00    -0.200 F 
ENDBRANCH  60  74
BRANCH  61  85
ATOM     85  C   UNL A   1      39.629  33.956  36.982  1.00  0.00     0.064 A 
ATOM     86  C   UNL A   1      38.883  33.591  38.112  1.00  0.00     0.173 A 
ATOM     87  C   UNL A   1      40.286  35.195  37.006  1.00  0.00     0.173 A 
ATOM     88  F   UNL A   1      38.221  32.425  38.127  1.00  0.00    -0.203 F 
ATOM     89  C   UNL A   1      38.791  34.433  39.217  1.00  0.00     0.198 A 
ATOM     90  C   UNL A   1      40.212  36.026  38.122  1.00  0.00     0.198 A 
ATOM     91  F   UNL A   1      41.016  35.588  35.952  1.00  0.00    -0.203 F 
ATOM     92  F   UNL A   1      38.046  34.073  40.271  1.00  0.00    -0.200 F 
ATOM     93  C   UNL A   1      39.461  35.647  39.225  1.00  0.00     0.200 A 
ATOM     94  F   UNL A   1      40.873  37.192  38.132  1.00  0.00    -0.200 F 
ATOM     95  F   UNL A   1      39.381  36.452  40.293  1.00  0.00    -0.200 F 
ENDBRANCH  61  85
BRANCH  73  96
ATOM     96  C   UNL A   1      43.987  28.789  35.296  1.00  0.00     0.064 A 
ATOM     97  C   UNL A   1      43.855  27.675  36.139  1.00  0.00     0.173 A 
ATOM     98  C   UNL A   1      45.274  29.310  35.093  1.00  0.00     0.173 A 
ATOM     99  F   UNL A   1      42.644  27.150  36.378  1.00  0.00    -0.203 F 
ATOM    100  C   UNL A   1      44.966  27.121  36.771  1.00  0.00     0.198 A 
ATOM    101  C   UNL A   1      46.385  28.734  35.703  1.00  0.00     0.198 A 
ATOM    102  F   UNL A   1      45.455  30.371  34.293  1.00  0.00    -0.203 F 
ATOM    103  F   UNL A   1      44.811  26.085  37.607  1.00  0.00    -0.200 F 
ATOM    104  C   UNL A   1      46.230  27.646  36.545  1.00  0.00     0.200 A 
ATOM    105  F   UNL A   1      47.608  29.235  35.474  1.00  0.00    -0.200 F 
ATOM    106  F   UNL A   1      47.298  27.104  37.148  1.00  0.00    -0.200 F 
ENDBRANCH  73  96
ENDBRANCH  47  48
ENDBRANCH  39  42
ENDBRANCH  37  38
ENDBRANCH  36  37
ENDBRANCH  35  36
ENDBRANCH   1  35
TORSDOF 16
ENDMDL
MODEL 3
REMARK VINA RESULT:     -13.7      1.373      2.557
REMARK SMILES COc1cccc(C(=O)Nc2ccc(NC(=O)[C@@H]3[C@@H](C(=O)NCCCCNC(=O)c4ccc(-c5c6nc(c(-c7c(F)c(F)c(F)c(F)c7F)c7ccc([nH]7)c(-c7c(F)c(F)c(F)c(F)c7F)c7nc(c(-c8c(F)c(F)c(F)c(F)c8F)c8ccc5[nH]8)C=C7)C=C6)cc4)[C@@H]4C=C[C@H]3C4)cc2)c1
REMARK SMILES IDX 23 1 22 2 20 3 21 4 19 6 18 7 96 8 93 9 95 10 97 11 94 12
REMARK SMILES IDX 16 13 15 14 17 16 14 17 11 18 12 19 99 20 13 21 98 22 10 23
REMARK SMILES IDX 8 24 9 25 7 27 3 28 4 29 100 30 5 31 6 32 2 33 1 34 24 35
REMARK SMILES IDX 25 36 26 37 27 38 28 39 29 41 30 42 31 43 92 44 32 45 91 46
REMARK SMILES IDX 33 47 34 48 35 49 85 50 36 51 90 52 84 53 86 54 37 55 89 56
REMARK SMILES IDX 83 57 82 58 38 60 70 61 50 62 69 63 51 64 54 65 68 66 87 67
REMARK SMILES IDX 52 68 53 69 67 71 88 72 55 73 39 74 40 75 48 76 41 77 42 78
REMARK SMILES IDX 46 79 49 80 43 81 44 82 47 83 45 84 71 85 72 86 80 87 73 88
REMARK SMILES IDX 74 89 78 90 81 91 75 92 76 93 79 94 77 95 56 96 57 97 65 98
REMARK SMILES IDX 58 99 59 100 63 101 66 102 60 103 61 104 64 105 62 106
REMARK H PARENT 22 5 15 15 10 26 27 40 86 59 54 70
REMARK Flexibility Score: inf
ROOT
ATOM      1  C   UNL A   1      33.006  30.280  25.591  1.00  0.00     0.116 C 
ENDROOT
BRANCH   1   2
ATOM      2  N   UNL A   1      33.504  28.938  25.376  1.00  0.00    -0.356 N 
ATOM      3  C   UNL A   1      32.931  27.753  25.069  1.00  0.00     0.224 C 
ATOM      4  O   UNL A   1      33.716  26.802  24.969  1.00  0.00    -0.275 OA
ATOM      5  H   UNL A   1      34.481  28.874  25.477  1.00  0.00     0.163 HD
BRANCH   3   6
ATOM      6  C   UNL A   1      31.426  27.494  24.938  1.00  0.00     0.098 C 
ATOM      7  C   UNL A   1      31.197  25.941  24.975  1.00  0.00     0.099 C 
ATOM      8  C   UNL A   1      30.457  25.672  23.627  1.00  0.00     0.025 C 
ATOM      9  C   UNL A   1      30.705  27.890  23.633  1.00  0.00     0.025 C 
ATOM     10  C   UNL A   1      29.076  26.263  23.659  1.00  0.00    -0.027 C 
ATOM     11  C   UNL A   1      31.104  26.729  22.720  1.00  0.00     0.017 C 
ATOM     12  C   UNL A   1      29.224  27.594  23.708  1.00  0.00    -0.027 C 
BRANCH   7  13
ATOM     13  C   UNL A   1      30.599  25.173  26.173  1.00  0.00     0.228 C 
ATOM     14  N   UNL A   1      31.259  24.271  26.956  1.00  0.00    -0.326 N 
ATOM     15  H   UNL A   1      30.890  24.180  27.864  1.00  0.00     0.169 HD
ATOM     16  O   UNL A   1      29.494  25.534  26.606  1.00  0.00    -0.274 OA
BRANCH  14  17
ATOM     17  C   UNL A   1      32.360  23.457  26.703  1.00  0.00     0.041 A 
ATOM     18  C   UNL A   1      34.631  21.909  26.291  1.00  0.00     0.041 A 
ATOM     19  C   UNL A   1      34.199  22.786  25.297  1.00  0.00     0.028 A 
ATOM     20  C   UNL A   1      33.933  21.793  27.492  1.00  0.00     0.028 A 
ATOM     21  C   UNL A   1      33.023  23.503  25.485  1.00  0.00     0.028 A 
ATOM     22  C   UNL A   1      32.767  22.543  27.681  1.00  0.00     0.028 A 
BRANCH  18  23
ATOM     23  N   UNL A   1      35.733  21.094  26.050  1.00  0.00    -0.322 N 
ATOM     24  C   UNL A   1      35.863  20.118  25.081  1.00  0.00     0.255 C 
ATOM     25  O   UNL A   1      36.990  19.845  24.665  1.00  0.00    -0.269 OA
ATOM     26  H   UNL A   1      36.510  21.229  26.637  1.00  0.00     0.170 HD
BRANCH  24  27
ATOM     27  C   UNL A   1      34.703  19.232  24.705  1.00  0.00     0.043 A 
ATOM     28  C   UNL A   1      33.631  17.077  24.266  1.00  0.00     0.119 A 
ATOM     29  C   UNL A   1      32.556  17.735  23.678  1.00  0.00     0.046 A 
ATOM     30  C   UNL A   1      34.674  17.834  24.796  1.00  0.00     0.060 A 
ATOM     31  C   UNL A   1      32.530  19.129  23.620  1.00  0.00     0.005 A 
ATOM     32  C   UNL A   1      33.599  19.872  24.127  1.00  0.00     0.014 A 
BRANCH  28  33
ATOM     33  O   UNL A   1      33.569  15.710  24.251  1.00  0.00    -0.497 OA
ATOM     34  C   UNL A   1      32.901  15.067  25.337  1.00  0.00     0.278 C 
ENDBRANCH  28  33
ENDBRANCH  24  27
ENDBRANCH  18  23
ENDBRANCH  14  17
ENDBRANCH   7  13
ENDBRANCH   3   6
ENDBRANCH   1   2
BRANCH   1  35
ATOM     35  C   UNL A   1      32.192  30.397  26.882  1.00  0.00     0.023 C 
BRANCH  35  36
ATOM     36  C   UNL A   1      31.751  31.831  27.189  1.00  0.00     0.023 C 
BRANCH  36  37
ATOM     37  C   UNL A   1      32.893  32.829  27.337  1.00  0.00     0.116 C 
BRANCH  37  38
ATOM     38  N   UNL A   1      32.469  34.181  27.665  1.00  0.00    -0.352 N 
ATOM     39  C   UNL A   1      33.015  35.000  28.629  1.00  0.00     0.251 C 
ATOM     40  H   UNL A   1      31.716  34.547  27.147  1.00  0.00     0.163 HD
ATOM     41  O   UNL A   1      32.529  36.095  28.888  1.00  0.00    -0.269 OA
BRANCH  39  42
ATOM     42  C   UNL A   1      34.177  34.497  29.389  1.00  0.00     0.039 A 
ATOM     43  C   UNL A   1      33.957  33.774  30.563  1.00  0.00     0.014 A 
ATOM     44  C   UNL A   1      35.466  34.643  28.872  1.00  0.00     0.014 A 
ATOM     45  C   UNL A   1      35.030  33.129  31.180  1.00  0.00     0.010 A 
ATOM     46  C   UNL A   1      36.517  33.934  29.442  1.00  0.00     0.010 A 
ATOM     47  C   UNL A   1      36.309  33.168  30.599  1.00  0.00    -0.014 A 
BRANCH  47  48
ATOM     48  C   UNL A   1      37.445  32.413  31.184  1.00  0.00     0.031 A 
ATOM     49  C   UNL A   1      37.944  32.756  32.558  1.00  0.00     0.074 A 
ATOM     50  C   UNL A   1      38.071  31.472  30.453  1.00  0.00     0.049 A 
ATOM     51  N   UNL A   1      38.951  32.251  33.225  1.00  0.00    -0.248 NA
ATOM     52  C   UNL A   1      37.236  33.834  33.264  1.00  0.00     0.031 C 
ATOM     53  C   UNL A   1      37.715  31.084  29.087  1.00  0.00     0.029 A 
ATOM     54  N   UNL A   1      39.143  30.670  30.757  1.00  0.00    -0.354 N 
ATOM     55  C   UNL A   1      39.004  32.961  34.417  1.00  0.00     0.074 A 
ATOM     56  C   UNL A   1      37.975  33.974  34.353  1.00  0.00     0.031 C 
ATOM     57  C   UNL A   1      38.528  30.094  28.686  1.00  0.00     0.029 A 
ATOM     58  C   UNL A   1      39.482  29.800  29.751  1.00  0.00     0.049 A 
ATOM     59  H   UNL A   1      39.623  30.715  31.615  1.00  0.00     0.167 HD
ATOM     60  C   UNL A   1      39.820  32.766  35.481  1.00  0.00     0.037 A 
ATOM     61  C   UNL A   1      40.450  28.866  29.698  1.00  0.00     0.037 A 
ATOM     62  C   UNL A   1      40.829  31.743  35.549  1.00  0.00     0.049 A 
ATOM     63  C   UNL A   1      41.353  28.676  30.886  1.00  0.00     0.074 A 
ATOM     64  C   UNL A   1      41.661  31.417  36.605  1.00  0.00     0.029 A 
ATOM     65  N   UNL A   1      41.145  30.879  34.509  1.00  0.00    -0.354 N 
ATOM     66  N   UNL A   1      41.346  29.298  32.039  1.00  0.00    -0.248 NA
ATOM     67  C   UNL A   1      42.398  27.650  30.763  1.00  0.00     0.031 C 
ATOM     68  C   UNL A   1      42.513  30.387  36.187  1.00  0.00     0.029 A 
ATOM     69  C   UNL A   1      42.178  30.038  34.888  1.00  0.00     0.049 A 
ATOM     70  H   UNL A   1      40.700  30.867  33.630  1.00  0.00     0.167 HD
ATOM     71  C   UNL A   1      42.361  28.721  32.791  1.00  0.00     0.074 A 
ATOM     72  C   UNL A   1      42.957  27.692  31.965  1.00  0.00     0.031 C 
ATOM     73  C   UNL A   1      42.759  29.016  34.054  1.00  0.00     0.037 A 
BRANCH  60  74
ATOM     74  C   UNL A   1      39.647  33.692  36.653  1.00  0.00     0.064 A 
ATOM     75  C   UNL A   1      38.833  33.351  37.746  1.00  0.00     0.173 A 
ATOM     76  C   UNL A   1      40.287  34.939  36.676  1.00  0.00     0.173 A 
ATOM     77  F   UNL A   1      38.188  32.176  37.767  1.00  0.00    -0.203 F 
ATOM     78  C   UNL A   1      38.629  34.246  38.793  1.00  0.00     0.198 A 
ATOM     79  C   UNL A   1      40.108  35.817  37.743  1.00  0.00     0.198 A 
ATOM     80  F   UNL A   1      41.080  35.313  35.660  1.00  0.00    -0.203 F 
ATOM     81  F   UNL A   1      37.789  33.928  39.789  1.00  0.00    -0.200 F 
ATOM     82  C   UNL A   1      39.268  35.476  38.793  1.00  0.00     0.200 A 
ATOM     83  F   UNL A   1      40.735  37.001  37.746  1.00  0.00    -0.200 F 
ATOM     84  F   UNL A   1      39.064  36.339  39.797  1.00  0.00    -0.200 F 
ENDBRANCH  60  74
BRANCH  61  85
ATOM     85  C   UNL A   1      40.574  27.998  28.498  1.00  0.00     0.064 A 
ATOM     86  C   UNL A   1      39.918  26.760  28.445  1.00  0.00     0.173 A 
ATOM     87  C   UNL A   1      41.326  28.387  27.381  1.00  0.00     0.173 A 
ATOM     88  F   UNL A   1      39.204  26.336  29.499  1.00  0.00    -0.203 F 
ATOM     89  C   UNL A   1      40.016  25.940  27.324  1.00  0.00     0.198 A 
ATOM     90  C   UNL A   1      41.404  27.578  26.249  1.00  0.00     0.198 A 
ATOM     91  F   UNL A   1      41.967  29.565  27.381  1.00  0.00    -0.203 F 
ATOM     92  F   UNL A   1      39.405  24.749  27.311  1.00  0.00    -0.200 F 
ATOM     93  C   UNL A   1      40.753  26.353  26.223  1.00  0.00     0.200 A 
ATOM     94  F   UNL A   1      42.105  27.985  25.183  1.00  0.00    -0.200 F 
ATOM     95  F   UNL A   1      40.839  25.569  25.140  1.00  0.00    -0.200 F 
ENDBRANCH  61  85
BRANCH  73  96
ATOM     96  C   UNL A   1      43.871  28.192  34.633  1.00  0.00     0.064 A 
ATOM     97  C   UNL A   1      45.210  28.602  34.555  1.00  0.00     0.173 A 
ATOM     98  C   UNL A   1      43.588  26.996  35.311  1.00  0.00     0.173 A 
ATOM     99  F   UNL A   1      45.534  29.729  33.903  1.00  0.00    -0.203 F 
ATOM    100  C   UNL A   1      46.227  27.832  35.114  1.00  0.00     0.198 A 
ATOM    101  C   UNL A   1      44.605  26.246  35.894  1.00  0.00     0.198 A 
ATOM    102  F   UNL A   1      42.323  26.562  35.418  1.00  0.00    -0.203 F 
ATOM    103  F   UNL A   1      47.504  28.220  34.988  1.00  0.00    -0.200 F 
ATOM    104  C   UNL A   1      45.923  26.660  35.790  1.00  0.00     0.200 A 
ATOM    105  F   UNL A   1      44.307  25.119  36.558  1.00  0.00    -0.200 F 
ATOM    106  F   UNL A   1      46.903  25.926  36.335  1.00  0.00    -0.200 F 
ENDBRANCH  73  96
ENDBRANCH  47  48
ENDBRANCH  39  42
ENDBRANCH  37  38
ENDBRANCH  36  37
ENDBRANCH  35  36
ENDBRANCH   1  35
TORSDOF 16
ENDMDL
