MODEL 1
REMARK VINA RESULT:     -12.1      0.000      0.000
REMARK SMILES CC(C)C[C@H](CNC(=O)c1ccc(O)cc1O)C(=O)NCCCCNC(=O)c1ccc(-c2c3nc(c(-c4c(F)c(F)c(F)c(F)c4F)c4ccc([nH]4)c(-c4c(F)c(F)c(F)c(F)c4F)c4nc(c(-c5c(F)c(F)c(F)c(F)c5F)c5ccc2[nH]5)C=C4)C=C3)cc1
REMARK SMILES IDX 21 1 20 2 18 3 19 4 5 6 4 7 2 8 1 9 3 10 6 11 7 12 8 13 9 15
REMARK SMILES IDX 10 16 11 17 16 18 12 19 15 20 13 21 17 22 14 24 22 26 23 27
REMARK SMILES IDX 24 28 25 29 26 30 27 32 28 33 29 34 90 35 30 36 89 37 31 38
REMARK SMILES IDX 32 39 33 40 83 41 34 42 88 43 82 44 84 45 35 46 87 47 81 48
REMARK SMILES IDX 80 49 36 51 68 52 48 53 67 54 49 55 52 56 66 57 85 58 50 59
REMARK SMILES IDX 51 60 65 62 86 63 53 64 37 65 38 66 46 67 39 68 40 69 44 70
REMARK SMILES IDX 47 71 41 72 42 73 45 74 43 75 69 76 70 77 78 78 71 79 72 80
REMARK SMILES IDX 76 81 79 82 73 83 74 84 77 85 75 86 54 87 55 88 63 89 56 90
REMARK SMILES IDX 57 91 61 92 64 93 58 94 59 95 62 96 60 97
REMARK H PARENT 20 5 7 14 17 23 14 25 25 31 84 50 52 61
REMARK Flexibility Score: inf
ROOT
ATOM      1  C   UNL A   1      31.522  29.806  25.424  1.00  0.00     0.116 C 
ENDROOT
BRANCH   1   2
ATOM      2  N   UNL A   1      32.549  29.389  24.496  1.00  0.00    -0.356 N 
ATOM      3  C   UNL A   1      32.477  29.112  23.168  1.00  0.00     0.224 C 
ATOM      4  O   UNL A   1      33.553  28.936  22.586  1.00  0.00    -0.275 OA
ATOM      5  H   UNL A   1      33.445  29.289  24.890  1.00  0.00     0.163 HD
BRANCH   3   6
ATOM      6  C   UNL A   1      31.166  28.957  22.397  1.00  0.00     0.098 C 
BRANCH   6   7
ATOM      7  C   UNL A   1      30.045  30.027  22.474  1.00  0.00     0.018 C 
BRANCH   7   8
ATOM      8  C   UNL A   1      28.625  29.818  21.915  1.00  0.00    -0.017 C 
ATOM      9  C   UNL A   1      27.590  29.436  22.975  1.00  0.00     0.007 C 
ATOM     10  C   UNL A   1      28.154  31.114  21.233  1.00  0.00     0.007 C 
ENDBRANCH   7   8
ENDBRANCH   6   7
BRANCH   6  11
ATOM     11  C   UNL A   1      30.683  27.487  22.295  1.00  0.00     0.129 C 
BRANCH  11  12
ATOM     12  N   UNL A   1      31.616  26.541  21.710  1.00  0.00    -0.351 N 
ATOM     13  C   UNL A   1      32.408  25.597  22.307  1.00  0.00     0.255 C 
ATOM     14  H   UNL A   1      31.692  26.586  20.729  1.00  0.00     0.163 HD
ATOM     15  O   UNL A   1      33.399  25.157  21.731  1.00  0.00    -0.269 OA
BRANCH  13  16
ATOM     16  C   UNL A   1      32.129  25.128  23.668  1.00  0.00     0.081 A 
ATOM     17  C   UNL A   1      31.175  24.126  23.873  1.00  0.00     0.021 A 
ATOM     18  C   UNL A   1      32.899  25.599  24.736  1.00  0.00     0.132 A 
ATOM     19  C   UNL A   1      30.962  23.629  25.159  1.00  0.00     0.047 A 
ATOM     20  C   UNL A   1      32.667  25.127  26.023  1.00  0.00     0.093 A 
ATOM     21  C   UNL A   1      31.706  24.139  26.222  1.00  0.00     0.119 A 
BRANCH  18  22
ATOM     22  O   UNL A   1      33.907  26.510  24.570  1.00  0.00    -0.507 OA
ATOM     23  H   UNL A   1      34.431  26.769  25.302  1.00  0.00     0.293 HD
ENDBRANCH  18  22
BRANCH  21  24
ATOM     24  O   UNL A   1      31.531  23.672  27.491  1.00  0.00    -0.508 OA
ATOM     25  H   UNL A   1      31.211  24.243  28.160  1.00  0.00     0.293 HD
ENDBRANCH  21  24
ENDBRANCH  13  16
ENDBRANCH  11  12
ENDBRANCH   6  11
ENDBRANCH   3   6
ENDBRANCH   1   2
BRANCH   1  26
ATOM     26  C   UNL A   1      32.095  30.431  26.690  1.00  0.00     0.023 C 
BRANCH  26  27
ATOM     27  C   UNL A   1      31.727  31.895  26.893  1.00  0.00     0.023 C 
BRANCH  27  28
ATOM     28  C   UNL A   1      32.879  32.794  27.325  1.00  0.00     0.116 C 
BRANCH  28  29
ATOM     29  N   UNL A   1      32.476  34.152  27.668  1.00  0.00    -0.352 N 
ATOM     30  C   UNL A   1      33.004  34.991  28.624  1.00  0.00     0.251 C 
ATOM     31  H   UNL A   1      31.726  34.519  27.146  1.00  0.00     0.163 HD
ATOM     32  O   UNL A   1      32.516  36.086  28.851  1.00  0.00    -0.269 OA
BRANCH  30  33
ATOM     33  C   UNL A   1      34.152  34.507  29.412  1.00  0.00     0.039 A 
ATOM     34  C   UNL A   1      33.912  33.838  30.613  1.00  0.00     0.014 A 
ATOM     35  C   UNL A   1      35.445  34.613  28.894  1.00  0.00     0.014 A 
ATOM     36  C   UNL A   1      34.966  33.187  31.253  1.00  0.00     0.010 A 
ATOM     37  C   UNL A   1      36.473  33.894  29.486  1.00  0.00     0.010 A 
ATOM     38  C   UNL A   1      36.241  33.166  30.665  1.00  0.00    -0.014 A 
BRANCH  38  39
ATOM     39  C   UNL A   1      37.353  32.386  31.258  1.00  0.00     0.031 A 
ATOM     40  C   UNL A   1      37.847  32.726  32.634  1.00  0.00     0.074 A 
ATOM     41  C   UNL A   1      37.977  31.445  30.524  1.00  0.00     0.049 A 
ATOM     42  N   UNL A   1      38.881  32.254  33.284  1.00  0.00    -0.248 NA
ATOM     43  C   UNL A   1      37.105  33.769  33.360  1.00  0.00     0.031 C 
ATOM     44  C   UNL A   1      37.631  31.070  29.150  1.00  0.00     0.029 A 
ATOM     45  N   UNL A   1      39.046  30.639  30.826  1.00  0.00    -0.354 N 
ATOM     46  C   UNL A   1      38.931  32.967  34.473  1.00  0.00     0.074 A 
ATOM     47  C   UNL A   1      37.856  33.934  34.439  1.00  0.00     0.031 C 
ATOM     48  C   UNL A   1      38.452  30.089  28.742  1.00  0.00     0.029 A 
ATOM     49  C   UNL A   1      39.403  29.790  29.807  1.00  0.00     0.049 A 
ATOM     50  H   UNL A   1      39.513  30.666  31.693  1.00  0.00     0.167 HD
ATOM     51  C   UNL A   1      39.784  32.811  35.513  1.00  0.00     0.037 A 
ATOM     52  C   UNL A   1      40.388  28.875  29.744  1.00  0.00     0.037 A 
ATOM     53  C   UNL A   1      40.811  31.808  35.569  1.00  0.00     0.049 A 
ATOM     54  C   UNL A   1      41.289  28.685  30.934  1.00  0.00     0.074 A 
ATOM     55  C   UNL A   1      41.671  31.509  36.610  1.00  0.00     0.029 A 
ATOM     56  N   UNL A   1      41.108  30.929  34.538  1.00  0.00    -0.354 N 
ATOM     57  N   UNL A   1      41.286  29.319  32.082  1.00  0.00    -0.248 NA
ATOM     58  C   UNL A   1      42.325  27.650  30.822  1.00  0.00     0.031 C 
ATOM     59  C   UNL A   1      42.507  30.465  36.200  1.00  0.00     0.029 A 
ATOM     60  C   UNL A   1      42.145  30.093  34.915  1.00  0.00     0.049 A 
ATOM     61  H   UNL A   1      40.649  30.904  33.667  1.00  0.00     0.167 HD
ATOM     62  C   UNL A   1      42.298  28.744  32.837  1.00  0.00     0.074 A 
ATOM     63  C   UNL A   1      42.888  27.701  32.022  1.00  0.00     0.031 C 
ATOM     64  C   UNL A   1      42.704  29.051  34.093  1.00  0.00     0.037 A 
BRANCH  51  65
ATOM     65  C   UNL A   1      39.628  33.741  36.679  1.00  0.00     0.064 A 
ATOM     66  C   UNL A   1      38.835  33.404  37.786  1.00  0.00     0.173 A 
ATOM     67  C   UNL A   1      40.291  34.977  36.696  1.00  0.00     0.173 A 
ATOM     68  F   UNL A   1      38.168  32.241  37.809  1.00  0.00    -0.203 F 
ATOM     69  C   UNL A   1      38.690  34.284  38.855  1.00  0.00     0.198 A 
ATOM     70  C   UNL A   1      40.165  35.842  37.780  1.00  0.00     0.198 A 
ATOM     71  F   UNL A   1      41.062  35.346  35.662  1.00  0.00    -0.203 F 
ATOM     72  F   UNL A   1      37.886  33.962  39.879  1.00  0.00    -0.200 F 
ATOM     73  C   UNL A   1      39.358  35.499  38.854  1.00  0.00     0.200 A 
ATOM     74  F   UNL A   1      40.819  37.012  37.782  1.00  0.00    -0.200 F 
ATOM     75  F   UNL A   1      39.219  36.343  39.885  1.00  0.00    -0.200 F 
ENDBRANCH  51  65
BRANCH  52  76
ATOM     76  C   UNL A   1      40.549  28.037  28.529  1.00  0.00     0.064 A 
ATOM     77  C   UNL A   1      41.327  28.485  27.451  1.00  0.00     0.173 A 
ATOM     78  C   UNL A   1      39.934  26.783  28.414  1.00  0.00     0.173 A 
ATOM     79  F   UNL A   1      41.917  29.688  27.509  1.00  0.00    -0.203 F 
ATOM     80  C   UNL A   1      41.467  27.719  26.297  1.00  0.00     0.198 A 
ATOM     81  C   UNL A   1      40.094  26.007  27.267  1.00  0.00     0.198 A 
ATOM     82  F   UNL A   1      39.184  26.307  29.419  1.00  0.00    -0.203 F 
ATOM     83  F   UNL A   1      42.183  28.189  25.266  1.00  0.00    -0.200 F 
ATOM     84  C   UNL A   1      40.854  26.478  26.207  1.00  0.00     0.200 A 
ATOM     85  F   UNL A   1      39.509  24.804  27.187  1.00  0.00    -0.200 F 
ATOM     86  F   UNL A   1      40.989  25.741  25.096  1.00  0.00    -0.200 F 
ENDBRANCH  52  76
BRANCH  64  87
ATOM     87  C   UNL A   1      43.812  28.228  34.674  1.00  0.00     0.064 A 
ATOM     88  C   UNL A   1      45.151  28.633  34.582  1.00  0.00     0.173 A 
ATOM     89  C   UNL A   1      43.525  27.047  35.374  1.00  0.00     0.173 A 
ATOM     90  F   UNL A   1      45.474  29.748  33.909  1.00  0.00    -0.203 F 
ATOM     91  C   UNL A   1      46.167  27.872  35.154  1.00  0.00     0.198 A 
ATOM     92  C   UNL A   1      44.541  26.302  35.965  1.00  0.00     0.198 A 
ATOM     93  F   UNL A   1      42.258  26.622  35.492  1.00  0.00    -0.203 F 
ATOM     94  F   UNL A   1      47.444  28.258  35.023  1.00  0.00    -0.200 F 
ATOM     95  C   UNL A   1      45.860  26.713  35.851  1.00  0.00     0.200 A 
ATOM     96  F   UNL A   1      44.242  25.187  36.645  1.00  0.00    -0.200 F 
ATOM     97  F   UNL A   1      46.839  25.986  36.407  1.00  0.00    -0.200 F 
ENDBRANCH  64  87
ENDBRANCH  38  39
ENDBRANCH  30  33
ENDBRANCH  28  29
ENDBRANCH  27  28
ENDBRANCH  26  27
ENDBRANCH   1  26
TORSDOF 18
ENDMDL
MODEL 2
REMARK VINA RESULT:     -12.0      5.811     10.301
REMARK SMILES CC(C)C[C@H](CNC(=O)c1ccc(O)cc1O)C(=O)NCCCCNC(=O)c1ccc(-c2c3nc(c(-c4c(F)c(F)c(F)c(F)c4F)c4ccc([nH]4)c(-c4c(F)c(F)c(F)c(F)c4F)c4nc(c(-c5c(F)c(F)c(F)c(F)c5F)c5ccc2[nH]5)C=C4)C=C3)cc1
REMARK SMILES IDX 21 1 20 2 18 3 19 4 5 6 4 7 2 8 1 9 3 10 6 11 7 12 8 13 9 15
REMARK SMILES IDX 10 16 11 17 16 18 12 19 15 20 13 21 17 22 14 24 22 26 23 27
REMARK SMILES IDX 24 28 25 29 26 30 27 32 28 33 29 34 90 35 30 36 89 37 31 38
REMARK SMILES IDX 32 39 33 40 83 41 34 42 88 43 82 44 84 45 35 46 87 47 81 48
REMARK SMILES IDX 80 49 36 51 68 52 48 53 67 54 49 55 52 56 66 57 85 58 50 59
REMARK SMILES IDX 51 60 65 62 86 63 53 64 37 65 38 66 46 67 39 68 40 69 44 70
REMARK SMILES IDX 47 71 41 72 42 73 45 74 43 75 69 76 70 77 78 78 71 79 72 80
REMARK SMILES IDX 76 81 79 82 73 83 74 84 77 85 75 86 54 87 55 88 63 89 56 90
REMARK SMILES IDX 57 91 61 92 64 93 58 94 59 95 62 96 60 97
REMARK H PARENT 20 5 7 14 17 23 14 25 25 31 84 50 52 61
REMARK Flexibility Score: inf
ROOT
ATOM      1  C   UNL A   1      35.980  21.980  24.692  1.00  0.00     0.116 C 
ENDROOT
BRANCH   1   2
ATOM      2  N   UNL A   1      35.339  21.963  25.988  1.00  0.00    -0.356 N 
ATOM      3  C   UNL A   1      34.292  21.227  26.443  1.00  0.00     0.224 C 
ATOM      4  O   UNL A   1      34.057  21.299  27.654  1.00  0.00    -0.275 OA
ATOM      5  H   UNL A   1      35.723  22.585  26.647  1.00  0.00     0.163 HD
BRANCH   3   6
ATOM      6  C   UNL A   1      33.385  20.385  25.546  1.00  0.00     0.098 C 
BRANCH   6   7
ATOM      7  C   UNL A   1      33.962  19.333  24.562  1.00  0.00     0.018 C 
BRANCH   7   8
ATOM      8  C   UNL A   1      33.854  17.812  24.777  1.00  0.00    -0.017 C 
ATOM      9  C   UNL A   1      32.552  17.369  25.448  1.00  0.00     0.007 C 
ATOM     10  C   UNL A   1      33.958  17.099  23.419  1.00  0.00     0.007 C 
ENDBRANCH   7   8
ENDBRANCH   6   7
BRANCH   6  11
ATOM     11  C   UNL A   1      32.130  21.150  25.048  1.00  0.00     0.129 C 
BRANCH  11  12
ATOM     12  N   UNL A   1      31.528  22.079  25.987  1.00  0.00    -0.351 N 
ATOM     13  C   UNL A   1      31.680  23.434  26.110  1.00  0.00     0.255 C 
ATOM     14  H   UNL A   1      30.913  21.670  26.639  1.00  0.00     0.163 HD
ATOM     15  O   UNL A   1      31.414  24.000  27.167  1.00  0.00    -0.269 OA
BRANCH  13  16
ATOM     16  C   UNL A   1      32.215  24.237  25.006  1.00  0.00     0.081 A 
ATOM     17  C   UNL A   1      33.511  24.756  25.092  1.00  0.00     0.021 A 
ATOM     18  C   UNL A   1      31.473  24.381  23.828  1.00  0.00     0.132 A 
ATOM     19  C   UNL A   1      34.046  25.458  24.011  1.00  0.00     0.047 A 
ATOM     20  C   UNL A   1      31.992  25.106  22.763  1.00  0.00     0.093 A 
ATOM     21  C   UNL A   1      33.279  25.632  22.860  1.00  0.00     0.119 A 
BRANCH  18  22
ATOM     22  O   UNL A   1      30.239  23.813  23.664  1.00  0.00    -0.507 OA
ATOM     23  H   UNL A   1      29.534  24.318  23.310  1.00  0.00     0.293 HD
ENDBRANCH  18  22
BRANCH  21  24
ATOM     24  O   UNL A   1      33.771  26.305  21.781  1.00  0.00    -0.508 OA
ATOM     25  H   UNL A   1      34.249  27.101  21.905  1.00  0.00     0.293 HD
ENDBRANCH  21  24
ENDBRANCH  13  16
ENDBRANCH  11  12
ENDBRANCH   6  11
ENDBRANCH   3   6
ENDBRANCH   1   2
BRANCH   1  26
ATOM     26  C   UNL A   1      37.500  21.998  24.791  1.00  0.00     0.023 C 
BRANCH  26  27
ATOM     27  C   UNL A   1      38.133  20.636  25.042  1.00  0.00     0.023 C 
BRANCH  27  28
ATOM     28  C   UNL A   1      39.324  20.644  25.992  1.00  0.00     0.116 C 
BRANCH  28  29
ATOM     29  N   UNL A   1      40.140  19.438  25.932  1.00  0.00    -0.352 N 
ATOM     30  C   UNL A   1      41.500  19.310  26.104  1.00  0.00     0.251 C 
ATOM     31  H   UNL A   1      39.653  18.603  25.743  1.00  0.00     0.163 HD
ATOM     32  O   UNL A   1      42.063  18.238  25.955  1.00  0.00    -0.269 OA
BRANCH  30  33
ATOM     33  C   UNL A   1      42.275  20.523  26.425  1.00  0.00     0.039 A 
ATOM     34  C   UNL A   1      42.851  21.250  25.382  1.00  0.00     0.014 A 
ATOM     35  C   UNL A   1      42.319  20.993  27.739  1.00  0.00     0.014 A 
ATOM     36  C   UNL A   1      43.395  22.507  25.646  1.00  0.00     0.010 A 
ATOM     37  C   UNL A   1      42.782  22.278  27.985  1.00  0.00     0.010 A 
ATOM     38  C   UNL A   1      43.314  23.050  26.939  1.00  0.00    -0.014 A 
BRANCH  38  39
ATOM     39  C   UNL A   1      43.775  24.429  27.228  1.00  0.00     0.031 A 
ATOM     40  C   UNL A   1      42.803  25.439  27.764  1.00  0.00     0.074 A 
ATOM     41  C   UNL A   1      45.034  24.794  26.918  1.00  0.00     0.049 A 
ATOM     42  N   UNL A   1      42.967  26.721  27.967  1.00  0.00    -0.248 NA
ATOM     43  C   UNL A   1      41.449  24.950  28.072  1.00  0.00     0.031 C 
ATOM     44  C   UNL A   1      46.052  23.919  26.331  1.00  0.00     0.029 A 
ATOM     45  N   UNL A   1      45.670  26.004  27.040  1.00  0.00    -0.354 N 
ATOM     46  C   UNL A   1      41.733  27.194  28.389  1.00  0.00     0.074 A 
ATOM     47  C   UNL A   1      40.816  26.075  28.370  1.00  0.00     0.031 C 
ATOM     48  C   UNL A   1      47.191  24.614  26.172  1.00  0.00     0.029 A 
ATOM     49  C   UNL A   1      46.975  25.988  26.611  1.00  0.00     0.049 A 
ATOM     50  H   UNL A   1      45.231  26.808  27.401  1.00  0.00     0.167 HD
ATOM     51  C   UNL A   1      41.400  28.446  28.781  1.00  0.00     0.037 A 
ATOM     52  C   UNL A   1      47.890  26.974  26.578  1.00  0.00     0.037 A 
ATOM     53  C   UNL A   1      42.328  29.541  28.857  1.00  0.00     0.049 A 
ATOM     54  C   UNL A   1      47.508  28.344  27.070  1.00  0.00     0.074 A 
ATOM     55  C   UNL A   1      42.113  30.825  29.324  1.00  0.00     0.029 A 
ATOM     56  N   UNL A   1      43.657  29.472  28.466  1.00  0.00    -0.354 N 
ATOM     57  N   UNL A   1      46.355  28.765  27.531  1.00  0.00    -0.248 NA
ATOM     58  C   UNL A   1      48.556  29.374  27.041  1.00  0.00     0.031 C 
ATOM     59  C   UNL A   1      43.306  31.543  29.190  1.00  0.00     0.029 A 
ATOM     60  C   UNL A   1      44.272  30.695  28.671  1.00  0.00     0.049 A 
ATOM     61  H   UNL A   1      44.097  28.672  28.096  1.00  0.00     0.167 HD
ATOM     62  C   UNL A   1      46.544  30.096  27.872  1.00  0.00     0.074 A 
ATOM     63  C   UNL A   1      47.927  30.412  27.575  1.00  0.00     0.031 C 
ATOM     64  C   UNL A   1      45.654  30.980  28.384  1.00  0.00     0.037 A 
BRANCH  51  65
ATOM     65  C   UNL A   1      39.972  28.690  29.171  1.00  0.00     0.064 A 
ATOM     66  C   UNL A   1      39.027  29.153  28.244  1.00  0.00     0.173 A 
ATOM     67  C   UNL A   1      39.541  28.441  30.482  1.00  0.00     0.173 A 
ATOM     68  F   UNL A   1      39.394  29.421  26.982  1.00  0.00    -0.203 F 
ATOM     69  C   UNL A   1      37.708  29.386  28.623  1.00  0.00     0.198 A 
ATOM     70  C   UNL A   1      38.215  28.648  30.851  1.00  0.00     0.198 A 
ATOM     71  F   UNL A   1      40.405  27.995  31.406  1.00  0.00    -0.203 F 
ATOM     72  F   UNL A   1      36.834  29.878  27.734  1.00  0.00    -0.200 F 
ATOM     73  C   UNL A   1      37.301  29.129  29.924  1.00  0.00     0.200 A 
ATOM     74  F   UNL A   1      37.820  28.391  32.106  1.00  0.00    -0.200 F 
ATOM     75  F   UNL A   1      36.031  29.352  30.287  1.00  0.00    -0.200 F 
ENDBRANCH  51  65
BRANCH  52  76
ATOM     76  C   UNL A   1      49.268  26.696  26.102  1.00  0.00     0.064 A 
ATOM     77  C   UNL A   1      50.230  26.166  26.975  1.00  0.00     0.173 A 
ATOM     78  C   UNL A   1      49.655  26.952  24.780  1.00  0.00     0.173 A 
ATOM     79  F   UNL A   1      49.911  25.924  28.254  1.00  0.00    -0.203 F 
ATOM     80  C   UNL A   1      51.533  25.922  26.547  1.00  0.00     0.198 A 
ATOM     81  C   UNL A   1      50.953  26.685  24.347  1.00  0.00     0.198 A 
ATOM     82  F   UNL A   1      48.771  27.454  23.906  1.00  0.00    -0.203 F 
ATOM     83  F   UNL A   1      52.443  25.454  27.412  1.00  0.00    -0.200 F 
ATOM     84  C   UNL A   1      51.892  26.178  25.232  1.00  0.00     0.200 A 
ATOM     85  F   UNL A   1      51.295  26.924  23.074  1.00  0.00    -0.200 F 
ATOM     86  F   UNL A   1      53.146  25.942  24.820  1.00  0.00    -0.200 F 
ENDBRANCH  52  76
BRANCH  64  87
ATOM     87  C   UNL A   1      46.155  32.358  28.690  1.00  0.00     0.064 A 
ATOM     88  C   UNL A   1      46.088  33.389  27.743  1.00  0.00     0.173 A 
ATOM     89  C   UNL A   1      46.665  32.661  29.961  1.00  0.00     0.173 A 
ATOM     90  F   UNL A   1      45.622  33.143  26.509  1.00  0.00    -0.203 F 
ATOM     91  C   UNL A   1      46.530  34.672  28.053  1.00  0.00     0.198 A 
ATOM     92  C   UNL A   1      47.083  33.950  30.275  1.00  0.00     0.198 A 
ATOM     93  F   UNL A   1      46.745  31.707  30.902  1.00  0.00    -0.203 F 
ATOM     94  F   UNL A   1      46.491  35.635  27.122  1.00  0.00    -0.200 F 
ATOM     95  C   UNL A   1      47.020  34.952  29.320  1.00  0.00     0.200 A 
ATOM     96  F   UNL A   1      47.548  34.221  31.503  1.00  0.00    -0.200 F 
ATOM     97  F   UNL A   1      47.438  36.190  29.619  1.00  0.00    -0.200 F 
ENDBRANCH  64  87
ENDBRANCH  38  39
ENDBRANCH  30  33
ENDBRANCH  28  29
ENDBRANCH  27  28
ENDBRANCH  26  27
ENDBRANCH   1  26
TORSDOF 18
ENDMDL
MODEL 3
REMARK VINA RESULT:     -12.0      5.778     10.179
REMARK SMILES CC(C)C[C@H](CNC(=O)c1ccc(O)cc1O)C(=O)NCCCCNC(=O)c1ccc(-c2c3nc(c(-c4c(F)c(F)c(F)c(F)c4F)c4ccc([nH]4)c(-c4c(F)c(F)c(F)c(F)c4F)c4nc(c(-c5c(F)c(F)c(F)c(F)c5F)c5ccc2[nH]5)C=C4)C=C3)cc1
REMARK SMILES IDX 21 1 20 2 18 3 19 4 5 6 4 7 2 8 1 9 3 10 6 11 7 12 8 13 9 15
REMARK SMILES IDX 10 16 11 17 16 18 12 19 15 20 13 21 17 22 14 24 22 26 23 27
REMARK SMILES IDX 24 28 25 29 26 30 27 32 28 33 29 34 90 35 30 36 89 37 31 38
REMARK SMILES IDX 32 39 33 40 83 41 34 42 88 43 82 44 84 45 35 46 87 47 81 48
REMARK SMILES IDX 80 49 36 51 68 52 48 53 67 54 49 55 52 56 66 57 85 58 50 59
REMARK SMILES IDX 51 60 65 62 86 63 53 64 37 65 38 66 46 67 39 68 40 69 44 70
REMARK SMILES IDX 47 71 41 72 42 73 45 74 43 75 69 76 70 77 78 78 71 79 72 80
REMARK SMILES IDX 76 81 79 82 73 83 74 84 77 85 75 86 54 87 55 88 63 89 56 90
REMARK SMILES IDX 57 91 61 92 64 93 58 94 59 95 62 96 60 97
REMARK H PARENT 20 5 7 14 17 23 14 25 25 31 84 50 52 61
REMARK Flexibility Score: inf
ROOT
ATOM      1  C   UNL A   1      35.861  22.000  24.548  1.00  0.00     0.116 C 
ENDROOT
BRANCH   1   2
ATOM      2  N   UNL A   1      35.266  22.006  25.866  1.00  0.00    -0.356 N 
ATOM      3  C   UNL A   1      34.268  21.246  26.385  1.00  0.00     0.224 C 
ATOM      4  O   UNL A   1      34.072  21.355  27.600  1.00  0.00    -0.275 OA
ATOM      5  H   UNL A   1      35.644  22.670  26.486  1.00  0.00     0.163 HD
BRANCH   3   6
ATOM      6  C   UNL A   1      33.369  20.331  25.554  1.00  0.00     0.098 C 
BRANCH   6   7
ATOM      7  C   UNL A   1      33.953  19.180  24.691  1.00  0.00     0.018 C 
BRANCH   7   8
ATOM      8  C   UNL A   1      33.123  17.986  24.185  1.00  0.00    -0.017 C 
ATOM      9  C   UNL A   1      32.457  18.222  22.827  1.00  0.00     0.007 C 
ATOM     10  C   UNL A   1      34.032  16.752  24.062  1.00  0.00     0.007 C 
ENDBRANCH   7   8
ENDBRANCH   6   7
BRANCH   6  11
ATOM     11  C   UNL A   1      32.137  21.058  24.954  1.00  0.00     0.129 C 
BRANCH  11  12
ATOM     12  N   UNL A   1      31.486  22.033  25.810  1.00  0.00    -0.351 N 
ATOM     13  C   UNL A   1      31.606  23.396  25.847  1.00  0.00     0.255 C 
ATOM     14  H   UNL A   1      30.859  21.655  26.467  1.00  0.00     0.163 HD
ATOM     15  O   UNL A   1      31.294  24.025  26.854  1.00  0.00    -0.269 OA
BRANCH  13  16
ATOM     16  C   UNL A   1      32.161  24.137  24.709  1.00  0.00     0.081 A 
ATOM     17  C   UNL A   1      31.403  24.286  23.543  1.00  0.00     0.021 A 
ATOM     18  C   UNL A   1      33.393  24.787  24.838  1.00  0.00     0.132 A 
ATOM     19  C   UNL A   1      31.901  25.052  22.489  1.00  0.00     0.047 A 
ATOM     20  C   UNL A   1      33.905  25.525  23.778  1.00  0.00     0.093 A 
ATOM     21  C   UNL A   1      33.150  25.658  22.615  1.00  0.00     0.119 A 
BRANCH  18  22
ATOM     22  O   UNL A   1      34.128  24.746  25.992  1.00  0.00    -0.507 OA
ATOM     23  H   UNL A   1      34.023  25.416  26.638  1.00  0.00     0.293 HD
ENDBRANCH  18  22
BRANCH  21  24
ATOM     24  O   UNL A   1      33.666  26.421  21.609  1.00  0.00    -0.508 OA
ATOM     25  H   UNL A   1      33.655  27.355  21.677  1.00  0.00     0.293 HD
ENDBRANCH  21  24
ENDBRANCH  13  16
ENDBRANCH  11  12
ENDBRANCH   6  11
ENDBRANCH   3   6
ENDBRANCH   1   2
BRANCH   1  26
ATOM     26  C   UNL A   1      37.383  21.941  24.593  1.00  0.00     0.023 C 
BRANCH  26  27
ATOM     27  C   UNL A   1      37.950  20.612  25.073  1.00  0.00     0.023 C 
BRANCH  27  28
ATOM     28  C   UNL A   1      39.238  20.714  25.881  1.00  0.00     0.116 C 
BRANCH  28  29
ATOM     29  N   UNL A   1      40.042  19.499  25.873  1.00  0.00    -0.352 N 
ATOM     30  C   UNL A   1      41.395  19.361  26.087  1.00  0.00     0.251 C 
ATOM     31  H   UNL A   1      39.552  18.664  25.691  1.00  0.00     0.163 HD
ATOM     32  O   UNL A   1      41.950  18.280  25.981  1.00  0.00    -0.269 OA
BRANCH  30  33
ATOM     33  C   UNL A   1      42.174  20.574  26.400  1.00  0.00     0.039 A 
ATOM     34  C   UNL A   1      42.670  21.345  25.350  1.00  0.00     0.014 A 
ATOM     35  C   UNL A   1      42.299  20.997  27.726  1.00  0.00     0.014 A 
ATOM     36  C   UNL A   1      43.214  22.600  25.623  1.00  0.00     0.010 A 
ATOM     37  C   UNL A   1      42.760  22.279  27.987  1.00  0.00     0.010 A 
ATOM     38  C   UNL A   1      43.212  23.096  26.937  1.00  0.00    -0.014 A 
BRANCH  38  39
ATOM     39  C   UNL A   1      43.673  24.471  27.245  1.00  0.00     0.031 A 
ATOM     40  C   UNL A   1      42.695  25.482  27.770  1.00  0.00     0.074 A 
ATOM     41  C   UNL A   1      44.940  24.833  26.962  1.00  0.00     0.049 A 
ATOM     42  N   UNL A   1      42.861  26.761  27.985  1.00  0.00    -0.248 NA
ATOM     43  C   UNL A   1      41.334  24.996  28.048  1.00  0.00     0.031 C 
ATOM     44  C   UNL A   1      45.965  23.957  26.388  1.00  0.00     0.029 A 
ATOM     45  N   UNL A   1      45.578  26.038  27.105  1.00  0.00    -0.354 N 
ATOM     46  C   UNL A   1      41.621  27.236  28.388  1.00  0.00     0.074 A 
ATOM     47  C   UNL A   1      40.701  26.122  28.343  1.00  0.00     0.031 C 
ATOM     48  C   UNL A   1      47.109  24.649  26.256  1.00  0.00     0.029 A 
ATOM     49  C   UNL A   1      46.891  26.020  26.701  1.00  0.00     0.049 A 
ATOM     50  H   UNL A   1      45.136  26.842  27.464  1.00  0.00     0.167 HD
ATOM     51  C   UNL A   1      41.286  28.487  28.783  1.00  0.00     0.037 A 
ATOM     52  C   UNL A   1      47.810  27.003  26.693  1.00  0.00     0.037 A 
ATOM     53  C   UNL A   1      42.217  29.577  28.885  1.00  0.00     0.049 A 
ATOM     54  C   UNL A   1      47.425  28.371  27.188  1.00  0.00     0.074 A 
ATOM     55  C   UNL A   1      41.999  30.858  29.357  1.00  0.00     0.029 A 
ATOM     56  N   UNL A   1      43.553  29.505  28.518  1.00  0.00    -0.354 N 
ATOM     57  N   UNL A   1      46.266  28.793  27.630  1.00  0.00    -0.248 NA
ATOM     58  C   UNL A   1      48.478  29.396  27.188  1.00  0.00     0.031 C 
ATOM     59  C   UNL A   1      43.197  31.572  29.251  1.00  0.00     0.029 A 
ATOM     60  C   UNL A   1      44.170  30.724  28.745  1.00  0.00     0.049 A 
ATOM     61  H   UNL A   1      43.996  28.706  28.151  1.00  0.00     0.167 HD
ATOM     62  C   UNL A   1      46.454  30.121  27.985  1.00  0.00     0.074 A 
ATOM     63  C   UNL A   1      47.844  30.433  27.717  1.00  0.00     0.031 C 
ATOM     64  C   UNL A   1      45.558  31.005  28.486  1.00  0.00     0.037 A 
BRANCH  51  65
ATOM     65  C   UNL A   1      39.852  28.734  29.147  1.00  0.00     0.064 A 
ATOM     66  C   UNL A   1      39.378  28.519  30.450  1.00  0.00     0.173 A 
ATOM     67  C   UNL A   1      38.946  29.207  28.187  1.00  0.00     0.173 A 
ATOM     68  F   UNL A   1      40.202  28.051  31.399  1.00  0.00    -0.203 F 
ATOM     69  C   UNL A   1      38.042  28.741  30.770  1.00  0.00     0.198 A 
ATOM     70  C   UNL A   1      37.617  29.455  28.518  1.00  0.00     0.198 A 
ATOM     71  F   UNL A   1      39.350  29.431  26.927  1.00  0.00    -0.203 F 
ATOM     72  F   UNL A   1      37.599  28.478  32.008  1.00  0.00    -0.200 F 
ATOM     73  C   UNL A   1      37.163  29.213  29.806  1.00  0.00     0.200 A 
ATOM     74  F   UNL A   1      36.771  29.920  27.588  1.00  0.00    -0.200 F 
ATOM     75  F   UNL A   1      35.878  29.428  30.117  1.00  0.00    -0.200 F 
ENDBRANCH  51  65
BRANCH  52  76
ATOM     76  C   UNL A   1      49.197  26.721  26.242  1.00  0.00     0.064 A 
ATOM     77  C   UNL A   1      49.576  26.957  24.912  1.00  0.00     0.173 A 
ATOM     78  C   UNL A   1      50.165  26.211  27.117  1.00  0.00     0.173 A 
ATOM     79  F   UNL A   1      48.677  27.426  24.035  1.00  0.00    -0.203 F 
ATOM     80  C   UNL A   1      50.866  26.676  24.471  1.00  0.00     0.198 A 
ATOM     81  C   UNL A   1      51.463  25.951  26.679  1.00  0.00     0.198 A 
ATOM     82  F   UNL A   1      49.854  25.973  28.399  1.00  0.00    -0.203 F 
ATOM     83  F   UNL A   1      51.190  26.873  23.186  1.00  0.00    -0.200 F 
ATOM     84  C   UNL A   1      51.810  26.177  25.356  1.00  0.00     0.200 A 
ATOM     85  F   UNL A   1      52.376  25.480  27.539  1.00  0.00    -0.200 F 
ATOM     86  F   UNL A   1      53.052  25.906  24.931  1.00  0.00    -0.200 F 
ENDBRANCH  52  76
BRANCH  64  87
ATOM     87  C   UNL A   1      46.059  32.378  28.812  1.00  0.00     0.064 A 
ATOM     88  C   UNL A   1      46.609  32.679  30.066  1.00  0.00     0.173 A 
ATOM     89  C   UNL A   1      46.032  33.391  27.842  1.00  0.00     0.173 A 
ATOM     90  F   UNL A   1      46.643  31.746  31.030  1.00  0.00    -0.203 F 
ATOM     91  C   UNL A   1      47.099  33.952  30.343  1.00  0.00     0.198 A 
ATOM     92  C   UNL A   1      46.544  34.656  28.115  1.00  0.00     0.198 A 
ATOM     93  F   UNL A   1      45.519  33.149  26.626  1.00  0.00    -0.203 F 
ATOM     94  F   UNL A   1      47.587  34.229  31.560  1.00  0.00    -0.200 F 
ATOM     95  C   UNL A   1      47.072  34.936  29.366  1.00  0.00     0.200 A 
ATOM     96  F   UNL A   1      46.526  35.603  27.167  1.00  0.00    -0.200 F 
ATOM     97  F   UNL A   1      47.551  36.159  29.632  1.00  0.00    -0.200 F 
ENDBRANCH  64  87
ENDBRANCH  38  39
ENDBRANCH  30  33
ENDBRANCH  28  29
ENDBRANCH  27  28
ENDBRANCH  26  27
ENDBRANCH   1  26
TORSDOF 18
ENDMDL
