MODEL 1
REMARK VINA RESULT:     -12.5      0.000      0.000
REMARK SMILES C[C@@H](Nc1cccc(C(=O)NCCCCNC(=O)c2ccc(-c3c4nc(c(-c5c(F)c(F)c(F)c(F)c5F)c5ccc([nH]5)c(-c5c(F)c(F)c(F)c(F)c5F)c5nc(c(-c6c(F)c(F)c(F)c(F)c6F)c6ccc3[nH]6)C=C5)C=C4)cc2)c1)C1CC[NH+](C)CC1
REMARK SMILES IDX 13 1 12 2 11 3 9 4 10 5 8 7 4 8 5 9 82 10 6 11 7 12 3 13
REMARK SMILES IDX 2 15 1 16 83 17 84 18 89 19 85 20 88 21 86 22 87 23 14 25
REMARK SMILES IDX 15 26 16 27 17 28 18 30 19 31 20 32 81 33 21 34 80 35 22 36
REMARK SMILES IDX 23 37 24 38 74 39 25 40 79 41 73 42 75 43 26 44 78 45 72 46
REMARK SMILES IDX 71 47 27 49 59 50 39 51 58 52 40 53 43 54 57 55 76 56 41 57
REMARK SMILES IDX 42 58 56 60 77 61 44 62 28 63 29 64 37 65 30 66 31 67 35 68
REMARK SMILES IDX 38 69 32 70 33 71 36 72 34 73 60 74 61 75 69 76 62 77 63 78
REMARK SMILES IDX 67 79 70 80 64 81 65 82 68 83 66 84 45 85 46 86 54 87 47 88
REMARK SMILES IDX 48 89 52 90 55 91 49 92 50 93 53 94 51 95
REMARK H PARENT 11 6 3 14 86 24 16 29 75 48 43 59
REMARK Flexibility Score: inf
ROOT
ATOM      1  C   UNL A   1      31.512  30.818  26.122  1.00  0.00     0.023 C 
ENDROOT
BRANCH   1   2
ATOM      2  C   UNL A   1      31.766  29.776  27.213  1.00  0.00     0.116 C 
BRANCH   2   3
ATOM      3  N   UNL A   1      33.182  29.520  27.402  1.00  0.00    -0.352 N 
ATOM      4  C   UNL A   1      34.094  28.701  26.786  1.00  0.00     0.251 C 
ATOM      5  O   UNL A   1      35.268  28.764  27.154  1.00  0.00    -0.269 OA
ATOM      6  H   UNL A   1      33.573  30.051  28.133  1.00  0.00     0.163 HD
BRANCH   4   7
ATOM      7  C   UNL A   1      33.805  27.823  25.637  1.00  0.00     0.041 A 
ATOM      8  C   UNL A   1      33.365  25.068  24.140  1.00  0.00     0.035 A 
ATOM      9  C   UNL A   1      33.489  25.922  22.529  1.00  0.00     0.026 A 
ATOM     10  C   UNL A   1      33.687  25.986  25.693  1.00  0.00     0.039 A 
ATOM     11  C   UNL A   1      33.744  27.728  22.480  1.00  0.00     0.003 A 
ATOM     12  C   UNL A   1      33.833  28.671  24.036  1.00  0.00     0.014 A 
BRANCH   8  13
ATOM     13  N   UNL A   1      32.594  23.898  24.155  1.00  0.00    -0.382 N 
ATOM     14  H   UNL A   1      31.622  23.973  24.297  1.00  0.00     0.160 HD
BRANCH  13  15
ATOM     15  C   UNL A   1      33.189  22.536  23.968  1.00  0.00     0.079 C 
ATOM     16  C   UNL A   1      32.649  21.964  22.643  1.00  0.00     0.031 C 
BRANCH  15  17
ATOM     17  C   UNL A   1      33.146  21.372  25.021  1.00  0.00     0.022 C 
ATOM     18  C   UNL A   1      33.138  21.692  26.505  1.00  0.00     0.067 C 
ATOM     19  C   UNL A   1      34.176  20.290  24.904  1.00  0.00     0.067 C 
ATOM     20  C   UNL A   1      34.535  21.862  27.139  1.00  0.00     0.262 C 
ATOM     21  C   UNL A   1      35.545  20.867  25.193  1.00  0.00     0.262 C 
ATOM     22  N   UNL A   1      35.748  22.151  26.156  1.00  0.00    -0.337 N 
ATOM     23  C   UNL A   1      37.032  23.785  25.970  1.00  0.00     0.332 C 
ATOM     24  H   UNL A   1      36.566  22.727  26.350  1.00  0.00     0.347 HD
ENDBRANCH  15  17
ENDBRANCH  13  15
ENDBRANCH   8  13
ENDBRANCH   4   7
ENDBRANCH   2   3
ENDBRANCH   1   2
BRANCH   1  25
ATOM     25  C   UNL A   1      31.317  32.221  26.682  1.00  0.00     0.023 C 
BRANCH  25  26
ATOM     26  C   UNL A   1      32.641  32.921  26.945  1.00  0.00     0.116 C 
BRANCH  26  27
ATOM     27  N   UNL A   1      32.504  34.166  27.691  1.00  0.00    -0.352 N 
ATOM     28  C   UNL A   1      33.314  34.604  28.716  1.00  0.00     0.251 C 
ATOM     29  H   UNL A   1      31.756  34.753  27.438  1.00  0.00     0.163 HD
ATOM     30  O   UNL A   1      33.064  35.623  29.347  1.00  0.00    -0.269 OA
BRANCH  28  31
ATOM     31  C   UNL A   1      34.479  33.767  29.068  1.00  0.00     0.039 A 
ATOM     32  C   UNL A   1      35.763  34.237  28.793  1.00  0.00     0.014 A 
ATOM     33  C   UNL A   1      34.287  32.595  29.803  1.00  0.00     0.014 A 
ATOM     34  C   UNL A   1      36.864  33.561  29.321  1.00  0.00     0.010 A 
ATOM     35  C   UNL A   1      35.377  31.983  30.408  1.00  0.00     0.010 A 
ATOM     36  C   UNL A   1      36.678  32.453  30.167  1.00  0.00    -0.014 A 
BRANCH  36  37
ATOM     37  C   UNL A   1      37.832  31.750  30.783  1.00  0.00     0.031 A 
ATOM     38  C   UNL A   1      38.246  32.096  32.187  1.00  0.00     0.074 A 
ATOM     39  C   UNL A   1      38.536  30.849  30.071  1.00  0.00     0.049 A 
ATOM     40  N   UNL A   1      39.250  31.641  32.892  1.00  0.00    -0.248 NA
ATOM     41  C   UNL A   1      37.443  33.117  32.881  1.00  0.00     0.031 C 
ATOM     42  C   UNL A   1      38.271  30.469  28.682  1.00  0.00     0.029 A 
ATOM     43  N   UNL A   1      39.625  30.088  30.418  1.00  0.00    -0.354 N 
ATOM     44  C   UNL A   1      39.205  32.329  34.098  1.00  0.00     0.074 A 
ATOM     45  C   UNL A   1      38.125  33.284  34.004  1.00  0.00     0.031 C 
ATOM     46  C   UNL A   1      39.151  29.527  28.307  1.00  0.00     0.029 A 
ATOM     47  C   UNL A   1      40.064  29.259  29.414  1.00  0.00     0.049 A 
ATOM     48  H   UNL A   1      40.052  30.133  31.304  1.00  0.00     0.167 HD
ATOM     49  C   UNL A   1      39.972  32.156  35.199  1.00  0.00     0.037 A 
ATOM     50  C   UNL A   1      41.088  28.384  29.393  1.00  0.00     0.037 A 
ATOM     51  C   UNL A   1      41.026  31.182  35.300  1.00  0.00     0.049 A 
ATOM     52  C   UNL A   1      41.927  28.209  30.632  1.00  0.00     0.074 A 
ATOM     53  C   UNL A   1      41.826  30.888  36.390  1.00  0.00     0.029 A 
ATOM     54  N   UNL A   1      41.425  30.343  34.270  1.00  0.00    -0.354 N 
ATOM     55  N   UNL A   1      41.826  28.812  31.793  1.00  0.00    -0.248 NA
ATOM     56  C   UNL A   1      43.016  27.225  30.562  1.00  0.00     0.031 C 
ATOM     57  C   UNL A   1      42.743  29.905  36.003  1.00  0.00     0.029 A 
ATOM     58  C   UNL A   1      42.474  29.544  34.693  1.00  0.00     0.049 A 
ATOM     59  H   UNL A   1      41.022  30.320  33.372  1.00  0.00     0.167 HD
ATOM     60  C   UNL A   1      42.810  28.254  32.600  1.00  0.00     0.074 A 
ATOM     61  C   UNL A   1      43.488  27.257  31.800  1.00  0.00     0.031 C 
ATOM     62  C   UNL A   1      43.124  28.542  33.887  1.00  0.00     0.037 A 
BRANCH  49  63
ATOM     63  C   UNL A   1      39.689  33.032  36.386  1.00  0.00     0.064 A 
ATOM     64  C   UNL A   1      40.368  34.244  36.586  1.00  0.00     0.173 A 
ATOM     65  C   UNL A   1      38.711  32.668  37.323  1.00  0.00     0.173 A 
ATOM     66  F   UNL A   1      41.325  34.632  35.728  1.00  0.00    -0.203 F 
ATOM     67  C   UNL A   1      40.101  35.042  37.695  1.00  0.00     0.198 A 
ATOM     68  C   UNL A   1      38.422  33.485  38.412  1.00  0.00     0.198 A 
ATOM     69  F   UNL A   1      38.030  31.521  37.179  1.00  0.00    -0.203 F 
ATOM     70  F   UNL A   1      40.804  36.165  37.894  1.00  0.00    -0.200 F 
ATOM     71  C   UNL A   1      39.122  34.666  38.602  1.00  0.00     0.200 A 
ATOM     72  F   UNL A   1      37.466  33.128  39.280  1.00  0.00    -0.200 F 
ATOM     73  F   UNL A   1      38.862  35.439  39.665  1.00  0.00    -0.200 F 
ENDBRANCH  49  63
BRANCH  50  74
ATOM     74  C   UNL A   1      41.362  27.578  28.172  1.00  0.00     0.064 A 
ATOM     75  C   UNL A   1      40.698  26.364  27.945  1.00  0.00     0.173 A 
ATOM     76  C   UNL A   1      42.307  27.989  27.221  1.00  0.00     0.173 A 
ATOM     77  F   UNL A   1      39.799  25.916  28.835  1.00  0.00    -0.203 F 
ATOM     78  C   UNL A   1      40.989  25.578  26.831  1.00  0.00     0.198 A 
ATOM     79  C   UNL A   1      42.574  27.219  26.091  1.00  0.00     0.198 A 
ATOM     80  F   UNL A   1      42.967  29.145  27.386  1.00  0.00    -0.203 F 
ATOM     81  F   UNL A   1      40.380  24.396  26.670  1.00  0.00    -0.200 F 
ATOM     82  C   UNL A   1      41.924  26.009  25.902  1.00  0.00     0.200 A 
ATOM     83  F   UNL A   1      43.468  27.645  25.188  1.00  0.00    -0.200 F 
ATOM     84  F   UNL A   1      42.204  25.253  24.832  1.00  0.00    -0.200 F 
ENDBRANCH  50  74
BRANCH  62  85
ATOM     85  C   UNL A   1      44.213  27.732  34.531  1.00  0.00     0.064 A 
ATOM     86  C   UNL A   1      45.548  28.159  34.538  1.00  0.00     0.173 A 
ATOM     87  C   UNL A   1      43.903  26.531  35.190  1.00  0.00     0.173 A 
ATOM     88  F   UNL A   1      45.899  29.293  33.912  1.00  0.00    -0.203 F 
ATOM     89  C   UNL A   1      46.538  27.398  35.155  1.00  0.00     0.198 A 
ATOM     90  C   UNL A   1      44.889  25.793  35.835  1.00  0.00     0.198 A 
ATOM     91  F   UNL A   1      42.638  26.083  35.221  1.00  0.00    -0.203 F 
ATOM     92  F   UNL A   1      47.817  27.798  35.103  1.00  0.00    -0.200 F 
ATOM     93  C   UNL A   1      46.207  26.221  35.809  1.00  0.00     0.200 A 
ATOM     94  F   UNL A   1      44.564  24.665  36.482  1.00  0.00    -0.200 F 
ATOM     95  F   UNL A   1      47.160  25.496  36.409  1.00  0.00    -0.200 F 
ENDBRANCH  62  85
ENDBRANCH  36  37
ENDBRANCH  28  31
ENDBRANCH  26  27
ENDBRANCH  25  26
ENDBRANCH   1  25
TORSDOF 14
ENDMDL
MODEL 2
REMARK VINA RESULT:     -12.2      5.077     10.753
REMARK SMILES C[C@@H](Nc1cccc(C(=O)NCCCCNC(=O)c2ccc(-c3c4nc(c(-c5c(F)c(F)c(F)c(F)c5F)c5ccc([nH]5)c(-c5c(F)c(F)c(F)c(F)c5F)c5nc(c(-c6c(F)c(F)c(F)c(F)c6F)c6ccc3[nH]6)C=C5)C=C4)cc2)c1)C1CC[NH+](C)CC1
REMARK SMILES IDX 13 1 12 2 11 3 9 4 10 5 8 7 4 8 5 9 82 10 6 11 7 12 3 13
REMARK SMILES IDX 2 15 1 16 83 17 84 18 89 19 85 20 88 21 86 22 87 23 14 25
REMARK SMILES IDX 15 26 16 27 17 28 18 30 19 31 20 32 81 33 21 34 80 35 22 36
REMARK SMILES IDX 23 37 24 38 74 39 25 40 79 41 73 42 75 43 26 44 78 45 72 46
REMARK SMILES IDX 71 47 27 49 59 50 39 51 58 52 40 53 43 54 57 55 76 56 41 57
REMARK SMILES IDX 42 58 56 60 77 61 44 62 28 63 29 64 37 65 30 66 31 67 35 68
REMARK SMILES IDX 38 69 32 70 33 71 36 72 34 73 60 74 61 75 69 76 62 77 63 78
REMARK SMILES IDX 67 79 70 80 64 81 65 82 68 83 66 84 45 85 46 86 54 87 47 88
REMARK SMILES IDX 48 89 52 90 55 91 49 92 50 93 53 94 51 95
REMARK H PARENT 11 6 3 14 86 24 16 29 75 48 43 59
REMARK Flexibility Score: inf
ROOT
ATOM      1  C   UNL A   1      37.184  21.749  24.482  1.00  0.00     0.023 C 
ENDROOT
BRANCH   1   2
ATOM      2  C   UNL A   1      36.626  22.677  25.562  1.00  0.00     0.116 C 
BRANCH   2   3
ATOM      3  N   UNL A   1      35.776  21.970  26.502  1.00  0.00    -0.352 N 
ATOM      4  C   UNL A   1      34.423  21.937  26.728  1.00  0.00     0.251 C 
ATOM      5  O   UNL A   1      33.999  21.163  27.587  1.00  0.00    -0.269 OA
ATOM      6  H   UNL A   1      36.281  21.385  27.113  1.00  0.00     0.163 HD
BRANCH   4   7
ATOM      7  C   UNL A   1      33.415  22.677  25.946  1.00  0.00     0.041 A 
ATOM      8  C   UNL A   1      31.017  24.692  25.488  1.00  0.00     0.035 A 
ATOM      9  C   UNL A   1      30.770  24.019  23.807  1.00  0.00     0.026 A 
ATOM     10  C   UNL A   1      32.229  23.914  26.620  1.00  0.00     0.039 A 
ATOM     11  C   UNL A   1      31.864  22.695  23.194  1.00  0.00     0.003 A 
ATOM     12  C   UNL A   1      33.219  22.083  24.244  1.00  0.00     0.014 A 
BRANCH   8  13
ATOM     13  N   UNL A   1      30.624  26.025  25.679  1.00  0.00    -0.382 N 
ATOM     14  H   UNL A   1      29.696  26.210  25.952  1.00  0.00     0.160 HD
BRANCH  13  15
ATOM     15  C   UNL A   1      31.559  27.178  25.482  1.00  0.00     0.079 C 
ATOM     16  C   UNL A   1      32.205  27.498  26.843  1.00  0.00     0.031 C 
BRANCH  15  17
ATOM     17  C   UNL A   1      31.182  28.551  24.819  1.00  0.00     0.022 C 
ATOM     18  C   UNL A   1      30.158  28.597  23.698  1.00  0.00     0.067 C 
ATOM     19  C   UNL A   1      32.301  29.404  24.303  1.00  0.00     0.067 C 
ATOM     20  C   UNL A   1      30.733  28.370  22.285  1.00  0.00     0.262 C 
ATOM     21  C   UNL A   1      32.962  28.710  23.132  1.00  0.00     0.262 C 
ATOM     22  N   UNL A   1      32.158  27.675  22.184  1.00  0.00    -0.337 N 
ATOM     23  C   UNL A   1      32.768  25.867  21.340  1.00  0.00     0.332 C 
ATOM     24  H   UNL A   1      32.477  27.043  21.450  1.00  0.00     0.347 HD
ENDBRANCH  15  17
ENDBRANCH  13  15
ENDBRANCH   8  13
ENDBRANCH   4   7
ENDBRANCH   2   3
ENDBRANCH   1   2
BRANCH   1  25
ATOM     25  C   UNL A   1      37.762  20.461  25.054  1.00  0.00     0.023 C 
BRANCH  25  26
ATOM     26  C   UNL A   1      39.071  20.699  25.792  1.00  0.00     0.116 C 
BRANCH  26  27
ATOM     27  N   UNL A   1      39.933  19.524  25.843  1.00  0.00    -0.352 N 
ATOM     28  C   UNL A   1      41.287  19.509  26.097  1.00  0.00     0.251 C 
ATOM     29  H   UNL A   1      39.505  18.654  25.679  1.00  0.00     0.163 HD
ATOM     30  O   UNL A   1      41.946  18.480  26.027  1.00  0.00    -0.269 OA
BRANCH  28  31
ATOM     31  C   UNL A   1      41.936  20.800  26.408  1.00  0.00     0.039 A 
ATOM     32  C   UNL A   1      42.240  21.676  25.367  1.00  0.00     0.014 A 
ATOM     33  C   UNL A   1      42.095  21.186  27.741  1.00  0.00     0.014 A 
ATOM     34  C   UNL A   1      42.642  22.979  25.669  1.00  0.00     0.010 A 
ATOM     35  C   UNL A   1      42.397  22.508  28.036  1.00  0.00     0.010 A 
ATOM     36  C   UNL A   1      42.684  23.418  27.004  1.00  0.00    -0.014 A 
BRANCH  36  37
ATOM     37  C   UNL A   1      43.057  24.813  27.346  1.00  0.00     0.031 A 
ATOM     38  C   UNL A   1      44.464  25.286  27.102  1.00  0.00     0.074 A 
ATOM     39  C   UNL A   1      42.157  25.634  27.921  1.00  0.00     0.049 A 
ATOM     40  N   UNL A   1      45.010  26.443  27.374  1.00  0.00    -0.248 NA
ATOM     41  C   UNL A   1      45.393  24.313  26.502  1.00  0.00     0.031 C 
ATOM     42  C   UNL A   1      40.779  25.278  28.263  1.00  0.00     0.029 A 
ATOM     43  N   UNL A   1      42.268  26.942  28.325  1.00  0.00    -0.354 N 
ATOM     44  C   UNL A   1      46.341  26.330  26.993  1.00  0.00     0.074 A 
ATOM     45  C   UNL A   1      46.541  24.971  26.543  1.00  0.00     0.031 C 
ATOM     46  C   UNL A   1      40.165  26.348  28.794  1.00  0.00     0.029 A 
ATOM     47  C   UNL A   1      41.113  27.456  28.863  1.00  0.00     0.049 A 
ATOM     48  H   UNL A   1      43.099  27.463  28.238  1.00  0.00     0.167 HD
ATOM     49  C   UNL A   1      47.303  27.282  26.986  1.00  0.00     0.037 A 
ATOM     50  C   UNL A   1      40.852  28.682  29.357  1.00  0.00     0.037 A 
ATOM     51  C   UNL A   1      47.091  28.641  27.405  1.00  0.00     0.049 A 
ATOM     52  C   UNL A   1      41.940  29.724  29.337  1.00  0.00     0.074 A 
ATOM     53  C   UNL A   1      47.984  29.699  27.386  1.00  0.00     0.029 A 
ATOM     54  N   UNL A   1      45.900  29.130  27.922  1.00  0.00    -0.354 N 
ATOM     55  N   UNL A   1      43.174  29.627  28.903  1.00  0.00    -0.248 NA
ATOM     56  C   UNL A   1      41.595  31.051  29.865  1.00  0.00     0.031 C 
ATOM     57  C   UNL A   1      47.347  30.815  27.937  1.00  0.00     0.029 A 
ATOM     58  C   UNL A   1      46.040  30.470  28.243  1.00  0.00     0.049 A 
ATOM     59  H   UNL A   1      45.077  28.603  28.043  1.00  0.00     0.167 HD
ATOM     60  C   UNL A   1      43.739  30.885  29.071  1.00  0.00     0.074 A 
ATOM     61  C   UNL A   1      42.708  31.732  29.633  1.00  0.00     0.031 C 
ATOM     62  C   UNL A   1      44.997  31.303  28.785  1.00  0.00     0.037 A 
BRANCH  49  63
ATOM     63  C   UNL A   1      48.667  26.886  26.497  1.00  0.00     0.064 A 
ATOM     64  C   UNL A   1      49.628  26.336  27.360  1.00  0.00     0.173 A 
ATOM     65  C   UNL A   1      49.010  27.037  25.145  1.00  0.00     0.173 A 
ATOM     66  F   UNL A   1      49.357  26.185  28.665  1.00  0.00    -0.203 F 
ATOM     67  C   UNL A   1      50.891  25.981  26.894  1.00  0.00     0.198 A 
ATOM     68  C   UNL A   1      50.262  26.649  24.676  1.00  0.00     0.198 A 
ATOM     69  F   UNL A   1      48.129  27.556  24.277  1.00  0.00    -0.203 F 
ATOM     70  F   UNL A   1      51.811  25.512  27.748  1.00  0.00    -0.200 F 
ATOM     71  C   UNL A   1      51.204  26.130  25.551  1.00  0.00     0.200 A 
ATOM     72  F   UNL A   1      50.559  26.780  23.376  1.00  0.00    -0.200 F 
ATOM     73  F   UNL A   1      52.418  25.782  25.103  1.00  0.00    -0.200 F 
ENDBRANCH  49  63
BRANCH  50  74
ATOM     74  C   UNL A   1      39.498  29.008  29.881  1.00  0.00     0.064 A 
ATOM     75  C   UNL A   1      38.540  29.629  29.068  1.00  0.00     0.173 A 
ATOM     76  C   UNL A   1      39.141  28.729  31.208  1.00  0.00     0.173 A 
ATOM     77  F   UNL A   1      38.839  29.936  27.796  1.00  0.00    -0.203 F 
ATOM     78  C   UNL A   1      37.289  29.986  29.568  1.00  0.00     0.198 A 
ATOM     79  C   UNL A   1      37.879  29.057  31.699  1.00  0.00     0.198 A 
ATOM     80  F   UNL A   1      40.018  28.131  32.028  1.00  0.00    -0.203 F 
ATOM     81  F   UNL A   1      36.414  30.630  28.784  1.00  0.00    -0.200 F 
ATOM     82  C   UNL A   1      36.958  29.696  30.883  1.00  0.00     0.200 A 
ATOM     83  F   UNL A   1      37.557  28.762  32.966  1.00  0.00    -0.200 F 
ATOM     84  F   UNL A   1      35.756  30.039  31.365  1.00  0.00    -0.200 F 
ENDBRANCH  50  74
BRANCH  62  85
ATOM     85  C   UNL A   1      45.316  32.750  29.022  1.00  0.00     0.064 A 
ATOM     86  C   UNL A   1      45.909  33.192  30.214  1.00  0.00     0.173 A 
ATOM     87  C   UNL A   1      45.064  33.702  28.021  1.00  0.00     0.173 A 
ATOM     88  F   UNL A   1      46.159  32.325  31.207  1.00  0.00    -0.203 F 
ATOM     89  C   UNL A   1      46.210  34.538  30.406  1.00  0.00     0.198 A 
ATOM     90  C   UNL A   1      45.399  35.040  28.204  1.00  0.00     0.198 A 
ATOM     91  F   UNL A   1      44.507  33.330  26.858  1.00  0.00    -0.203 F 
ATOM     92  F   UNL A   1      46.727  34.947  31.573  1.00  0.00    -0.200 F 
ATOM     93  C   UNL A   1      45.962  35.459  29.398  1.00  0.00     0.200 A 
ATOM     94  F   UNL A   1      45.175  35.924  27.222  1.00  0.00    -0.200 F 
ATOM     95  F   UNL A   1      46.261  36.752  29.582  1.00  0.00    -0.200 F 
ENDBRANCH  62  85
ENDBRANCH  36  37
ENDBRANCH  28  31
ENDBRANCH  26  27
ENDBRANCH  25  26
ENDBRANCH   1  25
TORSDOF 14
ENDMDL
MODEL 3
REMARK VINA RESULT:     -12.1      5.285      9.463
REMARK SMILES C[C@@H](Nc1cccc(C(=O)NCCCCNC(=O)c2ccc(-c3c4nc(c(-c5c(F)c(F)c(F)c(F)c5F)c5ccc([nH]5)c(-c5c(F)c(F)c(F)c(F)c5F)c5nc(c(-c6c(F)c(F)c(F)c(F)c6F)c6ccc3[nH]6)C=C5)C=C4)cc2)c1)C1CC[NH+](C)CC1
REMARK SMILES IDX 13 1 12 2 11 3 9 4 10 5 8 7 4 8 5 9 82 10 6 11 7 12 3 13
REMARK SMILES IDX 2 15 1 16 83 17 84 18 89 19 85 20 88 21 86 22 87 23 14 25
REMARK SMILES IDX 15 26 16 27 17 28 18 30 19 31 20 32 81 33 21 34 80 35 22 36
REMARK SMILES IDX 23 37 24 38 74 39 25 40 79 41 73 42 75 43 26 44 78 45 72 46
REMARK SMILES IDX 71 47 27 49 59 50 39 51 58 52 40 53 43 54 57 55 76 56 41 57
REMARK SMILES IDX 42 58 56 60 77 61 44 62 28 63 29 64 37 65 30 66 31 67 35 68
REMARK SMILES IDX 38 69 32 70 33 71 36 72 34 73 60 74 61 75 69 76 62 77 63 78
REMARK SMILES IDX 67 79 70 80 64 81 65 82 68 83 66 84 45 85 46 86 54 87 47 88
REMARK SMILES IDX 48 89 52 90 55 91 49 92 50 93 53 94 51 95
REMARK H PARENT 11 6 3 14 86 24 16 29 75 48 43 59
REMARK Flexibility Score: inf
ROOT
ATOM      1  C   UNL A   1      37.279  21.826  24.600  1.00  0.00     0.023 C 
ENDROOT
BRANCH   1   2
ATOM      2  C   UNL A   1      36.611  22.599  25.738  1.00  0.00     0.116 C 
BRANCH   2   3
ATOM      3  N   UNL A   1      35.706  21.764  26.507  1.00  0.00    -0.352 N 
ATOM      4  C   UNL A   1      34.341  21.686  26.617  1.00  0.00     0.251 C 
ATOM      5  O   UNL A   1      33.870  20.800  27.332  1.00  0.00    -0.269 OA
ATOM      6  H   UNL A   1      36.176  21.110  27.074  1.00  0.00     0.163 HD
BRANCH   4   7
ATOM      7  C   UNL A   1      33.381  22.510  25.861  1.00  0.00     0.041 A 
ATOM      8  C   UNL A   1      31.054  24.623  25.477  1.00  0.00     0.035 A 
ATOM      9  C   UNL A   1      30.846  24.083  23.745  1.00  0.00     0.026 A 
ATOM     10  C   UNL A   1      32.206  23.729  26.587  1.00  0.00     0.039 A 
ATOM     11  C   UNL A   1      31.925  22.775  23.070  1.00  0.00     0.003 A 
ATOM     12  C   UNL A   1      33.227  22.049  24.115  1.00  0.00     0.014 A 
BRANCH   8  13
ATOM     13  N   UNL A   1      30.691  25.949  25.754  1.00  0.00    -0.382 N 
ATOM     14  H   UNL A   1      29.815  26.123  26.170  1.00  0.00     0.160 HD
BRANCH  13  15
ATOM     15  C   UNL A   1      31.580  27.112  25.440  1.00  0.00     0.079 C 
ATOM     16  C   UNL A   1      32.353  27.474  26.723  1.00  0.00     0.031 C 
BRANCH  15  17
ATOM     17  C   UNL A   1      31.115  28.463  24.788  1.00  0.00     0.022 C 
ATOM     18  C   UNL A   1      30.074  28.452  23.682  1.00  0.00     0.067 C 
ATOM     19  C   UNL A   1      32.175  29.381  24.260  1.00  0.00     0.067 C 
ATOM     20  C   UNL A   1      30.641  28.264  22.259  1.00  0.00     0.262 C 
ATOM     21  C   UNL A   1      32.859  28.730  23.076  1.00  0.00     0.262 C 
ATOM     22  N   UNL A   1      32.102  27.654  22.136  1.00  0.00    -0.337 N 
ATOM     23  C   UNL A   1      32.805  25.886  21.276  1.00  0.00     0.332 C 
ATOM     24  H   UNL A   1      32.447  27.044  21.395  1.00  0.00     0.347 HD
ENDBRANCH  15  17
ENDBRANCH  13  15
ENDBRANCH   8  13
ENDBRANCH   4   7
ENDBRANCH   2   3
ENDBRANCH   1   2
BRANCH   1  25
ATOM     25  C   UNL A   1      37.864  20.495  25.056  1.00  0.00     0.023 C 
BRANCH  25  26
ATOM     26  C   UNL A   1      39.195  20.670  25.771  1.00  0.00     0.116 C 
BRANCH  26  27
ATOM     27  N   UNL A   1      39.972  19.440  25.864  1.00  0.00    -0.352 N 
ATOM     28  C   UNL A   1      41.324  19.340  26.111  1.00  0.00     0.251 C 
ATOM     29  H   UNL A   1      39.483  18.597  25.737  1.00  0.00     0.163 HD
ATOM     30  O   UNL A   1      41.909  18.265  26.077  1.00  0.00    -0.269 OA
BRANCH  28  31
ATOM     31  C   UNL A   1      42.065  20.592  26.367  1.00  0.00     0.039 A 
ATOM     32  C   UNL A   1      42.417  21.406  25.290  1.00  0.00     0.014 A 
ATOM     33  C   UNL A   1      42.266  21.016  27.682  1.00  0.00     0.014 A 
ATOM     34  C   UNL A   1      42.912  22.687  25.539  1.00  0.00     0.010 A 
ATOM     35  C   UNL A   1      42.663  22.324  27.924  1.00  0.00     0.010 A 
ATOM     36  C   UNL A   1      43.001  23.172  26.856  1.00  0.00    -0.014 A 
BRANCH  36  37
ATOM     37  C   UNL A   1      43.474  24.550  27.141  1.00  0.00     0.031 A 
ATOM     38  C   UNL A   1      42.513  25.562  27.702  1.00  0.00     0.074 A 
ATOM     39  C   UNL A   1      44.741  24.906  26.850  1.00  0.00     0.049 A 
ATOM     40  N   UNL A   1      42.706  26.827  27.974  1.00  0.00    -0.248 NA
ATOM     41  C   UNL A   1      41.139  25.099  27.957  1.00  0.00     0.031 C 
ATOM     42  C   UNL A   1      45.752  24.033  26.251  1.00  0.00     0.029 A 
ATOM     43  N   UNL A   1      45.394  26.102  27.017  1.00  0.00    -0.354 N 
ATOM     44  C   UNL A   1      41.480  27.308  28.416  1.00  0.00     0.074 A 
ATOM     45  C   UNL A   1      40.531  26.223  28.305  1.00  0.00     0.031 C 
ATOM     46  C   UNL A   1      46.904  24.712  26.130  1.00  0.00     0.029 A 
ATOM     47  C   UNL A   1      46.706  26.077  26.610  1.00  0.00     0.049 A 
ATOM     48  H   UNL A   1      44.962  26.903  27.393  1.00  0.00     0.167 HD
ATOM     49  C   UNL A   1      41.178  28.533  28.905  1.00  0.00     0.037 A 
ATOM     50  C   UNL A   1      47.641  27.047  26.623  1.00  0.00     0.037 A 
ATOM     51  C   UNL A   1      42.131  29.600  29.044  1.00  0.00     0.049 A 
ATOM     52  C   UNL A   1      47.280  28.402  27.172  1.00  0.00     0.074 A 
ATOM     53  C   UNL A   1      41.941  30.862  29.579  1.00  0.00     0.029 A 
ATOM     54  N   UNL A   1      43.458  29.529  28.643  1.00  0.00    -0.354 N 
ATOM     55  N   UNL A   1      46.136  28.822  27.659  1.00  0.00    -0.248 NA
ATOM     56  C   UNL A   1      48.342  29.417  27.185  1.00  0.00     0.031 C 
ATOM     57  C   UNL A   1      43.140  31.572  29.455  1.00  0.00     0.029 A 
ATOM     58  C   UNL A   1      44.093  30.732  28.901  1.00  0.00     0.049 A 
ATOM     59  H   UNL A   1      43.883  28.740  28.235  1.00  0.00     0.167 HD
ATOM     60  C   UNL A   1      46.352  30.132  28.069  1.00  0.00     0.074 A 
ATOM     61  C   UNL A   1      47.739  30.432  27.786  1.00  0.00     0.031 C 
ATOM     62  C   UNL A   1      45.481  31.007  28.629  1.00  0.00     0.037 A 
BRANCH  49  63
ATOM     63  C   UNL A   1      39.760  28.778  29.336  1.00  0.00     0.064 A 
ATOM     64  C   UNL A   1      38.796  29.280  28.449  1.00  0.00     0.173 A 
ATOM     65  C   UNL A   1      39.354  28.484  30.647  1.00  0.00     0.173 A 
ATOM     66  F   UNL A   1      39.134  29.592  27.189  1.00  0.00    -0.203 F 
ATOM     67  C   UNL A   1      37.487  29.509  28.865  1.00  0.00     0.198 A 
ATOM     68  C   UNL A   1      38.036  28.681  31.050  1.00  0.00     0.198 A 
ATOM     69  F   UNL A   1      40.233  28.000  31.535  1.00  0.00    -0.203 F 
ATOM     70  F   UNL A   1      36.600  30.044  28.016  1.00  0.00    -0.200 F 
ATOM     71  C   UNL A   1      37.106  29.202  30.163  1.00  0.00     0.200 A 
ATOM     72  F   UNL A   1      37.666  28.371  32.300  1.00  0.00    -0.200 F 
ATOM     73  F   UNL A   1      35.845  29.416  30.560  1.00  0.00    -0.200 F 
ENDBRANCH  49  63
BRANCH  50  74
ATOM     74  C   UNL A   1      49.018  26.770  26.132  1.00  0.00     0.064 A 
ATOM     75  C   UNL A   1      49.396  27.094  24.821  1.00  0.00     0.173 A 
ATOM     76  C   UNL A   1      49.977  26.157  26.952  1.00  0.00     0.173 A 
ATOM     77  F   UNL A   1      48.509  27.663  23.991  1.00  0.00    -0.203 F 
ATOM     78  C   UNL A   1      50.668  26.788  24.340  1.00  0.00     0.198 A 
ATOM     79  C   UNL A   1      51.259  25.881  26.480  1.00  0.00     0.198 A 
ATOM     80  F   UNL A   1      49.670  25.831  28.217  1.00  0.00    -0.203 F 
ATOM     81  F   UNL A   1      50.982  27.057  23.065  1.00  0.00    -0.200 F 
ATOM     82  C   UNL A   1      51.600  26.186  25.171  1.00  0.00     0.200 A 
ATOM     83  F   UNL A   1      52.162  25.312  27.291  1.00  0.00    -0.200 F 
ATOM     84  F   UNL A   1      52.822  25.891  24.708  1.00  0.00    -0.200 F 
ENDBRANCH  50  74
BRANCH  62  85
ATOM     85  C   UNL A   1      46.013  32.355  29.025  1.00  0.00     0.064 A 
ATOM     86  C   UNL A   1      46.012  33.441  28.138  1.00  0.00     0.173 A 
ATOM     87  C   UNL A   1      46.489  32.570  30.328  1.00  0.00     0.173 A 
ATOM     88  F   UNL A   1      45.579  33.284  26.878  1.00  0.00    -0.203 F 
ATOM     89  C   UNL A   1      46.497  34.685  28.533  1.00  0.00     0.198 A 
ATOM     90  C   UNL A   1      46.939  33.824  30.728  1.00  0.00     0.198 A 
ATOM     91  F   UNL A   1      46.502  31.566  31.219  1.00  0.00    -0.203 F 
ATOM     92  F   UNL A   1      46.536  35.696  27.652  1.00  0.00    -0.200 F 
ATOM     93  C   UNL A   1      46.951  34.878  29.829  1.00  0.00     0.200 A 
ATOM     94  F   UNL A   1      47.361  34.012  31.986  1.00  0.00    -0.200 F 
ATOM     95  F   UNL A   1      47.408  36.079  30.208  1.00  0.00    -0.200 F 
ENDBRANCH  62  85
ENDBRANCH  36  37
ENDBRANCH  28  31
ENDBRANCH  26  27
ENDBRANCH  25  26
ENDBRANCH   1  25
TORSDOF 14
ENDMDL
