MODEL 1
REMARK VINA RESULT:     -11.8      0.000      0.000
REMARK SMILES CC[C@](C)(NS(=O)(=O)c1ccc(C(=O)OC)cc1)C(=O)NCCCCNC(=O)c1ccc(-c2c3nc(c(-c4c(F)c(F)c(F)c(F)c4F)c4ccc([nH]4)c(-c4c(F)c(F)c(F)c(F)c4F)c4nc(c(-c5c(F)c(F)c(F)c(F)c5F)c5ccc2[nH]5)C=C4)C=C3)cc1
REMARK SMILES IDX 22 1 21 2 19 3 20 4 3 6 4 7 2 8 1 9 5 10 6 12 7 13 8 14 9 15
REMARK SMILES IDX 10 16 18 17 11 18 17 19 12 20 13 21 14 22 15 23 16 24 23 25
REMARK SMILES IDX 24 26 25 27 26 28 27 29 28 31 29 32 30 33 91 34 31 35 90 36
REMARK SMILES IDX 32 37 33 38 34 39 84 40 35 41 89 42 83 43 85 44 36 45 88 46
REMARK SMILES IDX 82 47 81 48 37 50 69 51 49 52 68 53 50 54 53 55 67 56 86 57
REMARK SMILES IDX 51 58 52 59 66 61 87 62 54 63 38 64 39 65 47 66 40 67 41 68
REMARK SMILES IDX 45 69 48 70 42 71 43 72 46 73 44 74 70 75 71 76 79 77 72 78
REMARK SMILES IDX 73 79 77 80 80 81 74 82 75 83 78 84 76 85 55 86 56 87 64 88
REMARK SMILES IDX 57 89 58 90 62 91 65 92 59 93 60 94 63 95 61 96
REMARK H PARENT 21 5 5 11 26 30 85 49 53 60
REMARK Flexibility Score: inf
ROOT
ATOM      1  C   UNL A   1      31.944  29.361  26.701  1.00  0.00     0.116 C 
ENDROOT
BRANCH   1   2
ATOM      2  N   UNL A   1      31.250  28.092  26.541  1.00  0.00    -0.354 N 
ATOM      3  C   UNL A   1      31.629  26.831  26.197  1.00  0.00     0.241 C 
ATOM      4  O   UNL A   1      30.889  25.945  26.649  1.00  0.00    -0.273 OA
ATOM      5  H   UNL A   1      30.284  28.162  26.722  1.00  0.00     0.163 HD
BRANCH   3   6
ATOM      6  C   UNL A   1      32.819  26.453  25.282  1.00  0.00     0.108 C 
ATOM      7  C   UNL A   1      33.535  25.197  25.906  1.00  0.00     0.040 C 
BRANCH   6   8
ATOM      8  C   UNL A   1      33.894  27.565  25.263  1.00  0.00     0.030 C 
ATOM      9  C   UNL A   1      34.045  28.239  23.881  1.00  0.00     0.006 C 
ENDBRANCH   6   8
BRANCH   6  10
ATOM     10  N   UNL A   1      32.493  25.902  23.943  1.00  0.00    -0.196 NA
ATOM     11  H   UNL A   1      32.617  24.900  24.084  1.00  0.00     0.142 HD
BRANCH  10  12
ATOM     12  S   UNL A   1      31.213  25.954  22.898  1.00  0.00     0.241 S 
ATOM     13  O   UNL A   1      31.735  25.709  21.577  1.00  0.00    -0.207 OA
ATOM     14  O   UNL A   1      30.284  25.002  23.473  1.00  0.00    -0.207 OA
BRANCH  12  15
ATOM     15  C   UNL A   1      30.335  27.505  22.899  1.00  0.00     0.082 A 
ATOM     16  C   UNL A   1      29.012  27.502  23.374  1.00  0.00     0.022 A 
ATOM     17  C   UNL A   1      30.865  28.694  22.418  1.00  0.00     0.022 A 
ATOM     18  C   UNL A   1      28.204  28.647  23.253  1.00  0.00     0.017 A 
ATOM     19  C   UNL A   1      30.039  29.812  22.214  1.00  0.00     0.017 A 
ATOM     20  C   UNL A   1      28.695  29.792  22.610  1.00  0.00     0.060 A 
BRANCH  20  21
ATOM     21  C   UNL A   1      27.768  30.933  22.343  1.00  0.00     0.337 C 
ATOM     22  O   UNL A   1      27.208  31.573  23.223  1.00  0.00    -0.246 OA
BRANCH  21  23
ATOM     23  O   UNL A   1      27.607  31.108  21.009  1.00  0.00    -0.465 OA
ATOM     24  C   UNL A   1      27.943  32.411  20.520  1.00  0.00     0.282 C 
ENDBRANCH  21  23
ENDBRANCH  20  21
ENDBRANCH  12  15
ENDBRANCH  10  12
ENDBRANCH   6  10
ENDBRANCH   3   6
ENDBRANCH   1   2
BRANCH   1  25
ATOM     25  C   UNL A   1      31.510  30.504  25.786  1.00  0.00     0.023 C 
BRANCH  25  26
ATOM     26  C   UNL A   1      31.316  31.866  26.435  1.00  0.00     0.023 C 
BRANCH  26  27
ATOM     27  C   UNL A   1      32.559  32.401  27.114  1.00  0.00     0.116 C 
BRANCH  27  28
ATOM     28  N   UNL A   1      32.420  33.813  27.437  1.00  0.00    -0.352 N 
ATOM     29  C   UNL A   1      33.018  34.547  28.432  1.00  0.00     0.251 C 
ATOM     30  H   UNL A   1      31.807  34.318  26.855  1.00  0.00     0.163 HD
ATOM     31  O   UNL A   1      32.570  35.652  28.725  1.00  0.00    -0.269 OA
BRANCH  29  32
ATOM     32  C   UNL A   1      34.200  34.016  29.146  1.00  0.00     0.039 A 
ATOM     33  C   UNL A   1      35.477  34.430  28.755  1.00  0.00     0.014 A 
ATOM     34  C   UNL A   1      34.058  33.072  30.165  1.00  0.00     0.014 A 
ATOM     35  C   UNL A   1      36.600  33.913  29.403  1.00  0.00     0.010 A 
ATOM     36  C   UNL A   1      35.164  32.659  30.893  1.00  0.00     0.010 A 
ATOM     37  C   UNL A   1      36.450  33.035  30.489  1.00  0.00    -0.014 A 
BRANCH  37  38
ATOM     38  C   UNL A   1      37.621  32.426  31.164  1.00  0.00     0.031 A 
ATOM     39  C   UNL A   1      38.384  31.323  30.475  1.00  0.00     0.074 A 
ATOM     40  C   UNL A   1      37.965  32.821  32.403  1.00  0.00     0.049 A 
ATOM     41  N   UNL A   1      39.384  30.603  30.916  1.00  0.00    -0.248 NA
ATOM     42  C   UNL A   1      37.933  30.950  29.123  1.00  0.00     0.031 C 
ATOM     43  C   UNL A   1      37.264  33.835  33.190  1.00  0.00     0.029 A 
ATOM     44  N   UNL A   1      38.986  32.411  33.220  1.00  0.00    -0.354 N 
ATOM     45  C   UNL A   1      39.663  29.689  29.907  1.00  0.00     0.074 A 
ATOM     46  C   UNL A   1      38.681  29.888  28.867  1.00  0.00     0.031 C 
ATOM     47  C   UNL A   1      37.898  33.996  34.363  1.00  0.00     0.029 A 
ATOM     48  C   UNL A   1      39.019  33.063  34.428  1.00  0.00     0.049 A 
ATOM     49  H   UNL A   1      39.635  31.715  32.965  1.00  0.00     0.167 HD
ATOM     50  C   UNL A   1      40.670  28.787  29.839  1.00  0.00     0.037 A 
ATOM     51  C   UNL A   1      39.856  32.915  35.472  1.00  0.00     0.037 A 
ATOM     52  C   UNL A   1      41.662  28.619  30.866  1.00  0.00     0.049 A 
ATOM     53  C   UNL A   1      40.969  31.905  35.373  1.00  0.00     0.074 A 
ATOM     54  C   UNL A   1      42.757  27.774  30.880  1.00  0.00     0.029 A 
ATOM     55  N   UNL A   1      41.678  29.316  32.067  1.00  0.00    -0.354 N 
ATOM     56  N   UNL A   1      41.262  31.089  34.389  1.00  0.00    -0.248 NA
ATOM     57  C   UNL A   1      41.870  31.801  36.527  1.00  0.00     0.031 C 
ATOM     58  C   UNL A   1      43.403  27.920  32.111  1.00  0.00     0.029 A 
ATOM     59  C   UNL A   1      42.749  28.902  32.839  1.00  0.00     0.049 A 
ATOM     60  H   UNL A   1      41.023  30.002  32.329  1.00  0.00     0.167 HD
ATOM     61  C   UNL A   1      42.395  30.395  34.793  1.00  0.00     0.074 A 
ATOM     62  C   UNL A   1      42.745  30.901  36.104  1.00  0.00     0.031 C 
ATOM     63  C   UNL A   1      43.082  29.425  34.140  1.00  0.00     0.037 A 
BRANCH  50  64
ATOM     64  C   UNL A   1      40.749  27.922  28.612  1.00  0.00     0.064 A 
ATOM     65  C   UNL A   1      40.063  26.699  28.523  1.00  0.00     0.173 A 
ATOM     66  C   UNL A   1      41.502  28.329  27.500  1.00  0.00     0.173 A 
ATOM     67  F   UNL A   1      39.340  26.253  29.561  1.00  0.00    -0.203 F 
ATOM     68  C   UNL A   1      40.160  25.902  27.385  1.00  0.00     0.198 A 
ATOM     69  C   UNL A   1      41.566  27.548  26.349  1.00  0.00     0.198 A 
ATOM     70  F   UNL A   1      42.175  29.489  27.527  1.00  0.00    -0.203 F 
ATOM     71  F   UNL A   1      39.547  24.710  27.350  1.00  0.00    -0.200 F 
ATOM     72  C   UNL A   1      40.903  26.330  26.296  1.00  0.00     0.200 A 
ATOM     73  F   UNL A   1      42.274  27.970  25.293  1.00  0.00    -0.200 F 
ATOM     74  F   UNL A   1      40.989  25.566  25.199  1.00  0.00    -0.200 F 
ENDBRANCH  50  64
BRANCH  51  75
ATOM     75  C   UNL A   1      39.683  33.755  36.685  1.00  0.00     0.064 A 
ATOM     76  C   UNL A   1      40.268  35.028  36.772  1.00  0.00     0.173 A 
ATOM     77  C   UNL A   1      38.930  33.309  37.781  1.00  0.00     0.173 A 
ATOM     78  F   UNL A   1      41.014  35.492  35.760  1.00  0.00    -0.203 F 
ATOM     79  C   UNL A   1      40.123  35.810  37.915  1.00  0.00     0.198 A 
ATOM     80  C   UNL A   1      38.758  34.107  38.911  1.00  0.00     0.198 A 
ATOM     81  F   UNL A   1      38.350  32.100  37.750  1.00  0.00    -0.203 F 
ATOM     82  F   UNL A   1      40.735  36.999  37.992  1.00  0.00    -0.200 F 
ATOM     83  C   UNL A   1      39.363  35.353  38.981  1.00  0.00     0.200 A 
ATOM     84  F   UNL A   1      38.011  33.667  39.932  1.00  0.00    -0.200 F 
ATOM     85  F   UNL A   1      39.221  36.107  40.078  1.00  0.00    -0.200 F 
ENDBRANCH  51  75
BRANCH  63  86
ATOM     86  C   UNL A   1      44.303  28.873  34.819  1.00  0.00     0.064 A 
ATOM     87  C   UNL A   1      44.238  27.748  35.654  1.00  0.00     0.173 A 
ATOM     88  C   UNL A   1      45.561  29.452  34.592  1.00  0.00     0.173 A 
ATOM     89  F   UNL A   1      43.058  27.165  35.913  1.00  0.00    -0.203 F 
ATOM     90  C   UNL A   1      45.384  27.244  36.262  1.00  0.00     0.198 A 
ATOM     91  C   UNL A   1      46.709  28.923  35.173  1.00  0.00     0.198 A 
ATOM     92  F   UNL A   1      45.678  30.523  33.792  1.00  0.00    -0.203 F 
ATOM     93  F   UNL A   1      45.291  26.201  37.100  1.00  0.00    -0.200 F 
ATOM     94  C   UNL A   1      46.619  27.825  36.015  1.00  0.00     0.200 A 
ATOM     95  F   UNL A   1      47.903  29.475  34.917  1.00  0.00    -0.200 F 
ATOM     96  F   UNL A   1      47.722  27.331  36.593  1.00  0.00    -0.200 F 
ENDBRANCH  63  86
ENDBRANCH  37  38
ENDBRANCH  29  32
ENDBRANCH  27  28
ENDBRANCH  26  27
ENDBRANCH  25  26
ENDBRANCH   1  25
TORSDOF 17
ENDMDL
MODEL 2
REMARK VINA RESULT:     -11.7      6.161     11.151
REMARK SMILES CC[C@](C)(NS(=O)(=O)c1ccc(C(=O)OC)cc1)C(=O)NCCCCNC(=O)c1ccc(-c2c3nc(c(-c4c(F)c(F)c(F)c(F)c4F)c4ccc([nH]4)c(-c4c(F)c(F)c(F)c(F)c4F)c4nc(c(-c5c(F)c(F)c(F)c(F)c5F)c5ccc2[nH]5)C=C4)C=C3)cc1
REMARK SMILES IDX 22 1 21 2 19 3 20 4 3 6 4 7 2 8 1 9 5 10 6 12 7 13 8 14 9 15
REMARK SMILES IDX 10 16 18 17 11 18 17 19 12 20 13 21 14 22 15 23 16 24 23 25
REMARK SMILES IDX 24 26 25 27 26 28 27 29 28 31 29 32 30 33 91 34 31 35 90 36
REMARK SMILES IDX 32 37 33 38 34 39 84 40 35 41 89 42 83 43 85 44 36 45 88 46
REMARK SMILES IDX 82 47 81 48 37 50 69 51 49 52 68 53 50 54 53 55 67 56 86 57
REMARK SMILES IDX 51 58 52 59 66 61 87 62 54 63 38 64 39 65 47 66 40 67 41 68
REMARK SMILES IDX 45 69 48 70 42 71 43 72 46 73 44 74 70 75 71 76 79 77 72 78
REMARK SMILES IDX 73 79 77 80 80 81 74 82 75 83 78 84 76 85 55 86 56 87 64 88
REMARK SMILES IDX 57 89 58 90 62 91 65 92 59 93 60 94 63 95 61 96
REMARK H PARENT 21 5 5 11 26 30 85 49 53 60
REMARK Flexibility Score: inf
ROOT
ATOM      1  C   UNL A   1      38.247  23.455  25.864  1.00  0.00     0.116 C 
ENDROOT
BRANCH   1   2
ATOM      2  N   UNL A   1      37.760  23.129  24.532  1.00  0.00    -0.354 N 
ATOM      3  C   UNL A   1      36.528  23.000  23.969  1.00  0.00     0.241 C 
ATOM      4  O   UNL A   1      36.511  23.214  22.748  1.00  0.00    -0.273 OA
ATOM      5  H   UNL A   1      38.489  22.963  23.891  1.00  0.00     0.163 HD
BRANCH   3   6
ATOM      6  C   UNL A   1      35.231  22.570  24.698  1.00  0.00     0.108 C 
ATOM      7  C   UNL A   1      34.752  23.774  25.593  1.00  0.00     0.040 C 
BRANCH   6   8
ATOM      8  C   UNL A   1      35.495  21.410  25.686  1.00  0.00     0.030 C 
ATOM      9  C   UNL A   1      36.065  20.149  25.001  1.00  0.00     0.006 C 
ENDBRANCH   6   8
BRANCH   6  10
ATOM     10  N   UNL A   1      34.016  22.393  23.864  1.00  0.00    -0.196 NA
ATOM     11  H   UNL A   1      34.380  21.890  23.055  1.00  0.00     0.142 HD
BRANCH  10  12
ATOM     12  S   UNL A   1      32.516  21.723  24.048  1.00  0.00     0.241 S 
ATOM     13  O   UNL A   1      31.932  22.310  25.229  1.00  0.00    -0.207 OA
ATOM     14  O   UNL A   1      31.892  21.963  22.764  1.00  0.00    -0.207 OA
BRANCH  12  15
ATOM     15  C   UNL A   1      32.528  19.950  24.225  1.00  0.00     0.082 A 
ATOM     16  C   UNL A   1      32.531  19.427  25.530  1.00  0.00     0.022 A 
ATOM     17  C   UNL A   1      32.579  19.065  23.155  1.00  0.00     0.022 A 
ATOM     18  C   UNL A   1      32.706  18.049  25.750  1.00  0.00     0.017 A 
ATOM     19  C   UNL A   1      32.842  17.702  23.370  1.00  0.00     0.017 A 
ATOM     20  C   UNL A   1      32.928  17.184  24.669  1.00  0.00     0.060 A 
BRANCH  20  21
ATOM     21  C   UNL A   1      33.278  15.757  24.937  1.00  0.00     0.337 C 
ATOM     22  O   UNL A   1      32.543  14.977  25.528  1.00  0.00    -0.246 OA
BRANCH  21  23
ATOM     23  O   UNL A   1      34.525  15.483  24.482  1.00  0.00    -0.465 OA
ATOM     24  C   UNL A   1      35.589  15.828  25.376  1.00  0.00     0.282 C 
ENDBRANCH  21  23
ENDBRANCH  20  21
ENDBRANCH  12  15
ENDBRANCH  10  12
ENDBRANCH   6  10
ENDBRANCH   3   6
ENDBRANCH   1   2
BRANCH   1  25
ATOM     25  C   UNL A   1      39.155  22.426  26.536  1.00  0.00     0.023 C 
BRANCH  25  26
ATOM     26  C   UNL A   1      39.514  21.193  25.722  1.00  0.00     0.023 C 
BRANCH  26  27
ATOM     27  C   UNL A   1      39.752  19.956  26.561  1.00  0.00     0.116 C 
BRANCH  27  28
ATOM     28  N   UNL A   1      40.912  19.212  26.093  1.00  0.00    -0.352 N 
ATOM     29  C   UNL A   1      42.180  19.654  25.809  1.00  0.00     0.251 C 
ATOM     30  H   UNL A   1      40.765  18.247  25.961  1.00  0.00     0.163 HD
ATOM     31  O   UNL A   1      42.942  18.941  25.164  1.00  0.00    -0.269 OA
BRANCH  29  32
ATOM     32  C   UNL A   1      42.633  20.980  26.284  1.00  0.00     0.039 A 
ATOM     33  C   UNL A   1      42.652  21.246  27.657  1.00  0.00     0.014 A 
ATOM     34  C   UNL A   1      42.992  21.981  25.378  1.00  0.00     0.014 A 
ATOM     35  C   UNL A   1      43.051  22.503  28.112  1.00  0.00     0.010 A 
ATOM     36  C   UNL A   1      43.510  23.184  25.836  1.00  0.00     0.010 A 
ATOM     37  C   UNL A   1      43.499  23.477  27.204  1.00  0.00    -0.014 A 
BRANCH  37  38
ATOM     38  C   UNL A   1      43.877  24.839  27.649  1.00  0.00     0.031 A 
ATOM     39  C   UNL A   1      42.798  25.832  27.998  1.00  0.00     0.074 A 
ATOM     40  C   UNL A   1      45.173  25.199  27.690  1.00  0.00     0.049 A 
ATOM     41  N   UNL A   1      42.905  27.093  28.332  1.00  0.00    -0.248 NA
ATOM     42  C   UNL A   1      41.407  25.354  27.919  1.00  0.00     0.031 C 
ATOM     43  C   UNL A   1      46.299  24.342  27.317  1.00  0.00     0.029 A 
ATOM     44  N   UNL A   1      45.761  26.382  28.056  1.00  0.00    -0.354 N 
ATOM     45  C   UNL A   1      41.603  27.555  28.482  1.00  0.00     0.074 A 
ATOM     46  C   UNL A   1      40.722  26.468  28.127  1.00  0.00     0.031 C 
ATOM     47  C   UNL A   1      47.444  25.014  27.509  1.00  0.00     0.029 A 
ATOM     48  C   UNL A   1      47.132  26.363  27.972  1.00  0.00     0.049 A 
ATOM     49  H   UNL A   1      45.249  27.169  28.352  1.00  0.00     0.167 HD
ATOM     50  C   UNL A   1      41.181  28.768  28.911  1.00  0.00     0.037 A 
ATOM     51  C   UNL A   1      48.030  27.332  28.231  1.00  0.00     0.037 A 
ATOM     52  C   UNL A   1      42.068  29.832  29.294  1.00  0.00     0.049 A 
ATOM     53  C   UNL A   1      47.536  28.672  28.708  1.00  0.00     0.074 A 
ATOM     54  C   UNL A   1      41.751  31.083  29.794  1.00  0.00     0.029 A 
ATOM     55  N   UNL A   1      43.452  29.768  29.219  1.00  0.00    -0.354 N 
ATOM     56  N   UNL A   1      46.305  29.079  28.906  1.00  0.00    -0.248 NA
ATOM     57  C   UNL A   1      48.557  29.685  29.002  1.00  0.00     0.031 C 
ATOM     58  C   UNL A   1      42.942  31.795  29.969  1.00  0.00     0.029 A 
ATOM     59  C   UNL A   1      44.004  30.967  29.640  1.00  0.00     0.049 A 
ATOM     60  H   UNL A   1      43.966  28.987  28.912  1.00  0.00     0.167 HD
ATOM     61  C   UNL A   1      46.404  30.382  29.373  1.00  0.00     0.074 A 
ATOM     62  C   UNL A   1      47.817  30.691  29.446  1.00  0.00     0.031 C 
ATOM     63  C   UNL A   1      45.415  31.248  29.709  1.00  0.00     0.037 A 
BRANCH  50  64
ATOM     64  C   UNL A   1      39.697  28.999  28.995  1.00  0.00     0.064 A 
ATOM     65  C   UNL A   1      38.936  29.334  27.863  1.00  0.00     0.173 A 
ATOM     66  C   UNL A   1      39.023  28.863  30.218  1.00  0.00     0.173 A 
ATOM     67  F   UNL A   1      39.531  29.493  26.672  1.00  0.00    -0.203 F 
ATOM     68  C   UNL A   1      37.565  29.561  27.961  1.00  0.00     0.198 A 
ATOM     69  C   UNL A   1      37.646  29.053  30.305  1.00  0.00     0.198 A 
ATOM     70  F   UNL A   1      39.698  28.540  31.331  1.00  0.00    -0.203 F 
ATOM     71  F   UNL A   1      36.872  29.942  26.878  1.00  0.00    -0.200 F 
ATOM     72  C   UNL A   1      36.920  29.412  29.179  1.00  0.00     0.200 A 
ATOM     73  F   UNL A   1      37.022  28.894  31.480  1.00  0.00    -0.200 F 
ATOM     74  F   UNL A   1      35.600  29.623  29.270  1.00  0.00    -0.200 F 
ENDBRANCH  50  64
BRANCH  51  75
ATOM     75  C   UNL A   1      49.481  27.060  28.064  1.00  0.00     0.064 A 
ATOM     76  C   UNL A   1      50.111  27.239  26.823  1.00  0.00     0.173 A 
ATOM     77  C   UNL A   1      50.269  26.617  29.136  1.00  0.00     0.173 A 
ATOM     78  F   UNL A   1      49.398  27.640  25.762  1.00  0.00    -0.203 F 
ATOM     79  C   UNL A   1      51.468  26.965  26.659  1.00  0.00     0.198 A 
ATOM     80  C   UNL A   1      51.633  26.377  28.979  1.00  0.00     0.198 A 
ATOM     81  F   UNL A   1      49.716  26.429  30.344  1.00  0.00    -0.203 F 
ATOM     82  F   UNL A   1      52.033  27.096  25.451  1.00  0.00    -0.200 F 
ATOM     83  C   UNL A   1      52.229  26.542  27.738  1.00  0.00     0.200 A 
ATOM     84  F   UNL A   1      52.367  25.981  30.027  1.00  0.00    -0.200 F 
ATOM     85  F   UNL A   1      53.534  26.284  27.580  1.00  0.00    -0.200 F 
ENDBRANCH  51  75
BRANCH  63  86
ATOM     86  C   UNL A   1      45.829  32.599  30.220  1.00  0.00     0.064 A 
ATOM     87  C   UNL A   1      45.988  33.696  29.362  1.00  0.00     0.173 A 
ATOM     88  C   UNL A   1      46.025  32.805  31.595  1.00  0.00     0.173 A 
ATOM     89  F   UNL A   1      45.825  33.548  28.039  1.00  0.00    -0.203 F 
ATOM     90  C   UNL A   1      46.359  34.943  29.858  1.00  0.00     0.198 A 
ATOM     91  C   UNL A   1      46.360  34.061  32.091  1.00  0.00     0.198 A 
ATOM     92  F   UNL A   1      45.875  31.791  32.459  1.00  0.00    -0.203 F 
ATOM     93  F   UNL A   1      46.559  35.964  29.013  1.00  0.00    -0.200 F 
ATOM     94  C   UNL A   1      46.536  35.127  31.221  1.00  0.00     0.200 A 
ATOM     95  F   UNL A   1      46.512  34.241  33.410  1.00  0.00    -0.200 F 
ATOM     96  F   UNL A   1      46.883  36.331  31.697  1.00  0.00    -0.200 F 
ENDBRANCH  63  86
ENDBRANCH  37  38
ENDBRANCH  29  32
ENDBRANCH  27  28
ENDBRANCH  26  27
ENDBRANCH  25  26
ENDBRANCH   1  25
TORSDOF 17
ENDMDL
MODEL 3
REMARK VINA RESULT:     -11.6      0.614      7.288
REMARK SMILES CC[C@](C)(NS(=O)(=O)c1ccc(C(=O)OC)cc1)C(=O)NCCCCNC(=O)c1ccc(-c2c3nc(c(-c4c(F)c(F)c(F)c(F)c4F)c4ccc([nH]4)c(-c4c(F)c(F)c(F)c(F)c4F)c4nc(c(-c5c(F)c(F)c(F)c(F)c5F)c5ccc2[nH]5)C=C4)C=C3)cc1
REMARK SMILES IDX 22 1 21 2 19 3 20 4 3 6 4 7 2 8 1 9 5 10 6 12 7 13 8 14 9 15
REMARK SMILES IDX 10 16 18 17 11 18 17 19 12 20 13 21 14 22 15 23 16 24 23 25
REMARK SMILES IDX 24 26 25 27 26 28 27 29 28 31 29 32 30 33 91 34 31 35 90 36
REMARK SMILES IDX 32 37 33 38 34 39 84 40 35 41 89 42 83 43 85 44 36 45 88 46
REMARK SMILES IDX 82 47 81 48 37 50 69 51 49 52 68 53 50 54 53 55 67 56 86 57
REMARK SMILES IDX 51 58 52 59 66 61 87 62 54 63 38 64 39 65 47 66 40 67 41 68
REMARK SMILES IDX 45 69 48 70 42 71 43 72 46 73 44 74 70 75 71 76 79 77 72 78
REMARK SMILES IDX 73 79 77 80 80 81 74 82 75 83 78 84 76 85 55 86 56 87 64 88
REMARK SMILES IDX 57 89 58 90 62 91 65 92 59 93 60 94 63 95 61 96
REMARK H PARENT 21 5 5 11 26 30 85 49 53 60
REMARK Flexibility Score: inf
ROOT
ATOM      1  C   UNL A   1      32.052  29.924  26.926  1.00  0.00     0.116 C 
ENDROOT
BRANCH   1   2
ATOM      2  N   UNL A   1      31.549  28.559  26.976  1.00  0.00    -0.354 N 
ATOM      3  C   UNL A   1      32.003  27.356  26.533  1.00  0.00     0.241 C 
ATOM      4  O   UNL A   1      31.577  26.389  27.183  1.00  0.00    -0.273 OA
ATOM      5  H   UNL A   1      30.680  28.492  27.435  1.00  0.00     0.163 HD
BRANCH   3   6
ATOM      6  C   UNL A   1      32.918  27.120  25.306  1.00  0.00     0.108 C 
ATOM      7  C   UNL A   1      34.019  26.069  25.711  1.00  0.00     0.040 C 
BRANCH   6   8
ATOM      8  C   UNL A   1      33.699  28.401  24.928  1.00  0.00     0.030 C 
ATOM      9  C   UNL A   1      34.129  28.432  23.445  1.00  0.00     0.006 C 
ENDBRANCH   6   8
BRANCH   6  10
ATOM     10  N   UNL A   1      32.322  26.409  24.148  1.00  0.00    -0.196 NA
ATOM     11  H   UNL A   1      32.702  25.468  24.252  1.00  0.00     0.142 HD
BRANCH  10  12
ATOM     12  S   UNL A   1      30.804  26.112  23.567  1.00  0.00     0.241 S 
ATOM     13  O   UNL A   1      30.956  25.348  22.353  1.00  0.00    -0.207 OA
ATOM     14  O   UNL A   1      30.134  25.505  24.698  1.00  0.00    -0.207 OA
BRANCH  12  15
ATOM     15  C   UNL A   1      29.859  27.582  23.214  1.00  0.00     0.082 A 
ATOM     16  C   UNL A   1      30.571  28.773  22.989  1.00  0.00     0.022 A 
ATOM     17  C   UNL A   1      28.471  27.624  23.194  1.00  0.00     0.022 A 
ATOM     18  C   UNL A   1      29.895  30.000  22.869  1.00  0.00     0.017 A 
ATOM     19  C   UNL A   1      27.796  28.855  23.162  1.00  0.00     0.017 A 
ATOM     20  C   UNL A   1      28.503  30.057  23.020  1.00  0.00     0.060 A 
BRANCH  20  21
ATOM     21  C   UNL A   1      27.826  31.388  23.056  1.00  0.00     0.337 C 
ATOM     22  O   UNL A   1      26.937  31.677  23.846  1.00  0.00    -0.246 OA
BRANCH  21  23
ATOM     23  O   UNL A   1      28.301  32.186  22.068  1.00  0.00    -0.465 OA
ATOM     24  C   UNL A   1      27.997  31.754  20.737  1.00  0.00     0.282 C 
ENDBRANCH  21  23
ENDBRANCH  20  21
ENDBRANCH  12  15
ENDBRANCH  10  12
ENDBRANCH   6  10
ENDBRANCH   3   6
ENDBRANCH   1   2
BRANCH   1  25
ATOM     25  C   UNL A   1      31.285  30.909  26.045  1.00  0.00     0.023 C 
BRANCH  25  26
ATOM     26  C   UNL A   1      31.266  32.361  26.498  1.00  0.00     0.023 C 
BRANCH  26  27
ATOM     27  C   UNL A   1      32.588  32.845  27.054  1.00  0.00     0.116 C 
BRANCH  27  28
ATOM     28  N   UNL A   1      32.485  34.205  27.561  1.00  0.00    -0.352 N 
ATOM     29  C   UNL A   1      33.094  34.784  28.646  1.00  0.00     0.251 C 
ATOM     30  H   UNL A   1      31.889  34.799  27.049  1.00  0.00     0.163 HD
ATOM     31  O   UNL A   1      32.675  35.852  29.082  1.00  0.00    -0.269 OA
BRANCH  29  32
ATOM     32  C   UNL A   1      34.258  34.131  29.287  1.00  0.00     0.039 A 
ATOM     33  C   UNL A   1      35.549  34.492  28.890  1.00  0.00     0.014 A 
ATOM     34  C   UNL A   1      34.080  33.128  30.243  1.00  0.00     0.014 A 
ATOM     35  C   UNL A   1      36.651  33.861  29.469  1.00  0.00     0.010 A 
ATOM     36  C   UNL A   1      35.174  32.596  30.908  1.00  0.00     0.010 A 
ATOM     37  C   UNL A   1      36.471  32.919  30.495  1.00  0.00    -0.014 A 
BRANCH  37  38
ATOM     38  C   UNL A   1      37.617  32.191  31.092  1.00  0.00     0.031 A 
ATOM     39  C   UNL A   1      38.083  32.551  32.479  1.00  0.00     0.074 A 
ATOM     40  C   UNL A   1      38.265  31.254  30.377  1.00  0.00     0.049 A 
ATOM     41  N   UNL A   1      39.107  32.098  33.156  1.00  0.00    -0.248 NA
ATOM     42  C   UNL A   1      37.318  33.593  33.186  1.00  0.00     0.031 C 
ATOM     43  C   UNL A   1      37.942  30.865  29.004  1.00  0.00     0.029 A 
ATOM     44  N   UNL A   1      39.336  30.463  30.704  1.00  0.00    -0.354 N 
ATOM     45  C   UNL A   1      39.116  32.811  34.349  1.00  0.00     0.074 A 
ATOM     46  C   UNL A   1      38.048  33.780  34.274  1.00  0.00     0.031 C 
ATOM     47  C   UNL A   1      38.772  29.884  28.619  1.00  0.00     0.029 A 
ATOM     48  C   UNL A   1      39.715  29.607  29.699  1.00  0.00     0.049 A 
ATOM     49  H   UNL A   1      39.789  30.504  31.577  1.00  0.00     0.167 HD
ATOM     50  C   UNL A   1      39.921  32.647  35.425  1.00  0.00     0.037 A 
ATOM     51  C   UNL A   1      40.717  28.710  29.655  1.00  0.00     0.037 A 
ATOM     52  C   UNL A   1      40.959  31.656  35.502  1.00  0.00     0.049 A 
ATOM     53  C   UNL A   1      41.599  28.546  30.864  1.00  0.00     0.074 A 
ATOM     54  C   UNL A   1      41.800  31.366  36.562  1.00  0.00     0.029 A 
ATOM     55  N   UNL A   1      41.298  30.790  34.472  1.00  0.00    -0.354 N 
ATOM     56  N   UNL A   1      41.560  29.182  32.011  1.00  0.00    -0.248 NA
ATOM     57  C   UNL A   1      42.660  27.536  30.775  1.00  0.00     0.031 C 
ATOM     58  C   UNL A   1      42.683  30.362  36.153  1.00  0.00     0.029 A 
ATOM     59  C   UNL A   1      42.353  29.981  34.862  1.00  0.00     0.049 A 
ATOM     60  H   UNL A   1      40.855  30.756  33.594  1.00  0.00     0.167 HD
ATOM     61  C   UNL A   1      42.570  28.632  32.788  1.00  0.00     0.074 A 
ATOM     62  C   UNL A   1      43.192  27.598  31.987  1.00  0.00     0.031 C 
ATOM     63  C   UNL A   1      42.952  28.954  34.049  1.00  0.00     0.037 A 
BRANCH  50  64
ATOM     64  C   UNL A   1      39.701  33.556  36.603  1.00  0.00     0.064 A 
ATOM     65  C   UNL A   1      38.870  33.190  37.675  1.00  0.00     0.173 A 
ATOM     66  C   UNL A   1      40.346  34.800  36.673  1.00  0.00     0.173 A 
ATOM     67  F   UNL A   1      38.217  32.019  37.654  1.00  0.00    -0.203 F 
ATOM     68  C   UNL A   1      38.665  34.051  38.751  1.00  0.00     0.198 A 
ATOM     69  C   UNL A   1      40.168  35.642  37.768  1.00  0.00     0.198 A 
ATOM     70  F   UNL A   1      41.154  35.200  35.679  1.00  0.00    -0.203 F 
ATOM     71  F   UNL A   1      37.817  33.705  39.730  1.00  0.00    -0.200 F 
ATOM     72  C   UNL A   1      39.320  35.271  38.801  1.00  0.00     0.200 A 
ATOM     73  F   UNL A   1      40.813  36.816  37.821  1.00  0.00    -0.200 F 
ATOM     74  F   UNL A   1      39.127  36.095  39.840  1.00  0.00    -0.200 F 
ENDBRANCH  50  64
BRANCH  51  75
ATOM     75  C   UNL A   1      40.923  27.889  28.433  1.00  0.00     0.064 A 
ATOM     76  C   UNL A   1      41.731  28.348  27.382  1.00  0.00     0.173 A 
ATOM     77  C   UNL A   1      40.320  26.631  28.289  1.00  0.00     0.173 A 
ATOM     78  F   UNL A   1      42.313  29.553  27.462  1.00  0.00    -0.203 F 
ATOM     79  C   UNL A   1      41.910  27.589  26.228  1.00  0.00     0.198 A 
ATOM     80  C   UNL A   1      40.528  25.858  27.148  1.00  0.00     0.198 A 
ATOM     81  F   UNL A   1      39.538  26.145  29.264  1.00  0.00    -0.203 F 
ATOM     82  F   UNL A   1      42.645  28.074  25.218  1.00  0.00    -0.200 F 
ATOM     83  C   UNL A   1      41.315  26.342  26.114  1.00  0.00     0.200 A 
ATOM     84  F   UNL A   1      39.962  24.648  27.049  1.00  0.00    -0.200 F 
ATOM     85  F   UNL A   1      41.491  25.612  25.005  1.00  0.00    -0.200 F 
ENDBRANCH  51  75
BRANCH  63  86
ATOM     86  C   UNL A   1      44.071  28.155  34.653  1.00  0.00     0.064 A 
ATOM     87  C   UNL A   1      45.405  28.580  34.579  1.00  0.00     0.173 A 
ATOM     88  C   UNL A   1      43.795  26.971  35.355  1.00  0.00     0.173 A 
ATOM     89  F   UNL A   1      45.722  29.697  33.908  1.00  0.00    -0.203 F 
ATOM     90  C   UNL A   1      46.426  27.831  35.157  1.00  0.00     0.198 A 
ATOM     91  C   UNL A   1      44.814  26.245  35.964  1.00  0.00     0.198 A 
ATOM     92  F   UNL A   1      42.534  26.528  35.466  1.00  0.00    -0.203 F 
ATOM     93  F   UNL A   1      47.700  28.227  35.027  1.00  0.00    -0.200 F 
ATOM     94  C   UNL A   1      46.130  26.670  35.857  1.00  0.00     0.200 A 
ATOM     95  F   UNL A   1      44.524  25.135  36.655  1.00  0.00    -0.200 F 
ATOM     96  F   UNL A   1      47.113  25.958  36.423  1.00  0.00    -0.200 F 
ENDBRANCH  63  86
ENDBRANCH  37  38
ENDBRANCH  29  32
ENDBRANCH  27  28
ENDBRANCH  26  27
ENDBRANCH  25  26
ENDBRANCH   1  25
TORSDOF 17
ENDMDL
