MODEL 1
REMARK VINA RESULT:     -12.9      0.000      0.000
REMARK SMILES C[C@H](c1ccncc1)[N@H+]1[C@@H]2CC[C@H]1C[C@H](CC(=O)NCCCCNC(=O)c1ccc(-c3c4nc(c(-c5c(F)c(F)c(F)c(F)c5F)c5ccc([nH]5)c(-c5c(F)c(F)c(F)c(F)c5F)c5nc(c(-c6c(F)c(F)c(F)c(F)c6F)c6ccc3[nH]6)C=C5)C=C4)cc1)C2
REMARK SMILES IDX 21 1 20 2 19 3 17 4 18 5 16 7 15 8 9 9 10 10 13 11 11 13
REMARK SMILES IDX 90 14 12 15 14 16 2 17 1 18 3 19 4 20 8 21 5 22 7 23 6 24
REMARK SMILES IDX 22 25 23 26 24 27 25 28 26 30 27 31 28 32 89 33 29 34 88 35
REMARK SMILES IDX 30 36 31 37 32 38 82 39 33 40 87 41 81 42 83 43 34 44 86 45
REMARK SMILES IDX 80 46 79 47 35 49 67 50 47 51 66 52 48 53 51 54 65 55 84 56
REMARK SMILES IDX 49 57 50 58 64 60 85 61 52 62 36 63 37 64 45 65 38 66 39 67
REMARK SMILES IDX 43 68 46 69 40 70 41 71 44 72 42 73 68 74 69 75 77 76 70 77
REMARK SMILES IDX 71 78 75 79 78 80 72 81 73 82 76 83 74 84 53 85 54 86 62 87
REMARK SMILES IDX 55 88 56 89 60 90 63 91 57 92 58 93 61 94 59 95
REMARK H PARENT 19 6 9 12 24 29 83 48 51 59
REMARK Flexibility Score: inf
ROOT
ATOM      1  C   UNL A   1      31.236  28.851  24.213  1.00  0.00     0.023 C 
ENDROOT
BRANCH   1   2
ATOM      2  C   UNL A   1      30.813  27.729  23.256  1.00  0.00     0.116 C 
BRANCH   2   3
ATOM      3  N   UNL A   1      31.882  27.409  22.322  1.00  0.00    -0.356 N 
ATOM      4  C   UNL A   1      32.884  26.482  22.380  1.00  0.00     0.220 C 
ATOM      5  O   UNL A   1      33.736  26.500  21.491  1.00  0.00    -0.275 OA
ATOM      6  H   UNL A   1      31.883  27.957  21.504  1.00  0.00     0.163 HD
BRANCH   4   7
ATOM      7  C   UNL A   1      32.948  25.443  23.492  1.00  0.00     0.104 C 
BRANCH   7   8
ATOM      8  C   UNL A   1      34.343  24.805  23.705  1.00  0.00     0.010 C 
ATOM      9  N   UNL A   1      35.171  22.268  25.071  1.00  0.00    -0.324 N 
ATOM     10  C   UNL A   1      35.448  22.462  23.640  1.00  0.00     0.185 C 
ATOM     11  C   UNL A   1      35.562  23.543  25.652  1.00  0.00     0.185 C 
ATOM     12  H   UNL A   1      35.708  21.529  25.526  1.00  0.00     0.349 HD
ATOM     13  C   UNL A   1      36.869  23.054  23.692  1.00  0.00     0.071 C 
ATOM     14  C   UNL A   1      34.470  23.449  22.970  1.00  0.00     0.069 C 
ATOM     15  C   UNL A   1      36.960  23.722  25.060  1.00  0.00     0.071 C 
ATOM     16  C   UNL A   1      34.662  24.688  25.198  1.00  0.00     0.069 C 
BRANCH   9  17
ATOM     17  C   UNL A   1      33.935  21.560  25.439  1.00  0.00     0.212 C 
ATOM     18  C   UNL A   1      33.601  21.233  26.902  1.00  0.00     0.081 C 
BRANCH  17  19
ATOM     19  C   UNL A   1      33.717  20.255  24.664  1.00  0.00     0.012 A 
ATOM     20  C   UNL A   1      34.560  19.143  24.798  1.00  0.00     0.030 A 
ATOM     21  C   UNL A   1      32.541  20.085  23.921  1.00  0.00     0.030 A 
ATOM     22  C   UNL A   1      34.197  17.942  24.204  1.00  0.00     0.111 A 
ATOM     23  C   UNL A   1      32.259  18.843  23.374  1.00  0.00     0.111 A 
ATOM     24  N   UNL A   1      33.061  17.766  23.500  1.00  0.00    -0.265 NA
ENDBRANCH  17  19
ENDBRANCH   9  17
ENDBRANCH   7   8
ENDBRANCH   4   7
ENDBRANCH   2   3
ENDBRANCH   1   2
BRANCH   1  25
ATOM     25  C   UNL A   1      31.926  28.411  25.487  1.00  0.00     0.023 C 
BRANCH  25  26
ATOM     26  C   UNL A   1      33.040  29.339  25.921  1.00  0.00     0.116 C 
BRANCH  26  27
ATOM     27  N   UNL A   1      32.574  30.640  26.391  1.00  0.00    -0.352 N 
ATOM     28  C   UNL A   1      33.238  31.537  27.202  1.00  0.00     0.251 C 
ATOM     29  H   UNL A   1      31.675  30.911  26.093  1.00  0.00     0.163 HD
ATOM     30  O   UNL A   1      32.702  32.563  27.590  1.00  0.00    -0.269 OA
BRANCH  28  31
ATOM     31  C   UNL A   1      34.606  31.187  27.637  1.00  0.00     0.039 A 
ATOM     32  C   UNL A   1      35.562  32.196  27.760  1.00  0.00     0.014 A 
ATOM     33  C   UNL A   1      34.871  29.889  28.080  1.00  0.00     0.014 A 
ATOM     34  C   UNL A   1      36.755  31.924  28.431  1.00  0.00     0.010 A 
ATOM     35  C   UNL A   1      36.001  29.657  28.845  1.00  0.00     0.010 A 
ATOM     36  C   UNL A   1      36.956  30.670  29.030  1.00  0.00    -0.014 A 
BRANCH  36  37
ATOM     37  C   UNL A   1      38.160  30.361  29.842  1.00  0.00     0.031 A 
ATOM     38  C   UNL A   1      39.187  29.415  29.285  1.00  0.00     0.074 A 
ATOM     39  C   UNL A   1      38.271  30.820  31.103  1.00  0.00     0.049 A 
ATOM     40  N   UNL A   1      40.199  28.841  29.881  1.00  0.00    -0.248 NA
ATOM     41  C   UNL A   1      39.015  29.017  27.877  1.00  0.00     0.031 C 
ATOM     42  C   UNL A   1      37.314  31.698  31.780  1.00  0.00     0.029 A 
ATOM     43  N   UNL A   1      39.236  30.592  32.053  1.00  0.00    -0.354 N 
ATOM     44  C   UNL A   1      40.748  27.983  28.939  1.00  0.00     0.074 A 
ATOM     45  C   UNL A   1      39.929  28.068  27.752  1.00  0.00     0.031 C 
ATOM     46  C   UNL A   1      37.752  31.952  33.024  1.00  0.00     0.029 A 
ATOM     47  C   UNL A   1      38.994  31.222  33.249  1.00  0.00     0.049 A 
ATOM     48  H   UNL A   1      40.027  30.028  31.890  1.00  0.00     0.167 HD
ATOM     49  C   UNL A   1      41.855  27.211  29.045  1.00  0.00     0.037 A 
ATOM     50  C   UNL A   1      39.696  31.202  34.399  1.00  0.00     0.037 A 
ATOM     51  C   UNL A   1      42.707  27.187  30.202  1.00  0.00     0.049 A 
ATOM     52  C   UNL A   1      40.956  30.383  34.473  1.00  0.00     0.074 A 
ATOM     53  C   UNL A   1      43.893  26.500  30.387  1.00  0.00     0.029 A 
ATOM     54  N   UNL A   1      42.468  27.900  31.368  1.00  0.00    -0.354 N 
ATOM     55  N   UNL A   1      41.495  29.610  33.561  1.00  0.00    -0.248 NA
ATOM     56  C   UNL A   1      41.710  30.436  35.733  1.00  0.00     0.031 C 
ATOM     57  C   UNL A   1      44.362  26.781  31.674  1.00  0.00     0.029 A 
ATOM     58  C   UNL A   1      43.486  27.670  32.276  1.00  0.00     0.049 A 
ATOM     59  H   UNL A   1      41.690  28.483  31.525  1.00  0.00     0.167 HD
ATOM     60  C   UNL A   1      42.662  29.113  34.122  1.00  0.00     0.074 A 
ATOM     61  C   UNL A   1      42.759  29.675  35.452  1.00  0.00     0.031 C 
ATOM     62  C   UNL A   1      43.574  28.266  33.584  1.00  0.00     0.037 A 
BRANCH  49  63
ATOM     63  C   UNL A   1      42.210  26.347  27.872  1.00  0.00     0.064 A 
ATOM     64  C   UNL A   1      43.155  26.754  26.919  1.00  0.00     0.173 A 
ATOM     65  C   UNL A   1      41.604  25.094  27.703  1.00  0.00     0.173 A 
ATOM     66  F   UNL A   1      43.750  27.952  27.025  1.00  0.00    -0.203 F 
ATOM     67  C   UNL A   1      43.456  25.954  25.820  1.00  0.00     0.198 A 
ATOM     68  C   UNL A   1      41.931  24.281  26.620  1.00  0.00     0.198 A 
ATOM     69  F   UNL A   1      40.694  24.657  28.586  1.00  0.00    -0.203 F 
ATOM     70  F   UNL A   1      44.318  26.390  24.892  1.00  0.00    -0.200 F 
ATOM     71  C   UNL A   1      42.848  24.715  25.675  1.00  0.00     0.200 A 
ATOM     72  F   UNL A   1      41.349  23.081  26.486  1.00  0.00    -0.200 F 
ATOM     73  F   UNL A   1      43.140  23.944  24.618  1.00  0.00    -0.200 F 
ENDBRANCH  49  63
BRANCH  50  74
ATOM     74  C   UNL A   1      39.247  32.013  35.560  1.00  0.00     0.064 A 
ATOM     75  C   UNL A   1      39.644  33.350  35.695  1.00  0.00     0.173 A 
ATOM     76  C   UNL A   1      38.420  31.474  36.556  1.00  0.00     0.173 A 
ATOM     77  F   UNL A   1      40.450  33.904  34.778  1.00  0.00    -0.203 F 
ATOM     78  C   UNL A   1      39.248  34.113  36.791  1.00  0.00     0.198 A 
ATOM     79  C   UNL A   1      38.005  32.245  37.641  1.00  0.00     0.198 A 
ATOM     80  F   UNL A   1      38.009  30.200  36.472  1.00  0.00    -0.203 F 
ATOM     81  F   UNL A   1      39.677  35.376  36.916  1.00  0.00    -0.200 F 
ATOM     82  C   UNL A   1      38.425  33.561  37.762  1.00  0.00     0.200 A 
ATOM     83  F   UNL A   1      37.200  31.712  38.571  1.00  0.00    -0.200 F 
ATOM     84  F   UNL A   1      38.042  34.296  38.815  1.00  0.00    -0.200 F 
ENDBRANCH  50  74
BRANCH  62  85
ATOM     85  C   UNL A   1      44.781  27.937  34.408  1.00  0.00     0.064 A 
ATOM     86  C   UNL A   1      45.935  28.731  34.371  1.00  0.00     0.173 A 
ATOM     87  C   UNL A   1      44.754  26.849  35.294  1.00  0.00     0.173 A 
ATOM     88  F   UNL A   1      46.010  29.773  33.529  1.00  0.00    -0.203 F 
ATOM     89  C   UNL A   1      47.026  28.439  35.184  1.00  0.00     0.198 A 
ATOM     90  C   UNL A   1      45.837  26.576  36.122  1.00  0.00     0.198 A 
ATOM     91  F   UNL A   1      43.668  26.066  35.368  1.00  0.00    -0.203 F 
ATOM     92  F   UNL A   1      48.134  29.192  35.111  1.00  0.00    -0.200 F 
ATOM     93  C   UNL A   1      46.973  27.368  36.064  1.00  0.00     0.200 A 
ATOM     94  F   UNL A   1      45.780  25.548  36.980  1.00  0.00    -0.200 F 
ATOM     95  F   UNL A   1      48.021  27.097  36.855  1.00  0.00    -0.200 F 
ENDBRANCH  62  85
ENDBRANCH  36  37
ENDBRANCH  28  31
ENDBRANCH  26  27
ENDBRANCH  25  26
ENDBRANCH   1  25
TORSDOF 14
ENDMDL
MODEL 2
REMARK VINA RESULT:     -12.7      3.351      5.338
REMARK SMILES C[C@H](c1ccncc1)[N@H+]1[C@@H]2CC[C@H]1C[C@H](CC(=O)NCCCCNC(=O)c1ccc(-c3c4nc(c(-c5c(F)c(F)c(F)c(F)c5F)c5ccc([nH]5)c(-c5c(F)c(F)c(F)c(F)c5F)c5nc(c(-c6c(F)c(F)c(F)c(F)c6F)c6ccc3[nH]6)C=C5)C=C4)cc1)C2
REMARK SMILES IDX 21 1 20 2 19 3 17 4 18 5 16 7 15 8 9 9 10 10 13 11 11 13
REMARK SMILES IDX 90 14 12 15 14 16 2 17 1 18 3 19 4 20 8 21 5 22 7 23 6 24
REMARK SMILES IDX 22 25 23 26 24 27 25 28 26 30 27 31 28 32 89 33 29 34 88 35
REMARK SMILES IDX 30 36 31 37 32 38 82 39 33 40 87 41 81 42 83 43 34 44 86 45
REMARK SMILES IDX 80 46 79 47 35 49 67 50 47 51 66 52 48 53 51 54 65 55 84 56
REMARK SMILES IDX 49 57 50 58 64 60 85 61 52 62 36 63 37 64 45 65 38 66 39 67
REMARK SMILES IDX 43 68 46 69 40 70 41 71 44 72 42 73 68 74 69 75 77 76 70 77
REMARK SMILES IDX 71 78 75 79 78 80 72 81 73 82 76 83 74 84 53 85 54 86 62 87
REMARK SMILES IDX 55 88 56 89 60 90 63 91 57 92 58 93 61 94 59 95
REMARK H PARENT 19 6 9 12 24 29 83 48 51 59
REMARK Flexibility Score: inf
ROOT
ATOM      1  C   UNL A   1      35.015  30.584  27.821  1.00  0.00     0.023 C 
ENDROOT
BRANCH   1   2
ATOM      2  C   UNL A   1      34.651  29.347  26.990  1.00  0.00     0.116 C 
BRANCH   2   3
ATOM      3  N   UNL A   1      33.626  28.556  27.653  1.00  0.00    -0.356 N 
ATOM      4  C   UNL A   1      32.274  28.492  27.465  1.00  0.00     0.220 C 
ATOM      5  O   UNL A   1      31.616  27.811  28.253  1.00  0.00    -0.275 OA
ATOM      6  H   UNL A   1      33.966  27.962  28.361  1.00  0.00     0.163 HD
BRANCH   4   7
ATOM      7  C   UNL A   1      31.591  29.218  26.313  1.00  0.00     0.104 C 
BRANCH   7   8
ATOM      8  C   UNL A   1      31.578  28.441  24.973  1.00  0.00     0.010 C 
ATOM      9  N   UNL A   1      29.449  28.138  22.884  1.00  0.00    -0.324 N 
ATOM     10  C   UNL A   1      30.738  28.758  22.542  1.00  0.00     0.185 C 
ATOM     11  C   UNL A   1      29.846  26.975  23.662  1.00  0.00     0.185 C 
ATOM     12  H   UNL A   1      28.892  27.819  22.091  1.00  0.00     0.349 HD
ATOM     13  C   UNL A   1      31.528  27.537  22.036  1.00  0.00     0.071 C 
ATOM     14  C   UNL A   1      31.438  29.393  23.762  1.00  0.00     0.069 C 
ATOM     15  C   UNL A   1      30.890  26.344  22.740  1.00  0.00     0.071 C 
ATOM     16  C   UNL A   1      30.496  27.356  24.987  1.00  0.00     0.069 C 
BRANCH   9  17
ATOM     17  C   UNL A   1      28.343  29.027  23.271  1.00  0.00     0.212 C 
ATOM     18  C   UNL A   1      26.879  28.571  23.190  1.00  0.00     0.081 C 
BRANCH  17  19
ATOM     19  C   UNL A   1      28.387  30.399  22.589  1.00  0.00     0.012 A 
ATOM     20  C   UNL A   1      28.099  30.581  21.230  1.00  0.00     0.030 A 
ATOM     21  C   UNL A   1      28.548  31.551  23.372  1.00  0.00     0.030 A 
ATOM     22  C   UNL A   1      27.984  31.870  20.727  1.00  0.00     0.111 A 
ATOM     23  C   UNL A   1      28.403  32.797  22.782  1.00  0.00     0.111 A 
ATOM     24  N   UNL A   1      28.123  32.983  21.475  1.00  0.00    -0.265 NA
ENDBRANCH  17  19
ENDBRANCH   9  17
ENDBRANCH   7   8
ENDBRANCH   4   7
ENDBRANCH   2   3
ENDBRANCH   1   2
BRANCH   1  25
ATOM     25  C   UNL A   1      34.426  31.898  27.348  1.00  0.00     0.023 C 
BRANCH  25  26
ATOM     26  C   UNL A   1      33.036  32.162  27.882  1.00  0.00     0.116 C 
BRANCH  26  27
ATOM     27  N   UNL A   1      32.633  33.564  27.811  1.00  0.00    -0.352 N 
ATOM     28  C   UNL A   1      33.156  34.633  28.509  1.00  0.00     0.251 C 
ATOM     29  H   UNL A   1      31.899  33.772  27.189  1.00  0.00     0.163 HD
ATOM     30  O   UNL A   1      32.673  35.751  28.417  1.00  0.00    -0.269 OA
BRANCH  28  31
ATOM     31  C   UNL A   1      34.287  34.370  29.422  1.00  0.00     0.039 A 
ATOM     32  C   UNL A   1      34.059  33.667  30.606  1.00  0.00     0.014 A 
ATOM     33  C   UNL A   1      35.585  34.675  29.008  1.00  0.00     0.014 A 
ATOM     34  C   UNL A   1      35.148  33.174  31.325  1.00  0.00     0.010 A 
ATOM     35  C   UNL A   1      36.656  34.086  29.659  1.00  0.00     0.010 A 
ATOM     36  C   UNL A   1      36.451  33.328  30.824  1.00  0.00    -0.014 A 
BRANCH  36  37
ATOM     37  C   UNL A   1      37.636  32.737  31.494  1.00  0.00     0.031 A 
ATOM     38  C   UNL A   1      38.363  31.608  30.819  1.00  0.00     0.074 A 
ATOM     39  C   UNL A   1      37.980  33.120  32.739  1.00  0.00     0.049 A 
ATOM     40  N   UNL A   1      39.281  30.807  31.295  1.00  0.00    -0.248 NA
ATOM     41  C   UNL A   1      37.958  31.302  29.436  1.00  0.00     0.031 C 
ATOM     42  C   UNL A   1      37.319  34.164  33.524  1.00  0.00     0.029 A 
ATOM     43  N   UNL A   1      38.966  32.656  33.573  1.00  0.00    -0.354 N 
ATOM     44  C   UNL A   1      39.523  29.879  30.292  1.00  0.00     0.074 A 
ATOM     45  C   UNL A   1      38.621  30.180  29.203  1.00  0.00     0.031 C 
ATOM     46  C   UNL A   1      37.932  34.277  34.714  1.00  0.00     0.029 A 
ATOM     47  C   UNL A   1      38.999  33.285  34.794  1.00  0.00     0.049 A 
ATOM     48  H   UNL A   1      39.591  31.938  33.320  1.00  0.00     0.167 HD
ATOM     49  C   UNL A   1      40.437  28.881  30.268  1.00  0.00     0.037 A 
ATOM     50  C   UNL A   1      39.798  33.076  35.858  1.00  0.00     0.037 A 
ATOM     51  C   UNL A   1      41.381  28.634  31.322  1.00  0.00     0.049 A 
ATOM     52  C   UNL A   1      40.846  31.999  35.786  1.00  0.00     0.074 A 
ATOM     53  C   UNL A   1      42.398  27.699  31.369  1.00  0.00     0.029 A 
ATOM     54  N   UNL A   1      41.431  29.345  32.513  1.00  0.00    -0.354 N 
ATOM     55  N   UNL A   1      41.100  31.156  34.814  1.00  0.00    -0.248 NA
ATOM     56  C   UNL A   1      41.723  31.845  36.955  1.00  0.00     0.031 C 
ATOM     57  C   UNL A   1      43.053  27.829  32.599  1.00  0.00     0.029 A 
ATOM     58  C   UNL A   1      42.464  28.869  33.301  1.00  0.00     0.049 A 
ATOM     59  H   UNL A   1      40.823  30.079  32.760  1.00  0.00     0.167 HD
ATOM     60  C   UNL A   1      42.182  30.397  35.238  1.00  0.00     0.074 A 
ATOM     61  C   UNL A   1      42.541  30.882  36.553  1.00  0.00     0.031 C 
ATOM     62  C   UNL A   1      42.820  29.389  34.595  1.00  0.00     0.037 A 
BRANCH  49  63
ATOM     63  C   UNL A   1      40.464  27.999  29.056  1.00  0.00     0.064 A 
ATOM     64  C   UNL A   1      41.233  28.323  27.928  1.00  0.00     0.173 A 
ATOM     65  C   UNL A   1      39.721  26.810  29.025  1.00  0.00     0.173 A 
ATOM     66  F   UNL A   1      41.947  29.458  27.900  1.00  0.00    -0.203 F 
ATOM     67  C   UNL A   1      41.228  27.508  26.799  1.00  0.00     0.198 A 
ATOM     68  C   UNL A   1      39.744  25.980  27.906  1.00  0.00     0.198 A 
ATOM     69  F   UNL A   1      38.970  26.453  30.078  1.00  0.00    -0.203 F 
ATOM     70  F   UNL A   1      41.923  27.869  25.712  1.00  0.00    -0.200 F 
ATOM     71  C   UNL A   1      40.490  26.334  26.792  1.00  0.00     0.200 A 
ATOM     72  F   UNL A   1      39.037  24.842  27.905  1.00  0.00    -0.200 F 
ATOM     73  F   UNL A   1      40.488  25.549  25.706  1.00  0.00    -0.200 F 
ENDBRANCH  49  63
BRANCH  50  74
ATOM     74  C   UNL A   1      39.665  33.927  37.069  1.00  0.00     0.064 A 
ATOM     75  C   UNL A   1      38.904  33.498  38.164  1.00  0.00     0.173 A 
ATOM     76  C   UNL A   1      40.288  35.180  37.157  1.00  0.00     0.173 A 
ATOM     77  F   UNL A   1      38.273  32.315  38.118  1.00  0.00    -0.203 F 
ATOM     78  C   UNL A   1      38.753  34.297  39.295  1.00  0.00     0.198 A 
ATOM     79  C   UNL A   1      40.156  35.969  38.300  1.00  0.00     0.198 A 
ATOM     80  F   UNL A   1      41.031  35.635  36.138  1.00  0.00    -0.203 F 
ATOM     81  F   UNL A   1      37.985  33.879  40.311  1.00  0.00    -0.200 F 
ATOM     82  C   UNL A   1      39.384  35.530  39.364  1.00  0.00     0.200 A 
ATOM     83  F   UNL A   1      40.777  37.156  38.367  1.00  0.00    -0.200 F 
ATOM     84  F   UNL A   1      39.240  36.298  40.453  1.00  0.00    -0.200 F 
ENDBRANCH  50  74
BRANCH  62  85
ATOM     85  C   UNL A   1      44.006  28.778  35.278  1.00  0.00     0.064 A 
ATOM     86  C   UNL A   1      45.305  29.261  35.068  1.00  0.00     0.173 A 
ATOM     87  C   UNL A   1      43.827  27.738  36.203  1.00  0.00     0.173 A 
ATOM     88  F   UNL A   1      45.524  30.244  34.182  1.00  0.00    -0.203 F 
ATOM     89  C   UNL A   1      46.386  28.714  35.752  1.00  0.00     0.198 A 
ATOM     90  C   UNL A   1      44.908  27.211  36.902  1.00  0.00     0.198 A 
ATOM     91  F   UNL A   1      42.601  27.249  36.440  1.00  0.00    -0.203 F 
ATOM     92  F   UNL A   1      47.626  29.168  35.515  1.00  0.00    -0.200 F 
ATOM     93  C   UNL A   1      46.186  27.697  36.673  1.00  0.00     0.200 A 
ATOM     94  F   UNL A   1      44.711  26.236  37.801  1.00  0.00    -0.200 F 
ATOM     95  F   UNL A   1      47.228  27.181  37.340  1.00  0.00    -0.200 F 
ENDBRANCH  62  85
ENDBRANCH  36  37
ENDBRANCH  28  31
ENDBRANCH  26  27
ENDBRANCH  25  26
ENDBRANCH   1  25
TORSDOF 14
ENDMDL
MODEL 3
REMARK VINA RESULT:     -12.7      5.291      9.095
REMARK SMILES C[C@H](c1ccncc1)[N@H+]1[C@@H]2CC[C@H]1C[C@H](CC(=O)NCCCCNC(=O)c1ccc(-c3c4nc(c(-c5c(F)c(F)c(F)c(F)c5F)c5ccc([nH]5)c(-c5c(F)c(F)c(F)c(F)c5F)c5nc(c(-c6c(F)c(F)c(F)c(F)c6F)c6ccc3[nH]6)C=C5)C=C4)cc1)C2
REMARK SMILES IDX 21 1 20 2 19 3 17 4 18 5 16 7 15 8 9 9 10 10 13 11 11 13
REMARK SMILES IDX 90 14 12 15 14 16 2 17 1 18 3 19 4 20 8 21 5 22 7 23 6 24
REMARK SMILES IDX 22 25 23 26 24 27 25 28 26 30 27 31 28 32 89 33 29 34 88 35
REMARK SMILES IDX 30 36 31 37 32 38 82 39 33 40 87 41 81 42 83 43 34 44 86 45
REMARK SMILES IDX 80 46 79 47 35 49 67 50 47 51 66 52 48 53 51 54 65 55 84 56
REMARK SMILES IDX 49 57 50 58 64 60 85 61 52 62 36 63 37 64 45 65 38 66 39 67
REMARK SMILES IDX 43 68 46 69 40 70 41 71 44 72 42 73 68 74 69 75 77 76 70 77
REMARK SMILES IDX 71 78 75 79 78 80 72 81 73 82 76 83 74 84 53 85 54 86 62 87
REMARK SMILES IDX 55 88 56 89 60 90 63 91 57 92 58 93 61 94 59 95
REMARK H PARENT 19 6 9 12 24 29 83 48 51 59
REMARK Flexibility Score: inf
ROOT
ATOM      1  C   UNL A   1      40.878  21.857  26.503  1.00  0.00     0.023 C 
ENDROOT
BRANCH   1   2
ATOM      2  C   UNL A   1      39.437  22.385  26.512  1.00  0.00     0.116 C 
BRANCH   2   3
ATOM      3  N   UNL A   1      38.671  21.826  25.409  1.00  0.00    -0.356 N 
ATOM      4  C   UNL A   1      37.481  22.205  24.853  1.00  0.00     0.220 C 
ATOM      5  O   UNL A   1      36.993  21.477  23.988  1.00  0.00    -0.275 OA
ATOM      6  H   UNL A   1      39.081  21.036  24.988  1.00  0.00     0.163 HD
BRANCH   4   7
ATOM      7  C   UNL A   1      36.780  23.493  25.266  1.00  0.00     0.104 C 
BRANCH   7   8
ATOM      8  C   UNL A   1      35.503  23.293  26.118  1.00  0.00     0.010 C 
ATOM      9  N   UNL A   1      33.106  21.539  25.708  1.00  0.00    -0.324 N 
ATOM     10  C   UNL A   1      33.958  21.362  26.894  1.00  0.00     0.185 C 
ATOM     11  C   UNL A   1      32.946  22.983  25.639  1.00  0.00     0.185 C 
ATOM     12  H   UNL A   1      32.180  21.115  25.767  1.00  0.00     0.349 HD
ATOM     13  C   UNL A   1      33.233  22.259  27.915  1.00  0.00     0.071 C 
ATOM     14  C   UNL A   1      35.404  21.850  26.670  1.00  0.00     0.069 C 
ATOM     15  C   UNL A   1      32.510  23.303  27.069  1.00  0.00     0.071 C 
ATOM     16  C   UNL A   1      34.255  23.699  25.328  1.00  0.00     0.069 C 
BRANCH   9  17
ATOM     17  C   UNL A   1      33.387  20.702  24.533  1.00  0.00     0.212 C 
ATOM     18  C   UNL A   1      32.522  20.777  23.266  1.00  0.00     0.081 C 
BRANCH  17  19
ATOM     19  C   UNL A   1      33.518  19.208  24.856  1.00  0.00     0.012 A 
ATOM     20  C   UNL A   1      32.445  18.435  25.317  1.00  0.00     0.030 A 
ATOM     21  C   UNL A   1      34.700  18.533  24.519  1.00  0.00     0.030 A 
ATOM     22  C   UNL A   1      32.594  17.058  25.415  1.00  0.00     0.111 A 
ATOM     23  C   UNL A   1      34.750  17.153  24.640  1.00  0.00     0.111 A 
ATOM     24  N   UNL A   1      33.722  16.399  25.080  1.00  0.00    -0.265 NA
ENDBRANCH  17  19
ENDBRANCH   9  17
ENDBRANCH   7   8
ENDBRANCH   4   7
ENDBRANCH   2   3
ENDBRANCH   1   2
BRANCH   1  25
ATOM     25  C   UNL A   1      41.045  20.391  26.164  1.00  0.00     0.023 C 
BRANCH  25  26
ATOM     26  C   UNL A   1      42.308  19.781  26.732  1.00  0.00     0.116 C 
BRANCH  26  27
ATOM     27  N   UNL A   1      43.054  18.969  25.775  1.00  0.00    -0.352 N 
ATOM     28  C   UNL A   1      44.073  19.370  24.936  1.00  0.00     0.251 C 
ATOM     29  H   UNL A   1      42.798  18.019  25.721  1.00  0.00     0.163 HD
ATOM     30  O   UNL A   1      44.563  18.605  24.119  1.00  0.00    -0.269 OA
BRANCH  28  31
ATOM     31  C   UNL A   1      44.515  20.777  25.015  1.00  0.00     0.039 A 
ATOM     32  C   UNL A   1      43.974  21.713  24.132  1.00  0.00     0.014 A 
ATOM     33  C   UNL A   1      45.331  21.178  26.075  1.00  0.00     0.014 A 
ATOM     34  C   UNL A   1      44.167  23.073  24.380  1.00  0.00     0.010 A 
ATOM     35  C   UNL A   1      45.421  22.525  26.382  1.00  0.00     0.010 A 
ATOM     36  C   UNL A   1      44.841  23.488  25.540  1.00  0.00    -0.014 A 
BRANCH  36  37
ATOM     37  C   UNL A   1      44.987  24.919  25.905  1.00  0.00     0.031 A 
ATOM     38  C   UNL A   1      46.338  25.566  25.782  1.00  0.00     0.074 A 
ATOM     39  C   UNL A   1      43.957  25.593  26.453  1.00  0.00     0.049 A 
ATOM     40  N   UNL A   1      46.750  26.723  26.229  1.00  0.00    -0.248 NA
ATOM     41  C   UNL A   1      47.384  24.774  25.113  1.00  0.00     0.031 C 
ATOM     42  C   UNL A   1      42.611  25.062  26.679  1.00  0.00     0.029 A 
ATOM     43  N   UNL A   1      43.890  26.875  26.941  1.00  0.00    -0.354 N 
ATOM     44  C   UNL A   1      48.107  26.773  25.941  1.00  0.00     0.074 A 
ATOM     45  C   UNL A   1      48.461  25.511  25.330  1.00  0.00     0.031 C 
ATOM     46  C   UNL A   1      41.848  26.015  27.238  1.00  0.00     0.029 A 
ATOM     47  C   UNL A   1      42.659  27.209  27.451  1.00  0.00     0.049 A 
ATOM     48  H   UNL A   1      44.654  27.496  26.927  1.00  0.00     0.167 HD
ATOM     49  C   UNL A   1      48.976  27.791  26.142  1.00  0.00     0.037 A 
ATOM     50  C   UNL A   1      42.240  28.349  28.032  1.00  0.00     0.037 A 
ATOM     51  C   UNL A   1      48.601  29.069  26.681  1.00  0.00     0.049 A 
ATOM     52  C   UNL A   1      43.209  29.490  28.191  1.00  0.00     0.074 A 
ATOM     53  C   UNL A   1      49.383  30.195  26.857  1.00  0.00     0.029 A 
ATOM     54  N   UNL A   1      47.324  29.393  27.117  1.00  0.00    -0.354 N 
ATOM     55  N   UNL A   1      44.480  29.545  27.872  1.00  0.00    -0.248 NA
ATOM     56  C   UNL A   1      42.687  30.728  28.786  1.00  0.00     0.031 C 
ATOM     57  C   UNL A   1      48.585  31.197  27.419  1.00  0.00     0.029 A 
ATOM     58  C   UNL A   1      47.297  30.704  27.559  1.00  0.00     0.049 A 
ATOM     59  H   UNL A   1      46.552  28.782  27.110  1.00  0.00     0.167 HD
ATOM     60  C   UNL A   1      44.900  30.827  28.195  1.00  0.00     0.074 A 
ATOM     61  C   UNL A   1      43.748  31.521  28.730  1.00  0.00     0.031 C 
ATOM     62  C   UNL A   1      46.130  31.381  28.060  1.00  0.00     0.037 A 
BRANCH  49  63
ATOM     63  C   UNL A   1      50.407  27.563  25.760  1.00  0.00     0.064 A 
ATOM     64  C   UNL A   1      51.356  27.117  26.693  1.00  0.00     0.173 A 
ATOM     65  C   UNL A   1      50.835  27.783  24.442  1.00  0.00     0.173 A 
ATOM     66  F   UNL A   1      51.001  26.909  27.970  1.00  0.00    -0.203 F 
ATOM     67  C   UNL A   1      52.687  26.935  26.330  1.00  0.00     0.198 A 
ATOM     68  C   UNL A   1      52.161  27.568  24.075  1.00  0.00     0.198 A 
ATOM     69  F   UNL A   1      49.968  28.209  23.511  1.00  0.00    -0.203 F 
ATOM     70  F   UNL A   1      53.586  26.566  27.252  1.00  0.00    -0.200 F 
ATOM     71  C   UNL A   1      53.087  27.153  25.020  1.00  0.00     0.200 A 
ATOM     72  F   UNL A   1      52.544  27.772  22.807  1.00  0.00    -0.200 F 
ATOM     73  F   UNL A   1      54.369  26.975  24.671  1.00  0.00    -0.200 F 
ENDBRANCH  49  63
BRANCH  50  74
ATOM     74  C   UNL A   1      40.827  28.486  28.472  1.00  0.00     0.064 A 
ATOM     75  C   UNL A   1      39.848  28.969  27.592  1.00  0.00     0.173 A 
ATOM     76  C   UNL A   1      40.425  28.145  29.771  1.00  0.00     0.173 A 
ATOM     77  F   UNL A   1      40.189  29.327  26.345  1.00  0.00    -0.203 F 
ATOM     78  C   UNL A   1      38.525  29.124  27.999  1.00  0.00     0.198 A 
ATOM     79  C   UNL A   1      39.096  28.277  30.171  1.00  0.00     0.198 A 
ATOM     80  F   UNL A   1      41.322  27.674  30.650  1.00  0.00    -0.203 F 
ATOM     81  F   UNL A   1      37.619  29.626  27.149  1.00  0.00    -0.200 F 
ATOM     82  C   UNL A   1      38.149  28.773  29.287  1.00  0.00     0.200 A 
ATOM     83  F   UNL A   1      38.734  27.927  31.413  1.00  0.00    -0.200 F 
ATOM     84  F   UNL A   1      36.875  28.920  29.678  1.00  0.00    -0.200 F 
ENDBRANCH  50  74
BRANCH  62  85
ATOM     85  C   UNL A   1      46.284  32.821  28.446  1.00  0.00     0.064 A 
ATOM     86  C   UNL A   1      46.067  33.855  27.525  1.00  0.00     0.173 A 
ATOM     87  C   UNL A   1      46.590  33.166  29.771  1.00  0.00     0.173 A 
ATOM     88  F   UNL A   1      45.787  33.571  26.245  1.00  0.00    -0.203 F 
ATOM     89  C   UNL A   1      46.163  35.187  27.916  1.00  0.00     0.198 A 
ATOM     90  C   UNL A   1      46.661  34.499  30.162  1.00  0.00     0.198 A 
ATOM     91  F   UNL A   1      46.799  32.210  30.687  1.00  0.00    -0.203 F 
ATOM     92  F   UNL A   1      45.983  36.163  27.015  1.00  0.00    -0.200 F 
ATOM     93  C   UNL A   1      46.451  35.508  29.235  1.00  0.00     0.200 A 
ATOM     94  F   UNL A   1      46.928  34.807  31.440  1.00  0.00    -0.200 F 
ATOM     95  F   UNL A   1      46.531  36.791  29.612  1.00  0.00    -0.200 F 
ENDBRANCH  62  85
ENDBRANCH  36  37
ENDBRANCH  28  31
ENDBRANCH  26  27
ENDBRANCH  25  26
ENDBRANCH   1  25
TORSDOF 14
ENDMDL
