MODEL 1
REMARK VINA RESULT:     -12.1      0.000      0.000
REMARK SMILES COc1cccc(CC2(CO)CCN(c3nc(C)ccc3C(=O)NCCCCNC(=O)c3ccc(-c4c5nc(c(-c6c(F)c(F)c(F)c(F)c6F)c6ccc([nH]6)c(-c6c(F)c(F)c(F)c(F)c6F)c6nc(c(-c7c(F)c(F)c(F)c(F)c7F)c7ccc4[nH]7)C=C6)C=C5)cc3)CC2)c1
REMARK SMILES IDX 25 1 24 2 22 3 23 4 21 6 15 7 16 8 17 9 20 10 18 11 19 12
REMARK SMILES IDX 14 13 9 14 12 15 96 16 13 17 95 18 8 19 7 20 3 21 4 22 97 23
REMARK SMILES IDX 5 24 6 25 2 26 1 27 10 28 11 29 26 31 27 32 28 33 29 34
REMARK SMILES IDX 30 35 31 37 32 38 33 39 94 40 34 41 93 42 35 43 36 44 37 45
REMARK SMILES IDX 87 46 38 47 92 48 86 49 88 50 39 51 91 52 85 53 84 54 40 56
REMARK SMILES IDX 72 57 52 58 71 59 53 60 56 61 70 62 89 63 54 64 55 65 69 67
REMARK SMILES IDX 90 68 57 69 41 70 42 71 50 72 43 73 44 74 48 75 51 76 45 77
REMARK SMILES IDX 46 78 49 79 47 80 73 81 74 82 82 83 75 84 76 85 80 86 83 87
REMARK SMILES IDX 77 88 78 89 81 90 79 91 58 92 59 93 67 94 60 95 61 96 65 97
REMARK SMILES IDX 68 98 62 99 63 100 66 101 64 102
REMARK H PARENT 24 5 11 30 29 36 88 55 56 66
REMARK Flexibility Score: inf
ROOT
ATOM      1  C   UNL A   1      37.632  23.213  25.424  1.00  0.00     0.116 C 
ENDROOT
BRANCH   1   2
ATOM      2  N   UNL A   1      36.452  23.255  26.260  1.00  0.00    -0.352 N 
ATOM      3  C   UNL A   1      35.181  22.731  26.275  1.00  0.00     0.255 C 
ATOM      4  O   UNL A   1      34.592  23.068  27.300  1.00  0.00    -0.269 OA
ATOM      5  H   UNL A   1      36.603  23.825  27.048  1.00  0.00     0.163 HD
BRANCH   3   6
ATOM      6  C   UNL A   1      34.555  21.814  25.255  1.00  0.00     0.082 A 
ATOM      7  C   UNL A   1      33.572  22.196  24.310  1.00  0.00     0.141 A 
ATOM      8  N   UNL A   1      32.937  21.224  23.571  1.00  0.00    -0.235 NA
ATOM      9  C   UNL A   1      33.133  19.913  23.772  1.00  0.00     0.040 A 
ATOM     10  C   UNL A   1      34.817  20.432  25.340  1.00  0.00     0.019 A 
ATOM     11  C   UNL A   1      32.152  18.980  23.135  1.00  0.00     0.067 C 
ATOM     12  C   UNL A   1      34.094  19.474  24.636  1.00  0.00     0.024 A 
BRANCH   7  13
ATOM     13  N   UNL A   1      33.035  23.441  24.012  1.00  0.00    -0.356 N 
ATOM     14  C   UNL A   1      31.511  25.891  23.283  1.00  0.00     0.001 C 
ATOM     15  C   UNL A   1      31.090  24.470  22.861  1.00  0.00     0.031 C 
ATOM     16  C   UNL A   1      33.026  25.881  23.621  1.00  0.00     0.031 C 
ATOM     17  C   UNL A   1      31.595  23.345  23.752  1.00  0.00     0.119 C 
ATOM     18  C   UNL A   1      33.481  24.732  24.525  1.00  0.00     0.119 C 
BRANCH  14  19
ATOM     19  C   UNL A   1      30.591  26.501  24.406  1.00  0.00     0.045 C 
BRANCH  19  20
ATOM     20  C   UNL A   1      31.119  27.500  25.411  1.00  0.00    -0.044 A 
ATOM     21  C   UNL A   1      31.773  29.756  26.005  1.00  0.00     0.119 A 
ATOM     22  C   UNL A   1      32.226  29.329  27.249  1.00  0.00     0.046 A 
ATOM     23  C   UNL A   1      31.270  28.850  25.069  1.00  0.00     0.050 A 
ATOM     24  C   UNL A   1      32.024  28.007  27.620  1.00  0.00     0.004 A 
ATOM     25  C   UNL A   1      31.411  27.120  26.730  1.00  0.00     0.004 A 
BRANCH  21  26
ATOM     26  O   UNL A   1      31.816  31.093  25.712  1.00  0.00    -0.497 OA
ATOM     27  C   UNL A   1      31.409  31.824  26.874  1.00  0.00     0.278 C 
ENDBRANCH  21  26
ENDBRANCH  19  20
ENDBRANCH  14  19
BRANCH  14  28
ATOM     28  C   UNL A   1      31.346  26.826  22.045  1.00  0.00     0.163 C 
BRANCH  28  29
ATOM     29  O   UNL A   1      31.506  26.124  20.816  1.00  0.00    -0.396 OA
ATOM     30  H   UNL A   1      30.913  25.357  20.804  1.00  0.00     0.210 HD
ENDBRANCH  28  29
ENDBRANCH  14  28
ENDBRANCH   7  13
ENDBRANCH   3   6
ENDBRANCH   1   2
BRANCH   1  31
ATOM     31  C   UNL A   1      38.779  22.471  26.098  1.00  0.00     0.023 C 
BRANCH  31  32
ATOM     32  C   UNL A   1      39.047  21.085  25.497  1.00  0.00     0.023 C 
BRANCH  32  33
ATOM     33  C   UNL A   1      39.449  20.006  26.502  1.00  0.00     0.116 C 
BRANCH  33  34
ATOM     34  N   UNL A   1      40.534  19.154  26.035  1.00  0.00    -0.352 N 
ATOM     35  C   UNL A   1      41.861  19.465  25.885  1.00  0.00     0.251 C 
ATOM     36  H   UNL A   1      40.282  18.233  25.796  1.00  0.00     0.163 HD
ATOM     37  O   UNL A   1      42.638  18.660  25.378  1.00  0.00    -0.269 OA
BRANCH  35  38
ATOM     38  C   UNL A   1      42.341  20.795  26.303  1.00  0.00     0.039 A 
ATOM     39  C   UNL A   1      42.711  21.713  25.320  1.00  0.00     0.014 A 
ATOM     40  C   UNL A   1      42.390  21.139  27.656  1.00  0.00     0.014 A 
ATOM     41  C   UNL A   1      43.080  23.005  25.695  1.00  0.00     0.010 A 
ATOM     42  C   UNL A   1      42.684  22.448  28.022  1.00  0.00     0.010 A 
ATOM     43  C   UNL A   1      43.038  23.391  27.046  1.00  0.00    -0.014 A 
BRANCH  43  44
ATOM     44  C   UNL A   1      43.372  24.778  27.449  1.00  0.00     0.031 A 
ATOM     45  C   UNL A   1      44.808  25.221  27.502  1.00  0.00     0.074 A 
ATOM     46  C   UNL A   1      42.387  25.621  27.811  1.00  0.00     0.049 A 
ATOM     47  N   UNL A   1      45.303  26.380  27.853  1.00  0.00    -0.248 NA
ATOM     48  C   UNL A   1      45.822  24.221  27.136  1.00  0.00     0.031 C 
ATOM     49  C   UNL A   1      40.961  25.286  27.852  1.00  0.00     0.029 A 
ATOM     50  N   UNL A   1      42.431  26.930  28.218  1.00  0.00    -0.354 N 
ATOM     51  C   UNL A   1      46.682  26.245  27.757  1.00  0.00     0.074 A 
ATOM     52  C   UNL A   1      46.949  24.875  27.379  1.00  0.00     0.031 C 
ATOM     53  C   UNL A   1      40.266  26.371  28.228  1.00  0.00     0.029 A 
ATOM     54  C   UNL A   1      41.196  27.465  28.491  1.00  0.00     0.049 A 
ATOM     55  H   UNL A   1      43.270  27.438  28.304  1.00  0.00     0.167 HD
ATOM     56  C   UNL A   1      47.637  27.187  27.938  1.00  0.00     0.037 A 
ATOM     57  C   UNL A   1      40.856  28.699  28.909  1.00  0.00     0.037 A 
ATOM     58  C   UNL A   1      47.363  28.553  28.296  1.00  0.00     0.049 A 
ATOM     59  C   UNL A   1      41.939  29.722  29.116  1.00  0.00     0.074 A 
ATOM     60  C   UNL A   1      48.253  29.601  28.452  1.00  0.00     0.029 A 
ATOM     61  N   UNL A   1      46.099  29.062  28.559  1.00  0.00    -0.354 N 
ATOM     62  N   UNL A   1      43.234  29.607  28.946  1.00  0.00    -0.248 NA
ATOM     63  C   UNL A   1      41.512  31.054  29.566  1.00  0.00     0.031 C 
ATOM     64  C   UNL A   1      47.534  30.729  28.859  1.00  0.00     0.029 A 
ATOM     65  C   UNL A   1      46.188  30.401  28.899  1.00  0.00     0.049 A 
ATOM     66  H   UNL A   1      45.261  28.546  28.510  1.00  0.00     0.167 HD
ATOM     67  C   UNL A   1      43.771  30.853  29.238  1.00  0.00     0.074 A 
ATOM     68  C   UNL A   1      42.660  31.716  29.578  1.00  0.00     0.031 C 
ATOM     69  C   UNL A   1      45.069  31.247  29.227  1.00  0.00     0.037 A 
BRANCH  56  70
ATOM     70  C   UNL A   1      49.068  26.772  27.745  1.00  0.00     0.064 A 
ATOM     71  C   UNL A   1      49.888  26.434  28.833  1.00  0.00     0.173 A 
ATOM     72  C   UNL A   1      49.616  26.679  26.458  1.00  0.00     0.173 A 
ATOM     73  F   UNL A   1      49.419  26.517  30.086  1.00  0.00    -0.203 F 
ATOM     74  C   UNL A   1      51.213  26.050  28.639  1.00  0.00     0.198 A 
ATOM     75  C   UNL A   1      50.931  26.262  26.266  1.00  0.00     0.198 A 
ATOM     76  F   UNL A   1      48.875  26.985  25.382  1.00  0.00    -0.203 F 
ATOM     77  F   UNL A   1      51.993  25.785  29.697  1.00  0.00    -0.200 F 
ATOM     78  C   UNL A   1      51.730  25.957  27.357  1.00  0.00     0.200 A 
ATOM     79  F   UNL A   1      51.426  26.159  25.024  1.00  0.00    -0.200 F 
ATOM     80  F   UNL A   1      53.003  25.579  27.172  1.00  0.00    -0.200 F 
ENDBRANCH  56  70
BRANCH  57  81
ATOM     81  C   UNL A   1      39.426  29.043  29.129  1.00  0.00     0.064 A 
ATOM     82  C   UNL A   1      38.618  29.475  28.068  1.00  0.00     0.173 A 
ATOM     83  C   UNL A   1      38.842  28.963  30.402  1.00  0.00     0.173 A 
ATOM     84  F   UNL A   1      39.135  29.587  26.835  1.00  0.00    -0.203 F 
ATOM     85  C   UNL A   1      37.289  29.838  28.276  1.00  0.00     0.198 A 
ATOM     86  C   UNL A   1      37.504  29.295  30.602  1.00  0.00     0.198 A 
ATOM     87  F   UNL A   1      39.570  28.550  31.450  1.00  0.00    -0.203 F 
ATOM     88  F   UNL A   1      36.555  30.297  27.253  1.00  0.00    -0.200 F 
ATOM     89  C   UNL A   1      36.732  29.743  29.542  1.00  0.00     0.200 A 
ATOM     90  F   UNL A   1      36.965  29.188  31.824  1.00  0.00    -0.200 F 
ATOM     91  F   UNL A   1      35.452  30.090  29.741  1.00  0.00    -0.200 F 
ENDBRANCH  57  81
BRANCH  69  92
ATOM     92  C   UNL A   1      45.353  32.685  29.557  1.00  0.00     0.064 A 
ATOM     93  C   UNL A   1      45.608  33.104  30.871  1.00  0.00     0.173 A 
ATOM     94  C   UNL A   1      45.410  33.647  28.538  1.00  0.00     0.173 A 
ATOM     95  F   UNL A   1      45.551  32.225  31.883  1.00  0.00    -0.203 F 
ATOM     96  C   UNL A   1      45.880  34.439  31.156  1.00  0.00     0.198 A 
ATOM     97  C   UNL A   1      45.717  34.974  28.821  1.00  0.00     0.198 A 
ATOM     98  F   UNL A   1      45.182  33.298  27.262  1.00  0.00    -0.203 F 
ATOM     99  F   UNL A   1      46.068  34.826  32.425  1.00  0.00    -0.200 F 
ATOM    100  C   UNL A   1      45.942  35.371  30.130  1.00  0.00     0.200 A 
ATOM    101  F   UNL A   1      45.792  35.871  27.828  1.00  0.00    -0.200 F 
ATOM    102  F   UNL A   1      46.212  36.655  30.405  1.00  0.00    -0.200 F 
ENDBRANCH  69  92
ENDBRANCH  43  44
ENDBRANCH  35  38
ENDBRANCH  33  34
ENDBRANCH  32  33
ENDBRANCH  31  32
ENDBRANCH   1  31
TORSDOF 17
ENDMDL
MODEL 2
REMARK VINA RESULT:     -12.0      5.120      9.982
REMARK SMILES COc1cccc(CC2(CO)CCN(c3nc(C)ccc3C(=O)NCCCCNC(=O)c3ccc(-c4c5nc(c(-c6c(F)c(F)c(F)c(F)c6F)c6ccc([nH]6)c(-c6c(F)c(F)c(F)c(F)c6F)c6nc(c(-c7c(F)c(F)c(F)c(F)c7F)c7ccc4[nH]7)C=C6)C=C5)cc3)CC2)c1
REMARK SMILES IDX 25 1 24 2 22 3 23 4 21 6 15 7 16 8 17 9 20 10 18 11 19 12
REMARK SMILES IDX 14 13 9 14 12 15 96 16 13 17 95 18 8 19 7 20 3 21 4 22 97 23
REMARK SMILES IDX 5 24 6 25 2 26 1 27 10 28 11 29 26 31 27 32 28 33 29 34
REMARK SMILES IDX 30 35 31 37 32 38 33 39 94 40 34 41 93 42 35 43 36 44 37 45
REMARK SMILES IDX 87 46 38 47 92 48 86 49 88 50 39 51 91 52 85 53 84 54 40 56
REMARK SMILES IDX 72 57 52 58 71 59 53 60 56 61 70 62 89 63 54 64 55 65 69 67
REMARK SMILES IDX 90 68 57 69 41 70 42 71 50 72 43 73 44 74 48 75 51 76 45 77
REMARK SMILES IDX 46 78 49 79 47 80 73 81 74 82 82 83 75 84 76 85 80 86 83 87
REMARK SMILES IDX 77 88 78 89 81 90 79 91 58 92 59 93 67 94 60 95 61 96 65 97
REMARK SMILES IDX 68 98 62 99 63 100 66 101 64 102
REMARK H PARENT 24 5 11 30 29 36 88 55 56 66
REMARK Flexibility Score: inf
ROOT
ATOM      1  C   UNL A   1      33.316  30.100  26.695  1.00  0.00     0.116 C 
ENDROOT
BRANCH   1   2
ATOM      2  N   UNL A   1      33.581  29.708  25.328  1.00  0.00    -0.352 N 
ATOM      3  C   UNL A   1      32.886  29.255  24.233  1.00  0.00     0.255 C 
ATOM      4  O   UNL A   1      33.639  29.128  23.270  1.00  0.00    -0.269 OA
ATOM      5  H   UNL A   1      34.540  29.789  25.122  1.00  0.00     0.163 HD
BRANCH   3   6
ATOM      6  C   UNL A   1      31.403  28.995  24.131  1.00  0.00     0.082 A 
ATOM      7  C   UNL A   1      30.782  27.734  24.307  1.00  0.00     0.141 A 
ATOM      8  N   UNL A   1      29.451  27.591  23.991  1.00  0.00    -0.235 NA
ATOM      9  C   UNL A   1      28.728  28.569  23.426  1.00  0.00     0.040 A 
ATOM     10  C   UNL A   1      30.570  30.026  23.652  1.00  0.00     0.019 A 
ATOM     11  C   UNL A   1      27.407  28.179  22.844  1.00  0.00     0.067 C 
ATOM     12  C   UNL A   1      29.249  29.820  23.265  1.00  0.00     0.024 A 
BRANCH   7  13
ATOM     13  N   UNL A   1      31.309  26.511  24.698  1.00  0.00    -0.356 N 
ATOM     14  C   UNL A   1      32.018  23.769  25.612  1.00  0.00     0.001 C 
ATOM     15  C   UNL A   1      30.675  24.452  25.934  1.00  0.00     0.031 C 
ATOM     16  C   UNL A   1      33.063  24.864  25.264  1.00  0.00     0.031 C 
ATOM     17  C   UNL A   1      30.243  25.539  24.960  1.00  0.00     0.119 C 
ATOM     18  C   UNL A   1      32.579  25.930  24.276  1.00  0.00     0.119 C 
BRANCH  14  19
ATOM     19  C   UNL A   1      31.888  22.620  24.543  1.00  0.00     0.045 C 
BRANCH  19  20
ATOM     20  C   UNL A   1      32.798  21.412  24.561  1.00  0.00    -0.044 A 
ATOM     21  C   UNL A   1      33.131  19.016  24.432  1.00  0.00     0.119 A 
ATOM     22  C   UNL A   1      34.485  19.159  24.723  1.00  0.00     0.046 A 
ATOM     23  C   UNL A   1      32.279  20.121  24.399  1.00  0.00     0.050 A 
ATOM     24  C   UNL A   1      35.019  20.436  24.823  1.00  0.00     0.004 A 
ATOM     25  C   UNL A   1      34.190  21.552  24.672  1.00  0.00     0.004 A 
BRANCH  21  26
ATOM     26  O   UNL A   1      32.644  17.765  24.163  1.00  0.00    -0.497 OA
ATOM     27  C   UNL A   1      33.637  16.803  24.537  1.00  0.00     0.278 C 
ENDBRANCH  21  26
ENDBRANCH  19  20
ENDBRANCH  14  19
BRANCH  14  28
ATOM     28  C   UNL A   1      32.528  23.079  26.916  1.00  0.00     0.163 C 
BRANCH  28  29
ATOM     29  O   UNL A   1      31.458  22.603  27.726  1.00  0.00    -0.396 OA
ATOM     30  H   UNL A   1      30.619  22.721  27.254  1.00  0.00     0.210 HD
ENDBRANCH  28  29
ENDBRANCH  14  28
ENDBRANCH   7  13
ENDBRANCH   3   6
ENDBRANCH   1   2
BRANCH   1  31
ATOM     31  C   UNL A   1      31.858  30.493  26.900  1.00  0.00     0.023 C 
BRANCH  31  32
ATOM     32  C   UNL A   1      31.623  32.009  26.866  1.00  0.00     0.023 C 
BRANCH  32  33
ATOM     33  C   UNL A   1      32.832  32.865  27.241  1.00  0.00     0.116 C 
BRANCH  33  34
ATOM     34  N   UNL A   1      32.482  34.220  27.644  1.00  0.00    -0.352 N 
ATOM     35  C   UNL A   1      33.029  34.984  28.641  1.00  0.00     0.251 C 
ATOM     36  H   UNL A   1      31.755  34.643  27.132  1.00  0.00     0.163 HD
ATOM     37  O   UNL A   1      32.549  36.078  28.926  1.00  0.00    -0.269 OA
BRANCH  35  38
ATOM     38  C   UNL A   1      34.181  34.461  29.399  1.00  0.00     0.039 A 
ATOM     39  C   UNL A   1      33.945  33.800  30.605  1.00  0.00     0.014 A 
ATOM     40  C   UNL A   1      35.479  34.595  28.901  1.00  0.00     0.014 A 
ATOM     41  C   UNL A   1      35.014  33.220  31.288  1.00  0.00     0.010 A 
ATOM     42  C   UNL A   1      36.531  33.952  29.543  1.00  0.00     0.010 A 
ATOM     43  C   UNL A   1      36.310  33.264  30.745  1.00  0.00    -0.014 A 
BRANCH  43  44
ATOM     44  C   UNL A   1      37.443  32.602  31.434  1.00  0.00     0.031 A 
ATOM     45  C   UNL A   1      38.170  31.467  30.768  1.00  0.00     0.074 A 
ATOM     46  C   UNL A   1      37.786  32.993  32.676  1.00  0.00     0.049 A 
ATOM     47  N   UNL A   1      39.165  30.746  31.216  1.00  0.00    -0.248 NA
ATOM     48  C   UNL A   1      37.698  31.074  29.431  1.00  0.00     0.031 C 
ATOM     49  C   UNL A   1      37.119  34.047  33.444  1.00  0.00     0.029 A 
ATOM     50  N   UNL A   1      38.778  32.550  33.514  1.00  0.00    -0.354 N 
ATOM     51  C   UNL A   1      39.432  29.813  30.222  1.00  0.00     0.074 A 
ATOM     52  C   UNL A   1      38.453  30.015  29.177  1.00  0.00     0.031 C 
ATOM     53  C   UNL A   1      37.741  34.190  34.625  1.00  0.00     0.029 A 
ATOM     54  C   UNL A   1      38.825  33.216  34.713  1.00  0.00     0.049 A 
ATOM     55  H   UNL A   1      39.398  31.823  33.276  1.00  0.00     0.167 HD
ATOM     56  C   UNL A   1      40.423  28.892  30.173  1.00  0.00     0.037 A 
ATOM     57  C   UNL A   1      39.650  33.056  35.766  1.00  0.00     0.037 A 
ATOM     58  C   UNL A   1      41.404  28.709  31.209  1.00  0.00     0.049 A 
ATOM     59  C   UNL A   1      40.733  32.014  35.690  1.00  0.00     0.074 A 
ATOM     60  C   UNL A   1      42.482  27.841  31.234  1.00  0.00     0.029 A 
ATOM     61  N   UNL A   1      41.426  29.407  32.408  1.00  0.00    -0.354 N 
ATOM     62  N   UNL A   1      41.026  31.190  34.712  1.00  0.00    -0.248 NA
ATOM     63  C   UNL A   1      41.609  31.886  36.863  1.00  0.00     0.031 C 
ATOM     64  C   UNL A   1      43.123  27.977  32.469  1.00  0.00     0.029 A 
ATOM     65  C   UNL A   1      42.482  28.971  33.190  1.00  0.00     0.049 A 
ATOM     66  H   UNL A   1      40.783  30.108  32.665  1.00  0.00     0.167 HD
ATOM     67  C   UNL A   1      42.134  30.470  35.138  1.00  0.00     0.074 A 
ATOM     68  C   UNL A   1      42.472  30.966  36.456  1.00  0.00     0.031 C 
ATOM     69  C   UNL A   1      42.808  29.484  34.497  1.00  0.00     0.037 A 
BRANCH  56  70
ATOM     70  C   UNL A   1      40.496  28.016  28.955  1.00  0.00     0.064 A 
ATOM     71  C   UNL A   1      39.780  26.812  28.871  1.00  0.00     0.173 A 
ATOM     72  C   UNL A   1      41.265  28.398  27.847  1.00  0.00     0.173 A 
ATOM     73  F   UNL A   1      39.038  26.392  29.907  1.00  0.00    -0.203 F 
ATOM     74  C   UNL A   1      39.857  26.009  27.735  1.00  0.00     0.198 A 
ATOM     75  C   UNL A   1      41.313  27.610  26.700  1.00  0.00     0.198 A 
ATOM     76  F   UNL A   1      41.967  29.542  27.870  1.00  0.00    -0.203 F 
ATOM     77  F   UNL A   1      39.206  24.837  27.700  1.00  0.00    -0.200 F 
ATOM     78  C   UNL A   1      40.617  26.412  26.649  1.00  0.00     0.200 A 
ATOM     79  F   UNL A   1      42.037  28.007  25.644  1.00  0.00    -0.200 F 
ATOM     80  F   UNL A   1      40.683  25.642  25.553  1.00  0.00    -0.200 F 
ENDBRANCH  56  70
BRANCH  57  81
ATOM     81  C   UNL A   1      39.503  33.920  36.966  1.00  0.00     0.064 A 
ATOM     82  C   UNL A   1      40.099  35.188  37.018  1.00  0.00     0.173 A 
ATOM     83  C   UNL A   1      38.780  33.494  38.090  1.00  0.00     0.173 A 
ATOM     84  F   UNL A   1      40.818  35.633  35.976  1.00  0.00    -0.203 F 
ATOM     85  C   UNL A   1      39.999  35.986  38.156  1.00  0.00     0.198 A 
ATOM     86  C   UNL A   1      38.654  34.307  39.215  1.00  0.00     0.198 A 
ATOM     87  F   UNL A   1      38.186  32.292  38.091  1.00  0.00    -0.203 F 
ATOM     88  F   UNL A   1      40.622  37.172  38.196  1.00  0.00    -0.200 F 
ATOM     89  C   UNL A   1      39.272  35.547  39.251  1.00  0.00     0.200 A 
ATOM     90  F   UNL A   1      37.939  33.885  40.266  1.00  0.00    -0.200 F 
ATOM     91  F   UNL A   1      39.174  36.316  40.345  1.00  0.00    -0.200 F 
ENDBRANCH  57  81
BRANCH  69  92
ATOM     92  C   UNL A   1      44.005  28.903  35.196  1.00  0.00     0.064 A 
ATOM     93  C   UNL A   1      43.893  27.800  36.054  1.00  0.00     0.173 A 
ATOM     94  C   UNL A   1      45.284  29.434  34.971  1.00  0.00     0.173 A 
ATOM     95  F   UNL A   1      42.691  27.264  36.314  1.00  0.00    -0.203 F 
ATOM     96  C   UNL A   1      45.015  27.268  36.685  1.00  0.00     0.198 A 
ATOM     97  C   UNL A   1      46.407  28.879  35.575  1.00  0.00     0.198 A 
ATOM     98  F   UNL A   1      45.446  30.484  34.152  1.00  0.00    -0.203 F 
ATOM     99  F   UNL A   1      44.878  26.247  37.543  1.00  0.00    -0.200 F 
ATOM    100  C   UNL A   1      46.271  27.802  36.439  1.00  0.00     0.200 A 
ATOM    101  F   UNL A   1      47.622  29.386  35.324  1.00  0.00    -0.200 F 
ATOM    102  F   UNL A   1      47.351  27.284  37.041  1.00  0.00    -0.200 F 
ENDBRANCH  69  92
ENDBRANCH  43  44
ENDBRANCH  35  38
ENDBRANCH  33  34
ENDBRANCH  32  33
ENDBRANCH  31  32
ENDBRANCH   1  31
TORSDOF 17
ENDMDL
MODEL 3
REMARK VINA RESULT:     -12.0      4.938     10.604
REMARK SMILES COc1cccc(CC2(CO)CCN(c3nc(C)ccc3C(=O)NCCCCNC(=O)c3ccc(-c4c5nc(c(-c6c(F)c(F)c(F)c(F)c6F)c6ccc([nH]6)c(-c6c(F)c(F)c(F)c(F)c6F)c6nc(c(-c7c(F)c(F)c(F)c(F)c7F)c7ccc4[nH]7)C=C6)C=C5)cc3)CC2)c1
REMARK SMILES IDX 25 1 24 2 22 3 23 4 21 6 15 7 16 8 17 9 20 10 18 11 19 12
REMARK SMILES IDX 14 13 9 14 12 15 96 16 13 17 95 18 8 19 7 20 3 21 4 22 97 23
REMARK SMILES IDX 5 24 6 25 2 26 1 27 10 28 11 29 26 31 27 32 28 33 29 34
REMARK SMILES IDX 30 35 31 37 32 38 33 39 94 40 34 41 93 42 35 43 36 44 37 45
REMARK SMILES IDX 87 46 38 47 92 48 86 49 88 50 39 51 91 52 85 53 84 54 40 56
REMARK SMILES IDX 72 57 52 58 71 59 53 60 56 61 70 62 89 63 54 64 55 65 69 67
REMARK SMILES IDX 90 68 57 69 41 70 42 71 50 72 43 73 44 74 48 75 51 76 45 77
REMARK SMILES IDX 46 78 49 79 47 80 73 81 74 82 82 83 75 84 76 85 80 86 83 87
REMARK SMILES IDX 77 88 78 89 81 90 79 91 58 92 59 93 67 94 60 95 61 96 65 97
REMARK SMILES IDX 68 98 62 99 63 100 66 101 64 102
REMARK H PARENT 24 5 11 30 29 36 88 55 56 66
REMARK Flexibility Score: inf
ROOT
ATOM      1  C   UNL A   1      33.268  30.112  26.756  1.00  0.00     0.116 C 
ENDROOT
BRANCH   1   2
ATOM      2  N   UNL A   1      33.550  29.703  25.397  1.00  0.00    -0.352 N 
ATOM      3  C   UNL A   1      32.863  29.280  24.284  1.00  0.00     0.255 C 
ATOM      4  O   UNL A   1      33.635  29.113  23.343  1.00  0.00    -0.269 OA
ATOM      5  H   UNL A   1      34.517  29.737  25.217  1.00  0.00     0.163 HD
BRANCH   3   6
ATOM      6  C   UNL A   1      31.373  29.092  24.143  1.00  0.00     0.082 A 
ATOM      7  C   UNL A   1      30.686  27.865  24.312  1.00  0.00     0.141 A 
ATOM      8  N   UNL A   1      29.359  27.784  23.960  1.00  0.00    -0.235 NA
ATOM      9  C   UNL A   1      28.701  28.791  23.366  1.00  0.00     0.040 A 
ATOM     10  C   UNL A   1      30.605  30.158  23.633  1.00  0.00     0.019 A 
ATOM     11  C   UNL A   1      27.378  28.461  22.751  1.00  0.00     0.067 C 
ATOM     12  C   UNL A   1      29.287  30.013  23.210  1.00  0.00     0.024 A 
BRANCH   7  13
ATOM     13  N   UNL A   1      31.141  26.620  24.727  1.00  0.00    -0.356 N 
ATOM     14  C   UNL A   1      31.698  23.819  25.561  1.00  0.00     0.001 C 
ATOM     15  C   UNL A   1      30.287  24.437  25.545  1.00  0.00     0.031 C 
ATOM     16  C   UNL A   1      32.743  24.965  25.621  1.00  0.00     0.031 C 
ATOM     17  C   UNL A   1      30.094  25.604  24.589  1.00  0.00     0.119 C 
ATOM     18  C   UNL A   1      32.506  26.112  24.634  1.00  0.00     0.119 C 
BRANCH  14  19
ATOM     19  C   UNL A   1      31.930  22.778  24.402  1.00  0.00     0.045 C 
BRANCH  19  20
ATOM     20  C   UNL A   1      32.876  21.609  24.562  1.00  0.00    -0.044 A 
ATOM     21  C   UNL A   1      35.097  20.727  24.960  1.00  0.00     0.119 A 
ATOM     22  C   UNL A   1      34.654  19.427  24.732  1.00  0.00     0.046 A 
ATOM     23  C   UNL A   1      34.235  21.817  24.829  1.00  0.00     0.050 A 
ATOM     24  C   UNL A   1      33.299  19.205  24.529  1.00  0.00     0.004 A 
ATOM     25  C   UNL A   1      32.411  20.285  24.515  1.00  0.00     0.004 A 
BRANCH  21  26
ATOM     26  O   UNL A   1      36.400  20.923  25.331  1.00  0.00    -0.497 OA
ATOM     27  C   UNL A   1      37.028  21.760  24.353  1.00  0.00     0.278 C 
ENDBRANCH  21  26
ENDBRANCH  19  20
ENDBRANCH  14  19
BRANCH  14  28
ATOM     28  C   UNL A   1      31.854  23.016  26.890  1.00  0.00     0.163 C 
BRANCH  28  29
ATOM     29  O   UNL A   1      30.636  22.953  27.626  1.00  0.00    -0.396 OA
ATOM     30  H   UNL A   1      30.809  22.580  28.504  1.00  0.00     0.210 HD
ENDBRANCH  28  29
ENDBRANCH  14  28
ENDBRANCH   7  13
ENDBRANCH   3   6
ENDBRANCH   1   2
BRANCH   1  31
ATOM     31  C   UNL A   1      31.802  30.484  26.942  1.00  0.00     0.023 C 
BRANCH  31  32
ATOM     32  C   UNL A   1      31.539  31.994  26.863  1.00  0.00     0.023 C 
BRANCH  32  33
ATOM     33  C   UNL A   1      32.759  32.882  27.104  1.00  0.00     0.116 C 
BRANCH  33  34
ATOM     34  N   UNL A   1      32.424  34.199  27.626  1.00  0.00    -0.352 N 
ATOM     35  C   UNL A   1      33.000  34.878  28.668  1.00  0.00     0.251 C 
ATOM     36  H   UNL A   1      31.684  34.663  27.172  1.00  0.00     0.163 HD
ATOM     37  O   UNL A   1      32.531  35.945  29.055  1.00  0.00    -0.269 OA
BRANCH  35  38
ATOM     38  C   UNL A   1      34.171  34.293  29.348  1.00  0.00     0.039 A 
ATOM     39  C   UNL A   1      33.965  33.530  30.498  1.00  0.00     0.014 A 
ATOM     40  C   UNL A   1      35.456  34.473  28.831  1.00  0.00     0.014 A 
ATOM     41  C   UNL A   1      35.051  32.895  31.101  1.00  0.00     0.010 A 
ATOM     42  C   UNL A   1      36.524  33.778  29.388  1.00  0.00     0.010 A 
ATOM     43  C   UNL A   1      36.333  32.988  30.532  1.00  0.00    -0.014 A 
BRANCH  43  44
ATOM     44  C   UNL A   1      37.483  32.271  31.131  1.00  0.00     0.031 A 
ATOM     45  C   UNL A   1      37.966  32.639  32.506  1.00  0.00     0.074 A 
ATOM     46  C   UNL A   1      38.119  31.321  30.419  1.00  0.00     0.049 A 
ATOM     47  N   UNL A   1      38.968  32.148  33.189  1.00  0.00    -0.248 NA
ATOM     48  C   UNL A   1      37.243  33.721  33.193  1.00  0.00     0.031 C 
ATOM     49  C   UNL A   1      37.774  30.916  29.054  1.00  0.00     0.029 A 
ATOM     50  N   UNL A   1      39.189  30.526  30.739  1.00  0.00    -0.354 N 
ATOM     51  C   UNL A   1      38.999  32.865  34.379  1.00  0.00     0.074 A 
ATOM     52  C   UNL A   1      37.959  33.867  34.298  1.00  0.00     0.031 C 
ATOM     53  C   UNL A   1      38.595  29.927  28.668  1.00  0.00     0.029 A 
ATOM     54  C   UNL A   1      39.546  29.653  29.741  1.00  0.00     0.049 A 
ATOM     55  H   UNL A   1      39.657  30.576  31.604  1.00  0.00     0.167 HD
ATOM     56  C   UNL A   1      39.803  32.682  35.453  1.00  0.00     0.037 A 
ATOM     57  C   UNL A   1      40.533  28.737  29.698  1.00  0.00     0.037 A 
ATOM     58  C   UNL A   1      40.823  31.671  35.534  1.00  0.00     0.049 A 
ATOM     59  C   UNL A   1      41.420  28.565  30.901  1.00  0.00     0.074 A 
ATOM     60  C   UNL A   1      41.656  31.366  36.596  1.00  0.00     0.029 A 
ATOM     61  N   UNL A   1      41.152  30.799  34.506  1.00  0.00    -0.354 N 
ATOM     62  N   UNL A   1      41.390  29.194  32.052  1.00  0.00    -0.248 NA
ATOM     63  C   UNL A   1      42.476  27.548  30.803  1.00  0.00     0.031 C 
ATOM     64  C   UNL A   1      42.523  30.346  36.193  1.00  0.00     0.029 A 
ATOM     65  C   UNL A   1      42.192  29.973  34.900  1.00  0.00     0.049 A 
ATOM     66  H   UNL A   1      40.712  30.772  33.625  1.00  0.00     0.167 HD
ATOM     67  C   UNL A   1      42.397  28.630  32.823  1.00  0.00     0.074 A 
ATOM     68  C   UNL A   1      43.009  27.595  32.016  1.00  0.00     0.031 C 
ATOM     69  C   UNL A   1      42.783  28.943  34.084  1.00  0.00     0.037 A 
BRANCH  56  70
ATOM     70  C   UNL A   1      39.604  33.593  36.631  1.00  0.00     0.064 A 
ATOM     71  C   UNL A   1      38.791  33.226  37.715  1.00  0.00     0.173 A 
ATOM     72  C   UNL A   1      40.258  34.832  36.693  1.00  0.00     0.173 A 
ATOM     73  F   UNL A   1      38.133  32.058  37.702  1.00  0.00    -0.203 F 
ATOM     74  C   UNL A   1      38.615  34.081  38.801  1.00  0.00     0.198 A 
ATOM     75  C   UNL A   1      40.106  35.669  37.796  1.00  0.00     0.198 A 
ATOM     76  F   UNL A   1      41.051  35.231  35.687  1.00  0.00    -0.203 F 
ATOM     77  F   UNL A   1      37.791  33.732  39.799  1.00  0.00    -0.200 F 
ATOM     78  C   UNL A   1      39.279  35.297  38.844  1.00  0.00     0.200 A 
ATOM     79  F   UNL A   1      40.760  36.839  37.843  1.00  0.00    -0.200 F 
ATOM     80  F   UNL A   1      39.116  36.114  39.894  1.00  0.00    -0.200 F 
ENDBRANCH  56  70
BRANCH  57  81
ATOM     81  C   UNL A   1      40.714  27.893  28.488  1.00  0.00     0.064 A 
ATOM     82  C   UNL A   1      41.520  28.324  27.424  1.00  0.00     0.173 A 
ATOM     83  C   UNL A   1      40.079  26.649  28.362  1.00  0.00     0.173 A 
ATOM     84  F   UNL A   1      42.134  29.515  27.489  1.00  0.00    -0.203 F 
ATOM     85  C   UNL A   1      41.662  27.555  26.271  1.00  0.00     0.198 A 
ATOM     86  C   UNL A   1      40.248  25.867  27.221  1.00  0.00     0.198 A 
ATOM     87  F   UNL A   1      39.302  26.188  29.352  1.00  0.00    -0.203 F 
ATOM     88  F   UNL A   1      42.396  28.016  25.249  1.00  0.00    -0.200 F 
ATOM     89  C   UNL A   1      41.030  26.326  26.172  1.00  0.00     0.200 A 
ATOM     90  F   UNL A   1      39.648  24.673  27.135  1.00  0.00    -0.200 F 
ATOM     91  F   UNL A   1      41.169  25.586  25.063  1.00  0.00    -0.200 F 
ENDBRANCH  57  81
BRANCH  69  92
ATOM     92  C   UNL A   1      43.895  28.130  34.685  1.00  0.00     0.064 A 
ATOM     93  C   UNL A   1      43.646  26.929  35.365  1.00  0.00     0.173 A 
ATOM     94  C   UNL A   1      45.229  28.540  34.542  1.00  0.00     0.173 A 
ATOM     95  F   UNL A   1      42.387  26.501  35.541  1.00  0.00    -0.203 F 
ATOM     96  C   UNL A   1      44.690  26.183  35.906  1.00  0.00     0.198 A 
ATOM     97  C   UNL A   1      46.273  27.775  35.053  1.00  0.00     0.198 A 
ATOM     98  F   UNL A   1      45.523  29.677  33.893  1.00  0.00    -0.203 F 
ATOM     99  F   UNL A   1      44.424  25.066  36.597  1.00  0.00    -0.200 F 
ATOM    100  C   UNL A   1      46.002  26.602  35.743  1.00  0.00     0.200 A 
ATOM    101  F   UNL A   1      47.541  28.172  34.882  1.00  0.00    -0.200 F 
ATOM    102  F   UNL A   1      47.006  25.879  36.257  1.00  0.00    -0.200 F 
ENDBRANCH  69  92
ENDBRANCH  43  44
ENDBRANCH  35  38
ENDBRANCH  33  34
ENDBRANCH  32  33
ENDBRANCH  31  32
ENDBRANCH   1  31
TORSDOF 17
ENDMDL
