MODEL 1
REMARK VINA RESULT:     -14.0      0.000      0.000
REMARK SMILES C[C@@]1(C(=O)NCCCCNC(=O)c2ccc(-c3c4nc(c(-c5c(F)c(F)c(F)c(F)c5F)c5ccc([nH]5)c(-c5c(F)c(F)c(F)c(F)c5F)c5nc(c(-c6c(F)c(F)c(F)c(F)c6F)c6ccc3[nH]6)C=C5)C=C4)cc2)[C@@H]2C=C[C@@]3(CN(c4ccccc4)C(=O)[C@H]13)O2
REMARK SMILES IDX 8 1 7 2 6 3 5 4 3 5 4 6 2 8 1 9 76 10 90 11 77 12 91 13
REMARK SMILES IDX 79 14 88 15 78 16 80 17 81 18 89 19 82 20 83 21 87 22 84 23
REMARK SMILES IDX 86 24 85 25 9 26 10 27 11 28 12 30 13 31 14 32 75 33 15 34
REMARK SMILES IDX 74 35 16 36 17 37 18 38 68 39 19 40 73 41 67 42 69 43 20 44
REMARK SMILES IDX 72 45 66 46 65 47 21 49 53 50 33 51 52 52 34 53 37 54 51 55
REMARK SMILES IDX 70 56 35 57 36 58 50 60 71 61 38 62 22 63 23 64 31 65 24 66
REMARK SMILES IDX 25 67 29 68 32 69 26 70 27 71 30 72 28 73 54 74 55 75 63 76
REMARK SMILES IDX 56 77 57 78 61 79 64 80 58 81 59 82 62 83 60 84 39 85 40 86
REMARK SMILES IDX 48 87 41 88 42 89 46 90 49 91 43 92 44 93 47 94 45 95
REMARK H PARENT 5 7 10 29 69 48 37 59
REMARK Flexibility Score: inf
ROOT
ATOM      1  C   UNL A   1      32.188  29.436  25.204  1.00  0.00     0.023 C 
ENDROOT
BRANCH   1   2
ATOM      2  C   UNL A   1      33.348  28.794  24.471  1.00  0.00     0.023 C 
BRANCH   2   3
ATOM      3  C   UNL A   1      33.054  28.211  23.096  1.00  0.00     0.116 C 
BRANCH   3   4
ATOM      4  N   UNL A   1      33.654  26.923  22.841  1.00  0.00    -0.356 N 
ATOM      5  C   UNL A   1      33.274  25.640  23.059  1.00  0.00     0.229 C 
ATOM      6  O   UNL A   1      34.011  24.816  22.494  1.00  0.00    -0.274 OA
ATOM      7  H   UNL A   1      34.537  26.991  22.413  1.00  0.00     0.163 HD
BRANCH   5   8
ATOM      8  C   UNL A   1      32.047  25.131  23.857  1.00  0.00     0.091 C 
ATOM      9  C   UNL A   1      30.802  25.817  23.220  1.00  0.00     0.026 C 
ATOM     10  C   UNL A   1      32.001  25.478  25.380  1.00  0.00     0.158 C 
ATOM     11  C   UNL A   1      31.748  23.634  23.945  1.00  0.00     0.135 C 
ATOM     12  C   UNL A   1      33.239  25.054  26.095  1.00  0.00     0.004 C 
ATOM     13  O   UNL A   1      31.087  24.397  25.901  1.00  0.00    -0.360 OA
ATOM     14  C   UNL A   1      31.908  23.318  25.441  1.00  0.00     0.118 C 
ATOM     15  C   UNL A   1      32.388  22.466  23.283  1.00  0.00     0.234 C 
ATOM     16  C   UNL A   1      33.185  23.719  26.138  1.00  0.00     0.009 C 
ATOM     17  C   UNL A   1      31.607  21.832  25.446  1.00  0.00     0.166 C 
ATOM     18  N   UNL A   1      32.282  21.397  24.208  1.00  0.00    -0.309 N 
ATOM     19  O   UNL A   1      32.770  22.459  22.126  1.00  0.00    -0.274 OA
BRANCH  18  20
ATOM     20  C   UNL A   1      32.784  20.086  24.008  1.00  0.00     0.044 A 
ATOM     21  C   UNL A   1      33.908  19.631  24.704  1.00  0.00     0.026 A 
ATOM     22  C   UNL A   1      32.190  19.213  23.084  1.00  0.00     0.026 A 
ATOM     23  C   UNL A   1      34.423  18.347  24.479  1.00  0.00     0.002 A 
ATOM     24  C   UNL A   1      32.719  17.944  22.834  1.00  0.00     0.002 A 
ATOM     25  C   UNL A   1      33.836  17.508  23.536  1.00  0.00     0.000 A 
ENDBRANCH  18  20
ENDBRANCH   5   8
ENDBRANCH   3   4
ENDBRANCH   2   3
ENDBRANCH   1   2
BRANCH   1  26
ATOM     26  C   UNL A   1      32.448  29.809  26.653  1.00  0.00     0.116 C 
BRANCH  26  27
ATOM     27  N   UNL A   1      32.373  31.239  26.940  1.00  0.00    -0.352 N 
ATOM     28  C   UNL A   1      33.341  32.078  27.445  1.00  0.00     0.251 C 
ATOM     29  H   UNL A   1      31.507  31.663  26.743  1.00  0.00     0.163 HD
ATOM     30  O   UNL A   1      33.103  33.264  27.648  1.00  0.00    -0.269 OA
BRANCH  28  31
ATOM     31  C   UNL A   1      34.656  31.512  27.804  1.00  0.00     0.039 A 
ATOM     32  C   UNL A   1      35.721  32.381  28.045  1.00  0.00     0.014 A 
ATOM     33  C   UNL A   1      34.791  30.142  28.028  1.00  0.00     0.014 A 
ATOM     34  C   UNL A   1      36.887  31.888  28.633  1.00  0.00     0.010 A 
ATOM     35  C   UNL A   1      35.902  29.676  28.716  1.00  0.00     0.010 A 
ATOM     36  C   UNL A   1      36.958  30.545  29.035  1.00  0.00    -0.014 A 
BRANCH  36  37
ATOM     37  C   UNL A   1      38.116  30.018  29.801  1.00  0.00     0.031 A 
ATOM     38  C   UNL A   1      38.334  30.464  31.219  1.00  0.00     0.074 A 
ATOM     39  C   UNL A   1      39.028  29.235  29.191  1.00  0.00     0.049 A 
ATOM     40  N   UNL A   1      39.353  30.247  32.010  1.00  0.00    -0.248 NA
ATOM     41  C   UNL A   1      37.286  31.313  31.808  1.00  0.00     0.031 C 
ATOM     42  C   UNL A   1      38.977  28.798  27.793  1.00  0.00     0.029 A 
ATOM     43  N   UNL A   1      40.190  28.681  29.667  1.00  0.00    -0.354 N 
ATOM     44  C   UNL A   1      39.088  30.967  33.167  1.00  0.00     0.074 A 
ATOM     45  C   UNL A   1      37.841  31.670  32.956  1.00  0.00     0.031 C 
ATOM     46  C   UNL A   1      40.045  28.025  27.534  1.00  0.00     0.029 A 
ATOM     47  C   UNL A   1      40.871  27.939  28.733  1.00  0.00     0.049 A 
ATOM     48  H   UNL A   1      40.506  28.805  30.591  1.00  0.00     0.167 HD
ATOM     49  C   UNL A   1      39.803  31.015  34.315  1.00  0.00     0.037 A 
ATOM     50  C   UNL A   1      42.033  27.267  28.834  1.00  0.00     0.037 A 
ATOM     51  C   UNL A   1      41.007  30.263  34.547  1.00  0.00     0.049 A 
ATOM     52  C   UNL A   1      42.770  27.270  30.145  1.00  0.00     0.074 A 
ATOM     53  C   UNL A   1      41.761  30.175  35.702  1.00  0.00     0.029 A 
ATOM     54  N   UNL A   1      41.622  29.456  33.601  1.00  0.00    -0.354 N 
ATOM     55  N   UNL A   1      42.476  27.901  31.255  1.00  0.00    -0.248 NA
ATOM     56  C   UNL A   1      43.994  26.461  30.220  1.00  0.00     0.031 C 
ATOM     57  C   UNL A   1      42.846  29.327  35.450  1.00  0.00     0.029 A 
ATOM     58  C   UNL A   1      42.749  28.866  34.146  1.00  0.00     0.049 A 
ATOM     59  H   UNL A   1      41.304  29.323  32.678  1.00  0.00     0.167 HD
ATOM     60  C   UNL A   1      43.463  27.552  32.165  1.00  0.00     0.074 A 
ATOM     61  C   UNL A   1      44.359  26.641  31.483  1.00  0.00     0.031 C 
ATOM     62  C   UNL A   1      43.618  27.954  33.451  1.00  0.00     0.037 A 
BRANCH  49  63
ATOM     63  C   UNL A   1      39.283  31.896  35.410  1.00  0.00     0.064 A 
ATOM     64  C   UNL A   1      39.617  33.258  35.478  1.00  0.00     0.173 A 
ATOM     65  C   UNL A   1      38.444  31.376  36.405  1.00  0.00     0.173 A 
ATOM     66  F   UNL A   1      40.432  33.798  34.558  1.00  0.00    -0.203 F 
ATOM     67  C   UNL A   1      39.163  34.056  36.522  1.00  0.00     0.198 A 
ATOM     68  C   UNL A   1      37.965  32.186  37.433  1.00  0.00     0.198 A 
ATOM     69  F   UNL A   1      38.092  30.082  36.387  1.00  0.00    -0.203 F 
ATOM     70  F   UNL A   1      39.546  35.338  36.599  1.00  0.00    -0.200 F 
ATOM     71  C   UNL A   1      38.333  33.521  37.496  1.00  0.00     0.200 A 
ATOM     72  F   UNL A   1      37.157  31.670  38.371  1.00  0.00    -0.200 F 
ATOM     73  F   UNL A   1      37.898  34.291  38.504  1.00  0.00    -0.200 F 
ENDBRANCH  49  63
BRANCH  50  74
ATOM     74  C   UNL A   1      42.550  26.501  27.671  1.00  0.00     0.064 A 
ATOM     75  C   UNL A   1      42.108  25.194  27.424  1.00  0.00     0.173 A 
ATOM     76  C   UNL A   1      43.481  27.056  26.784  1.00  0.00     0.173 A 
ATOM     77  F   UNL A   1      41.232  24.616  28.258  1.00  0.00    -0.203 F 
ATOM     78  C   UNL A   1      42.591  24.464  26.341  1.00  0.00     0.198 A 
ATOM     79  C   UNL A   1      43.947  26.334  25.687  1.00  0.00     0.198 A 
ATOM     80  F   UNL A   1      43.929  28.306  26.974  1.00  0.00    -0.203 F 
ATOM     81  F   UNL A   1      42.180  23.204  26.147  1.00  0.00    -0.200 F 
ATOM     82  C   UNL A   1      43.507  25.036  25.470  1.00  0.00     0.200 A 
ATOM     83  F   UNL A   1      44.824  26.893  24.841  1.00  0.00    -0.200 F 
ATOM     84  F   UNL A   1      43.969  24.335  24.425  1.00  0.00    -0.200 F 
ENDBRANCH  50  74
BRANCH  62  85
ATOM     85  C   UNL A   1      44.780  27.389  34.209  1.00  0.00     0.064 A 
ATOM     86  C   UNL A   1      46.011  28.057  34.264  1.00  0.00     0.173 A 
ATOM     87  C   UNL A   1      44.644  26.192  34.928  1.00  0.00     0.173 A 
ATOM     88  F   UNL A   1      46.191  29.197  33.580  1.00  0.00    -0.203 F 
ATOM     89  C   UNL A   1      47.071  27.538  35.001  1.00  0.00     0.198 A 
ATOM     90  C   UNL A   1      45.698  25.688  35.681  1.00  0.00     0.198 A 
ATOM     91  F   UNL A   1      43.483  25.520  34.908  1.00  0.00    -0.203 F 
ATOM     92  F   UNL A   1      48.250  28.174  35.014  1.00  0.00    -0.200 F 
ATOM     93  C   UNL A   1      46.913  26.359  35.715  1.00  0.00     0.200 A 
ATOM     94  F   UNL A   1      45.541  24.554  36.377  1.00  0.00    -0.200 F 
ATOM     95  F   UNL A   1      47.932  25.865  36.429  1.00  0.00    -0.200 F 
ENDBRANCH  62  85
ENDBRANCH  36  37
ENDBRANCH  28  31
ENDBRANCH  26  27
ENDBRANCH   1  26
TORSDOF 12
ENDMDL
MODEL 2
REMARK VINA RESULT:     -14.0      0.485      7.407
REMARK SMILES C[C@@]1(C(=O)NCCCCNC(=O)c2ccc(-c3c4nc(c(-c5c(F)c(F)c(F)c(F)c5F)c5ccc([nH]5)c(-c5c(F)c(F)c(F)c(F)c5F)c5nc(c(-c6c(F)c(F)c(F)c(F)c6F)c6ccc3[nH]6)C=C5)C=C4)cc2)[C@@H]2C=C[C@@]3(CN(c4ccccc4)C(=O)[C@H]13)O2
REMARK SMILES IDX 8 1 7 2 6 3 5 4 3 5 4 6 2 8 1 9 76 10 90 11 77 12 91 13
REMARK SMILES IDX 79 14 88 15 78 16 80 17 81 18 89 19 82 20 83 21 87 22 84 23
REMARK SMILES IDX 86 24 85 25 9 26 10 27 11 28 12 30 13 31 14 32 75 33 15 34
REMARK SMILES IDX 74 35 16 36 17 37 18 38 68 39 19 40 73 41 67 42 69 43 20 44
REMARK SMILES IDX 72 45 66 46 65 47 21 49 53 50 33 51 52 52 34 53 37 54 51 55
REMARK SMILES IDX 70 56 35 57 36 58 50 60 71 61 38 62 22 63 23 64 31 65 24 66
REMARK SMILES IDX 25 67 29 68 32 69 26 70 27 71 30 72 28 73 54 74 55 75 63 76
REMARK SMILES IDX 56 77 57 78 61 79 64 80 58 81 59 82 62 83 60 84 39 85 40 86
REMARK SMILES IDX 48 87 41 88 42 89 46 90 49 91 43 92 44 93 47 94 45 95
REMARK H PARENT 5 7 10 29 69 48 37 59
REMARK Flexibility Score: inf
ROOT
ATOM      1  C   UNL A   1      32.333  29.187  24.743  1.00  0.00     0.023 C 
ENDROOT
BRANCH   1   2
ATOM      2  C   UNL A   1      33.436  28.675  23.839  1.00  0.00     0.023 C 
BRANCH   2   3
ATOM      3  C   UNL A   1      33.004  27.950  22.572  1.00  0.00     0.116 C 
BRANCH   3   4
ATOM      4  N   UNL A   1      33.618  26.658  22.371  1.00  0.00    -0.356 N 
ATOM      5  C   UNL A   1      33.323  25.397  22.769  1.00  0.00     0.229 C 
ATOM      6  O   UNL A   1      34.012  24.537  22.197  1.00  0.00    -0.274 OA
ATOM      7  H   UNL A   1      34.433  26.704  21.822  1.00  0.00     0.163 HD
BRANCH   5   8
ATOM      8  C   UNL A   1      32.235  24.943  23.775  1.00  0.00     0.091 C 
ATOM      9  C   UNL A   1      30.912  25.630  23.320  1.00  0.00     0.026 C 
ATOM     10  C   UNL A   1      32.442  25.349  25.270  1.00  0.00     0.158 C 
ATOM     11  C   UNL A   1      31.933  23.458  23.971  1.00  0.00     0.135 C 
ATOM     12  C   UNL A   1      33.773  24.927  25.792  1.00  0.00     0.004 C 
ATOM     13  O   UNL A   1      31.609  24.307  25.975  1.00  0.00    -0.360 OA
ATOM     14  C   UNL A   1      32.330  23.195  25.433  1.00  0.00     0.118 C 
ATOM     15  C   UNL A   1      32.442  22.252  23.262  1.00  0.00     0.234 C 
ATOM     16  C   UNL A   1      33.708  23.596  25.898  1.00  0.00     0.009 C 
ATOM     17  C   UNL A   1      32.013  21.717  25.547  1.00  0.00     0.166 C 
ATOM     18  N   UNL A   1      32.473  21.221  24.235  1.00  0.00    -0.309 N 
ATOM     19  O   UNL A   1      32.631  22.193  22.061  1.00  0.00    -0.274 OA
BRANCH  18  20
ATOM     20  C   UNL A   1      32.917  19.894  24.010  1.00  0.00     0.044 A 
ATOM     21  C   UNL A   1      34.051  19.394  24.658  1.00  0.00     0.026 A 
ATOM     22  C   UNL A   1      32.254  19.048  23.109  1.00  0.00     0.026 A 
ATOM     23  C   UNL A   1      34.509  18.093  24.407  1.00  0.00     0.002 A 
ATOM     24  C   UNL A   1      32.725  17.761  22.833  1.00  0.00     0.002 A 
ATOM     25  C   UNL A   1      33.853  17.282  23.486  1.00  0.00     0.000 A 
ENDBRANCH  18  20
ENDBRANCH   5   8
ENDBRANCH   3   4
ENDBRANCH   2   3
ENDBRANCH   1   2
BRANCH   1  26
ATOM     26  C   UNL A   1      32.747  29.514  26.167  1.00  0.00     0.116 C 
BRANCH  26  27
ATOM     27  N   UNL A   1      32.432  30.873  26.599  1.00  0.00    -0.352 N 
ATOM     28  C   UNL A   1      33.223  31.778  27.271  1.00  0.00     0.251 C 
ATOM     29  H   UNL A   1      31.526  31.186  26.378  1.00  0.00     0.163 HD
ATOM     30  O   UNL A   1      32.791  32.883  27.579  1.00  0.00    -0.269 OA
BRANCH  28  31
ATOM     31  C   UNL A   1      34.583  31.372  27.675  1.00  0.00     0.039 A 
ATOM     32  C   UNL A   1      35.555  32.357  27.856  1.00  0.00     0.014 A 
ATOM     33  C   UNL A   1      34.850  30.042  27.998  1.00  0.00     0.014 A 
ATOM     34  C   UNL A   1      36.758  32.025  28.482  1.00  0.00     0.010 A 
ATOM     35  C   UNL A   1      35.994  29.738  28.722  1.00  0.00     0.010 A 
ATOM     36  C   UNL A   1      36.956  30.729  28.981  1.00  0.00    -0.014 A 
BRANCH  36  37
ATOM     37  C   UNL A   1      38.152  30.374  29.787  1.00  0.00     0.031 A 
ATOM     38  C   UNL A   1      39.163  29.412  29.230  1.00  0.00     0.074 A 
ATOM     39  C   UNL A   1      38.270  30.822  31.053  1.00  0.00     0.049 A 
ATOM     40  N   UNL A   1      40.191  28.855  29.818  1.00  0.00    -0.248 NA
ATOM     41  C   UNL A   1      38.960  28.978  27.838  1.00  0.00     0.031 C 
ATOM     42  C   UNL A   1      37.314  31.693  31.740  1.00  0.00     0.029 A 
ATOM     43  N   UNL A   1      39.240  30.588  31.995  1.00  0.00    -0.354 N 
ATOM     44  C   UNL A   1      40.725  27.977  28.885  1.00  0.00     0.074 A 
ATOM     45  C   UNL A   1      39.879  28.034  27.713  1.00  0.00     0.031 C 
ATOM     46  C   UNL A   1      37.758  31.940  32.984  1.00  0.00     0.029 A 
ATOM     47  C   UNL A   1      39.008  31.219  33.193  1.00  0.00     0.049 A 
ATOM     48  H   UNL A   1      40.026  30.020  31.828  1.00  0.00     0.167 HD
ATOM     49  C   UNL A   1      41.839  27.215  28.984  1.00  0.00     0.037 A 
ATOM     50  C   UNL A   1      39.726  31.214  34.332  1.00  0.00     0.037 A 
ATOM     51  C   UNL A   1      42.715  27.211  30.124  1.00  0.00     0.049 A 
ATOM     52  C   UNL A   1      41.002  30.421  34.390  1.00  0.00     0.074 A 
ATOM     53  C   UNL A   1      43.912  26.539  30.291  1.00  0.00     0.029 A 
ATOM     54  N   UNL A   1      42.489  27.929  31.289  1.00  0.00    -0.354 N 
ATOM     55  N   UNL A   1      41.535  29.646  33.479  1.00  0.00    -0.248 NA
ATOM     56  C   UNL A   1      41.783  30.510  35.633  1.00  0.00     0.031 C 
ATOM     57  C   UNL A   1      44.403  26.837  31.568  1.00  0.00     0.029 A 
ATOM     58  C   UNL A   1      43.525  27.716  32.182  1.00  0.00     0.049 A 
ATOM     59  H   UNL A   1      41.708  28.505  31.457  1.00  0.00     0.167 HD
ATOM     60  C   UNL A   1      42.718  29.170  34.025  1.00  0.00     0.074 A 
ATOM     61  C   UNL A   1      42.835  29.756  35.345  1.00  0.00     0.031 C 
ATOM     62  C   UNL A   1      43.625  28.320  33.485  1.00  0.00     0.037 A 
BRANCH  49  63
ATOM     63  C   UNL A   1      42.176  26.340  27.814  1.00  0.00     0.064 A 
ATOM     64  C   UNL A   1      41.605  25.067  27.661  1.00  0.00     0.173 A 
ATOM     65  C   UNL A   1      43.081  26.776  26.836  1.00  0.00     0.173 A 
ATOM     66  F   UNL A   1      40.747  24.598  28.580  1.00  0.00    -0.203 F 
ATOM     67  C   UNL A   1      41.958  24.247  26.594  1.00  0.00     0.198 A 
ATOM     68  C   UNL A   1      43.409  25.964  25.752  1.00  0.00     0.198 A 
ATOM     69  F   UNL A   1      43.653  27.985  26.934  1.00  0.00    -0.203 F 
ATOM     70  F   UNL A   1      41.446  23.011  26.503  1.00  0.00    -0.200 F 
ATOM     71  C   UNL A   1      42.855  24.698  25.637  1.00  0.00     0.200 A 
ATOM     72  F   UNL A   1      44.271  26.404  24.824  1.00  0.00    -0.200 F 
ATOM     73  F   UNL A   1      43.196  23.907  24.611  1.00  0.00    -0.200 F 
ENDBRANCH  49  63
BRANCH  50  74
ATOM     74  C   UNL A   1      39.275  32.019  35.496  1.00  0.00     0.064 A 
ATOM     75  C   UNL A   1      39.662  33.360  35.630  1.00  0.00     0.173 A 
ATOM     76  C   UNL A   1      38.446  31.475  36.486  1.00  0.00     0.173 A 
ATOM     77  F   UNL A   1      40.471  33.916  34.717  1.00  0.00    -0.203 F 
ATOM     78  C   UNL A   1      39.251  34.122  36.720  1.00  0.00     0.198 A 
ATOM     79  C   UNL A   1      38.016  32.244  37.565  1.00  0.00     0.198 A 
ATOM     80  F   UNL A   1      38.043  30.199  36.397  1.00  0.00    -0.203 F 
ATOM     81  F   UNL A   1      39.665  35.390  36.844  1.00  0.00    -0.200 F 
ATOM     82  C   UNL A   1      38.424  33.564  37.685  1.00  0.00     0.200 A 
ATOM     83  F   UNL A   1      37.209  31.707  38.490  1.00  0.00    -0.200 F 
ATOM     84  F   UNL A   1      38.025  34.299  38.733  1.00  0.00    -0.200 F 
ENDBRANCH  50  74
BRANCH  62  85
ATOM     85  C   UNL A   1      44.835  27.996  34.308  1.00  0.00     0.064 A 
ATOM     86  C   UNL A   1      44.859  26.891  35.169  1.00  0.00     0.173 A 
ATOM     87  C   UNL A   1      45.998  28.772  34.195  1.00  0.00     0.173 A 
ATOM     88  F   UNL A   1      43.763  26.129  35.319  1.00  0.00    -0.203 F 
ATOM     89  C   UNL A   1      46.001  26.582  35.901  1.00  0.00     0.198 A 
ATOM     90  C   UNL A   1      47.144  28.448  34.911  1.00  0.00     0.198 A 
ATOM     91  F   UNL A   1      46.023  29.838  33.380  1.00  0.00    -0.203 F 
ATOM     92  F   UNL A   1      45.992  25.540  36.744  1.00  0.00    -0.200 F 
ATOM     93  C   UNL A   1      47.144  27.355  35.767  1.00  0.00     0.200 A 
ATOM     94  F   UNL A   1      48.251  29.190  34.774  1.00  0.00    -0.200 F 
ATOM     95  F   UNL A   1      48.245  27.052  36.467  1.00  0.00    -0.200 F 
ENDBRANCH  62  85
ENDBRANCH  36  37
ENDBRANCH  28  31
ENDBRANCH  26  27
ENDBRANCH   1  26
TORSDOF 12
ENDMDL
MODEL 3
REMARK VINA RESULT:     -14.0      1.477      3.761
REMARK SMILES C[C@@]1(C(=O)NCCCCNC(=O)c2ccc(-c3c4nc(c(-c5c(F)c(F)c(F)c(F)c5F)c5ccc([nH]5)c(-c5c(F)c(F)c(F)c(F)c5F)c5nc(c(-c6c(F)c(F)c(F)c(F)c6F)c6ccc3[nH]6)C=C5)C=C4)cc2)[C@@H]2C=C[C@@]3(CN(c4ccccc4)C(=O)[C@H]13)O2
REMARK SMILES IDX 8 1 7 2 6 3 5 4 3 5 4 6 2 8 1 9 76 10 90 11 77 12 91 13
REMARK SMILES IDX 79 14 88 15 78 16 80 17 81 18 89 19 82 20 83 21 87 22 84 23
REMARK SMILES IDX 86 24 85 25 9 26 10 27 11 28 12 30 13 31 14 32 75 33 15 34
REMARK SMILES IDX 74 35 16 36 17 37 18 38 68 39 19 40 73 41 67 42 69 43 20 44
REMARK SMILES IDX 72 45 66 46 65 47 21 49 53 50 33 51 52 52 34 53 37 54 51 55
REMARK SMILES IDX 70 56 35 57 36 58 50 60 71 61 38 62 22 63 23 64 31 65 24 66
REMARK SMILES IDX 25 67 29 68 32 69 26 70 27 71 30 72 28 73 54 74 55 75 63 76
REMARK SMILES IDX 56 77 57 78 61 79 64 80 58 81 59 82 62 83 60 84 39 85 40 86
REMARK SMILES IDX 48 87 41 88 42 89 46 90 49 91 43 92 44 93 47 94 45 95
REMARK H PARENT 5 7 10 29 69 48 37 59
REMARK Flexibility Score: inf
ROOT
ATOM      1  C   UNL A   1      31.501  29.188  26.693  1.00  0.00     0.023 C 
ENDROOT
BRANCH   1   2
ATOM      2  C   UNL A   1      31.861  27.832  27.264  1.00  0.00     0.023 C 
BRANCH   2   3
ATOM      3  C   UNL A   1      32.610  26.876  26.346  1.00  0.00     0.116 C 
BRANCH   3   4
ATOM      4  N   UNL A   1      32.400  25.475  26.625  1.00  0.00    -0.356 N 
ATOM      5  C   UNL A   1      32.247  24.368  25.859  1.00  0.00     0.229 C 
ATOM      6  O   UNL A   1      32.294  23.315  26.517  1.00  0.00    -0.274 OA
ATOM      7  H   UNL A   1      32.358  25.280  27.589  1.00  0.00     0.163 HD
BRANCH   5   8
ATOM      8  C   UNL A   1      32.080  24.287  24.321  1.00  0.00     0.091 C 
ATOM      9  C   UNL A   1      31.616  22.832  24.012  1.00  0.00     0.026 C 
ATOM     10  C   UNL A   1      33.361  24.525  23.457  1.00  0.00     0.158 C 
ATOM     11  C   UNL A   1      31.125  25.234  23.595  1.00  0.00     0.135 C 
ATOM     12  C   UNL A   1      34.039  25.811  23.793  1.00  0.00     0.004 C 
ATOM     13  O   UNL A   1      32.755  24.952  22.143  1.00  0.00    -0.360 OA
ATOM     14  C   UNL A   1      32.052  26.070  22.697  1.00  0.00     0.118 C 
ATOM     15  C   UNL A   1      30.160  26.242  24.113  1.00  0.00     0.234 C 
ATOM     16  C   UNL A   1      33.235  26.769  23.322  1.00  0.00     0.009 C 
ATOM     17  C   UNL A   1      31.044  26.980  22.024  1.00  0.00     0.166 C 
ATOM     18  N   UNL A   1      30.130  27.276  23.144  1.00  0.00    -0.309 N 
ATOM     19  O   UNL A   1      29.464  26.078  25.099  1.00  0.00    -0.274 OA
BRANCH  18  20
ATOM     20  C   UNL A   1      29.359  28.462  23.235  1.00  0.00     0.044 A 
ATOM     21  C   UNL A   1      27.975  28.439  23.035  1.00  0.00     0.026 A 
ATOM     22  C   UNL A   1      29.960  29.703  23.499  1.00  0.00     0.026 A 
ATOM     23  C   UNL A   1      27.220  29.619  23.092  1.00  0.00     0.002 A 
ATOM     24  C   UNL A   1      29.216  30.885  23.525  1.00  0.00     0.002 A 
ATOM     25  C   UNL A   1      27.841  30.842  23.325  1.00  0.00     0.000 A 
ENDBRANCH  18  20
ENDBRANCH   5   8
ENDBRANCH   3   4
ENDBRANCH   2   3
ENDBRANCH   1   2
BRANCH   1  26
ATOM     26  C   UNL A   1      32.672  30.086  26.337  1.00  0.00     0.116 C 
BRANCH  26  27
ATOM     27  N   UNL A   1      32.566  31.455  26.832  1.00  0.00    -0.352 N 
ATOM     28  C   UNL A   1      33.492  32.207  27.521  1.00  0.00     0.251 C 
ATOM     29  H   UNL A   1      31.711  31.905  26.645  1.00  0.00     0.163 HD
ATOM     30  O   UNL A   1      33.230  33.349  27.885  1.00  0.00    -0.269 OA
BRANCH  28  31
ATOM     31  C   UNL A   1      34.785  31.592  27.876  1.00  0.00     0.039 A 
ATOM     32  C   UNL A   1      35.904  32.413  28.025  1.00  0.00     0.014 A 
ATOM     33  C   UNL A   1      34.854  30.233  28.185  1.00  0.00     0.014 A 
ATOM     34  C   UNL A   1      37.061  31.894  28.608  1.00  0.00     0.010 A 
ATOM     35  C   UNL A   1      35.961  29.751  28.868  1.00  0.00     0.010 A 
ATOM     36  C   UNL A   1      37.073  30.578  29.096  1.00  0.00    -0.014 A 
BRANCH  36  37
ATOM     37  C   UNL A   1      38.226  30.036  29.858  1.00  0.00     0.031 A 
ATOM     38  C   UNL A   1      38.459  30.487  31.273  1.00  0.00     0.074 A 
ATOM     39  C   UNL A   1      39.122  29.235  29.248  1.00  0.00     0.049 A 
ATOM     40  N   UNL A   1      39.478  30.258  32.060  1.00  0.00    -0.248 NA
ATOM     41  C   UNL A   1      37.428  31.356  31.863  1.00  0.00     0.031 C 
ATOM     42  C   UNL A   1      39.056  28.791  27.853  1.00  0.00     0.029 A 
ATOM     43  N   UNL A   1      40.278  28.665  29.721  1.00  0.00    -0.354 N 
ATOM     44  C   UNL A   1      39.231  30.988  33.214  1.00  0.00     0.074 A 
ATOM     45  C   UNL A   1      37.994  31.710  33.005  1.00  0.00     0.031 C 
ATOM     46  C   UNL A   1      40.110  28.000  27.593  1.00  0.00     0.029 A 
ATOM     47  C   UNL A   1      40.942  27.907  28.788  1.00  0.00     0.049 A 
ATOM     48  H   UNL A   1      40.601  28.789  30.643  1.00  0.00     0.167 HD
ATOM     49  C   UNL A   1      39.953  31.031  34.358  1.00  0.00     0.037 A 
ATOM     50  C   UNL A   1      42.094  27.217  28.887  1.00  0.00     0.037 A 
ATOM     51  C   UNL A   1      41.145  30.261  34.588  1.00  0.00     0.049 A 
ATOM     52  C   UNL A   1      42.837  27.216  30.194  1.00  0.00     0.074 A 
ATOM     53  C   UNL A   1      41.905  30.167  35.740  1.00  0.00     0.029 A 
ATOM     54  N   UNL A   1      41.742  29.439  33.643  1.00  0.00    -0.354 N 
ATOM     55  N   UNL A   1      42.559  27.857  31.302  1.00  0.00    -0.248 NA
ATOM     56  C   UNL A   1      44.049  26.387  30.267  1.00  0.00     0.031 C 
ATOM     57  C   UNL A   1      42.975  29.301  35.486  1.00  0.00     0.029 A 
ATOM     58  C   UNL A   1      42.863  28.834  34.186  1.00  0.00     0.049 A 
ATOM     59  H   UNL A   1      41.418  29.306  32.723  1.00  0.00     0.167 HD
ATOM     60  C   UNL A   1      43.546  27.497  32.209  1.00  0.00     0.074 A 
ATOM     61  C   UNL A   1      44.423  26.569  31.527  1.00  0.00     0.031 C 
ATOM     62  C   UNL A   1      43.714  27.904  33.491  1.00  0.00     0.037 A 
BRANCH  49  63
ATOM     63  C   UNL A   1      39.452  31.926  35.451  1.00  0.00     0.064 A 
ATOM     64  C   UNL A   1      39.882  33.258  35.562  1.00  0.00     0.173 A 
ATOM     65  C   UNL A   1      38.538  31.450  36.400  1.00  0.00     0.173 A 
ATOM     66  F   UNL A   1      40.770  33.755  34.688  1.00  0.00    -0.203 F 
ATOM     67  C   UNL A   1      39.443  34.067  36.605  1.00  0.00     0.198 A 
ATOM     68  C   UNL A   1      38.077  32.272  37.426  1.00  0.00     0.198 A 
ATOM     69  F   UNL A   1      38.094  30.185  36.338  1.00  0.00    -0.203 F 
ATOM     70  F   UNL A   1      39.914  35.316  36.725  1.00  0.00    -0.200 F 
ATOM     71  C   UNL A   1      38.537  33.576  37.533  1.00  0.00     0.200 A 
ATOM     72  F   UNL A   1      37.196  31.799  38.319  1.00  0.00    -0.200 F 
ATOM     73  F   UNL A   1      38.117  34.356  38.539  1.00  0.00    -0.200 F 
ENDBRANCH  49  63
BRANCH  50  74
ATOM     74  C   UNL A   1      42.591  26.437  27.725  1.00  0.00     0.064 A 
ATOM     75  C   UNL A   1      43.491  27.008  26.814  1.00  0.00     0.173 A 
ATOM     76  C   UNL A   1      42.191  25.112  27.506  1.00  0.00     0.173 A 
ATOM     77  F   UNL A   1      43.886  28.279  26.973  1.00  0.00    -0.203 F 
ATOM     78  C   UNL A   1      43.958  26.288  25.718  1.00  0.00     0.198 A 
ATOM     79  C   UNL A   1      42.676  24.385  26.422  1.00  0.00     0.198 A 
ATOM     80  F   UNL A   1      41.337  24.520  28.354  1.00  0.00    -0.203 F 
ATOM     81  F   UNL A   1      44.789  26.869  24.841  1.00  0.00    -0.200 F 
ATOM     82  C   UNL A   1      43.554  24.975  25.525  1.00  0.00     0.200 A 
ATOM     83  F   UNL A   1      42.293  23.113  26.243  1.00  0.00    -0.200 F 
ATOM     84  F   UNL A   1      44.008  24.281  24.471  1.00  0.00    -0.200 F 
ENDBRANCH  50  74
BRANCH  62  85
ATOM     85  C   UNL A   1      44.871  27.325  34.247  1.00  0.00     0.064 A 
ATOM     86  C   UNL A   1      46.119  27.960  34.271  1.00  0.00     0.173 A 
ATOM     87  C   UNL A   1      44.712  26.148  34.994  1.00  0.00     0.173 A 
ATOM     88  F   UNL A   1      46.320  29.080  33.558  1.00  0.00    -0.203 F 
ATOM     89  C   UNL A   1      47.175  27.429  35.005  1.00  0.00     0.198 A 
ATOM     90  C   UNL A   1      45.763  25.632  35.744  1.00  0.00     0.198 A 
ATOM     91  F   UNL A   1      43.533  25.507  35.004  1.00  0.00    -0.203 F 
ATOM     92  F   UNL A   1      48.371  28.033  34.988  1.00  0.00    -0.200 F 
ATOM     93  C   UNL A   1      46.995  26.271  35.747  1.00  0.00     0.200 A 
ATOM     94  F   UNL A   1      45.585  24.518  36.468  1.00  0.00    -0.200 F 
ATOM     95  F   UNL A   1      48.011  25.765  36.459  1.00  0.00    -0.200 F 
ENDBRANCH  62  85
ENDBRANCH  36  37
ENDBRANCH  28  31
ENDBRANCH  26  27
ENDBRANCH   1  26
TORSDOF 12
ENDMDL
