MODEL 1
REMARK VINA RESULT:     -12.0      0.000      0.000
REMARK SMILES CCC(CC)([NH2+]Cc1cc(C(N)=O)ccc1F)C(=O)NCCCCNC(=O)c1ccc(-c2c3nc(c(-c4c(F)c(F)c(F)c(F)c4F)c4ccc([nH]4)c(-c4c(F)c(F)c(F)c(F)c4F)c4nc(c(-c5c(F)c(F)c(F)c(F)c5F)c5ccc2[nH]5)C=C4)C=C3)cc1
REMARK SMILES IDX 21 1 20 2 18 3 19 4 3 6 2 7 1 8 4 9 5 10 6 11 7 14 8 15 9 16
REMARK SMILES IDX 16 17 10 18 15 19 17 20 14 21 11 22 12 23 13 24 22 27 23 28
REMARK SMILES IDX 24 29 25 30 26 31 27 33 28 34 29 35 90 36 30 37 89 38 31 39
REMARK SMILES IDX 32 40 33 41 83 42 34 43 88 44 82 45 84 46 35 47 87 48 81 49
REMARK SMILES IDX 80 50 36 52 68 53 48 54 67 55 49 56 52 57 66 58 85 59 50 60
REMARK SMILES IDX 51 61 65 63 86 64 53 65 37 66 38 67 46 68 39 69 40 70 44 71
REMARK SMILES IDX 47 72 41 73 42 74 45 75 43 76 69 77 70 78 78 79 71 80 72 81
REMARK SMILES IDX 76 82 79 83 73 84 74 85 77 86 75 87 54 88 55 89 63 90 56 91
REMARK SMILES IDX 57 92 61 93 64 94 58 95 59 96 62 97 60 98
REMARK H PARENT 20 5 6 12 6 13 12 25 12 26 25 32 84 51 52 62
REMARK Flexibility Score: inf
ROOT
ATOM      1  C   UNL A   1      36.579  22.705  25.127  1.00  0.00     0.116 C 
ENDROOT
BRANCH   1   2
ATOM      2  N   UNL A   1      35.811  22.924  23.932  1.00  0.00    -0.351 N 
ATOM      3  C   UNL A   1      34.499  23.060  23.632  1.00  0.00     0.281 C 
ATOM      4  O   UNL A   1      34.357  23.305  22.419  1.00  0.00    -0.268 OA
ATOM      5  H   UNL A   1      36.381  22.992  23.133  1.00  0.00     0.163 HD
BRANCH   3   6
ATOM      6  C   UNL A   1      33.222  23.004  24.593  1.00  0.00     0.175 C 
BRANCH   6   7
ATOM      7  C   UNL A   1      32.001  22.855  23.564  1.00  0.00     0.076 C 
ATOM      8  C   UNL A   1      30.799  23.794  23.780  1.00  0.00     0.011 C 
ENDBRANCH   6   7
BRANCH   6   9
ATOM      9  C   UNL A   1      32.938  24.304  25.383  1.00  0.00     0.076 C 
ATOM     10  C   UNL A   1      34.074  25.336  25.336  1.00  0.00     0.011 C 
ENDBRANCH   6   9
BRANCH   6  11
ATOM     11  N   UNL A   1      33.114  21.772  25.423  1.00  0.00    -0.330 N 
ATOM     12  H   UNL A   1      32.851  22.117  26.347  1.00  0.00     0.347 HD
ATOM     13  H   UNL A   1      34.005  21.355  25.156  1.00  0.00     0.347 HD
BRANCH  11  14
ATOM     14  C   UNL A   1      32.289  20.585  25.242  1.00  0.00     0.301 C 
BRANCH  14  15
ATOM     15  C   UNL A   1      32.657  19.334  24.444  1.00  0.00     0.043 A 
ATOM     16  C   UNL A   1      32.922  18.146  25.169  1.00  0.00     0.026 A 
ATOM     17  C   UNL A   1      32.547  19.145  23.059  1.00  0.00     0.132 A 
ATOM     18  C   UNL A   1      33.148  16.912  24.520  1.00  0.00     0.040 A 
ATOM     19  C   UNL A   1      32.913  17.971  22.400  1.00  0.00     0.040 A 
ATOM     20  F   UNL A   1      31.904  20.010  22.281  1.00  0.00    -0.206 F 
ATOM     21  C   UNL A   1      33.233  16.847  23.132  1.00  0.00     0.017 A 
BRANCH  18  22
ATOM     22  C   UNL A   1      33.168  15.619  25.243  1.00  0.00     0.248 C 
ATOM     23  N   UNL A   1      31.955  15.093  25.586  1.00  0.00    -0.366 N 
ATOM     24  O   UNL A   1      34.210  15.003  25.428  1.00  0.00    -0.270 OA
ATOM     25  H   UNL A   1      31.133  15.610  25.427  1.00  0.00     0.159 HD
ATOM     26  H   UNL A   1      31.904  14.198  25.991  1.00  0.00     0.159 HD
ENDBRANCH  18  22
ENDBRANCH  14  15
ENDBRANCH  11  14
ENDBRANCH   6  11
ENDBRANCH   3   6
ENDBRANCH   1   2
BRANCH   1  27
ATOM     27  C   UNL A   1      36.817  21.217  25.413  1.00  0.00     0.023 C 
BRANCH  27  28
ATOM     28  C   UNL A   1      38.162  20.684  24.944  1.00  0.00     0.023 C 
BRANCH  28  29
ATOM     29  C   UNL A   1      39.228  20.629  26.029  1.00  0.00     0.116 C 
BRANCH  29  30
ATOM     30  N   UNL A   1      40.086  19.452  25.975  1.00  0.00    -0.352 N 
ATOM     31  C   UNL A   1      41.457  19.403  26.103  1.00  0.00     0.251 C 
ATOM     32  H   UNL A   1      39.632  18.590  25.831  1.00  0.00     0.163 HD
ATOM     33  O   UNL A   1      42.071  18.354  25.956  1.00  0.00    -0.269 OA
BRANCH  31  34
ATOM     34  C   UNL A   1      42.174  20.667  26.367  1.00  0.00     0.039 A 
ATOM     35  C   UNL A   1      42.469  21.516  25.299  1.00  0.00     0.014 A 
ATOM     36  C   UNL A   1      42.417  21.065  27.684  1.00  0.00     0.014 A 
ATOM     37  C   UNL A   1      42.917  22.812  25.562  1.00  0.00     0.010 A 
ATOM     38  C   UNL A   1      42.764  22.385  27.943  1.00  0.00     0.010 A 
ATOM     39  C   UNL A   1      43.012  23.274  26.886  1.00  0.00    -0.014 A 
BRANCH  39  40
ATOM     40  C   UNL A   1      43.359  24.685  27.192  1.00  0.00     0.031 A 
ATOM     41  C   UNL A   1      44.755  25.181  26.945  1.00  0.00     0.074 A 
ATOM     42  C   UNL A   1      42.445  25.494  27.763  1.00  0.00     0.049 A 
ATOM     43  N   UNL A   1      45.278  26.349  27.218  1.00  0.00    -0.248 NA
ATOM     44  C   UNL A   1      45.700  24.229  26.340  1.00  0.00     0.031 C 
ATOM     45  C   UNL A   1      41.075  25.113  28.110  1.00  0.00     0.029 A 
ATOM     46  N   UNL A   1      42.531  26.807  28.159  1.00  0.00    -0.354 N 
ATOM     47  C   UNL A   1      46.610  26.262  26.836  1.00  0.00     0.074 A 
ATOM     48  C   UNL A   1      46.834  24.912  26.373  1.00  0.00     0.031 C 
ATOM     49  C   UNL A   1      40.438  26.176  28.627  1.00  0.00     0.029 A 
ATOM     50  C   UNL A   1      41.364  27.302  28.689  1.00  0.00     0.049 A 
ATOM     51  H   UNL A   1      43.353  27.342  28.071  1.00  0.00     0.167 HD
ATOM     52  C   UNL A   1      47.552  27.233  26.839  1.00  0.00     0.037 A 
ATOM     53  C   UNL A   1      41.074  28.528  29.168  1.00  0.00     0.037 A 
ATOM     54  C   UNL A   1      47.314  28.587  27.261  1.00  0.00     0.049 A 
ATOM     55  C   UNL A   1      42.138  29.592  29.157  1.00  0.00     0.074 A 
ATOM     56  C   UNL A   1      48.186  29.660  27.237  1.00  0.00     0.029 A 
ATOM     57  N   UNL A   1      46.115  29.053  27.779  1.00  0.00    -0.354 N 
ATOM     58  N   UNL A   1      43.377  29.516  28.734  1.00  0.00    -0.248 NA
ATOM     59  C   UNL A   1      41.766  30.911  29.688  1.00  0.00     0.031 C 
ATOM     60  C   UNL A   1      47.530  30.766  27.783  1.00  0.00     0.029 A 
ATOM     61  C   UNL A   1      46.232  30.396  28.098  1.00  0.00     0.049 A 
ATOM     62  H   UNL A   1      45.303  28.511  27.902  1.00  0.00     0.167 HD
ATOM     63  C   UNL A   1      43.923  30.778  28.924  1.00  0.00     0.074 A 
ATOM     64  C   UNL A   1      42.879  31.606  29.489  1.00  0.00     0.031 C 
ATOM     65  C   UNL A   1      45.179  31.209  28.652  1.00  0.00     0.037 A 
BRANCH  52  66
ATOM     66  C   UNL A   1      48.925  26.875  26.349  1.00  0.00     0.064 A 
ATOM     67  C   UNL A   1      49.271  27.060  25.002  1.00  0.00     0.173 A 
ATOM     68  C   UNL A   1      49.880  26.298  27.199  1.00  0.00     0.173 A 
ATOM     69  F   UNL A   1      48.393  27.605  24.146  1.00  0.00    -0.203 F 
ATOM     70  C   UNL A   1      50.519  26.670  24.524  1.00  0.00     0.198 A 
ATOM     71  C   UNL A   1      51.138  25.939  26.725  1.00  0.00     0.198 A 
ATOM     72  F   UNL A   1      49.602  26.113  28.499  1.00  0.00    -0.203 F 
ATOM     73  F   UNL A   1      50.818  26.828  23.227  1.00  0.00    -0.200 F 
ATOM     74  C   UNL A   1      51.453  26.115  25.387  1.00  0.00     0.200 A 
ATOM     75  F   UNL A   1      52.048  25.428  27.566  1.00  0.00    -0.200 F 
ATOM     76  F   UNL A   1      52.659  25.753  24.928  1.00  0.00    -0.200 F 
ENDBRANCH  52  66
BRANCH  53  77
ATOM     77  C   UNL A   1      39.700  28.822  29.654  1.00  0.00     0.064 A 
ATOM     78  C   UNL A   1      39.311  28.545  30.972  1.00  0.00     0.173 A 
ATOM     79  C   UNL A   1      38.735  29.356  28.788  1.00  0.00     0.173 A 
ATOM     80  F   UNL A   1      40.195  28.028  31.838  1.00  0.00    -0.203 F 
ATOM     81  C   UNL A   1      38.005  28.774  31.400  1.00  0.00     0.198 A 
ATOM     82  C   UNL A   1      37.436  29.608  29.224  1.00  0.00     0.198 A 
ATOM     83  F   UNL A   1      39.065  29.656  27.523  1.00  0.00    -0.203 F 
ATOM     84  F   UNL A   1      37.651  28.467  32.656  1.00  0.00    -0.200 F 
ATOM     85  C   UNL A   1      37.069  29.308  30.527  1.00  0.00     0.200 A 
ATOM     86  F   UNL A   1      36.542  30.145  28.383  1.00  0.00    -0.200 F 
ATOM     87  F   UNL A   1      35.816  29.535  30.941  1.00  0.00    -0.200 F 
ENDBRANCH  53  77
BRANCH  65  88
ATOM     88  C   UNL A   1      45.503  32.646  28.937  1.00  0.00     0.064 A 
ATOM     89  C   UNL A   1      45.296  33.627  27.956  1.00  0.00     0.173 A 
ATOM     90  C   UNL A   1      46.106  33.035  30.142  1.00  0.00     0.173 A 
ATOM     91  F   UNL A   1      44.731  33.302  26.783  1.00  0.00    -0.203 F 
ATOM     92  C   UNL A   1      45.701  34.942  28.162  1.00  0.00     0.198 A 
ATOM     93  C   UNL A   1      46.484  34.358  30.355  1.00  0.00     0.198 A 
ATOM     94  F   UNL A   1      46.315  32.136  31.115  1.00  0.00    -0.203 F 
ATOM     95  F   UNL A   1      45.532  35.853  27.194  1.00  0.00    -0.200 F 
ATOM     96  C   UNL A   1      46.292  35.307  29.361  1.00  0.00     0.200 A 
ATOM     97  F   UNL A   1      47.036  34.715  31.524  1.00  0.00    -0.200 F 
ATOM     98  F   UNL A   1      46.679  36.575  29.561  1.00  0.00    -0.200 F 
ENDBRANCH  65  88
ENDBRANCH  39  40
ENDBRANCH  31  34
ENDBRANCH  29  30
ENDBRANCH  28  29
ENDBRANCH  27  28
ENDBRANCH   1  27
TORSDOF 17
ENDMDL
MODEL 2
REMARK VINA RESULT:     -11.9      6.307     10.729
REMARK SMILES CCC(CC)([NH2+]Cc1cc(C(N)=O)ccc1F)C(=O)NCCCCNC(=O)c1ccc(-c2c3nc(c(-c4c(F)c(F)c(F)c(F)c4F)c4ccc([nH]4)c(-c4c(F)c(F)c(F)c(F)c4F)c4nc(c(-c5c(F)c(F)c(F)c(F)c5F)c5ccc2[nH]5)C=C4)C=C3)cc1
REMARK SMILES IDX 21 1 20 2 18 3 19 4 3 6 2 7 1 8 4 9 5 10 6 11 7 14 8 15 9 16
REMARK SMILES IDX 16 17 10 18 15 19 17 20 14 21 11 22 12 23 13 24 22 27 23 28
REMARK SMILES IDX 24 29 25 30 26 31 27 33 28 34 29 35 90 36 30 37 89 38 31 39
REMARK SMILES IDX 32 40 33 41 83 42 34 43 88 44 82 45 84 46 35 47 87 48 81 49
REMARK SMILES IDX 80 50 36 52 68 53 48 54 67 55 49 56 52 57 66 58 85 59 50 60
REMARK SMILES IDX 51 61 65 63 86 64 53 65 37 66 38 67 46 68 39 69 40 70 44 71
REMARK SMILES IDX 47 72 41 73 42 74 45 75 43 76 69 77 70 78 78 79 71 80 72 81
REMARK SMILES IDX 76 82 79 83 73 84 74 85 77 86 75 87 54 88 55 89 63 90 56 91
REMARK SMILES IDX 57 92 61 93 64 94 58 95 59 96 62 97 60 98
REMARK H PARENT 20 5 6 12 6 13 12 25 12 26 25 32 84 51 52 62
REMARK Flexibility Score: inf
ROOT
ATOM      1  C   UNL A   1      31.976  29.428  25.523  1.00  0.00     0.116 C 
ENDROOT
BRANCH   1   2
ATOM      2  N   UNL A   1      31.304  28.244  25.981  1.00  0.00    -0.351 N 
ATOM      3  C   UNL A   1      31.180  26.969  25.548  1.00  0.00     0.281 C 
ATOM      4  O   UNL A   1      30.521  26.298  26.365  1.00  0.00    -0.268 OA
ATOM      5  H   UNL A   1      30.811  28.399  26.819  1.00  0.00     0.163 HD
BRANCH   3   6
ATOM      6  C   UNL A   1      31.783  26.272  24.241  1.00  0.00     0.175 C 
BRANCH   6   7
ATOM      7  C   UNL A   1      31.374  24.732  24.430  1.00  0.00     0.076 C 
ATOM      8  C   UNL A   1      31.925  23.740  23.388  1.00  0.00     0.011 C 
ENDBRANCH   6   7
BRANCH   6   9
ATOM      9  C   UNL A   1      33.328  26.278  24.148  1.00  0.00     0.076 C 
ATOM     10  C   UNL A   1      34.044  25.980  25.473  1.00  0.00     0.011 C 
ENDBRANCH   6   9
BRANCH   6  11
ATOM     11  N   UNL A   1      31.112  26.643  22.964  1.00  0.00    -0.330 N 
ATOM     12  H   UNL A   1      30.201  26.186  23.021  1.00  0.00     0.347 HD
ATOM     13  H   UNL A   1      31.879  26.402  22.337  1.00  0.00     0.347 HD
BRANCH  11  14
ATOM     14  C   UNL A   1      30.815  27.954  22.404  1.00  0.00     0.301 C 
BRANCH  14  15
ATOM     15  C   UNL A   1      29.586  28.815  22.703  1.00  0.00     0.043 A 
ATOM     16  C   UNL A   1      29.573  30.139  22.201  1.00  0.00     0.026 A 
ATOM     17  C   UNL A   1      28.356  28.389  23.225  1.00  0.00     0.132 A 
ATOM     18  C   UNL A   1      28.436  30.968  22.316  1.00  0.00     0.040 A 
ATOM     19  C   UNL A   1      27.280  29.240  23.478  1.00  0.00     0.040 A 
ATOM     20  F   UNL A   1      28.051  27.100  23.343  1.00  0.00    -0.206 F 
ATOM     21  C   UNL A   1      27.323  30.546  23.037  1.00  0.00     0.017 A 
BRANCH  18  22
ATOM     22  C   UNL A   1      28.300  32.248  21.582  1.00  0.00     0.248 C 
ATOM     23  N   UNL A   1      28.043  32.158  20.243  1.00  0.00    -0.366 N 
ATOM     24  O   UNL A   1      28.309  33.325  22.162  1.00  0.00    -0.270 OA
ATOM     25  H   UNL A   1      28.042  31.278  19.801  1.00  0.00     0.159 HD
ATOM     26  H   UNL A   1      27.859  32.971  19.722  1.00  0.00     0.159 HD
ENDBRANCH  18  22
ENDBRANCH  14  15
ENDBRANCH  11  14
ENDBRANCH   6  11
ENDBRANCH   3   6
ENDBRANCH   1   2
BRANCH   1  27
ATOM     27  C   UNL A   1      32.626  30.219  26.664  1.00  0.00     0.023 C 
BRANCH  27  28
ATOM     28  C   UNL A   1      32.091  31.631  26.849  1.00  0.00     0.023 C 
BRANCH  28  29
ATOM     29  C   UNL A   1      33.065  32.586  27.523  1.00  0.00     0.116 C 
BRANCH  29  30
ATOM     30  N   UNL A   1      32.554  33.939  27.708  1.00  0.00    -0.352 N 
ATOM     31  C   UNL A   1      33.015  34.901  28.580  1.00  0.00     0.251 C 
ATOM     32  H   UNL A   1      31.790  34.197  27.142  1.00  0.00     0.163 HD
ATOM     33  O   UNL A   1      32.444  35.978  28.698  1.00  0.00    -0.269 OA
BRANCH  31  34
ATOM     34  C   UNL A   1      34.189  34.575  29.416  1.00  0.00     0.039 A 
ATOM     35  C   UNL A   1      33.989  34.083  30.706  1.00  0.00     0.014 A 
ATOM     36  C   UNL A   1      35.470  34.621  28.860  1.00  0.00     0.014 A 
ATOM     37  C   UNL A   1      35.069  33.541  31.405  1.00  0.00     0.010 A 
ATOM     38  C   UNL A   1      36.520  33.991  29.515  1.00  0.00     0.010 A 
ATOM     39  C   UNL A   1      36.330  33.438  30.791  1.00  0.00    -0.014 A 
BRANCH  39  40
ATOM     40  C   UNL A   1      37.464  32.750  31.459  1.00  0.00     0.031 A 
ATOM     41  C   UNL A   1      38.154  31.607  30.771  1.00  0.00     0.074 A 
ATOM     42  C   UNL A   1      37.820  33.100  32.711  1.00  0.00     0.049 A 
ATOM     43  N   UNL A   1      39.106  30.827  31.215  1.00  0.00    -0.248 NA
ATOM     44  C   UNL A   1      37.690  31.272  29.414  1.00  0.00     0.031 C 
ATOM     45  C   UNL A   1      37.188  34.152  33.508  1.00  0.00     0.029 A 
ATOM     46  N   UNL A   1      38.799  32.604  33.537  1.00  0.00    -0.354 N 
ATOM     47  C   UNL A   1      39.339  29.905  30.204  1.00  0.00     0.074 A 
ATOM     48  C   UNL A   1      38.388  30.178  29.150  1.00  0.00     0.031 C 
ATOM     49  C   UNL A   1      37.820  34.251  34.689  1.00  0.00     0.029 A 
ATOM     50  C   UNL A   1      38.874  33.243  34.751  1.00  0.00     0.049 A 
ATOM     51  H   UNL A   1      39.393  31.861  33.281  1.00  0.00     0.167 HD
ATOM     52  C   UNL A   1      40.284  28.940  30.145  1.00  0.00     0.037 A 
ATOM     53  C   UNL A   1      39.701  33.038  35.796  1.00  0.00     0.037 A 
ATOM     54  C   UNL A   1      41.256  28.699  31.177  1.00  0.00     0.049 A 
ATOM     55  C   UNL A   1      40.748  31.961  35.705  1.00  0.00     0.074 A 
ATOM     56  C   UNL A   1      42.298  27.789  31.181  1.00  0.00     0.029 A 
ATOM     57  N   UNL A   1      41.307  29.375  32.387  1.00  0.00    -0.354 N 
ATOM     58  N   UNL A   1      41.000  31.137  34.717  1.00  0.00    -0.248 NA
ATOM     59  C   UNL A   1      41.625  31.786  36.871  1.00  0.00     0.031 C 
ATOM     60  C   UNL A   1      42.952  27.883  32.412  1.00  0.00     0.029 A 
ATOM     61  C   UNL A   1      42.352  28.887  33.155  1.00  0.00     0.049 A 
ATOM     62  H   UNL A   1      40.693  30.094  32.659  1.00  0.00     0.167 HD
ATOM     63  C   UNL A   1      42.076  30.364  35.129  1.00  0.00     0.074 A 
ATOM     64  C   UNL A   1      42.438  30.824  36.454  1.00  0.00     0.031 C 
ATOM     65  C   UNL A   1      42.706  29.362  34.468  1.00  0.00     0.037 A 
BRANCH  52  66
ATOM     66  C   UNL A   1      40.333  28.084  28.914  1.00  0.00     0.064 A 
ATOM     67  C   UNL A   1      39.655  26.856  28.871  1.00  0.00     0.173 A 
ATOM     68  C   UNL A   1      41.096  28.452  27.794  1.00  0.00     0.173 A 
ATOM     69  F   UNL A   1      38.914  26.456  29.915  1.00  0.00    -0.203 F 
ATOM     70  C   UNL A   1      39.748  26.026  27.758  1.00  0.00     0.198 A 
ATOM     71  C   UNL A   1      41.161  27.633  26.672  1.00  0.00     0.198 A 
ATOM     72  F   UNL A   1      41.752  29.622  27.780  1.00  0.00    -0.203 F 
ATOM     73  F   UNL A   1      39.116  24.843  27.751  1.00  0.00    -0.200 F 
ATOM     74  C   UNL A   1      40.497  26.416  26.658  1.00  0.00     0.200 A 
ATOM     75  F   UNL A   1      41.863  28.025  25.599  1.00  0.00    -0.200 F 
ATOM     76  F   UNL A   1      40.574  25.622  25.581  1.00  0.00    -0.200 F 
ENDBRANCH  52  66
BRANCH  53  77
ATOM     77  C   UNL A   1      39.598  33.909  36.996  1.00  0.00     0.064 A 
ATOM     78  C   UNL A   1      38.835  33.536  38.112  1.00  0.00     0.173 A 
ATOM     79  C   UNL A   1      40.238  35.156  37.032  1.00  0.00     0.173 A 
ATOM     80  F   UNL A   1      38.198  32.356  38.125  1.00  0.00    -0.203 F 
ATOM     81  C   UNL A   1      38.702  34.385  39.209  1.00  0.00     0.198 A 
ATOM     82  C   UNL A   1      40.124  35.993  38.140  1.00  0.00     0.198 A 
ATOM     83  F   UNL A   1      40.995  35.548  35.997  1.00  0.00    -0.203 F 
ATOM     84  F   UNL A   1      37.937  34.018  40.247  1.00  0.00    -0.200 F 
ATOM     85  C   UNL A   1      39.349  35.611  39.224  1.00  0.00     0.200 A 
ATOM     86  F   UNL A   1      40.770  37.167  38.159  1.00  0.00    -0.200 F 
ATOM     87  F   UNL A   1      39.226  36.423  40.282  1.00  0.00    -0.200 F 
ENDBRANCH  53  77
BRANCH  65  88
ATOM     88  C   UNL A   1      43.869  28.700  35.145  1.00  0.00     0.064 A 
ATOM     89  C   UNL A   1      43.660  27.629  36.027  1.00  0.00     0.173 A 
ATOM     90  C   UNL A   1      45.176  29.186  34.996  1.00  0.00     0.173 A 
ATOM     91  F   UNL A   1      42.427  27.135  36.210  1.00  0.00    -0.203 F 
ATOM     92  C   UNL A   1      44.714  27.083  36.752  1.00  0.00     0.198 A 
ATOM     93  C   UNL A   1      46.233  28.618  35.702  1.00  0.00     0.198 A 
ATOM     94  F   UNL A   1      45.428  30.201  34.156  1.00  0.00    -0.203 F 
ATOM     95  F   UNL A   1      44.484  26.089  37.621  1.00  0.00    -0.200 F 
ATOM     96  C   UNL A   1      46.000  27.575  36.588  1.00  0.00     0.200 A 
ATOM     97  F   UNL A   1      47.479  29.080  35.526  1.00  0.00    -0.200 F 
ATOM     98  F   UNL A   1      47.016  27.046  37.284  1.00  0.00    -0.200 F 
ENDBRANCH  65  88
ENDBRANCH  39  40
ENDBRANCH  31  34
ENDBRANCH  29  30
ENDBRANCH  28  29
ENDBRANCH  27  28
ENDBRANCH   1  27
TORSDOF 17
ENDMDL
MODEL 3
REMARK VINA RESULT:     -11.9      5.630      9.632
REMARK SMILES CCC(CC)([NH2+]Cc1cc(C(N)=O)ccc1F)C(=O)NCCCCNC(=O)c1ccc(-c2c3nc(c(-c4c(F)c(F)c(F)c(F)c4F)c4ccc([nH]4)c(-c4c(F)c(F)c(F)c(F)c4F)c4nc(c(-c5c(F)c(F)c(F)c(F)c5F)c5ccc2[nH]5)C=C4)C=C3)cc1
REMARK SMILES IDX 21 1 20 2 18 3 19 4 3 6 2 7 1 8 4 9 5 10 6 11 7 14 8 15 9 16
REMARK SMILES IDX 16 17 10 18 15 19 17 20 14 21 11 22 12 23 13 24 22 27 23 28
REMARK SMILES IDX 24 29 25 30 26 31 27 33 28 34 29 35 90 36 30 37 89 38 31 39
REMARK SMILES IDX 32 40 33 41 83 42 34 43 88 44 82 45 84 46 35 47 87 48 81 49
REMARK SMILES IDX 80 50 36 52 68 53 48 54 67 55 49 56 52 57 66 58 85 59 50 60
REMARK SMILES IDX 51 61 65 63 86 64 53 65 37 66 38 67 46 68 39 69 40 70 44 71
REMARK SMILES IDX 47 72 41 73 42 74 45 75 43 76 69 77 70 78 78 79 71 80 72 81
REMARK SMILES IDX 76 82 79 83 73 84 74 85 77 86 75 87 54 88 55 89 63 90 56 91
REMARK SMILES IDX 57 92 61 93 64 94 58 95 59 96 62 97 60 98
REMARK H PARENT 20 5 6 12 6 13 12 25 12 26 25 32 84 51 52 62
REMARK Flexibility Score: inf
ROOT
ATOM      1  C   UNL A   1      33.667  29.529  26.449  1.00  0.00     0.116 C 
ENDROOT
BRANCH   1   2
ATOM      2  N   UNL A   1      33.664  29.462  25.013  1.00  0.00    -0.351 N 
ATOM      3  C   UNL A   1      33.365  28.525  24.086  1.00  0.00     0.281 C 
ATOM      4  O   UNL A   1      33.467  29.003  22.941  1.00  0.00    -0.268 OA
ATOM      5  H   UNL A   1      33.950  30.310  24.603  1.00  0.00     0.163 HD
BRANCH   3   6
ATOM      6  C   UNL A   1      32.879  27.014  24.283  1.00  0.00     0.175 C 
BRANCH   6   7
ATOM      7  C   UNL A   1      31.335  27.180  24.687  1.00  0.00     0.076 C 
ATOM      8  C   UNL A   1      30.311  27.124  23.537  1.00  0.00     0.011 C 
ENDBRANCH   6   7
BRANCH   6   9
ATOM      9  C   UNL A   1      33.535  26.262  25.465  1.00  0.00     0.076 C 
ATOM     10  C   UNL A   1      32.588  25.320  26.222  1.00  0.00     0.011 C 
ENDBRANCH   6   9
BRANCH   6  11
ATOM     11  N   UNL A   1      32.813  26.207  23.032  1.00  0.00    -0.330 N 
ATOM     12  H   UNL A   1      32.959  26.891  22.288  1.00  0.00     0.347 HD
ATOM     13  H   UNL A   1      31.949  25.708  23.243  1.00  0.00     0.347 HD
BRANCH  11  14
ATOM     14  C   UNL A   1      33.600  25.056  22.612  1.00  0.00     0.301 C 
BRANCH  14  15
ATOM     15  C   UNL A   1      33.450  23.619  23.115  1.00  0.00     0.043 A 
ATOM     16  C   UNL A   1      34.563  23.030  23.763  1.00  0.00     0.026 A 
ATOM     17  C   UNL A   1      32.267  22.874  23.221  1.00  0.00     0.132 A 
ATOM     18  C   UNL A   1      34.484  21.758  24.371  1.00  0.00     0.040 A 
ATOM     19  C   UNL A   1      32.212  21.559  23.685  1.00  0.00     0.040 A 
ATOM     20  F   UNL A   1      31.069  23.430  23.065  1.00  0.00    -0.206 F 
ATOM     21  C   UNL A   1      33.332  20.986  24.250  1.00  0.00     0.017 A 
BRANCH  18  22
ATOM     22  C   UNL A   1      35.538  21.233  25.271  1.00  0.00     0.248 C 
ATOM     23  N   UNL A   1      35.712  21.892  26.454  1.00  0.00    -0.366 N 
ATOM     24  O   UNL A   1      36.145  20.202  25.016  1.00  0.00    -0.270 OA
ATOM     25  H   UNL A   1      35.212  22.721  26.634  1.00  0.00     0.159 HD
ATOM     26  H   UNL A   1      36.337  21.539  27.127  1.00  0.00     0.159 HD
ENDBRANCH  18  22
ENDBRANCH  14  15
ENDBRANCH  11  14
ENDBRANCH   6  11
ENDBRANCH   3   6
ENDBRANCH   1   2
BRANCH   1  27
ATOM     27  C   UNL A   1      32.336  30.031  27.021  1.00  0.00     0.023 C 
BRANCH  27  28
ATOM     28  C   UNL A   1      32.062  31.510  26.800  1.00  0.00     0.023 C 
BRANCH  28  29
ATOM     29  C   UNL A   1      33.011  32.441  27.541  1.00  0.00     0.116 C 
BRANCH  29  30
ATOM     30  N   UNL A   1      32.531  33.811  27.678  1.00  0.00    -0.352 N 
ATOM     31  C   UNL A   1      33.015  34.792  28.514  1.00  0.00     0.251 C 
ATOM     32  H   UNL A   1      31.772  34.064  27.104  1.00  0.00     0.163 HD
ATOM     33  O   UNL A   1      32.467  35.885  28.594  1.00  0.00    -0.269 OA
BRANCH  31  34
ATOM     34  C   UNL A   1      34.182  34.470  29.360  1.00  0.00     0.039 A 
ATOM     35  C   UNL A   1      33.974  33.915  30.623  1.00  0.00     0.014 A 
ATOM     36  C   UNL A   1      35.472  34.586  28.835  1.00  0.00     0.014 A 
ATOM     37  C   UNL A   1      35.058  33.381  31.320  1.00  0.00     0.010 A 
ATOM     38  C   UNL A   1      36.530  33.964  29.484  1.00  0.00     0.010 A 
ATOM     39  C   UNL A   1      36.335  33.349  30.730  1.00  0.00    -0.014 A 
BRANCH  39  40
ATOM     40  C   UNL A   1      37.479  32.672  31.392  1.00  0.00     0.031 A 
ATOM     41  C   UNL A   1      38.173  31.533  30.701  1.00  0.00     0.074 A 
ATOM     42  C   UNL A   1      37.840  33.028  32.640  1.00  0.00     0.049 A 
ATOM     43  N   UNL A   1      39.135  30.762  31.141  1.00  0.00    -0.248 NA
ATOM     44  C   UNL A   1      37.703  31.191  29.348  1.00  0.00     0.031 C 
ATOM     45  C   UNL A   1      37.205  34.076  33.440  1.00  0.00     0.029 A 
ATOM     46  N   UNL A   1      38.830  32.541  33.460  1.00  0.00    -0.354 N 
ATOM     47  C   UNL A   1      39.369  29.840  30.130  1.00  0.00     0.074 A 
ATOM     48  C   UNL A   1      38.408  30.103  29.082  1.00  0.00     0.031 C 
ATOM     49  C   UNL A   1      37.844  34.182  34.616  1.00  0.00     0.029 A 
ATOM     50  C   UNL A   1      38.907  33.183  34.673  1.00  0.00     0.049 A 
ATOM     51  H   UNL A   1      39.428  31.802  33.202  1.00  0.00     0.167 HD
ATOM     52  C   UNL A   1      40.322  28.882  30.066  1.00  0.00     0.037 A 
ATOM     53  C   UNL A   1      39.743  32.988  35.712  1.00  0.00     0.037 A 
ATOM     54  C   UNL A   1      41.302  28.652  31.092  1.00  0.00     0.049 A 
ATOM     55  C   UNL A   1      40.798  31.919  35.616  1.00  0.00     0.074 A 
ATOM     56  C   UNL A   1      42.352  27.751  31.091  1.00  0.00     0.029 A 
ATOM     57  N   UNL A   1      41.357  29.331  32.300  1.00  0.00    -0.354 N 
ATOM     58  N   UNL A   1      41.051  31.095  34.628  1.00  0.00    -0.248 NA
ATOM     59  C   UNL A   1      41.685  31.754  36.776  1.00  0.00     0.031 C 
ATOM     60  C   UNL A   1      43.014  27.852  32.317  1.00  0.00     0.029 A 
ATOM     61  C   UNL A   1      42.410  28.854  33.061  1.00  0.00     0.049 A 
ATOM     62  H   UNL A   1      40.738  30.046  32.575  1.00  0.00     0.167 HD
ATOM     63  C   UNL A   1      42.136  30.332  35.035  1.00  0.00     0.074 A 
ATOM     64  C   UNL A   1      42.503  30.798  36.356  1.00  0.00     0.031 C 
ATOM     65  C   UNL A   1      42.769  29.334  34.371  1.00  0.00     0.037 A 
BRANCH  52  66
ATOM     66  C   UNL A   1      40.369  28.024  28.836  1.00  0.00     0.064 A 
ATOM     67  C   UNL A   1      39.702  26.790  28.801  1.00  0.00     0.173 A 
ATOM     68  C   UNL A   1      41.120  28.397  27.710  1.00  0.00     0.173 A 
ATOM     69  F   UNL A   1      38.973  26.385  29.852  1.00  0.00    -0.203 F 
ATOM     70  C   UNL A   1      39.795  25.958  27.690  1.00  0.00     0.198 A 
ATOM     71  C   UNL A   1      41.184  27.576  26.589  1.00  0.00     0.198 A 
ATOM     72  F   UNL A   1      41.765  29.573  27.689  1.00  0.00    -0.203 F 
ATOM     73  F   UNL A   1      39.174  24.770  27.690  1.00  0.00    -0.200 F 
ATOM     74  C   UNL A   1      40.532  26.353  26.583  1.00  0.00     0.200 A 
ATOM     75  F   UNL A   1      41.874  27.973  25.510  1.00  0.00    -0.200 F 
ATOM     76  F   UNL A   1      40.608  25.557  25.507  1.00  0.00    -0.200 F 
ENDBRANCH  52  66
BRANCH  53  77
ATOM     77  C   UNL A   1      39.641  33.860  36.911  1.00  0.00     0.064 A 
ATOM     78  C   UNL A   1      38.874  33.492  38.026  1.00  0.00     0.173 A 
ATOM     79  C   UNL A   1      40.287  35.105  36.948  1.00  0.00     0.173 A 
ATOM     80  F   UNL A   1      38.231  32.315  38.038  1.00  0.00    -0.203 F 
ATOM     81  C   UNL A   1      38.741  34.343  39.121  1.00  0.00     0.198 A 
ATOM     82  C   UNL A   1      40.174  35.943  38.055  1.00  0.00     0.198 A 
ATOM     83  F   UNL A   1      41.048  35.493  35.914  1.00  0.00    -0.203 F 
ATOM     84  F   UNL A   1      37.973  33.980  40.158  1.00  0.00    -0.200 F 
ATOM     85  C   UNL A   1      39.394  35.566  39.136  1.00  0.00     0.200 A 
ATOM     86  F   UNL A   1      40.825  37.115  38.073  1.00  0.00    -0.200 F 
ATOM     87  F   UNL A   1      39.273  36.379  40.194  1.00  0.00    -0.200 F 
ENDBRANCH  53  77
BRANCH  65  88
ATOM     88  C   UNL A   1      43.943  28.683  35.041  1.00  0.00     0.064 A 
ATOM     89  C   UNL A   1      45.244  29.153  34.805  1.00  0.00     0.173 A 
ATOM     90  C   UNL A   1      43.790  27.538  35.836  1.00  0.00     0.173 A 
ATOM     91  F   UNL A   1      45.443  30.239  34.043  1.00  0.00    -0.203 F 
ATOM     92  C   UNL A   1      46.350  28.488  35.323  1.00  0.00     0.198 A 
ATOM     93  C   UNL A   1      44.898  26.892  36.376  1.00  0.00     0.198 A 
ATOM     94  F   UNL A   1      42.566  27.057  36.100  1.00  0.00    -0.203 F 
ATOM     95  F   UNL A   1      47.586  28.930  35.049  1.00  0.00    -0.200 F 
ATOM     96  C   UNL A   1      46.177  27.360  36.110  1.00  0.00     0.200 A 
ATOM     97  F   UNL A   1      44.729  25.814  37.155  1.00  0.00    -0.200 F 
ATOM     98  F   UNL A   1      47.243  26.721  36.612  1.00  0.00    -0.200 F 
ENDBRANCH  65  88
ENDBRANCH  39  40
ENDBRANCH  31  34
ENDBRANCH  29  30
ENDBRANCH  28  29
ENDBRANCH  27  28
ENDBRANCH   1  27
TORSDOF 17
ENDMDL
