MODEL 1
REMARK VINA RESULT:     -11.7      0.000      0.000
REMARK SMILES CCCC(=O)/C(=C/NC(N)=O)C(=O)NCCCCNC(=O)c1ccc(-c2c3nc(c(-c4c(F)c(F)c(F)c(F)c4F)c4ccc([nH]4)c(-c4c(F)c(F)c(F)c(F)c4F)c4nc(c(-c5c(F)c(F)c(F)c(F)c5F)c5ccc2[nH]5)C=C4)C=C3)cc1
REMARK SMILES IDX 16 1 15 2 14 3 12 4 13 5 6 7 7 8 4 9 5 10 3 11 2 12 1 13
REMARK SMILES IDX 8 14 9 15 10 17 11 18 17 21 18 22 19 23 20 24 21 26 22 27
REMARK SMILES IDX 23 28 84 29 24 30 83 31 25 32 26 33 27 34 77 35 28 36 82 37
REMARK SMILES IDX 76 38 78 39 29 40 81 41 75 42 74 43 30 45 62 46 42 47 61 48
REMARK SMILES IDX 43 49 46 50 60 51 79 52 44 53 45 54 59 56 80 57 47 58 31 59
REMARK SMILES IDX 32 60 40 61 33 62 34 63 38 64 41 65 35 66 36 67 39 68 37 69
REMARK SMILES IDX 63 70 64 71 72 72 65 73 66 74 70 75 73 76 67 77 68 78 71 79
REMARK SMILES IDX 69 80 48 81 49 82 57 83 50 84 51 85 55 86 58 87 52 88 53 89
REMARK SMILES IDX 56 90 54 91
REMARK H PARENT 14 6 8 16 10 19 10 20 19 25 78 44 46 55
REMARK Flexibility Score: inf
ROOT
ATOM      1  C   UNL A   1      32.008  30.566  26.896  1.00  0.00     0.023 C 
ENDROOT
BRANCH   1   2
ATOM      2  C   UNL A   1      31.760  29.792  25.608  1.00  0.00     0.116 C 
BRANCH   2   3
ATOM      3  N   UNL A   1      32.902  29.654  24.724  1.00  0.00    -0.352 N 
ATOM      4  C   UNL A   1      33.006  29.012  23.514  1.00  0.00     0.256 C 
ATOM      5  O   UNL A   1      34.028  29.184  22.852  1.00  0.00    -0.269 OA
ATOM      6  H   UNL A   1      33.728  30.086  25.039  1.00  0.00     0.163 HD
BRANCH   4   7
ATOM      7  C   UNL A   1      31.914  28.122  23.013  1.00  0.00     0.098 C 
ATOM      8  C   UNL A   1      30.902  28.565  22.245  1.00  0.00     0.105 C 
BRANCH   7   9
ATOM      9  C   UNL A   1      31.947  26.673  23.438  1.00  0.00     0.169 C 
ATOM     10  O   UNL A   1      32.044  26.383  24.633  1.00  0.00    -0.294 OA
BRANCH   9  11
ATOM     11  C   UNL A   1      31.778  25.545  22.424  1.00  0.00     0.081 C 
BRANCH  11  12
ATOM     12  C   UNL A   1      32.904  25.521  21.390  1.00  0.00     0.005 C 
ATOM     13  C   UNL A   1      32.433  25.588  19.944  1.00  0.00     0.004 C 
ENDBRANCH  11  12
ENDBRANCH   9  11
ENDBRANCH   7   9
BRANCH   8  14
ATOM     14  N   UNL A   1      30.692  29.856  21.823  1.00  0.00    -0.314 N 
ATOM     15  C   UNL A   1      29.422  30.325  21.576  1.00  0.00     0.316 C 
ATOM     16  H   UNL A   1      31.462  30.457  21.696  1.00  0.00     0.171 HD
ATOM     17  N   UNL A   1      29.352  31.678  21.515  1.00  0.00    -0.351 N 
ATOM     18  O   UNL A   1      28.412  29.642  21.536  1.00  0.00    -0.249 OA
ATOM     19  H   UNL A   1      30.176  32.215  21.547  1.00  0.00     0.161 HD
ATOM     20  H   UNL A   1      28.477  32.122  21.438  1.00  0.00     0.161 HD
ENDBRANCH   8  14
ENDBRANCH   4   7
ENDBRANCH   2   3
ENDBRANCH   1   2
BRANCH   1  21
ATOM     21  C   UNL A   1      31.741  32.071  26.856  1.00  0.00     0.023 C 
BRANCH  21  22
ATOM     22  C   UNL A   1      32.883  32.997  27.263  1.00  0.00     0.116 C 
BRANCH  22  23
ATOM     23  N   UNL A   1      32.465  34.323  27.700  1.00  0.00    -0.352 N 
ATOM     24  C   UNL A   1      32.996  35.124  28.690  1.00  0.00     0.251 C 
ATOM     25  H   UNL A   1      31.695  34.701  27.219  1.00  0.00     0.163 HD
ATOM     26  O   UNL A   1      32.508  36.225  28.924  1.00  0.00    -0.269 OA
BRANCH  24  27
ATOM     27  C   UNL A   1      34.117  34.620  29.511  1.00  0.00     0.039 A 
ATOM     28  C   UNL A   1      33.838  34.045  30.755  1.00  0.00     0.014 A 
ATOM     29  C   UNL A   1      35.421  34.630  29.016  1.00  0.00     0.014 A 
ATOM     30  C   UNL A   1      34.846  33.367  31.445  1.00  0.00     0.010 A 
ATOM     31  C   UNL A   1      36.401  33.887  29.664  1.00  0.00     0.010 A 
ATOM     32  C   UNL A   1      36.119  33.224  30.872  1.00  0.00    -0.014 A 
BRANCH  32  33
ATOM     33  C   UNL A   1      37.178  32.380  31.486  1.00  0.00     0.031 A 
ATOM     34  C   UNL A   1      37.700  32.725  32.851  1.00  0.00     0.074 A 
ATOM     35  C   UNL A   1      37.758  31.392  30.772  1.00  0.00     0.049 A 
ATOM     36  N   UNL A   1      38.761  32.278  33.473  1.00  0.00    -0.248 NA
ATOM     37  C   UNL A   1      36.946  33.743  33.600  1.00  0.00     0.031 C 
ATOM     38  C   UNL A   1      37.367  30.974  29.425  1.00  0.00     0.029 A 
ATOM     39  N   UNL A   1      38.825  30.579  31.073  1.00  0.00    -0.354 N 
ATOM     40  C   UNL A   1      38.824  32.989  34.664  1.00  0.00     0.074 A 
ATOM     41  C   UNL A   1      37.718  33.921  34.661  1.00  0.00     0.031 C 
ATOM     42  C   UNL A   1      38.175  29.981  29.020  1.00  0.00     0.029 A 
ATOM     43  C   UNL A   1      39.173  29.725  30.055  1.00  0.00     0.049 A 
ATOM     44  H   UNL A   1      39.295  30.606  31.937  1.00  0.00     0.167 HD
ATOM     45  C   UNL A   1      39.717  32.865  35.675  1.00  0.00     0.037 A 
ATOM     46  C   UNL A   1      40.196  28.853  29.956  1.00  0.00     0.037 A 
ATOM     47  C   UNL A   1      40.786  31.903  35.695  1.00  0.00     0.049 A 
ATOM     48  C   UNL A   1      41.169  28.727  31.097  1.00  0.00     0.074 A 
ATOM     49  C   UNL A   1      41.707  31.659  36.698  1.00  0.00     0.029 A 
ATOM     50  N   UNL A   1      41.071  31.020  34.664  1.00  0.00    -0.354 N 
ATOM     51  N   UNL A   1      41.198  29.378  32.234  1.00  0.00    -0.248 NA
ATOM     52  C   UNL A   1      42.255  27.746  30.941  1.00  0.00     0.031 C 
ATOM     53  C   UNL A   1      42.569  30.649  36.261  1.00  0.00     0.029 A 
ATOM     54  C   UNL A   1      42.159  30.234  35.005  1.00  0.00     0.049 A 
ATOM     55  H   UNL A   1      40.573  30.960  33.817  1.00  0.00     0.167 HD
ATOM     56  C   UNL A   1      42.275  28.861  32.943  1.00  0.00     0.074 A 
ATOM     57  C   UNL A   1      42.878  27.843  32.108  1.00  0.00     0.031 C 
ATOM     58  C   UNL A   1      42.722  29.200  34.176  1.00  0.00     0.037 A 
BRANCH  45  59
ATOM     59  C   UNL A   1      39.572  33.792  36.844  1.00  0.00     0.064 A 
ATOM     60  C   UNL A   1      38.810  33.444  37.970  1.00  0.00     0.173 A 
ATOM     61  C   UNL A   1      40.227  35.032  36.853  1.00  0.00     0.173 A 
ATOM     62  F   UNL A   1      38.154  32.274  38.005  1.00  0.00    -0.203 F 
ATOM     63  C   UNL A   1      38.681  34.318  39.045  1.00  0.00     0.198 A 
ATOM     64  C   UNL A   1      40.121  35.892  37.945  1.00  0.00     0.198 A 
ATOM     65  F   UNL A   1      40.973  35.412  35.805  1.00  0.00    -0.203 F 
ATOM     66  F   UNL A   1      37.902  33.988  40.085  1.00  0.00    -0.200 F 
ATOM     67  C   UNL A   1      39.342  35.537  39.035  1.00  0.00     0.200 A 
ATOM     68  F   UNL A   1      40.769  37.064  37.938  1.00  0.00    -0.200 F 
ATOM     69  F   UNL A   1      39.220  36.375  40.074  1.00  0.00    -0.200 F 
ENDBRANCH  45  59
BRANCH  46  70
ATOM     70  C   UNL A   1      40.347  28.017  28.736  1.00  0.00     0.064 A 
ATOM     71  C   UNL A   1      39.738  26.756  28.653  1.00  0.00     0.173 A 
ATOM     72  C   UNL A   1      41.106  28.447  27.638  1.00  0.00     0.173 A 
ATOM     73  F   UNL A   1      39.020  26.291  29.686  1.00  0.00    -0.203 F 
ATOM     74  C   UNL A   1      39.898  25.952  27.526  1.00  0.00     0.198 A 
ATOM     75  C   UNL A   1      41.244  27.652  26.502  1.00  0.00     0.198 A 
ATOM     76  F   UNL A   1      41.707  29.646  27.665  1.00  0.00    -0.203 F 
ATOM     77  F   UNL A   1      39.341  24.733  27.492  1.00  0.00    -0.200 F 
ATOM     78  C   UNL A   1      40.646  26.402  26.449  1.00  0.00     0.200 A 
ATOM     79  F   UNL A   1      41.957  28.097  25.458  1.00  0.00    -0.200 F 
ATOM     80  F   UNL A   1      40.797  25.629  25.366  1.00  0.00    -0.200 F 
ENDBRANCH  46  70
BRANCH  58  81
ATOM     81  C   UNL A   1      43.876  28.426  34.738  1.00  0.00     0.064 A 
ATOM     82  C   UNL A   1      45.199  28.861  34.585  1.00  0.00     0.173 A 
ATOM     83  C   UNL A   1      43.642  27.282  35.516  1.00  0.00     0.173 A 
ATOM     84  F   UNL A   1      45.473  29.942  33.838  1.00  0.00    -0.203 F 
ATOM     85  C   UNL A   1      46.250  28.174  35.187  1.00  0.00     0.198 A 
ATOM     86  C   UNL A   1      44.691  26.612  36.137  1.00  0.00     0.198 A 
ATOM     87  F   UNL A   1      42.391  26.830  35.695  1.00  0.00    -0.203 F 
ATOM     88  F   UNL A   1      47.510  28.592  35.011  1.00  0.00    -0.200 F 
ATOM     89  C   UNL A   1      45.994  27.057  35.971  1.00  0.00     0.200 A 
ATOM     90  F   UNL A   1      44.442  25.542  36.903  1.00  0.00    -0.200 F 
ATOM     91  F   UNL A   1      47.005  26.411  36.568  1.00  0.00    -0.200 F 
ENDBRANCH  58  81
ENDBRANCH  32  33
ENDBRANCH  24  27
ENDBRANCH  22  23
ENDBRANCH  21  22
ENDBRANCH   1  21
TORSDOF 15
ENDMDL
MODEL 2
REMARK VINA RESULT:     -11.5      5.646      9.111
REMARK SMILES CCCC(=O)/C(=C/NC(N)=O)C(=O)NCCCCNC(=O)c1ccc(-c2c3nc(c(-c4c(F)c(F)c(F)c(F)c4F)c4ccc([nH]4)c(-c4c(F)c(F)c(F)c(F)c4F)c4nc(c(-c5c(F)c(F)c(F)c(F)c5F)c5ccc2[nH]5)C=C4)C=C3)cc1
REMARK SMILES IDX 16 1 15 2 14 3 12 4 13 5 6 7 7 8 4 9 5 10 3 11 2 12 1 13
REMARK SMILES IDX 8 14 9 15 10 17 11 18 17 21 18 22 19 23 20 24 21 26 22 27
REMARK SMILES IDX 23 28 84 29 24 30 83 31 25 32 26 33 27 34 77 35 28 36 82 37
REMARK SMILES IDX 76 38 78 39 29 40 81 41 75 42 74 43 30 45 62 46 42 47 61 48
REMARK SMILES IDX 43 49 46 50 60 51 79 52 44 53 45 54 59 56 80 57 47 58 31 59
REMARK SMILES IDX 32 60 40 61 33 62 34 63 38 64 41 65 35 66 36 67 39 68 37 69
REMARK SMILES IDX 63 70 64 71 72 72 65 73 66 74 70 75 73 76 67 77 68 78 71 79
REMARK SMILES IDX 69 80 48 81 49 82 57 83 50 84 51 85 55 86 58 87 52 88 53 89
REMARK SMILES IDX 56 90 54 91
REMARK H PARENT 14 6 8 16 10 19 10 20 19 25 78 44 46 55
REMARK Flexibility Score: inf
ROOT
ATOM      1  C   UNL A   1      35.937  23.506  23.562  1.00  0.00     0.023 C 
ENDROOT
BRANCH   1   2
ATOM      2  C   UNL A   1      34.467  23.403  23.949  1.00  0.00     0.116 C 
BRANCH   2   3
ATOM      3  N   UNL A   1      33.602  22.760  22.979  1.00  0.00    -0.352 N 
ATOM      4  C   UNL A   1      32.595  21.845  23.168  1.00  0.00     0.256 C 
ATOM      5  O   UNL A   1      31.869  21.576  22.213  1.00  0.00    -0.269 OA
ATOM      6  H   UNL A   1      33.761  23.017  22.042  1.00  0.00     0.163 HD
BRANCH   4   7
ATOM      7  C   UNL A   1      32.386  21.186  24.494  1.00  0.00     0.098 C 
ATOM      8  C   UNL A   1      31.551  21.673  25.430  1.00  0.00     0.105 C 
BRANCH   7   9
ATOM      9  C   UNL A   1      33.192  19.943  24.788  1.00  0.00     0.169 C 
ATOM     10  O   UNL A   1      34.340  20.043  25.228  1.00  0.00    -0.294 OA
BRANCH   9  11
ATOM     11  C   UNL A   1      32.587  18.551  24.635  1.00  0.00     0.081 C 
BRANCH  11  12
ATOM     12  C   UNL A   1      32.842  17.958  23.248  1.00  0.00     0.005 C 
ATOM     13  C   UNL A   1      33.934  16.898  23.208  1.00  0.00     0.004 C 
ENDBRANCH  11  12
ENDBRANCH   9  11
ENDBRANCH   7   9
BRANCH   8  14
ATOM     14  N   UNL A   1      30.796  22.818  25.345  1.00  0.00    -0.314 N 
ATOM     15  C   UNL A   1      30.399  23.492  26.477  1.00  0.00     0.316 C 
ATOM     16  H   UNL A   1      30.534  23.162  24.461  1.00  0.00     0.171 HD
ATOM     17  N   UNL A   1      29.979  24.758  26.228  1.00  0.00    -0.351 N 
ATOM     18  O   UNL A   1      30.516  23.084  27.621  1.00  0.00    -0.249 OA
ATOM     19  H   UNL A   1      29.888  25.072  25.300  1.00  0.00     0.161 HD
ATOM     20  H   UNL A   1      29.763  25.360  26.975  1.00  0.00     0.161 HD
ENDBRANCH   8  14
ENDBRANCH   4   7
ENDBRANCH   2   3
ENDBRANCH   1   2
BRANCH   1  21
ATOM     21  C   UNL A   1      36.806  22.276  23.829  1.00  0.00     0.023 C 
BRANCH  21  22
ATOM     22  C   UNL A   1      37.220  22.009  25.273  1.00  0.00     0.116 C 
BRANCH  22  23
ATOM     23  N   UNL A   1      38.234  20.975  25.433  1.00  0.00    -0.352 N 
ATOM     24  C   UNL A   1      39.442  21.031  26.096  1.00  0.00     0.251 C 
ATOM     25  H   UNL A   1      38.026  20.111  25.009  1.00  0.00     0.163 HD
ATOM     26  O   UNL A   1      40.178  20.051  26.128  1.00  0.00    -0.269 OA
BRANCH  24  27
ATOM     27  C   UNL A   1      39.875  22.303  26.714  1.00  0.00     0.039 A 
ATOM     28  C   UNL A   1      40.780  22.263  27.778  1.00  0.00     0.014 A 
ATOM     29  C   UNL A   1      39.463  23.526  26.184  1.00  0.00     0.014 A 
ATOM     30  C   UNL A   1      41.371  23.446  28.228  1.00  0.00     0.010 A 
ATOM     31  C   UNL A   1      40.112  24.691  26.578  1.00  0.00     0.010 A 
ATOM     32  C   UNL A   1      41.092  24.662  27.586  1.00  0.00    -0.014 A 
BRANCH  32  33
ATOM     33  C   UNL A   1      41.810  25.922  27.918  1.00  0.00     0.031 A 
ATOM     34  C   UNL A   1      41.085  27.016  28.646  1.00  0.00     0.074 A 
ATOM     35  C   UNL A   1      43.060  26.132  27.456  1.00  0.00     0.049 A 
ATOM     36  N   UNL A   1      41.433  28.264  28.833  1.00  0.00    -0.248 NA
ATOM     37  C   UNL A   1      39.769  26.667  29.205  1.00  0.00     0.031 C 
ATOM     38  C   UNL A   1      43.866  25.165  26.710  1.00  0.00     0.029 A 
ATOM     39  N   UNL A   1      43.861  27.248  27.521  1.00  0.00    -0.354 N 
ATOM     40  C   UNL A   1      40.363  28.857  29.491  1.00  0.00     0.074 A 
ATOM     41  C   UNL A   1      39.341  27.844  29.639  1.00  0.00     0.031 C 
ATOM     42  C   UNL A   1      45.046  25.724  26.394  1.00  0.00     0.029 A 
ATOM     43  C   UNL A   1      45.062  27.105  26.868  1.00  0.00     0.049 A 
ATOM     44  H   UNL A   1      43.599  28.072  27.991  1.00  0.00     0.167 HD
ATOM     45  C   UNL A   1      40.251  30.128  29.944  1.00  0.00     0.037 A 
ATOM     46  C   UNL A   1      46.053  27.993  26.655  1.00  0.00     0.037 A 
ATOM     47  C   UNL A   1      41.289  31.118  29.839  1.00  0.00     0.049 A 
ATOM     48  C   UNL A   1      45.908  29.397  27.176  1.00  0.00     0.074 A 
ATOM     49  C   UNL A   1      41.295  32.415  30.319  1.00  0.00     0.029 A 
ATOM     50  N   UNL A   1      42.512  30.914  29.216  1.00  0.00    -0.354 N 
ATOM     51  N   UNL A   1      44.908  29.937  27.830  1.00  0.00    -0.248 NA
ATOM     52  C   UNL A   1      47.028  30.319  26.929  1.00  0.00     0.031 C 
ATOM     53  C   UNL A   1      42.509  33.008  29.959  1.00  0.00     0.029 A 
ATOM     54  C   UNL A   1      43.277  32.066  29.294  1.00  0.00     0.049 A 
ATOM     55  H   UNL A   1      42.794  30.075  28.785  1.00  0.00     0.167 HD
ATOM     56  C   UNL A   1      45.292  31.243  28.106  1.00  0.00     0.074 A 
ATOM     57  C   UNL A   1      46.617  31.418  27.547  1.00  0.00     0.031 C 
ATOM     58  C   UNL A   1      44.608  32.209  28.764  1.00  0.00     0.037 A 
BRANCH  45  59
ATOM     59  C   UNL A   1      38.959  30.519  30.597  1.00  0.00     0.064 A 
ATOM     60  C   UNL A   1      38.796  30.476  31.990  1.00  0.00     0.173 A 
ATOM     61  C   UNL A   1      37.880  30.969  29.824  1.00  0.00     0.173 A 
ATOM     62  F   UNL A   1      39.795  30.040  32.774  1.00  0.00    -0.203 F 
ATOM     63  C   UNL A   1      37.589  30.836  32.581  1.00  0.00     0.198 A 
ATOM     64  C   UNL A   1      36.683  31.360  30.421  1.00  0.00     0.198 A 
ATOM     65  F   UNL A   1      37.985  31.036  28.488  1.00  0.00    -0.203 F 
ATOM     66  F   UNL A   1      37.439  30.734  33.910  1.00  0.00    -0.200 F 
ATOM     67  C   UNL A   1      36.537  31.285  31.797  1.00  0.00     0.200 A 
ATOM     68  F   UNL A   1      35.671  31.804  29.663  1.00  0.00    -0.200 F 
ATOM     69  F   UNL A   1      35.377  31.636  32.369  1.00  0.00    -0.200 F 
ENDBRANCH  45  59
BRANCH  46  70
ATOM     70  C   UNL A   1      47.279  27.580  25.923  1.00  0.00     0.064 A 
ATOM     71  C   UNL A   1      47.350  27.689  24.527  1.00  0.00     0.173 A 
ATOM     72  C   UNL A   1      48.396  27.061  26.593  1.00  0.00     0.173 A 
ATOM     73  F   UNL A   1      46.299  28.159  23.839  1.00  0.00    -0.203 F 
ATOM     74  C   UNL A   1      48.483  27.277  23.828  1.00  0.00     0.198 A 
ATOM     75  C   UNL A   1      49.539  26.674  25.895  1.00  0.00     0.198 A 
ATOM     76  F   UNL A   1      48.382  26.939  27.929  1.00  0.00    -0.203 F 
ATOM     77  F   UNL A   1      48.506  27.351  22.490  1.00  0.00    -0.200 F 
ATOM     78  C   UNL A   1      49.579  26.775  24.513  1.00  0.00     0.200 A 
ATOM     79  F   UNL A   1      50.600  26.200  26.562  1.00  0.00    -0.200 F 
ATOM     80  F   UNL A   1      50.668  26.381  23.841  1.00  0.00    -0.200 F 
ENDBRANCH  46  70
BRANCH  58  81
ATOM     81  C   UNL A   1      45.294  33.524  28.984  1.00  0.00     0.064 A 
ATOM     82  C   UNL A   1      46.126  33.745  30.089  1.00  0.00     0.173 A 
ATOM     83  C   UNL A   1      45.184  34.542  28.025  1.00  0.00     0.173 A 
ATOM     84  F   UNL A   1      46.252  32.807  31.039  1.00  0.00    -0.203 F 
ATOM     85  C   UNL A   1      46.821  34.943  30.229  1.00  0.00     0.198 A 
ATOM     86  C   UNL A   1      45.899  35.728  28.155  1.00  0.00     0.198 A 
ATOM     87  F   UNL A   1      44.402  34.374  26.947  1.00  0.00    -0.203 F 
ATOM     88  F   UNL A   1      47.596  35.145  31.304  1.00  0.00    -0.200 F 
ATOM     89  C   UNL A   1      46.716  35.929  29.257  1.00  0.00     0.200 A 
ATOM     90  F   UNL A   1      45.806  36.673  27.210  1.00  0.00    -0.200 F 
ATOM     91  F   UNL A   1      47.403  37.072  29.384  1.00  0.00    -0.200 F 
ENDBRANCH  58  81
ENDBRANCH  32  33
ENDBRANCH  24  27
ENDBRANCH  22  23
ENDBRANCH  21  22
ENDBRANCH   1  21
TORSDOF 15
ENDMDL
MODEL 3
REMARK VINA RESULT:     -11.5      6.087     11.382
REMARK SMILES CCCC(=O)/C(=C/NC(N)=O)C(=O)NCCCCNC(=O)c1ccc(-c2c3nc(c(-c4c(F)c(F)c(F)c(F)c4F)c4ccc([nH]4)c(-c4c(F)c(F)c(F)c(F)c4F)c4nc(c(-c5c(F)c(F)c(F)c(F)c5F)c5ccc2[nH]5)C=C4)C=C3)cc1
REMARK SMILES IDX 16 1 15 2 14 3 12 4 13 5 6 7 7 8 4 9 5 10 3 11 2 12 1 13
REMARK SMILES IDX 8 14 9 15 10 17 11 18 17 21 18 22 19 23 20 24 21 26 22 27
REMARK SMILES IDX 23 28 84 29 24 30 83 31 25 32 26 33 27 34 77 35 28 36 82 37
REMARK SMILES IDX 76 38 78 39 29 40 81 41 75 42 74 43 30 45 62 46 42 47 61 48
REMARK SMILES IDX 43 49 46 50 60 51 79 52 44 53 45 54 59 56 80 57 47 58 31 59
REMARK SMILES IDX 32 60 40 61 33 62 34 63 38 64 41 65 35 66 36 67 39 68 37 69
REMARK SMILES IDX 63 70 64 71 72 72 65 73 66 74 70 75 73 76 67 77 68 78 71 79
REMARK SMILES IDX 69 80 48 81 49 82 57 83 50 84 51 85 55 86 58 87 52 88 53 89
REMARK SMILES IDX 56 90 54 91
REMARK H PARENT 14 6 8 16 10 19 10 20 19 25 78 44 46 55
REMARK Flexibility Score: inf
ROOT
ATOM      1  C   UNL A   1      36.434  19.988  25.011  1.00  0.00     0.023 C 
ENDROOT
BRANCH   1   2
ATOM      2  C   UNL A   1      36.075  21.457  25.196  1.00  0.00     0.116 C 
BRANCH   2   3
ATOM      3  N   UNL A   1      35.510  21.812  26.484  1.00  0.00    -0.352 N 
ATOM      4  C   UNL A   1      34.210  21.752  26.921  1.00  0.00     0.256 C 
ATOM      5  O   UNL A   1      33.991  21.930  28.118  1.00  0.00    -0.269 OA
ATOM      6  H   UNL A   1      36.157  22.147  27.146  1.00  0.00     0.163 HD
BRANCH   4   7
ATOM      7  C   UNL A   1      33.085  21.485  25.973  1.00  0.00     0.098 C 
ATOM      8  C   UNL A   1      32.637  20.246  25.697  1.00  0.00     0.105 C 
BRANCH   7   9
ATOM      9  C   UNL A   1      32.469  22.673  25.272  1.00  0.00     0.169 C 
ATOM     10  O   UNL A   1      33.166  23.395  24.554  1.00  0.00    -0.294 OA
BRANCH   9  11
ATOM     11  C   UNL A   1      30.973  22.958  25.360  1.00  0.00     0.081 C 
BRANCH  11  12
ATOM     12  C   UNL A   1      30.524  23.262  26.791  1.00  0.00     0.005 C 
ATOM     13  C   UNL A   1      29.192  22.637  27.179  1.00  0.00     0.004 C 
ENDBRANCH  11  12
ENDBRANCH   9  11
ENDBRANCH   7   9
BRANCH   8  14
ATOM     14  N   UNL A   1      33.125  19.064  26.200  1.00  0.00    -0.314 N 
ATOM     15  C   UNL A   1      32.720  17.854  25.685  1.00  0.00     0.316 C 
ATOM     16  H   UNL A   1      33.774  19.082  26.939  1.00  0.00     0.171 HD
ATOM     17  N   UNL A   1      33.532  16.824  26.032  1.00  0.00    -0.351 N 
ATOM     18  O   UNL A   1      31.808  17.693  24.891  1.00  0.00    -0.249 OA
ATOM     19  H   UNL A   1      34.263  16.970  26.675  1.00  0.00     0.161 HD
ATOM     20  H   UNL A   1      33.390  15.933  25.641  1.00  0.00     0.161 HD
ENDBRANCH   8  14
ENDBRANCH   4   7
ENDBRANCH   2   3
ENDBRANCH   1   2
BRANCH   1  21
ATOM     21  C   UNL A   1      37.923  19.650  24.925  1.00  0.00     0.023 C 
BRANCH  21  22
ATOM     22  C   UNL A   1      38.887  20.513  25.734  1.00  0.00     0.116 C 
BRANCH  22  23
ATOM     23  N   UNL A   1      40.010  19.790  26.315  1.00  0.00    -0.352 N 
ATOM     24  C   UNL A   1      41.038  20.261  27.104  1.00  0.00     0.251 C 
ATOM     25  H   UNL A   1      40.038  18.826  26.118  1.00  0.00     0.163 HD
ATOM     26  O   UNL A   1      41.910  19.499  27.508  1.00  0.00    -0.269 OA
BRANCH  24  27
ATOM     27  C   UNL A   1      41.121  21.706  27.406  1.00  0.00     0.039 A 
ATOM     28  C   UNL A   1      41.927  22.129  28.467  1.00  0.00     0.014 A 
ATOM     29  C   UNL A   1      40.483  22.640  26.589  1.00  0.00     0.014 A 
ATOM     30  C   UNL A   1      42.196  23.491  28.631  1.00  0.00     0.010 A 
ATOM     31  C   UNL A   1      40.816  23.985  26.705  1.00  0.00     0.010 A 
ATOM     32  C   UNL A   1      41.696  24.424  27.710  1.00  0.00    -0.014 A 
BRANCH  32  33
ATOM     33  C   UNL A   1      42.080  25.860  27.743  1.00  0.00     0.031 A 
ATOM     34  C   UNL A   1      43.395  26.288  27.159  1.00  0.00     0.074 A 
ATOM     35  C   UNL A   1      41.315  26.752  28.408  1.00  0.00     0.049 A 
ATOM     36  N   UNL A   1      44.028  27.427  27.280  1.00  0.00    -0.248 NA
ATOM     37  C   UNL A   1      44.115  25.280  26.364  1.00  0.00     0.031 C 
ATOM     38  C   UNL A   1      40.031  26.462  29.046  1.00  0.00     0.029 A 
ATOM     39  N   UNL A   1      41.527  28.082  28.682  1.00  0.00    -0.354 N 
ATOM     40  C   UNL A   1      45.234  27.258  26.614  1.00  0.00     0.074 A 
ATOM     41  C   UNL A   1      45.261  25.897  26.123  1.00  0.00     0.031 C 
ATOM     42  C   UNL A   1      39.566  27.579  29.630  1.00  0.00     0.029 A 
ATOM     43  C   UNL A   1      40.542  28.651  29.453  1.00  0.00     0.049 A 
ATOM     44  H   UNL A   1      42.311  28.580  28.357  1.00  0.00     0.167 HD
ATOM     45  C   UNL A   1      46.223  28.162  26.417  1.00  0.00     0.037 A 
ATOM     46  C   UNL A   1      40.447  29.889  29.978  1.00  0.00     0.037 A 
ATOM     47  C   UNL A   1      46.171  29.528  26.864  1.00  0.00     0.049 A 
ATOM     48  C   UNL A   1      41.556  30.878  29.737  1.00  0.00     0.074 A 
ATOM     49  C   UNL A   1      47.095  30.537  26.664  1.00  0.00     0.029 A 
ATOM     50  N   UNL A   1      45.128  30.077  27.596  1.00  0.00    -0.354 N 
ATOM     51  N   UNL A   1      42.675  30.719  29.075  1.00  0.00    -0.248 NA
ATOM     52  C   UNL A   1      41.390  32.219  30.319  1.00  0.00     0.031 C 
ATOM     53  C   UNL A   1      46.629  31.690  27.301  1.00  0.00     0.029 A 
ATOM     54  C   UNL A   1      45.393  31.410  27.861  1.00  0.00     0.049 A 
ATOM     55  H   UNL A   1      44.322  29.592  27.883  1.00  0.00     0.167 HD
ATOM     56  C   UNL A   1      43.327  31.944  29.126  1.00  0.00     0.074 A 
ATOM     57  C   UNL A   1      42.480  32.839  29.887  1.00  0.00     0.031 C 
ATOM     58  C   UNL A   1      44.520  32.295  28.588  1.00  0.00     0.037 A 
BRANCH  45  59
ATOM     59  C   UNL A   1      47.447  27.700  25.684  1.00  0.00     0.064 A 
ATOM     60  C   UNL A   1      47.536  27.764  24.285  1.00  0.00     0.173 A 
ATOM     61  C   UNL A   1      48.558  27.214  26.389  1.00  0.00     0.173 A 
ATOM     62  F   UNL A   1      46.496  28.209  23.563  1.00  0.00    -0.203 F 
ATOM     63  C   UNL A   1      48.676  27.326  23.618  1.00  0.00     0.198 A 
ATOM     64  C   UNL A   1      49.710  26.807  25.721  1.00  0.00     0.198 A 
ATOM     65  F   UNL A   1      48.529  27.138  27.728  1.00  0.00    -0.203 F 
ATOM     66  F   UNL A   1      48.715  27.345  22.278  1.00  0.00    -0.200 F 
ATOM     67  C   UNL A   1      49.765  26.855  24.337  1.00  0.00     0.200 A 
ATOM     68  F   UNL A   1      50.765  26.362  26.417  1.00  0.00    -0.200 F 
ATOM     69  F   UNL A   1      50.864  26.439  23.693  1.00  0.00    -0.200 F 
ENDBRANCH  45  59
BRANCH  46  70
ATOM     70  C   UNL A   1      39.251  30.271  30.774  1.00  0.00     0.064 A 
ATOM     71  C   UNL A   1      39.211  30.047  32.158  1.00  0.00     0.173 A 
ATOM     72  C   UNL A   1      38.125  30.855  30.176  1.00  0.00     0.173 A 
ATOM     73  F   UNL A   1      40.255  29.472  32.772  1.00  0.00    -0.203 F 
ATOM     74  C   UNL A   1      38.083  30.375  32.908  1.00  0.00     0.198 A 
ATOM     75  C   UNL A   1      37.008  31.205  30.932  1.00  0.00     0.198 A 
ATOM     76  F   UNL A   1      38.113  31.094  28.855  1.00  0.00    -0.203 F 
ATOM     77  F   UNL A   1      38.056  30.108  34.222  1.00  0.00    -0.200 F 
ATOM     78  C   UNL A   1      36.985  30.958  32.296  1.00  0.00     0.200 A 
ATOM     79  F   UNL A   1      35.953  31.780  30.339  1.00  0.00    -0.200 F 
ATOM     80  F   UNL A   1      35.902  31.274  33.019  1.00  0.00    -0.200 F 
ENDBRANCH  46  70
BRANCH  58  81
ATOM     81  C   UNL A   1      44.960  33.720  28.738  1.00  0.00     0.064 A 
ATOM     82  C   UNL A   1      44.662  34.689  27.770  1.00  0.00     0.173 A 
ATOM     83  C   UNL A   1      45.611  34.135  29.910  1.00  0.00     0.173 A 
ATOM     84  F   UNL A   1      44.054  34.337  26.627  1.00  0.00    -0.203 F 
ATOM     85  C   UNL A   1      45.006  36.023  27.968  1.00  0.00     0.198 A 
ATOM     86  C   UNL A   1      45.930  35.473  30.116  1.00  0.00     0.198 A 
ATOM     87  F   UNL A   1      45.913  33.244  30.868  1.00  0.00    -0.203 F 
ATOM     88  F   UNL A   1      44.732  36.932  27.022  1.00  0.00    -0.200 F 
ATOM     89  C   UNL A   1      45.629  36.416  29.145  1.00  0.00     0.200 A 
ATOM     90  F   UNL A   1      46.521  35.853  31.257  1.00  0.00    -0.200 F 
ATOM     91  F   UNL A   1      45.938  37.705  29.342  1.00  0.00    -0.200 F 
ENDBRANCH  58  81
ENDBRANCH  32  33
ENDBRANCH  24  27
ENDBRANCH  22  23
ENDBRANCH  21  22
ENDBRANCH   1  21
TORSDOF 15
ENDMDL
