MODEL 1
REMARK VINA RESULT:     -13.6      0.000      0.000
REMARK SMILES Cc1ccccc1N[C@H](C(=O)NCCCCNC(=O)c1ccc(-c2c3nc(c(-c4c(F)c(F)c(F)c(F)c4F)c4ccc([nH]4)c(-c4c(F)c(F)c(F)c(F)c4F)c4nc(c(-c5c(F)c(F)c(F)c(F)c5F)c5ccc2[nH]5)C=C4)C=C3)cc1)c1cccc(C2CC2)c1
REMARK SMILES IDX 14 1 13 2 12 3 10 4 11 5 9 7 8 8 7 10 1 11 2 12 3 13 4 14
REMARK SMILES IDX 6 15 5 16 83 17 84 18 91 19 85 20 87 21 86 22 88 23 89 24
REMARK SMILES IDX 90 25 15 26 16 27 17 28 18 29 19 31 20 32 21 33 82 34 22 35
REMARK SMILES IDX 81 36 23 37 24 38 25 39 75 40 26 41 80 42 74 43 76 44 27 45
REMARK SMILES IDX 79 46 73 47 72 48 28 50 60 51 40 52 59 53 41 54 44 55 58 56
REMARK SMILES IDX 77 57 42 58 43 59 57 61 78 62 45 63 29 64 30 65 38 66 31 67
REMARK SMILES IDX 32 68 36 69 39 70 33 71 34 72 37 73 35 74 61 75 62 76 70 77
REMARK SMILES IDX 63 78 64 79 68 80 71 81 65 82 66 83 69 84 67 85 46 86 47 87
REMARK SMILES IDX 55 88 48 89 49 90 53 91 56 92 50 93 51 94 54 95 52 96
REMARK H PARENT 12 6 8 9 17 30 76 49 44 60
REMARK Flexibility Score: inf
ROOT
ATOM      1  C   UNL A   1      32.532  29.880  25.550  1.00  0.00     0.023 C 
ENDROOT
BRANCH   1   2
ATOM      2  C   UNL A   1      33.694  28.903  25.405  1.00  0.00     0.116 C 
BRANCH   2   3
ATOM      3  N   UNL A   1      34.186  28.799  24.039  1.00  0.00    -0.354 N 
ATOM      4  C   UNL A   1      33.684  28.036  23.010  1.00  0.00     0.247 C 
ATOM      5  O   UNL A   1      34.183  28.200  21.890  1.00  0.00    -0.272 OA
ATOM      6  H   UNL A   1      34.978  29.344  23.825  1.00  0.00     0.163 HD
BRANCH   4   7
ATOM      7  C   UNL A   1      32.516  27.009  23.233  1.00  0.00     0.200 C 
BRANCH   7   8
ATOM      8  N   UNL A   1      31.376  27.452  22.402  1.00  0.00    -0.370 N 
ATOM      9  H   UNL A   1      31.415  27.040  21.509  1.00  0.00     0.161 HD
BRANCH   8  10
ATOM     10  C   UNL A   1      30.279  28.272  22.511  1.00  0.00     0.038 A 
ATOM     11  C   UNL A   1      29.074  26.534  23.973  1.00  0.00     0.046 C 
ATOM     12  C   UNL A   1      29.107  27.793  23.142  1.00  0.00    -0.028 A 
ATOM     13  C   UNL A   1      27.898  28.518  23.064  1.00  0.00     0.005 A 
ATOM     14  C   UNL A   1      27.849  29.761  22.451  1.00  0.00     0.000 A 
ATOM     15  C   UNL A   1      30.219  29.590  22.050  1.00  0.00     0.026 A 
ATOM     16  C   UNL A   1      29.025  30.319  21.984  1.00  0.00     0.002 A 
ENDBRANCH   8  10
ENDBRANCH   7   8
BRANCH   7  17
ATOM     17  C   UNL A   1      32.956  25.556  23.210  1.00  0.00    -0.016 A 
ATOM     18  C   UNL A   1      32.266  24.558  22.522  1.00  0.00     0.006 A 
ATOM     19  C   UNL A   1      34.110  25.174  23.914  1.00  0.00     0.010 A 
ATOM     20  C   UNL A   1      32.875  23.323  22.307  1.00  0.00     0.001 A 
ATOM     21  C   UNL A   1      34.781  23.975  23.691  1.00  0.00    -0.045 A 
ATOM     22  C   UNL A   1      34.139  23.065  22.846  1.00  0.00     0.004 A 
BRANCH  21  23
ATOM     23  C   UNL A   1      36.179  23.755  24.225  1.00  0.00     0.019 C 
ATOM     24  C   UNL A   1      36.447  23.244  25.625  1.00  0.00     0.009 C 
ATOM     25  C   UNL A   1      36.705  22.360  24.445  1.00  0.00     0.009 C 
ENDBRANCH  21  23
ENDBRANCH   7  17
ENDBRANCH   4   7
ENDBRANCH   2   3
ENDBRANCH   1   2
BRANCH   1  26
ATOM     26  C   UNL A   1      32.663  30.812  26.756  1.00  0.00     0.023 C 
BRANCH  26  27
ATOM     27  C   UNL A   1      33.660  30.348  27.816  1.00  0.00     0.116 C 
BRANCH  27  28
ATOM     28  N   UNL A   1      34.463  31.417  28.401  1.00  0.00    -0.352 N 
ATOM     29  C   UNL A   1      35.727  31.403  28.956  1.00  0.00     0.251 C 
ATOM     30  H   UNL A   1      34.029  32.301  28.399  1.00  0.00     0.163 HD
ATOM     31  O   UNL A   1      36.174  32.420  29.443  1.00  0.00    -0.269 OA
BRANCH  29  32
ATOM     32  C   UNL A   1      36.601  30.191  28.865  1.00  0.00     0.039 A 
ATOM     33  C   UNL A   1      36.744  29.392  30.012  1.00  0.00     0.014 A 
ATOM     34  C   UNL A   1      37.358  29.895  27.738  1.00  0.00     0.014 A 
ATOM     35  C   UNL A   1      37.786  28.464  30.095  1.00  0.00     0.010 A 
ATOM     36  C   UNL A   1      38.435  29.033  27.843  1.00  0.00     0.010 A 
ATOM     37  C   UNL A   1      38.698  28.370  29.044  1.00  0.00    -0.014 A 
BRANCH  37  38
ATOM     38  C   UNL A   1      40.051  27.836  29.193  1.00  0.00     0.031 A 
ATOM     39  C   UNL A   1      40.486  26.532  28.643  1.00  0.00     0.074 A 
ATOM     40  C   UNL A   1      41.008  28.683  29.636  1.00  0.00     0.049 A 
ATOM     41  N   UNL A   1      41.554  25.922  29.045  1.00  0.00    -0.248 NA
ATOM     42  C   UNL A   1      39.785  25.811  27.586  1.00  0.00     0.031 C 
ATOM     43  C   UNL A   1      42.450  28.557  29.431  1.00  0.00     0.029 A 
ATOM     44  N   UNL A   1      40.876  29.837  30.418  1.00  0.00    -0.354 N 
ATOM     45  C   UNL A   1      41.848  24.948  28.125  1.00  0.00     0.074 A 
ATOM     46  C   UNL A   1      40.677  24.860  27.280  1.00  0.00     0.031 C 
ATOM     47  C   UNL A   1      43.090  29.414  30.233  1.00  0.00     0.029 A 
ATOM     48  C   UNL A   1      42.097  30.023  31.094  1.00  0.00     0.049 A 
ATOM     49  H   UNL A   1      40.078  30.411  30.484  1.00  0.00     0.167 HD
ATOM     50  C   UNL A   1      43.102  24.414  28.070  1.00  0.00     0.037 A 
ATOM     51  C   UNL A   1      42.164  30.040  32.455  1.00  0.00     0.037 A 
ATOM     52  C   UNL A   1      44.017  25.043  29.019  1.00  0.00     0.049 A 
ATOM     53  C   UNL A   1      43.004  28.920  33.013  1.00  0.00     0.074 A 
ATOM     54  C   UNL A   1      45.010  25.999  28.870  1.00  0.00     0.029 A 
ATOM     55  N   UNL A   1      43.784  24.938  30.388  1.00  0.00    -0.354 N 
ATOM     56  N   UNL A   1      43.358  27.881  32.308  1.00  0.00    -0.248 NA
ATOM     57  C   UNL A   1      43.509  28.856  34.379  1.00  0.00     0.031 C 
ATOM     58  C   UNL A   1      45.369  26.475  30.153  1.00  0.00     0.029 A 
ATOM     59  C   UNL A   1      44.599  25.807  31.089  1.00  0.00     0.049 A 
ATOM     60  H   UNL A   1      43.129  24.328  30.801  1.00  0.00     0.167 HD
ATOM     61  C   UNL A   1      44.108  27.032  33.068  1.00  0.00     0.074 A 
ATOM     62  C   UNL A   1      44.180  27.688  34.360  1.00  0.00     0.031 C 
ATOM     63  C   UNL A   1      44.587  25.863  32.546  1.00  0.00     0.037 A 
BRANCH  50  64
ATOM     64  C   UNL A   1      43.541  23.499  26.955  1.00  0.00     0.064 A 
ATOM     65  C   UNL A   1      43.145  22.147  26.890  1.00  0.00     0.173 A 
ATOM     66  C   UNL A   1      44.379  23.927  25.908  1.00  0.00     0.173 A 
ATOM     67  F   UNL A   1      42.300  21.618  27.782  1.00  0.00    -0.203 F 
ATOM     68  C   UNL A   1      43.617  21.274  25.906  1.00  0.00     0.198 A 
ATOM     69  C   UNL A   1      44.891  23.043  24.953  1.00  0.00     0.198 A 
ATOM     70  F   UNL A   1      44.708  25.221  25.779  1.00  0.00    -0.203 F 
ATOM     71  F   UNL A   1      43.209  19.996  25.898  1.00  0.00    -0.200 F 
ATOM     72  C   UNL A   1      44.515  21.714  24.956  1.00  0.00     0.200 A 
ATOM     73  F   UNL A   1      45.759  23.488  24.033  1.00  0.00    -0.200 F 
ATOM     74  F   UNL A   1      45.004  20.867  24.041  1.00  0.00    -0.200 F 
ENDBRANCH  50  64
BRANCH  51  75
ATOM     75  C   UNL A   1      40.964  30.663  33.065  1.00  0.00     0.064 A 
ATOM     76  C   UNL A   1      40.858  32.066  32.968  1.00  0.00     0.173 A 
ATOM     77  C   UNL A   1      39.786  29.933  33.257  1.00  0.00     0.173 A 
ATOM     78  F   UNL A   1      41.960  32.806  32.767  1.00  0.00    -0.203 F 
ATOM     79  C   UNL A   1      39.617  32.695  32.926  1.00  0.00     0.198 A 
ATOM     80  C   UNL A   1      38.542  30.570  33.220  1.00  0.00     0.198 A 
ATOM     81  F   UNL A   1      39.823  28.595  33.326  1.00  0.00    -0.203 F 
ATOM     82  F   UNL A   1      39.545  34.015  32.700  1.00  0.00    -0.200 F 
ATOM     83  C   UNL A   1      38.458  31.942  33.017  1.00  0.00     0.200 A 
ATOM     84  F   UNL A   1      37.419  29.841  33.273  1.00  0.00    -0.200 F 
ATOM     85  F   UNL A   1      37.263  32.529  32.860  1.00  0.00    -0.200 F 
ENDBRANCH  51  75
BRANCH  63  86
ATOM     86  C   UNL A   1      45.186  24.713  33.317  1.00  0.00     0.064 A 
ATOM     87  C   UNL A   1      44.517  23.503  33.564  1.00  0.00     0.173 A 
ATOM     88  C   UNL A   1      46.551  24.741  33.703  1.00  0.00     0.173 A 
ATOM     89  F   UNL A   1      43.261  23.301  33.148  1.00  0.00    -0.203 F 
ATOM     90  C   UNL A   1      45.146  22.427  34.196  1.00  0.00     0.198 A 
ATOM     91  C   UNL A   1      47.189  23.645  34.279  1.00  0.00     0.198 A 
ATOM     92  F   UNL A   1      47.318  25.824  33.505  1.00  0.00    -0.203 F 
ATOM     93  F   UNL A   1      44.451  21.308  34.441  1.00  0.00    -0.200 F 
ATOM     94  C   UNL A   1      46.483  22.492  34.539  1.00  0.00     0.200 A 
ATOM     95  F   UNL A   1      48.500  23.709  34.555  1.00  0.00    -0.200 F 
ATOM     96  F   UNL A   1      47.093  21.438  35.097  1.00  0.00    -0.200 F 
ENDBRANCH  63  86
ENDBRANCH  37  38
ENDBRANCH  29  32
ENDBRANCH  27  28
ENDBRANCH  26  27
ENDBRANCH   1  26
TORSDOF 15
ENDMDL
MODEL 2
REMARK VINA RESULT:     -13.3      4.212     10.058
REMARK SMILES Cc1ccccc1N[C@H](C(=O)NCCCCNC(=O)c1ccc(-c2c3nc(c(-c4c(F)c(F)c(F)c(F)c4F)c4ccc([nH]4)c(-c4c(F)c(F)c(F)c(F)c4F)c4nc(c(-c5c(F)c(F)c(F)c(F)c5F)c5ccc2[nH]5)C=C4)C=C3)cc1)c1cccc(C2CC2)c1
REMARK SMILES IDX 14 1 13 2 12 3 10 4 11 5 9 7 8 8 7 10 1 11 2 12 3 13 4 14
REMARK SMILES IDX 6 15 5 16 83 17 84 18 91 19 85 20 87 21 86 22 88 23 89 24
REMARK SMILES IDX 90 25 15 26 16 27 17 28 18 29 19 31 20 32 21 33 82 34 22 35
REMARK SMILES IDX 81 36 23 37 24 38 25 39 75 40 26 41 80 42 74 43 76 44 27 45
REMARK SMILES IDX 79 46 73 47 72 48 28 50 60 51 40 52 59 53 41 54 44 55 58 56
REMARK SMILES IDX 77 57 42 58 43 59 57 61 78 62 45 63 29 64 30 65 38 66 31 67
REMARK SMILES IDX 32 68 36 69 39 70 33 71 34 72 37 73 35 74 61 75 62 76 70 77
REMARK SMILES IDX 63 78 64 79 68 80 71 81 65 82 66 83 69 84 67 85 46 86 47 87
REMARK SMILES IDX 55 88 48 89 49 90 53 91 56 92 50 93 51 94 54 95 52 96
REMARK H PARENT 12 6 8 9 17 30 76 49 44 60
REMARK Flexibility Score: inf
ROOT
ATOM      1  C   UNL A   1      36.792  21.465  24.453  1.00  0.00     0.023 C 
ENDROOT
BRANCH   1   2
ATOM      2  C   UNL A   1      35.576  20.718  24.994  1.00  0.00     0.116 C 
BRANCH   2   3
ATOM      3  N   UNL A   1      35.149  21.194  26.301  1.00  0.00    -0.354 N 
ATOM      4  C   UNL A   1      33.871  21.476  26.728  1.00  0.00     0.247 C 
ATOM      5  O   UNL A   1      33.722  21.746  27.925  1.00  0.00    -0.272 OA
ATOM      6  H   UNL A   1      35.864  21.332  26.963  1.00  0.00     0.163 HD
BRANCH   4   7
ATOM      7  C   UNL A   1      32.643  21.443  25.747  1.00  0.00     0.200 C 
BRANCH   7   8
ATOM      8  N   UNL A   1      32.595  22.751  25.059  1.00  0.00    -0.370 N 
ATOM      9  H   UNL A   1      32.855  22.658  24.115  1.00  0.00     0.161 HD
BRANCH   8  10
ATOM     10  C   UNL A   1      32.296  24.059  25.355  1.00  0.00     0.038 A 
ATOM     11  C   UNL A   1      34.774  24.714  25.157  1.00  0.00     0.046 C 
ATOM     12  C   UNL A   1      33.343  24.991  25.547  1.00  0.00    -0.028 A 
ATOM     13  C   UNL A   1      33.081  26.272  26.078  1.00  0.00     0.005 A 
ATOM     14  C   UNL A   1      31.782  26.687  26.335  1.00  0.00     0.000 A 
ATOM     15  C   UNL A   1      31.002  24.574  25.476  1.00  0.00     0.026 A 
ATOM     16  C   UNL A   1      30.737  25.851  25.988  1.00  0.00     0.002 A 
ENDBRANCH   8  10
ENDBRANCH   7   8
BRANCH   7  17
ATOM     17  C   UNL A   1      32.524  20.157  24.947  1.00  0.00    -0.016 A 
ATOM     18  C   UNL A   1      32.345  20.131  23.564  1.00  0.00     0.006 A 
ATOM     19  C   UNL A   1      32.590  18.922  25.614  1.00  0.00     0.010 A 
ATOM     20  C   UNL A   1      32.532  18.937  22.869  1.00  0.00     0.001 A 
ATOM     21  C   UNL A   1      32.830  17.714  24.964  1.00  0.00    -0.045 A 
ATOM     22  C   UNL A   1      32.822  17.761  23.567  1.00  0.00     0.004 A 
BRANCH  21  23
ATOM     23  C   UNL A   1      33.216  16.477  25.744  1.00  0.00     0.019 C 
ATOM     24  C   UNL A   1      32.718  15.093  25.376  1.00  0.00     0.009 C 
ATOM     25  C   UNL A   1      34.152  15.457  25.148  1.00  0.00     0.009 C 
ENDBRANCH  21  23
ENDBRANCH   7  17
ENDBRANCH   4   7
ENDBRANCH   2   3
ENDBRANCH   1   2
BRANCH   1  26
ATOM     26  C   UNL A   1      38.024  21.361  25.354  1.00  0.00     0.023 C 
BRANCH  26  27
ATOM     27  C   UNL A   1      38.548  22.698  25.876  1.00  0.00     0.116 C 
BRANCH  27  28
ATOM     28  N   UNL A   1      39.921  22.660  26.368  1.00  0.00    -0.352 N 
ATOM     29  C   UNL A   1      40.735  23.657  26.866  1.00  0.00     0.251 C 
ATOM     30  H   UNL A   1      40.340  21.769  26.339  1.00  0.00     0.163 HD
ATOM     31  O   UNL A   1      41.883  23.396  27.162  1.00  0.00    -0.269 OA
BRANCH  29  32
ATOM     32  C   UNL A   1      40.198  25.024  27.158  1.00  0.00     0.039 A 
ATOM     33  C   UNL A   1      40.593  26.081  26.321  1.00  0.00     0.014 A 
ATOM     34  C   UNL A   1      39.425  25.302  28.278  1.00  0.00     0.014 A 
ATOM     35  C   UNL A   1      40.408  27.405  26.729  1.00  0.00     0.010 A 
ATOM     36  C   UNL A   1      39.307  26.607  28.721  1.00  0.00     0.010 A 
ATOM     37  C   UNL A   1      39.861  27.659  27.987  1.00  0.00    -0.014 A 
BRANCH  37  38
ATOM     38  C   UNL A   1      40.060  28.910  28.717  1.00  0.00     0.031 A 
ATOM     39  C   UNL A   1      39.001  29.926  28.909  1.00  0.00     0.074 A 
ATOM     40  C   UNL A   1      41.185  29.025  29.459  1.00  0.00     0.049 A 
ATOM     41  N   UNL A   1      39.255  31.147  29.255  1.00  0.00    -0.248 NA
ATOM     42  C   UNL A   1      37.574  29.666  28.756  1.00  0.00     0.031 C 
ATOM     43  C   UNL A   1      41.393  29.915  30.599  1.00  0.00     0.029 A 
ATOM     44  N   UNL A   1      42.418  28.377  29.303  1.00  0.00    -0.354 N 
ATOM     45  C   UNL A   1      38.078  31.715  29.671  1.00  0.00     0.074 A 
ATOM     46  C   UNL A   1      37.046  30.787  29.266  1.00  0.00     0.031 C 
ATOM     47  C   UNL A   1      42.695  29.954  30.902  1.00  0.00     0.029 A 
ATOM     48  C   UNL A   1      43.398  29.209  29.878  1.00  0.00     0.049 A 
ATOM     49  H   UNL A   1      42.570  27.505  28.873  1.00  0.00     0.167 HD
ATOM     50  C   UNL A   1      38.096  32.838  30.446  1.00  0.00     0.037 A 
ATOM     51  C   UNL A   1      44.437  29.699  29.145  1.00  0.00     0.037 A 
ATOM     52  C   UNL A   1      39.452  33.257  30.789  1.00  0.00     0.049 A 
ATOM     53  C   UNL A   1      44.431  31.204  29.057  1.00  0.00     0.074 A 
ATOM     54  C   UNL A   1      40.215  33.114  31.937  1.00  0.00     0.029 A 
ATOM     55  N   UNL A   1      40.333  33.658  29.787  1.00  0.00    -0.354 N 
ATOM     56  N   UNL A   1      43.393  31.927  29.371  1.00  0.00    -0.248 NA
ATOM     57  C   UNL A   1      45.557  32.018  28.617  1.00  0.00     0.031 C 
ATOM     58  C   UNL A   1      41.560  33.422  31.623  1.00  0.00     0.029 A 
ATOM     59  C   UNL A   1      41.620  33.759  30.281  1.00  0.00     0.049 A 
ATOM     60  H   UNL A   1      40.075  33.844  28.855  1.00  0.00     0.167 HD
ATOM     61  C   UNL A   1      43.672  33.251  29.192  1.00  0.00     0.074 A 
ATOM     62  C   UNL A   1      45.045  33.260  28.722  1.00  0.00     0.031 C 
ATOM     63  C   UNL A   1      42.729  34.206  29.447  1.00  0.00     0.037 A 
BRANCH  50  64
ATOM     64  C   UNL A   1      36.853  33.385  31.103  1.00  0.00     0.064 A 
ATOM     65  C   UNL A   1      36.594  33.220  32.480  1.00  0.00     0.173 A 
ATOM     66  C   UNL A   1      35.866  34.090  30.390  1.00  0.00     0.173 A 
ATOM     67  F   UNL A   1      37.472  32.625  33.294  1.00  0.00    -0.203 F 
ATOM     68  C   UNL A   1      35.405  33.651  33.075  1.00  0.00     0.198 A 
ATOM     69  C   UNL A   1      34.656  34.477  30.974  1.00  0.00     0.198 A 
ATOM     70  F   UNL A   1      36.062  34.436  29.108  1.00  0.00    -0.203 F 
ATOM     71  F   UNL A   1      35.212  33.462  34.389  1.00  0.00    -0.200 F 
ATOM     72  C   UNL A   1      34.423  34.252  32.316  1.00  0.00     0.200 A 
ATOM     73  F   UNL A   1      33.713  35.064  30.223  1.00  0.00    -0.200 F 
ATOM     74  F   UNL A   1      33.264  34.623  32.877  1.00  0.00    -0.200 F 
ENDBRANCH  50  64
BRANCH  51  75
ATOM     75  C   UNL A   1      44.901  28.734  28.119  1.00  0.00     0.064 A 
ATOM     76  C   UNL A   1      45.663  27.639  28.575  1.00  0.00     0.173 A 
ATOM     77  C   UNL A   1      44.232  28.596  26.897  1.00  0.00     0.173 A 
ATOM     78  F   UNL A   1      46.308  27.718  29.750  1.00  0.00    -0.203 F 
ATOM     79  C   UNL A   1      45.645  26.417  27.908  1.00  0.00     0.198 A 
ATOM     80  C   UNL A   1      44.221  27.369  26.227  1.00  0.00     0.198 A 
ATOM     81  F   UNL A   1      43.467  29.593  26.428  1.00  0.00    -0.203 F 
ATOM     82  F   UNL A   1      46.274  25.358  28.437  1.00  0.00    -0.200 F 
ATOM     83  C   UNL A   1      44.895  26.273  26.753  1.00  0.00     0.200 A 
ATOM     84  F   UNL A   1      43.469  27.217  25.129  1.00  0.00    -0.200 F 
ATOM     85  F   UNL A   1      44.781  25.070  26.173  1.00  0.00    -0.200 F 
ENDBRANCH  51  75
BRANCH  63  86
ATOM     86  C   UNL A   1      42.790  35.660  29.048  1.00  0.00     0.064 A 
ATOM     87  C   UNL A   1      42.136  36.192  27.925  1.00  0.00     0.173 A 
ATOM     88  C   UNL A   1      43.401  36.614  29.903  1.00  0.00     0.173 A 
ATOM     89  F   UNL A   1      41.424  35.416  27.098  1.00  0.00    -0.203 F 
ATOM     90  C   UNL A   1      42.138  37.562  27.649  1.00  0.00     0.198 A 
ATOM     91  C   UNL A   1      43.349  37.983  29.654  1.00  0.00     0.198 A 
ATOM     92  F   UNL A   1      44.041  36.249  31.024  1.00  0.00    -0.203 F 
ATOM     93  F   UNL A   1      41.529  38.013  26.544  1.00  0.00    -0.200 F 
ATOM     94  C   UNL A   1      42.731  38.457  28.519  1.00  0.00     0.200 A 
ATOM     95  F   UNL A   1      43.883  38.839  30.538  1.00  0.00    -0.200 F 
ATOM     96  F   UNL A   1      42.683  39.774  28.275  1.00  0.00    -0.200 F 
ENDBRANCH  63  86
ENDBRANCH  37  38
ENDBRANCH  29  32
ENDBRANCH  27  28
ENDBRANCH  26  27
ENDBRANCH   1  26
TORSDOF 15
ENDMDL
MODEL 3
REMARK VINA RESULT:     -13.2      0.945      3.649
REMARK SMILES Cc1ccccc1N[C@H](C(=O)NCCCCNC(=O)c1ccc(-c2c3nc(c(-c4c(F)c(F)c(F)c(F)c4F)c4ccc([nH]4)c(-c4c(F)c(F)c(F)c(F)c4F)c4nc(c(-c5c(F)c(F)c(F)c(F)c5F)c5ccc2[nH]5)C=C4)C=C3)cc1)c1cccc(C2CC2)c1
REMARK SMILES IDX 14 1 13 2 12 3 10 4 11 5 9 7 8 8 7 10 1 11 2 12 3 13 4 14
REMARK SMILES IDX 6 15 5 16 83 17 84 18 91 19 85 20 87 21 86 22 88 23 89 24
REMARK SMILES IDX 90 25 15 26 16 27 17 28 18 29 19 31 20 32 21 33 82 34 22 35
REMARK SMILES IDX 81 36 23 37 24 38 25 39 75 40 26 41 80 42 74 43 76 44 27 45
REMARK SMILES IDX 79 46 73 47 72 48 28 50 60 51 40 52 59 53 41 54 44 55 58 56
REMARK SMILES IDX 77 57 42 58 43 59 57 61 78 62 45 63 29 64 30 65 38 66 31 67
REMARK SMILES IDX 32 68 36 69 39 70 33 71 34 72 37 73 35 74 61 75 62 76 70 77
REMARK SMILES IDX 63 78 64 79 68 80 71 81 65 82 66 83 69 84 67 85 46 86 47 87
REMARK SMILES IDX 55 88 48 89 49 90 53 91 56 92 50 93 51 94 54 95 52 96
REMARK H PARENT 12 6 8 9 17 30 76 49 44 60
REMARK Flexibility Score: inf
ROOT
ATOM      1  C   UNL A   1      31.520  29.688  25.561  1.00  0.00     0.023 C 
ENDROOT
BRANCH   1   2
ATOM      2  C   UNL A   1      32.428  28.466  25.480  1.00  0.00     0.116 C 
BRANCH   2   3
ATOM      3  N   UNL A   1      33.318  28.491  24.328  1.00  0.00    -0.354 N 
ATOM      4  C   UNL A   1      33.263  27.713  23.193  1.00  0.00     0.247 C 
ATOM      5  O   UNL A   1      34.047  27.992  22.279  1.00  0.00    -0.272 OA
ATOM      6  H   UNL A   1      34.051  29.146  24.366  1.00  0.00     0.163 HD
BRANCH   4   7
ATOM      7  C   UNL A   1      32.241  26.528  23.050  1.00  0.00     0.200 C 
BRANCH   7   8
ATOM      8  N   UNL A   1      32.686  25.451  23.961  1.00  0.00    -0.370 N 
ATOM      9  H   UNL A   1      31.962  25.193  24.574  1.00  0.00     0.161 HD
BRANCH   8  10
ATOM     10  C   UNL A   1      33.816  24.708  24.202  1.00  0.00     0.038 A 
ATOM     11  C   UNL A   1      33.376  23.283  22.108  1.00  0.00     0.046 C 
ATOM     12  C   UNL A   1      34.090  23.571  23.405  1.00  0.00    -0.028 A 
ATOM     13  C   UNL A   1      35.104  22.661  23.772  1.00  0.00     0.005 A 
ATOM     14  C   UNL A   1      35.922  22.904  24.865  1.00  0.00     0.000 A 
ATOM     15  C   UNL A   1      34.762  24.991  25.191  1.00  0.00     0.026 A 
ATOM     16  C   UNL A   1      35.780  24.098  25.548  1.00  0.00     0.002 A 
ENDBRANCH   8  10
ENDBRANCH   7   8
BRANCH   7  17
ATOM     17  C   UNL A   1      30.786  26.963  23.037  1.00  0.00    -0.016 A 
ATOM     18  C   UNL A   1      29.758  26.209  23.603  1.00  0.00     0.006 A 
ATOM     19  C   UNL A   1      30.436  28.179  22.427  1.00  0.00     0.010 A 
ATOM     20  C   UNL A   1      28.509  26.794  23.809  1.00  0.00     0.001 A 
ATOM     21  C   UNL A   1      29.222  28.824  22.649  1.00  0.00    -0.045 A 
ATOM     22  C   UNL A   1      28.273  28.104  23.380  1.00  0.00     0.004 A 
BRANCH  21  23
ATOM     23  C   UNL A   1      29.023  30.267  22.240  1.00  0.00     0.019 C 
ATOM     24  C   UNL A   1      28.068  30.678  21.139  1.00  0.00     0.009 C 
ATOM     25  C   UNL A   1      27.739  30.985  22.566  1.00  0.00     0.009 C 
ENDBRANCH  21  23
ENDBRANCH   7  17
ENDBRANCH   4   7
ENDBRANCH   2   3
ENDBRANCH   1   2
BRANCH   1  26
ATOM     26  C   UNL A   1      32.059  30.792  26.472  1.00  0.00     0.023 C 
BRANCH  26  27
ATOM     27  C   UNL A   1      33.275  30.393  27.307  1.00  0.00     0.116 C 
BRANCH  27  28
ATOM     28  N   UNL A   1      33.982  31.513  27.920  1.00  0.00    -0.352 N 
ATOM     29  C   UNL A   1      35.169  31.560  28.624  1.00  0.00     0.251 C 
ATOM     30  H   UNL A   1      33.537  32.384  27.813  1.00  0.00     0.163 HD
ATOM     31  O   UNL A   1      35.536  32.614  29.100  1.00  0.00    -0.269 OA
BRANCH  29  32
ATOM     32  C   UNL A   1      36.068  30.366  28.712  1.00  0.00     0.039 A 
ATOM     33  C   UNL A   1      36.379  29.866  29.988  1.00  0.00     0.014 A 
ATOM     34  C   UNL A   1      36.690  29.813  27.600  1.00  0.00     0.014 A 
ATOM     35  C   UNL A   1      37.455  28.991  30.155  1.00  0.00     0.010 A 
ATOM     36  C   UNL A   1      37.802  29.007  27.768  1.00  0.00     0.010 A 
ATOM     37  C   UNL A   1      38.234  28.652  29.049  1.00  0.00    -0.014 A 
BRANCH  37  38
ATOM     38  C   UNL A   1      39.613  28.177  29.146  1.00  0.00     0.031 A 
ATOM     39  C   UNL A   1      40.057  26.841  28.687  1.00  0.00     0.074 A 
ATOM     40  C   UNL A   1      40.567  29.091  29.438  1.00  0.00     0.049 A 
ATOM     41  N   UNL A   1      41.172  26.304  29.064  1.00  0.00    -0.248 NA
ATOM     42  C   UNL A   1      39.310  26.002  27.755  1.00  0.00     0.031 C 
ATOM     43  C   UNL A   1      41.994  28.990  29.140  1.00  0.00     0.029 A 
ATOM     44  N   UNL A   1      40.446  30.308  30.120  1.00  0.00    -0.354 N 
ATOM     45  C   UNL A   1      41.437  25.258  28.218  1.00  0.00     0.074 A 
ATOM     46  C   UNL A   1      40.214  25.054  27.473  1.00  0.00     0.031 C 
ATOM     47  C   UNL A   1      42.656  29.938  29.812  1.00  0.00     0.029 A 
ATOM     48  C   UNL A   1      41.704  30.594  30.683  1.00  0.00     0.049 A 
ATOM     49  H   UNL A   1      39.634  30.860  30.191  1.00  0.00     0.167 HD
ATOM     50  C   UNL A   1      42.703  24.760  28.120  1.00  0.00     0.037 A 
ATOM     51  C   UNL A   1      41.866  30.741  32.029  1.00  0.00     0.037 A 
ATOM     52  C   UNL A   1      43.659  25.503  28.938  1.00  0.00     0.049 A 
ATOM     53  C   UNL A   1      42.784  29.704  32.624  1.00  0.00     0.074 A 
ATOM     54  C   UNL A   1      44.602  26.470  28.630  1.00  0.00     0.029 A 
ATOM     55  N   UNL A   1      43.527  25.520  30.324  1.00  0.00    -0.354 N 
ATOM     56  N   UNL A   1      43.127  28.616  31.993  1.00  0.00    -0.248 NA
ATOM     57  C   UNL A   1      43.386  29.784  33.949  1.00  0.00     0.031 C 
ATOM     58  C   UNL A   1      45.032  27.076  29.833  1.00  0.00     0.029 A 
ATOM     59  C   UNL A   1      44.355  26.476  30.881  1.00  0.00     0.049 A 
ATOM     60  H   UNL A   1      42.926  24.931  30.838  1.00  0.00     0.167 HD
ATOM     61  C   UNL A   1      43.959  27.865  32.770  1.00  0.00     0.074 A 
ATOM     62  C   UNL A   1      44.097  28.641  33.988  1.00  0.00     0.031 C 
ATOM     63  C   UNL A   1      44.444  26.667  32.323  1.00  0.00     0.037 A 
BRANCH  50  64
ATOM     64  C   UNL A   1      43.098  23.757  27.064  1.00  0.00     0.064 A 
ATOM     65  C   UNL A   1      42.826  22.380  27.195  1.00  0.00     0.173 A 
ATOM     66  C   UNL A   1      43.765  24.125  25.881  1.00  0.00     0.173 A 
ATOM     67  F   UNL A   1      42.143  21.893  28.237  1.00  0.00    -0.203 F 
ATOM     68  C   UNL A   1      43.264  21.438  26.260  1.00  0.00     0.198 A 
ATOM     69  C   UNL A   1      44.246  23.180  24.970  1.00  0.00     0.198 A 
ATOM     70  F   UNL A   1      43.953  25.418  25.573  1.00  0.00    -0.203 F 
ATOM     71  F   UNL A   1      42.981  20.139  26.440  1.00  0.00    -0.200 F 
ATOM     72  C   UNL A   1      44.001  21.834  25.163  1.00  0.00     0.200 A 
ATOM     73  F   UNL A   1      44.957  23.582  23.907  1.00  0.00    -0.200 F 
ATOM     74  F   UNL A   1      44.461  20.927  24.291  1.00  0.00    -0.200 F 
ENDBRANCH  50  64
BRANCH  51  75
ATOM     75  C   UNL A   1      40.690  31.381  32.666  1.00  0.00     0.064 A 
ATOM     76  C   UNL A   1      40.539  32.770  32.472  1.00  0.00     0.173 A 
ATOM     77  C   UNL A   1      39.546  30.641  32.987  1.00  0.00     0.173 A 
ATOM     78  F   UNL A   1      41.605  33.518  32.145  1.00  0.00    -0.203 F 
ATOM     79  C   UNL A   1      39.281  33.366  32.461  1.00  0.00     0.198 A 
ATOM     80  C   UNL A   1      38.285  31.245  32.982  1.00  0.00     0.198 A 
ATOM     81  F   UNL A   1      39.623  29.313  33.153  1.00  0.00    -0.203 F 
ATOM     82  F   UNL A   1      39.159  34.662  32.143  1.00  0.00    -0.200 F 
ATOM     83  C   UNL A   1      38.151  32.596  32.682  1.00  0.00     0.200 A 
ATOM     84  F   UNL A   1      37.187  30.498  33.160  1.00  0.00    -0.200 F 
ATOM     85  F   UNL A   1      36.933  33.141  32.558  1.00  0.00    -0.200 F 
ENDBRANCH  51  75
BRANCH  63  86
ATOM     86  C   UNL A   1      45.138  25.613  33.150  1.00  0.00     0.064 A 
ATOM     87  C   UNL A   1      46.526  25.399  33.140  1.00  0.00     0.173 A 
ATOM     88  C   UNL A   1      44.417  24.873  34.122  1.00  0.00     0.173 A 
ATOM     89  F   UNL A   1      47.338  26.114  32.352  1.00  0.00    -0.203 F 
ATOM     90  C   UNL A   1      47.138  24.479  33.996  1.00  0.00     0.198 A 
ATOM     91  C   UNL A   1      45.039  24.002  35.013  1.00  0.00     0.198 A 
ATOM     92  F   UNL A   1      43.088  24.997  34.260  1.00  0.00    -0.203 F 
ATOM     93  F   UNL A   1      48.462  24.286  33.920  1.00  0.00    -0.200 F 
ATOM     94  C   UNL A   1      46.398  23.793  34.941  1.00  0.00     0.200 A 
ATOM     95  F   UNL A   1      44.313  23.387  35.957  1.00  0.00    -0.200 F 
ATOM     96  F   UNL A   1      46.999  22.951  35.793  1.00  0.00    -0.200 F 
ENDBRANCH  63  86
ENDBRANCH  37  38
ENDBRANCH  29  32
ENDBRANCH  27  28
ENDBRANCH  26  27
ENDBRANCH   1  26
TORSDOF 15
ENDMDL
