MODEL 1
REMARK VINA RESULT:     -12.0      0.000      0.000
REMARK SMILES CC[NH2+][C@]1(C(=O)NCCCCNC(=O)c2ccc(-c3c4nc(c(-c5c(F)c(F)c(F)c(F)c5F)c5ccc([nH]5)c(-c5c(F)c(F)c(F)c(F)c5F)c5nc(c(-c6c(F)c(F)c(F)c(F)c6F)c6ccc3[nH]6)C=C5)C=C4)cc2)CC[C@@H](Sc2ccccc2C)C1
REMARK SMILES IDX 9 1 8 2 7 3 5 4 6 5 4 7 78 8 89 9 79 10 80 11 3 12 2 15 1 16
REMARK SMILES IDX 81 17 82 18 83 19 87 20 84 21 86 22 88 23 85 24 10 25 11 26
REMARK SMILES IDX 12 27 13 28 14 30 15 31 16 32 77 33 17 34 76 35 18 36 19 37
REMARK SMILES IDX 20 38 70 39 21 40 75 41 69 42 71 43 22 44 74 45 68 46 67 47
REMARK SMILES IDX 23 49 55 50 35 51 54 52 36 53 39 54 53 55 72 56 37 57 38 58
REMARK SMILES IDX 52 60 73 61 40 62 24 63 25 64 33 65 26 66 27 67 31 68 34 69
REMARK SMILES IDX 28 70 29 71 32 72 30 73 56 74 57 75 65 76 58 77 59 78 63 79
REMARK SMILES IDX 66 80 60 81 61 82 64 83 62 84 41 85 42 86 50 87 43 88 44 89
REMARK SMILES IDX 48 90 51 91 45 92 46 93 49 94 47 95
REMARK H PARENT 7 6 3 13 3 14 12 29 71 48 39 59
REMARK Flexibility Score: inf
ROOT
ATOM      1  C   UNL A   1      36.710  20.946  25.307  1.00  0.00     0.023 C 
ENDROOT
BRANCH   1   2
ATOM      2  C   UNL A   1      36.710  22.417  24.916  1.00  0.00     0.116 C 
BRANCH   2   3
ATOM      3  N   UNL A   1      35.929  22.694  23.728  1.00  0.00    -0.351 N 
ATOM      4  C   UNL A   1      34.619  23.005  23.525  1.00  0.00     0.281 C 
ATOM      5  O   UNL A   1      34.358  23.390  22.375  1.00  0.00    -0.268 OA
ATOM      6  H   UNL A   1      36.453  22.648  22.896  1.00  0.00     0.163 HD
BRANCH   4   7
ATOM      7  C   UNL A   1      33.464  22.767  24.576  1.00  0.00     0.176 C 
ATOM      8  C   UNL A   1      33.581  23.555  25.886  1.00  0.00     0.080 C 
ATOM      9  C   UNL A   1      32.161  23.344  23.954  1.00  0.00     0.094 C 
ATOM     10  C   UNL A   1      32.173  23.867  26.355  1.00  0.00     0.022 C 
ATOM     11  C   UNL A   1      31.369  24.030  25.074  1.00  0.00     0.058 C 
BRANCH   7  12
ATOM     12  N   UNL A   1      33.387  21.295  24.743  1.00  0.00    -0.334 N 
ATOM     13  H   UNL A   1      34.325  20.927  24.587  1.00  0.00     0.347 HD
ATOM     14  H   UNL A   1      32.998  21.175  25.679  1.00  0.00     0.347 HD
BRANCH  12  15
ATOM     15  C   UNL A   1      32.485  20.534  23.893  1.00  0.00     0.257 C 
ATOM     16  C   UNL A   1      32.552  19.058  24.268  1.00  0.00     0.071 C 
ENDBRANCH  12  15
ENDBRANCH   7  12
BRANCH  11  17
ATOM     17  S   UNL A   1      30.833  25.752  24.693  1.00  0.00    -0.122 SA
BRANCH  17  18
ATOM     18  C   UNL A   1      31.918  26.798  25.664  1.00  0.00     0.010 A 
ATOM     19  C   UNL A   1      31.371  27.388  26.818  1.00  0.00     0.015 A 
ATOM     20  C   UNL A   1      33.206  27.191  25.250  1.00  0.00    -0.038 A 
ATOM     21  C   UNL A   1      32.093  28.317  27.572  1.00  0.00     0.001 A 
ATOM     22  C   UNL A   1      33.932  28.106  26.039  1.00  0.00     0.004 A 
ATOM     23  C   UNL A   1      33.880  26.704  23.995  1.00  0.00     0.045 C 
ATOM     24  C   UNL A   1      33.378  28.671  27.184  1.00  0.00     0.000 A 
ENDBRANCH  17  18
ENDBRANCH  11  17
ENDBRANCH   4   7
ENDBRANCH   2   3
ENDBRANCH   1   2
BRANCH   1  25
ATOM     25  C   UNL A   1      37.963  20.160  24.930  1.00  0.00     0.023 C 
BRANCH  25  26
ATOM     26  C   UNL A   1      39.204  20.436  25.773  1.00  0.00     0.116 C 
BRANCH  26  27
ATOM     27  N   UNL A   1      40.135  19.318  25.837  1.00  0.00    -0.352 N 
ATOM     28  C   UNL A   1      41.487  19.317  26.096  1.00  0.00     0.251 C 
ATOM     29  H   UNL A   1      39.739  18.433  25.670  1.00  0.00     0.163 HD
ATOM     30  O   UNL A   1      42.128  18.278  26.034  1.00  0.00    -0.269 OA
BRANCH  28  31
ATOM     31  C   UNL A   1      42.171  20.589  26.411  1.00  0.00     0.039 A 
ATOM     32  C   UNL A   1      42.670  21.362  25.360  1.00  0.00     0.014 A 
ATOM     33  C   UNL A   1      42.287  21.033  27.730  1.00  0.00     0.014 A 
ATOM     34  C   UNL A   1      43.206  22.624  25.624  1.00  0.00     0.010 A 
ATOM     35  C   UNL A   1      42.753  22.320  27.985  1.00  0.00     0.010 A 
ATOM     36  C   UNL A   1      43.209  23.132  26.933  1.00  0.00    -0.014 A 
BRANCH  36  37
ATOM     37  C   UNL A   1      43.664  24.515  27.225  1.00  0.00     0.031 A 
ATOM     38  C   UNL A   1      42.687  25.540  27.731  1.00  0.00     0.074 A 
ATOM     39  C   UNL A   1      44.936  24.870  26.951  1.00  0.00     0.049 A 
ATOM     40  N   UNL A   1      42.867  26.817  27.951  1.00  0.00    -0.248 NA
ATOM     41  C   UNL A   1      41.316  25.074  27.997  1.00  0.00     0.031 C 
ATOM     42  C   UNL A   1      45.964  23.984  26.402  1.00  0.00     0.029 A 
ATOM     43  N   UNL A   1      45.576  26.077  27.080  1.00  0.00    -0.354 N 
ATOM     44  C   UNL A   1      41.633  27.309  28.351  1.00  0.00     0.074 A 
ATOM     45  C   UNL A   1      40.700  26.204  28.308  1.00  0.00     0.031 C 
ATOM     46  C   UNL A   1      47.108  24.671  26.257  1.00  0.00     0.029 A 
ATOM     47  C   UNL A   1      46.887  26.054  26.667  1.00  0.00     0.049 A 
ATOM     48  H   UNL A   1      45.139  26.885  27.435  1.00  0.00     0.167 HD
ATOM     49  C   UNL A   1      41.311  28.566  28.738  1.00  0.00     0.037 A 
ATOM     50  C   UNL A   1      47.803  27.041  26.616  1.00  0.00     0.037 A 
ATOM     51  C   UNL A   1      42.252  29.651  28.830  1.00  0.00     0.049 A 
ATOM     52  C   UNL A   1      47.420  28.422  27.076  1.00  0.00     0.074 A 
ATOM     53  C   UNL A   1      42.043  30.934  29.304  1.00  0.00     0.029 A 
ATOM     54  N   UNL A   1      43.582  29.578  28.444  1.00  0.00    -0.354 N 
ATOM     55  N   UNL A   1      46.272  28.853  27.539  1.00  0.00    -0.248 NA
ATOM     56  C   UNL A   1      48.465  29.455  27.014  1.00  0.00     0.031 C 
ATOM     57  C   UNL A   1      43.235  31.651  29.166  1.00  0.00     0.029 A 
ATOM     58  C   UNL A   1      44.199  30.801  28.648  1.00  0.00     0.049 A 
ATOM     59  H   UNL A   1      44.021  28.776  28.079  1.00  0.00     0.167 HD
ATOM     60  C   UNL A   1      46.464  30.190  27.854  1.00  0.00     0.074 A 
ATOM     61  C   UNL A   1      47.844  30.500  27.542  1.00  0.00     0.031 C 
ATOM     62  C   UNL A   1      45.579  31.084  28.355  1.00  0.00     0.037 A 
BRANCH  49  63
ATOM     63  C   UNL A   1      39.885  28.846  29.105  1.00  0.00     0.064 A 
ATOM     64  C   UNL A   1      38.953  29.281  28.153  1.00  0.00     0.173 A 
ATOM     65  C   UNL A   1      39.428  28.605  30.410  1.00  0.00     0.173 A 
ATOM     66  F   UNL A   1      39.342  29.536  26.894  1.00  0.00    -0.203 F 
ATOM     67  C   UNL A   1      37.617  29.478  28.496  1.00  0.00     0.198 A 
ATOM     68  C   UNL A   1      38.088  28.778  30.743  1.00  0.00     0.198 A 
ATOM     69  F   UNL A   1      40.280  28.183  31.357  1.00  0.00    -0.203 F 
ATOM     70  F   UNL A   1      36.750  29.924  27.578  1.00  0.00    -0.200 F 
ATOM     71  C   UNL A   1      37.185  29.218  29.788  1.00  0.00     0.200 A 
ATOM     72  F   UNL A   1      37.670  28.514  31.989  1.00  0.00    -0.200 F 
ATOM     73  F   UNL A   1      35.896  29.391  30.112  1.00  0.00    -0.200 F 
ENDBRANCH  49  63
BRANCH  50  74
ATOM     74  C   UNL A   1      49.179  26.767  26.126  1.00  0.00     0.064 A 
ATOM     75  C   UNL A   1      49.521  26.989  24.784  1.00  0.00     0.173 A 
ATOM     76  C   UNL A   1      50.167  26.243  26.972  1.00  0.00     0.173 A 
ATOM     77  F   UNL A   1      48.605  27.468  23.930  1.00  0.00    -0.203 F 
ATOM     78  C   UNL A   1      50.788  26.665  24.299  1.00  0.00     0.198 A 
ATOM     79  C   UNL A   1      51.442  25.948  26.494  1.00  0.00     0.198 A 
ATOM     80  F   UNL A   1      49.894  26.018  28.266  1.00  0.00    -0.203 F 
ATOM     81  F   UNL A   1      51.067  26.830  23.000  1.00  0.00    -0.200 F 
ATOM     82  C   UNL A   1      51.747  26.147  25.155  1.00  0.00     0.200 A 
ATOM     83  F   UNL A   1      52.372  25.458  27.327  1.00  0.00    -0.200 F 
ATOM     84  F   UNL A   1      52.962  25.829  24.688  1.00  0.00    -0.200 F 
ENDBRANCH  50  74
BRANCH  62  85
ATOM     85  C   UNL A   1      46.083  32.468  28.643  1.00  0.00     0.064 A 
ATOM     86  C   UNL A   1      46.633  32.805  29.887  1.00  0.00     0.173 A 
ATOM     87  C   UNL A   1      46.052  33.453  27.645  1.00  0.00     0.173 A 
ATOM     88  F   UNL A   1      46.670  31.902  30.878  1.00  0.00    -0.203 F 
ATOM     89  C   UNL A   1      47.115  34.090  30.129  1.00  0.00     0.198 A 
ATOM     90  C   UNL A   1      46.561  34.726  27.881  1.00  0.00     0.198 A 
ATOM     91  F   UNL A   1      45.542  33.176  26.436  1.00  0.00    -0.203 F 
ATOM     92  F   UNL A   1      47.595  34.405  31.340  1.00  0.00    -0.200 F 
ATOM     93  C   UNL A   1      47.084  35.046  29.125  1.00  0.00     0.200 A 
ATOM     94  F   UNL A   1      46.543  35.645  26.906  1.00  0.00    -0.200 F 
ATOM     95  F   UNL A   1      47.555  36.278  29.358  1.00  0.00    -0.200 F 
ENDBRANCH  62  85
ENDBRANCH  36  37
ENDBRANCH  28  31
ENDBRANCH  26  27
ENDBRANCH  25  26
ENDBRANCH   1  25
TORSDOF 15
ENDMDL
MODEL 2
REMARK VINA RESULT:     -11.9      5.659     10.052
REMARK SMILES CC[NH2+][C@]1(C(=O)NCCCCNC(=O)c2ccc(-c3c4nc(c(-c5c(F)c(F)c(F)c(F)c5F)c5ccc([nH]5)c(-c5c(F)c(F)c(F)c(F)c5F)c5nc(c(-c6c(F)c(F)c(F)c(F)c6F)c6ccc3[nH]6)C=C5)C=C4)cc2)CC[C@@H](Sc2ccccc2C)C1
REMARK SMILES IDX 9 1 8 2 7 3 5 4 6 5 4 7 78 8 89 9 79 10 80 11 3 12 2 15 1 16
REMARK SMILES IDX 81 17 82 18 83 19 87 20 84 21 86 22 88 23 85 24 10 25 11 26
REMARK SMILES IDX 12 27 13 28 14 30 15 31 16 32 77 33 17 34 76 35 18 36 19 37
REMARK SMILES IDX 20 38 70 39 21 40 75 41 69 42 71 43 22 44 74 45 68 46 67 47
REMARK SMILES IDX 23 49 55 50 35 51 54 52 36 53 39 54 53 55 72 56 37 57 38 58
REMARK SMILES IDX 52 60 73 61 40 62 24 63 25 64 33 65 26 66 27 67 31 68 34 69
REMARK SMILES IDX 28 70 29 71 32 72 30 73 56 74 57 75 65 76 58 77 59 78 63 79
REMARK SMILES IDX 66 80 60 81 61 82 64 83 62 84 41 85 42 86 50 87 43 88 44 89
REMARK SMILES IDX 48 90 51 91 45 92 46 93 49 94 47 95
REMARK H PARENT 7 6 3 13 3 14 12 29 71 48 39 59
REMARK Flexibility Score: inf
ROOT
ATOM      1  C   UNL A   1      31.411  30.799  26.469  1.00  0.00     0.023 C 
ENDROOT
BRANCH   1   2
ATOM      2  C   UNL A   1      31.227  30.204  25.079  1.00  0.00     0.116 C 
BRANCH   2   3
ATOM      3  N   UNL A   1      32.458  29.705  24.502  1.00  0.00    -0.351 N 
ATOM      4  C   UNL A   1      33.147  28.539  24.641  1.00  0.00     0.281 C 
ATOM      5  O   UNL A   1      34.057  28.382  23.812  1.00  0.00    -0.268 OA
ATOM      6  H   UNL A   1      32.884  30.340  23.882  1.00  0.00     0.163 HD
BRANCH   4   7
ATOM      7  C   UNL A   1      32.953  27.514  25.826  1.00  0.00     0.176 C 
ATOM      8  C   UNL A   1      31.563  26.876  25.936  1.00  0.00     0.080 C 
ATOM      9  C   UNL A   1      33.859  26.289  25.518  1.00  0.00     0.094 C 
ATOM     10  C   UNL A   1      31.750  25.472  26.478  1.00  0.00     0.022 C 
ATOM     11  C   UNL A   1      33.094  25.023  25.925  1.00  0.00     0.058 C 
BRANCH   7  12
ATOM     12  N   UNL A   1      33.402  28.236  27.042  1.00  0.00    -0.334 N 
ATOM     13  H   UNL A   1      32.770  29.025  27.171  1.00  0.00     0.347 HD
ATOM     14  H   UNL A   1      33.394  27.519  27.769  1.00  0.00     0.347 HD
BRANCH  12  15
ATOM     15  C   UNL A   1      34.757  28.763  27.091  1.00  0.00     0.257 C 
ATOM     16  C   UNL A   1      34.743  30.154  27.713  1.00  0.00     0.071 C 
ENDBRANCH  12  15
ENDBRANCH   7  12
BRANCH  11  17
ATOM     17  S   UNL A   1      33.017  23.719  24.625  1.00  0.00    -0.122 SA
BRANCH  17  18
ATOM     18  C   UNL A   1      34.639  22.954  24.644  1.00  0.00     0.010 A 
ATOM     19  C   UNL A   1      35.501  23.261  23.575  1.00  0.00     0.015 A 
ATOM     20  C   UNL A   1      35.023  21.952  25.556  1.00  0.00    -0.038 A 
ATOM     21  C   UNL A   1      36.736  22.621  23.430  1.00  0.00     0.001 A 
ATOM     22  C   UNL A   1      36.284  21.338  25.413  1.00  0.00     0.004 A 
ATOM     23  C   UNL A   1      34.166  21.467  26.695  1.00  0.00     0.045 C 
ATOM     24  C   UNL A   1      37.129  21.663  24.354  1.00  0.00     0.000 A 
ENDBRANCH  17  18
ENDBRANCH  11  17
ENDBRANCH   4   7
ENDBRANCH   2   3
ENDBRANCH   1   2
BRANCH   1  25
ATOM     25  C   UNL A   1      31.414  32.323  26.543  1.00  0.00     0.023 C 
BRANCH  25  26
ATOM     26  C   UNL A   1      32.583  32.954  27.293  1.00  0.00     0.116 C 
BRANCH  26  27
ATOM     27  N   UNL A   1      32.350  34.334  27.694  1.00  0.00    -0.352 N 
ATOM     28  C   UNL A   1      33.010  35.098  28.629  1.00  0.00     0.251 C 
ATOM     29  H   UNL A   1      31.612  34.788  27.227  1.00  0.00     0.163 HD
ATOM     30  O   UNL A   1      32.624  36.228  28.890  1.00  0.00    -0.269 OA
BRANCH  28  31
ATOM     31  C   UNL A   1      34.168  34.529  29.351  1.00  0.00     0.039 A 
ATOM     32  C   UNL A   1      33.949  33.890  30.574  1.00  0.00     0.014 A 
ATOM     33  C   UNL A   1      35.453  34.593  28.809  1.00  0.00     0.014 A 
ATOM     34  C   UNL A   1      35.006  33.237  31.211  1.00  0.00     0.010 A 
ATOM     35  C   UNL A   1      36.489  33.879  29.406  1.00  0.00     0.010 A 
ATOM     36  C   UNL A   1      36.273  33.187  30.608  1.00  0.00    -0.014 A 
BRANCH  36  37
ATOM     37  C   UNL A   1      37.383  32.400  31.205  1.00  0.00     0.031 A 
ATOM     38  C   UNL A   1      37.893  32.737  32.578  1.00  0.00     0.074 A 
ATOM     39  C   UNL A   1      37.988  31.441  30.475  1.00  0.00     0.049 A 
ATOM     40  N   UNL A   1      38.910  32.235  33.230  1.00  0.00    -0.248 NA
ATOM     41  C   UNL A   1      37.183  33.803  33.305  1.00  0.00     0.031 C 
ATOM     42  C   UNL A   1      37.625  31.059  29.108  1.00  0.00     0.029 A 
ATOM     43  N   UNL A   1      39.050  30.624  30.774  1.00  0.00    -0.354 N 
ATOM     44  C   UNL A   1      38.979  32.939  34.424  1.00  0.00     0.074 A 
ATOM     45  C   UNL A   1      37.925  33.930  34.395  1.00  0.00     0.031 C 
ATOM     46  C   UNL A   1      38.438  30.074  28.695  1.00  0.00     0.029 A 
ATOM     47  C   UNL A   1      39.402  29.777  29.750  1.00  0.00     0.049 A 
ATOM     48  H   UNL A   1      39.516  30.641  31.642  1.00  0.00     0.167 HD
ATOM     49  C   UNL A   1      39.832  32.761  35.460  1.00  0.00     0.037 A 
ATOM     50  C   UNL A   1      40.396  28.873  29.669  1.00  0.00     0.037 A 
ATOM     51  C   UNL A   1      40.845  31.740  35.509  1.00  0.00     0.049 A 
ATOM     52  C   UNL A   1      41.313  28.682  30.848  1.00  0.00     0.074 A 
ATOM     53  C   UNL A   1      41.693  31.418  36.554  1.00  0.00     0.029 A 
ATOM     54  N   UNL A   1      41.143  30.873  34.469  1.00  0.00    -0.354 N 
ATOM     55  N   UNL A   1      41.309  29.293  32.008  1.00  0.00    -0.248 NA
ATOM     56  C   UNL A   1      42.370  27.670  30.709  1.00  0.00     0.031 C 
ATOM     57  C   UNL A   1      42.533  30.383  36.132  1.00  0.00     0.029 A 
ATOM     58  C   UNL A   1      42.178  30.031  34.840  1.00  0.00     0.049 A 
ATOM     59  H   UNL A   1      40.687  30.858  33.596  1.00  0.00     0.167 HD
ATOM     60  C   UNL A   1      42.334  28.717  32.746  1.00  0.00     0.074 A 
ATOM     61  C   UNL A   1      42.932  27.698  31.908  1.00  0.00     0.031 C 
ATOM     62  C   UNL A   1      42.745  29.006  34.004  1.00  0.00     0.037 A 
BRANCH  49  63
ATOM     63  C   UNL A   1      39.709  33.679  36.639  1.00  0.00     0.064 A 
ATOM     64  C   UNL A   1      40.353  34.924  36.671  1.00  0.00     0.173 A 
ATOM     65  C   UNL A   1      38.878  33.340  37.717  1.00  0.00     0.173 A 
ATOM     66  F   UNL A   1      41.166  35.290  35.669  1.00  0.00    -0.203 F 
ATOM     67  C   UNL A   1      40.179  35.792  37.746  1.00  0.00     0.198 A 
ATOM     68  C   UNL A   1      38.686  34.220  38.778  1.00  0.00     0.198 A 
ATOM     69  F   UNL A   1      38.236  32.162  37.732  1.00  0.00    -0.203 F 
ATOM     70  F   UNL A   1      40.828  36.964  37.771  1.00  0.00    -0.200 F 
ATOM     71  C   UNL A   1      39.339  35.443  38.794  1.00  0.00     0.200 A 
ATOM     72  F   UNL A   1      37.864  33.887  39.784  1.00  0.00    -0.200 F 
ATOM     73  F   UNL A   1      39.160  36.287  39.819  1.00  0.00    -0.200 F 
ENDBRANCH  49  63
BRANCH  50  74
ATOM     74  C   UNL A   1      40.578  28.061  28.437  1.00  0.00     0.064 A 
ATOM     75  C   UNL A   1      40.003  26.787  28.325  1.00  0.00     0.173 A 
ATOM     76  C   UNL A   1      41.359  28.520  27.366  1.00  0.00     0.173 A 
ATOM     77  F   UNL A   1      39.266  26.295  29.331  1.00  0.00    -0.203 F 
ATOM     78  C   UNL A   1      40.230  25.989  27.205  1.00  0.00     0.198 A 
ATOM     79  C   UNL A   1      41.562  27.734  26.234  1.00  0.00     0.198 A 
ATOM     80  F   UNL A   1      41.927  29.734  27.420  1.00  0.00    -0.203 F 
ATOM     81  F   UNL A   1      39.719  24.753  27.151  1.00  0.00    -0.200 F 
ATOM     82  C   UNL A   1      41.007  26.464  26.159  1.00  0.00     0.200 A 
ATOM     83  F   UNL A   1      42.303  28.201  25.220  1.00  0.00    -0.200 F 
ATOM     84  F   UNL A   1      41.232  25.695  25.086  1.00  0.00    -0.200 F 
ENDBRANCH  50  74
BRANCH  62  85
ATOM     85  C   UNL A   1      43.863  28.182  34.570  1.00  0.00     0.064 A 
ATOM     86  C   UNL A   1      45.199  28.598  34.485  1.00  0.00     0.173 A 
ATOM     87  C   UNL A   1      43.586  26.983  35.244  1.00  0.00     0.173 A 
ATOM     88  F   UNL A   1      45.515  29.728  33.837  1.00  0.00    -0.203 F 
ATOM     89  C   UNL A   1      46.222  27.828  35.035  1.00  0.00     0.198 A 
ATOM     90  C   UNL A   1      44.607  26.232  35.817  1.00  0.00     0.198 A 
ATOM     91  F   UNL A   1      42.322  26.548  35.358  1.00  0.00    -0.203 F 
ATOM     92  F   UNL A   1      47.496  28.220  34.902  1.00  0.00    -0.200 F 
ATOM     93  C   UNL A   1      45.924  26.651  35.706  1.00  0.00     0.200 A 
ATOM     94  F   UNL A   1      44.317  25.102  36.477  1.00  0.00    -0.200 F 
ATOM     95  F   UNL A   1      46.909  25.917  36.240  1.00  0.00    -0.200 F 
ENDBRANCH  62  85
ENDBRANCH  36  37
ENDBRANCH  28  31
ENDBRANCH  26  27
ENDBRANCH  25  26
ENDBRANCH   1  25
TORSDOF 15
ENDMDL
MODEL 3
REMARK VINA RESULT:     -11.9      5.642      9.830
REMARK SMILES CC[NH2+][C@]1(C(=O)NCCCCNC(=O)c2ccc(-c3c4nc(c(-c5c(F)c(F)c(F)c(F)c5F)c5ccc([nH]5)c(-c5c(F)c(F)c(F)c(F)c5F)c5nc(c(-c6c(F)c(F)c(F)c(F)c6F)c6ccc3[nH]6)C=C5)C=C4)cc2)CC[C@@H](Sc2ccccc2C)C1
REMARK SMILES IDX 9 1 8 2 7 3 5 4 6 5 4 7 78 8 89 9 79 10 80 11 3 12 2 15 1 16
REMARK SMILES IDX 81 17 82 18 83 19 87 20 84 21 86 22 88 23 85 24 10 25 11 26
REMARK SMILES IDX 12 27 13 28 14 30 15 31 16 32 77 33 17 34 76 35 18 36 19 37
REMARK SMILES IDX 20 38 70 39 21 40 75 41 69 42 71 43 22 44 74 45 68 46 67 47
REMARK SMILES IDX 23 49 55 50 35 51 54 52 36 53 39 54 53 55 72 56 37 57 38 58
REMARK SMILES IDX 52 60 73 61 40 62 24 63 25 64 33 65 26 66 27 67 31 68 34 69
REMARK SMILES IDX 28 70 29 71 32 72 30 73 56 74 57 75 65 76 58 77 59 78 63 79
REMARK SMILES IDX 66 80 60 81 61 82 64 83 62 84 41 85 42 86 50 87 43 88 44 89
REMARK SMILES IDX 48 90 51 91 45 92 46 93 49 94 47 95
REMARK H PARENT 7 6 3 13 3 14 12 29 71 48 39 59
REMARK Flexibility Score: inf
ROOT
ATOM      1  C   UNL A   1      31.636  30.717  25.793  1.00  0.00     0.023 C 
ENDROOT
BRANCH   1   2
ATOM      2  C   UNL A   1      32.413  29.495  26.263  1.00  0.00     0.116 C 
BRANCH   2   3
ATOM      3  N   UNL A   1      31.575  28.338  26.496  1.00  0.00    -0.351 N 
ATOM      4  C   UNL A   1      31.340  27.198  25.788  1.00  0.00     0.281 C 
ATOM      5  O   UNL A   1      30.718  26.327  26.414  1.00  0.00    -0.268 OA
ATOM      6  H   UNL A   1      31.070  28.385  27.339  1.00  0.00     0.163 HD
BRANCH   4   7
ATOM      7  C   UNL A   1      31.670  27.007  24.255  1.00  0.00     0.176 C 
ATOM      8  C   UNL A   1      33.158  26.913  23.899  1.00  0.00     0.080 C 
ATOM      9  C   UNL A   1      31.141  25.602  23.851  1.00  0.00     0.094 C 
ATOM     10  C   UNL A   1      33.283  25.983  22.708  1.00  0.00     0.022 C 
ATOM     11  C   UNL A   1      32.159  24.974  22.890  1.00  0.00     0.058 C 
BRANCH   7  12
ATOM     12  N   UNL A   1      30.933  28.091  23.560  1.00  0.00    -0.334 N 
ATOM     13  H   UNL A   1      31.069  28.942  24.105  1.00  0.00     0.347 HD
ATOM     14  H   UNL A   1      31.322  28.084  22.617  1.00  0.00     0.347 HD
BRANCH  12  15
ATOM     15  C   UNL A   1      29.501  27.947  23.346  1.00  0.00     0.257 C 
ATOM     16  C   UNL A   1      28.989  29.116  22.512  1.00  0.00     0.071 C 
ENDBRANCH  12  15
ENDBRANCH   7  12
BRANCH  11  17
ATOM     17  S   UNL A   1      32.694  23.270  23.342  1.00  0.00    -0.122 SA
BRANCH  17  18
ATOM     18  C   UNL A   1      34.356  23.465  23.989  1.00  0.00     0.010 A 
ATOM     19  C   UNL A   1      35.415  23.061  23.157  1.00  0.00     0.015 A 
ATOM     20  C   UNL A   1      34.641  23.831  25.319  1.00  0.00    -0.038 A 
ATOM     21  C   UNL A   1      36.736  23.054  23.613  1.00  0.00     0.001 A 
ATOM     22  C   UNL A   1      35.982  23.847  25.754  1.00  0.00     0.004 A 
ATOM     23  C   UNL A   1      33.600  24.206  26.339  1.00  0.00     0.045 C 
ATOM     24  C   UNL A   1      37.020  23.454  24.912  1.00  0.00     0.000 A 
ENDBRANCH  17  18
ENDBRANCH  11  17
ENDBRANCH   4   7
ENDBRANCH   2   3
ENDBRANCH   1   2
BRANCH   1  25
ATOM     25  C   UNL A   1      31.452  31.824  26.826  1.00  0.00     0.023 C 
BRANCH  25  26
ATOM     26  C   UNL A   1      32.705  32.615  27.189  1.00  0.00     0.116 C 
BRANCH  26  27
ATOM     27  N   UNL A   1      32.442  33.996  27.570  1.00  0.00    -0.352 N 
ATOM     28  C   UNL A   1      33.065  34.778  28.515  1.00  0.00     0.251 C 
ATOM     29  H   UNL A   1      31.710  34.434  27.078  1.00  0.00     0.163 HD
ATOM     30  O   UNL A   1      32.655  35.905  28.754  1.00  0.00    -0.269 OA
BRANCH  28  31
ATOM     31  C   UNL A   1      34.211  34.233  29.273  1.00  0.00     0.039 A 
ATOM     32  C   UNL A   1      33.958  33.455  30.406  1.00  0.00     0.014 A 
ATOM     33  C   UNL A   1      35.523  34.457  28.850  1.00  0.00     0.014 A 
ATOM     34  C   UNL A   1      35.018  32.826  31.063  1.00  0.00     0.010 A 
ATOM     35  C   UNL A   1      36.570  33.772  29.460  1.00  0.00     0.010 A 
ATOM     36  C   UNL A   1      36.327  32.942  30.567  1.00  0.00    -0.014 A 
BRANCH  36  37
ATOM     37  C   UNL A   1      37.454  32.191  31.176  1.00  0.00     0.031 A 
ATOM     38  C   UNL A   1      37.958  32.563  32.542  1.00  0.00     0.074 A 
ATOM     39  C   UNL A   1      38.079  31.232  30.462  1.00  0.00     0.049 A 
ATOM     40  N   UNL A   1      38.986  32.095  33.202  1.00  0.00    -0.248 NA
ATOM     41  C   UNL A   1      37.226  33.626  33.251  1.00  0.00     0.031 C 
ATOM     42  C   UNL A   1      37.723  30.818  29.104  1.00  0.00     0.029 A 
ATOM     43  N   UNL A   1      39.158  30.443  30.775  1.00  0.00    -0.354 N 
ATOM     44  C   UNL A   1      39.041  32.821  34.383  1.00  0.00     0.074 A 
ATOM     45  C   UNL A   1      37.967  33.789  34.338  1.00  0.00     0.031 C 
ATOM     46  C   UNL A   1      38.556  29.843  28.706  1.00  0.00     0.029 A 
ATOM     47  C   UNL A   1      39.527  29.587  29.765  1.00  0.00     0.049 A 
ATOM     48  H   UNL A   1      39.625  30.486  31.641  1.00  0.00     0.167 HD
ATOM     49  C   UNL A   1      39.900  32.680  35.420  1.00  0.00     0.037 A 
ATOM     50  C   UNL A   1      40.541  28.703  29.698  1.00  0.00     0.037 A 
ATOM     51  C   UNL A   1      40.934  31.682  35.486  1.00  0.00     0.049 A 
ATOM     52  C   UNL A   1      41.463  28.553  30.879  1.00  0.00     0.074 A 
ATOM     53  C   UNL A   1      41.790  31.397  36.535  1.00  0.00     0.029 A 
ATOM     54  N   UNL A   1      41.250  30.803  34.461  1.00  0.00    -0.354 N 
ATOM     55  N   UNL A   1      41.447  29.184  32.028  1.00  0.00    -0.248 NA
ATOM     56  C   UNL A   1      42.542  27.561  30.757  1.00  0.00     0.031 C 
ATOM     57  C   UNL A   1      42.652  30.374  36.130  1.00  0.00     0.029 A 
ATOM     58  C   UNL A   1      42.303  29.991  34.845  1.00  0.00     0.049 A 
ATOM     59  H   UNL A   1      40.793  30.764  33.590  1.00  0.00     0.167 HD
ATOM     60  C   UNL A   1      42.485  28.644  32.775  1.00  0.00     0.074 A 
ATOM     61  C   UNL A   1      43.104  27.624  31.955  1.00  0.00     0.031 C 
ATOM     62  C   UNL A   1      42.891  28.965  34.026  1.00  0.00     0.037 A 
BRANCH  49  63
ATOM     63  C   UNL A   1      39.758  33.616  36.583  1.00  0.00     0.064 A 
ATOM     64  C   UNL A   1      40.396  34.864  36.603  1.00  0.00     0.173 A 
ATOM     65  C   UNL A   1      38.914  33.291  37.656  1.00  0.00     0.173 A 
ATOM     66  F   UNL A   1      41.221  35.218  35.606  1.00  0.00    -0.203 F 
ATOM     67  C   UNL A   1      40.206  35.748  37.663  1.00  0.00     0.198 A 
ATOM     68  C   UNL A   1      38.706  34.187  38.700  1.00  0.00     0.198 A 
ATOM     69  F   UNL A   1      38.277  32.111  37.681  1.00  0.00    -0.203 F 
ATOM     70  F   UNL A   1      40.850  36.923  37.677  1.00  0.00    -0.200 F 
ATOM     71  C   UNL A   1      39.354  35.413  38.705  1.00  0.00     0.200 A 
ATOM     72  F   UNL A   1      37.873  33.867  39.700  1.00  0.00    -0.200 F 
ATOM     73  F   UNL A   1      39.159  36.272  39.714  1.00  0.00    -0.200 F 
ENDBRANCH  49  63
BRANCH  50  74
ATOM     74  C   UNL A   1      40.739  27.874  28.481  1.00  0.00     0.064 A 
ATOM     75  C   UNL A   1      41.535  28.332  27.421  1.00  0.00     0.173 A 
ATOM     76  C   UNL A   1      40.110  26.629  28.333  1.00  0.00     0.173 A 
ATOM     77  F   UNL A   1      42.140  29.526  27.506  1.00  0.00    -0.203 F 
ATOM     78  C   UNL A   1      41.666  27.594  26.246  1.00  0.00     0.198 A 
ATOM     79  C   UNL A   1      40.266  25.878  27.169  1.00  0.00     0.198 A 
ATOM     80  F   UNL A   1      39.343  26.141  29.318  1.00  0.00    -0.203 F 
ATOM     81  F   UNL A   1      42.383  28.085  25.226  1.00  0.00    -0.200 F 
ATOM     82  C   UNL A   1      41.033  26.367  26.122  1.00  0.00     0.200 A 
ATOM     83  F   UNL A   1      39.663  24.686  27.057  1.00  0.00    -0.200 F 
ATOM     84  F   UNL A   1      41.153  25.661  24.989  1.00  0.00    -0.200 F 
ENDBRANCH  50  74
BRANCH  62  85
ATOM     85  C   UNL A   1      44.027  28.175  34.606  1.00  0.00     0.064 A 
ATOM     86  C   UNL A   1      45.357  28.605  34.490  1.00  0.00     0.173 A 
ATOM     87  C   UNL A   1      43.776  26.995  35.322  1.00  0.00     0.173 A 
ATOM     88  F   UNL A   1      45.649  29.718  33.801  1.00  0.00    -0.203 F 
ATOM     89  C   UNL A   1      46.397  27.869  35.052  1.00  0.00     0.198 A 
ATOM     90  C   UNL A   1      44.815  26.278  35.907  1.00  0.00     0.198 A 
ATOM     91  F   UNL A   1      42.520  26.546  35.466  1.00  0.00    -0.203 F 
ATOM     92  F   UNL A   1      47.664  28.274  34.891  1.00  0.00    -0.200 F 
ATOM     93  C   UNL A   1      46.124  26.711  35.765  1.00  0.00     0.200 A 
ATOM     94  F   UNL A   1      44.548  25.166  36.607  1.00  0.00    -0.200 F 
ATOM     95  F   UNL A   1      47.126  26.008  36.312  1.00  0.00    -0.200 F 
ENDBRANCH  62  85
ENDBRANCH  36  37
ENDBRANCH  28  31
ENDBRANCH  26  27
ENDBRANCH  25  26
ENDBRANCH   1  25
TORSDOF 15
ENDMDL
