MODEL 1
REMARK VINA RESULT:     -14.0      0.000      0.000
REMARK SMILES O=C(COc1ccccc1/C=C1/SC(=S)N(c2ccc(F)c(Cl)c2)C1=O)NCCCCNC(=O)c1ccc(-c2c3nc(c(-c4c(F)c(F)c(F)c(F)c4F)c4ccc([nH]4)c(-c4c(F)c(F)c(F)c(F)c4F)c4nc(c(-c5c(F)c(F)c(F)c(F)c5F)c5ccc2[nH]5)C=C4)C=C3)cc1
REMARK SMILES IDX 28 1 27 2 1 3 2 4 3 6 4 7 5 8 6 9 10 10 7 11 9 12 8 13 11 14
REMARK SMILES IDX 12 15 13 16 25 17 14 18 16 19 26 20 15 21 17 22 18 23 24 24
REMARK SMILES IDX 19 25 22 26 20 27 23 28 21 29 29 30 30 31 31 32 32 33 33 34
REMARK SMILES IDX 34 36 35 37 36 38 97 39 37 40 96 41 38 42 39 43 40 44 90 45
REMARK SMILES IDX 41 46 95 47 89 48 91 49 42 50 94 51 88 52 87 53 43 55 75 56
REMARK SMILES IDX 55 57 74 58 56 59 59 60 73 61 92 62 57 63 58 64 72 66 93 67
REMARK SMILES IDX 60 68 44 69 45 70 53 71 46 72 47 73 51 74 54 75 48 76 49 77
REMARK SMILES IDX 52 78 50 79 76 80 77 81 85 82 78 83 79 84 83 85 86 86 80 87
REMARK SMILES IDX 81 88 84 89 82 90 61 91 62 92 70 93 63 94 64 95 68 96 71 97
REMARK SMILES IDX 65 98 66 99 69 100 67 101
REMARK H PARENT 27 5 32 35 91 54 59 65
REMARK Flexibility Score: inf
ROOT
ATOM      1  C   UNL A   1      34.638  32.364  28.933  1.00  0.00     0.116 C 
ENDROOT
BRANCH   1   2
ATOM      2  N   UNL A   1      33.652  30.822  27.874  1.00  0.00    -0.353 N 
ATOM      3  O   UNL A   1      31.706  30.921  26.337  1.00  0.00    -0.271 OA
ATOM      4  C   UNL A   1      32.647  30.342  26.870  1.00  0.00     0.257 C 
ATOM      5  H   UNL A   1      34.064  29.996  28.215  1.00  0.00     0.163 HD
BRANCH   4   6
ATOM      6  C   UNL A   1      32.918  28.898  26.459  1.00  0.00     0.329 C 
BRANCH   6   7
ATOM      7  O   UNL A   1      32.013  28.473  25.463  1.00  0.00    -0.483 OA
BRANCH   7   8
ATOM      8  C   UNL A   1      32.541  27.716  24.439  1.00  0.00     0.127 A 
ATOM      9  C   UNL A   1      33.361  28.496  23.613  1.00  0.00     0.047 A 
ATOM     10  C   UNL A   1      32.124  26.413  24.041  1.00  0.00     0.018 A 
ATOM     11  C   UNL A   1      33.726  28.043  22.354  1.00  0.00     0.004 A 
ATOM     12  C   UNL A   1      32.508  25.984  22.761  1.00  0.00     0.012 A 
ATOM     13  C   UNL A   1      33.277  26.801  21.920  1.00  0.00     0.001 A 
BRANCH  10  14
ATOM     14  C   UNL A   1      31.204  25.513  24.793  1.00  0.00     0.033 C 
ATOM     15  C   UNL A   1      31.687  24.713  25.776  1.00  0.00     0.081 C 
ATOM     16  S   UNL A   1      30.849  22.590  25.896  1.00  0.00    -0.054 SA
ATOM     17  C   UNL A   1      33.643  24.690  25.950  1.00  0.00     0.270 C 
ATOM     18  C   UNL A   1      33.011  21.644  25.799  1.00  0.00     0.152 C 
ATOM     19  N   UNL A   1      34.245  22.992  25.849  1.00  0.00    -0.261 N 
ATOM     20  O   UNL A   1      34.327  25.684  26.142  1.00  0.00    -0.268 OA
ATOM     21  S   UNL A   1      33.207  20.016  25.383  1.00  0.00    -0.051 S 
BRANCH  19  22
ATOM     22  C   UNL A   1      35.643  22.785  25.664  1.00  0.00     0.052 A 
ATOM     23  C   UNL A   1      36.611  23.705  26.090  1.00  0.00     0.030 A 
ATOM     24  C   UNL A   1      36.068  21.614  25.051  1.00  0.00     0.050 A 
ATOM     25  C   UNL A   1      37.959  23.326  26.122  1.00  0.00     0.043 A 
ATOM     26  C   UNL A   1      37.388  21.200  25.148  1.00  0.00     0.078 A 
ATOM     27  C   UNL A   1      38.324  22.044  25.721  1.00  0.00     0.141 A 
ATOM     28  Cl  UNL A   1      37.784  19.611  24.632  1.00  0.00    -0.081 Cl
ATOM     29  F   UNL A   1      39.582  21.629  25.924  1.00  0.00    -0.205 F 
ENDBRANCH  19  22
ENDBRANCH  10  14
ENDBRANCH   7   8
ENDBRANCH   6   7
ENDBRANCH   4   6
ENDBRANCH   1   2
BRANCH   1  30
ATOM     30  C   UNL A   1      34.456  34.113  29.070  1.00  0.00     0.023 C 
BRANCH  30  31
ATOM     31  C   UNL A   1      33.250  35.080  28.957  1.00  0.00     0.023 C 
BRANCH  31  32
ATOM     32  C   UNL A   1      33.271  36.426  29.712  1.00  0.00     0.116 C 
BRANCH  32  33
ATOM     33  N   UNL A   1      32.326  36.438  30.816  1.00  0.00    -0.352 N 
ATOM     34  C   UNL A   1      32.406  35.906  32.074  1.00  0.00     0.251 C 
ATOM     35  H   UNL A   1      31.483  36.910  30.625  1.00  0.00     0.163 HD
ATOM     36  O   UNL A   1      31.466  36.033  32.854  1.00  0.00    -0.269 OA
BRANCH  34  37
ATOM     37  C   UNL A   1      33.593  35.157  32.523  1.00  0.00     0.039 A 
ATOM     38  C   UNL A   1      34.849  35.756  32.401  1.00  0.00     0.014 A 
ATOM     39  C   UNL A   1      33.492  33.809  32.877  1.00  0.00     0.014 A 
ATOM     40  C   UNL A   1      36.006  35.013  32.666  1.00  0.00     0.010 A 
ATOM     41  C   UNL A   1      34.652  33.080  33.179  1.00  0.00     0.010 A 
ATOM     42  C   UNL A   1      35.924  33.672  33.087  1.00  0.00    -0.014 A 
BRANCH  42  43
ATOM     43  C   UNL A   1      37.159  32.938  33.503  1.00  0.00     0.031 A 
ATOM     44  C   UNL A   1      37.807  31.894  32.629  1.00  0.00     0.074 A 
ATOM     45  C   UNL A   1      37.689  33.206  34.715  1.00  0.00     0.049 A 
ATOM     46  N   UNL A   1      38.903  31.203  32.837  1.00  0.00    -0.248 NA
ATOM     47  C   UNL A   1      37.129  31.568  31.367  1.00  0.00     0.031 C 
ATOM     48  C   UNL A   1      37.121  34.142  35.686  1.00  0.00     0.029 A 
ATOM     49  N   UNL A   1      38.818  32.731  35.337  1.00  0.00    -0.354 N 
ATOM     50  C   UNL A   1      39.041  30.356  31.742  1.00  0.00     0.074 A 
ATOM     51  C   UNL A   1      37.890  30.588  30.894  1.00  0.00     0.031 C 
ATOM     52  C   UNL A   1      37.922  34.206  36.759  1.00  0.00     0.029 A 
ATOM     53  C   UNL A   1      39.041  33.288  36.575  1.00  0.00     0.049 A 
ATOM     54  H   UNL A   1      39.411  32.055  34.936  1.00  0.00     0.167 HD
ATOM     55  C   UNL A   1      40.042  29.483  31.461  1.00  0.00     0.037 A 
ATOM     56  C   UNL A   1      40.035  33.090  37.462  1.00  0.00     0.037 A 
ATOM     57  C   UNL A   1      41.191  29.264  32.305  1.00  0.00     0.049 A 
ATOM     58  C   UNL A   1      41.140  32.128  37.118  1.00  0.00     0.074 A 
ATOM     59  C   UNL A   1      42.289  28.449  32.081  1.00  0.00     0.029 A 
ATOM     60  N   UNL A   1      41.387  29.859  33.545  1.00  0.00    -0.354 N 
ATOM     61  N   UNL A   1      41.303  31.407  36.036  1.00  0.00    -0.248 NA
ATOM     62  C   UNL A   1      42.206  31.960  38.116  1.00  0.00     0.031 C 
ATOM     63  C   UNL A   1      43.121  28.512  33.205  1.00  0.00     0.029 A 
ATOM     64  C   UNL A   1      42.574  29.411  34.104  1.00  0.00     0.049 A 
ATOM     65  H   UNL A   1      40.772  30.503  33.963  1.00  0.00     0.167 HD
ATOM     66  C   UNL A   1      42.497  30.722  36.209  1.00  0.00     0.074 A 
ATOM     67  C   UNL A   1      43.030  31.130  37.493  1.00  0.00     0.031 C 
ATOM     68  C   UNL A   1      43.096  29.832  35.381  1.00  0.00     0.037 A 
BRANCH  55  69
ATOM     69  C   UNL A   1      39.946  28.692  30.181  1.00  0.00     0.064 A 
ATOM     70  C   UNL A   1      40.477  29.175  28.975  1.00  0.00     0.173 A 
ATOM     71  C   UNL A   1      39.357  27.417  30.167  1.00  0.00     0.173 A 
ATOM     72  F   UNL A   1      41.055  30.385  28.929  1.00  0.00    -0.203 F 
ATOM     73  C   UNL A   1      40.384  28.435  27.798  1.00  0.00     0.198 A 
ATOM     74  C   UNL A   1      39.295  26.665  28.994  1.00  0.00     0.198 A 
ATOM     75  F   UNL A   1      38.849  26.892  31.292  1.00  0.00    -0.203 F 
ATOM     76  F   UNL A   1      40.850  28.943  26.649  1.00  0.00    -0.200 F 
ATOM     77  C   UNL A   1      39.798  27.178  27.809  1.00  0.00     0.200 A 
ATOM     78  F   UNL A   1      38.745  25.442  29.011  1.00  0.00    -0.200 F 
ATOM     79  F   UNL A   1      39.711  26.466  26.677  1.00  0.00    -0.200 F 
ENDBRANCH  55  69
BRANCH  56  80
ATOM     80  C   UNL A   1      40.051  33.846  38.745  1.00  0.00     0.064 A 
ATOM     81  C   UNL A   1      40.798  35.025  38.879  1.00  0.00     0.173 A 
ATOM     82  C   UNL A   1      39.321  33.410  39.861  1.00  0.00     0.173 A 
ATOM     83  F   UNL A   1      41.530  35.475  37.849  1.00  0.00    -0.203 F 
ATOM     84  C   UNL A   1      40.833  35.724  40.085  1.00  0.00     0.198 A 
ATOM     85  C   UNL A   1      39.331  34.127  41.055  1.00  0.00     0.198 A 
ATOM     86  F   UNL A   1      38.583  32.292  39.786  1.00  0.00    -0.203 F 
ATOM     87  F   UNL A   1      41.596  36.820  40.199  1.00  0.00    -0.200 F 
ATOM     88  C   UNL A   1      40.094  35.279  41.170  1.00  0.00     0.200 A 
ATOM     89  F   UNL A   1      38.601  33.703  42.095  1.00  0.00    -0.200 F 
ATOM     90  F   UNL A   1      40.123  35.955  42.326  1.00  0.00    -0.200 F 
ENDBRANCH  56  80
BRANCH  68  91
ATOM     91  C   UNL A   1      44.415  29.263  35.821  1.00  0.00     0.064 A 
ATOM     92  C   UNL A   1      44.497  28.083  36.575  1.00  0.00     0.173 A 
ATOM     93  C   UNL A   1      45.616  29.890  35.453  1.00  0.00     0.173 A 
ATOM     94  F   UNL A   1      43.379  27.453  36.967  1.00  0.00    -0.203 F 
ATOM     95  C   UNL A   1      45.730  27.566  36.966  1.00  0.00     0.198 A 
ATOM     96  C   UNL A   1      46.847  29.354  35.816  1.00  0.00     0.198 A 
ATOM     97  F   UNL A   1      45.595  31.020  34.728  1.00  0.00    -0.203 F 
ATOM     98  F   UNL A   1      45.782  26.466  37.728  1.00  0.00    -0.200 F 
ATOM     99  C   UNL A   1      46.903  28.197  36.579  1.00  0.00     0.200 A 
ATOM    100  F   UNL A   1      47.981  29.956  35.430  1.00  0.00    -0.200 F 
ATOM    101  F   UNL A   1      48.089  27.693  36.949  1.00  0.00    -0.200 F 
ENDBRANCH  68  91
ENDBRANCH  42  43
ENDBRANCH  34  37
ENDBRANCH  32  33
ENDBRANCH  31  32
ENDBRANCH  30  31
ENDBRANCH   1  30
TORSDOF 15
ENDMDL
MODEL 2
REMARK VINA RESULT:     -13.9      0.647      7.037
REMARK SMILES O=C(COc1ccccc1/C=C1/SC(=S)N(c2ccc(F)c(Cl)c2)C1=O)NCCCCNC(=O)c1ccc(-c2c3nc(c(-c4c(F)c(F)c(F)c(F)c4F)c4ccc([nH]4)c(-c4c(F)c(F)c(F)c(F)c4F)c4nc(c(-c5c(F)c(F)c(F)c(F)c5F)c5ccc2[nH]5)C=C4)C=C3)cc1
REMARK SMILES IDX 28 1 27 2 1 3 2 4 3 6 4 7 5 8 6 9 10 10 7 11 9 12 8 13 11 14
REMARK SMILES IDX 12 15 13 16 25 17 14 18 16 19 26 20 15 21 17 22 18 23 24 24
REMARK SMILES IDX 19 25 22 26 20 27 23 28 21 29 29 30 30 31 31 32 32 33 33 34
REMARK SMILES IDX 34 36 35 37 36 38 97 39 37 40 96 41 38 42 39 43 40 44 90 45
REMARK SMILES IDX 41 46 95 47 89 48 91 49 42 50 94 51 88 52 87 53 43 55 75 56
REMARK SMILES IDX 55 57 74 58 56 59 59 60 73 61 92 62 57 63 58 64 72 66 93 67
REMARK SMILES IDX 60 68 44 69 45 70 53 71 46 72 47 73 51 74 54 75 48 76 49 77
REMARK SMILES IDX 52 78 50 79 76 80 77 81 85 82 78 83 79 84 83 85 86 86 80 87
REMARK SMILES IDX 81 88 84 89 82 90 61 91 62 92 70 93 63 94 64 95 68 96 71 97
REMARK SMILES IDX 65 98 66 99 69 100 67 101
REMARK H PARENT 27 5 32 35 91 54 59 65
REMARK Flexibility Score: inf
ROOT
ATOM      1  C   UNL A   1      34.469  32.141  28.376  1.00  0.00     0.116 C 
ENDROOT
BRANCH   1   2
ATOM      2  N   UNL A   1      33.431  30.868  27.044  1.00  0.00    -0.353 N 
ATOM      3  O   UNL A   1      31.808  29.047  27.502  1.00  0.00    -0.271 OA
ATOM      4  C   UNL A   1      32.404  29.815  26.753  1.00  0.00     0.257 C 
ATOM      5  H   UNL A   1      33.824  31.070  26.165  1.00  0.00     0.163 HD
BRANCH   4   6
ATOM      6  C   UNL A   1      32.065  29.765  25.267  1.00  0.00     0.329 C 
BRANCH   6   7
ATOM      7  O   UNL A   1      31.461  28.537  24.922  1.00  0.00    -0.483 OA
BRANCH   7   8
ATOM      8  C   UNL A   1      32.185  27.712  24.089  1.00  0.00     0.127 A 
ATOM      9  C   UNL A   1      33.003  28.460  23.232  1.00  0.00     0.047 A 
ATOM     10  C   UNL A   1      31.966  26.322  23.867  1.00  0.00     0.018 A 
ATOM     11  C   UNL A   1      33.560  27.876  22.103  1.00  0.00     0.004 A 
ATOM     12  C   UNL A   1      32.541  25.760  22.717  1.00  0.00     0.012 A 
ATOM     13  C   UNL A   1      33.306  26.536  21.833  1.00  0.00     0.001 A 
BRANCH  10  14
ATOM     14  C   UNL A   1      31.071  25.432  24.661  1.00  0.00     0.033 C 
ATOM     15  C   UNL A   1      31.575  24.696  25.683  1.00  0.00     0.081 C 
ATOM     16  S   UNL A   1      30.803  22.557  25.906  1.00  0.00    -0.054 SA
ATOM     17  C   UNL A   1      33.531  24.741  25.861  1.00  0.00     0.270 C 
ATOM     18  C   UNL A   1      32.993  21.674  25.859  1.00  0.00     0.152 C 
ATOM     19  N   UNL A   1      34.184  23.060  25.845  1.00  0.00    -0.261 N 
ATOM     20  O   UNL A   1      34.183  25.765  26.005  1.00  0.00    -0.268 OA
ATOM     21  S   UNL A   1      33.240  20.034  25.525  1.00  0.00    -0.051 S 
BRANCH  19  22
ATOM     22  C   UNL A   1      35.589  22.888  25.673  1.00  0.00     0.052 A 
ATOM     23  C   UNL A   1      36.530  23.840  26.089  1.00  0.00     0.030 A 
ATOM     24  C   UNL A   1      36.049  21.717  25.084  1.00  0.00     0.050 A 
ATOM     25  C   UNL A   1      37.887  23.497  26.137  1.00  0.00     0.043 A 
ATOM     26  C   UNL A   1      37.379  21.340  25.196  1.00  0.00     0.078 A 
ATOM     27  C   UNL A   1      38.289  22.219  25.760  1.00  0.00     0.141 A 
ATOM     28  Cl  UNL A   1      37.820  19.754  24.710  1.00  0.00    -0.081 Cl
ATOM     29  F   UNL A   1      39.555  21.841  25.978  1.00  0.00    -0.205 F 
ENDBRANCH  19  22
ENDBRANCH  10  14
ENDBRANCH   7   8
ENDBRANCH   6   7
ENDBRANCH   4   6
ENDBRANCH   1   2
BRANCH   1  30
ATOM     30  C   UNL A   1      34.114  33.660  29.201  1.00  0.00     0.023 C 
BRANCH  30  31
ATOM     31  C   UNL A   1      33.169  34.851  28.898  1.00  0.00     0.023 C 
BRANCH  31  32
ATOM     32  C   UNL A   1      33.313  36.166  29.694  1.00  0.00     0.116 C 
BRANCH  32  33
ATOM     33  N   UNL A   1      32.431  36.195  30.848  1.00  0.00    -0.352 N 
ATOM     34  C   UNL A   1      32.592  35.709  32.117  1.00  0.00     0.251 C 
ATOM     35  H   UNL A   1      31.567  36.641  30.688  1.00  0.00     0.163 HD
ATOM     36  O   UNL A   1      31.694  35.842  32.943  1.00  0.00    -0.269 OA
BRANCH  34  37
ATOM     37  C   UNL A   1      33.821  35.004  32.524  1.00  0.00     0.039 A 
ATOM     38  C   UNL A   1      35.054  35.618  32.292  1.00  0.00     0.014 A 
ATOM     39  C   UNL A   1      33.770  33.674  32.948  1.00  0.00     0.014 A 
ATOM     40  C   UNL A   1      36.240  34.909  32.518  1.00  0.00     0.010 A 
ATOM     41  C   UNL A   1      34.962  32.980  33.209  1.00  0.00     0.010 A 
ATOM     42  C   UNL A   1      36.213  33.589  33.007  1.00  0.00    -0.014 A 
BRANCH  42  43
ATOM     43  C   UNL A   1      37.486  32.898  33.377  1.00  0.00     0.031 A 
ATOM     44  C   UNL A   1      38.227  33.204  34.654  1.00  0.00     0.074 A 
ATOM     45  C   UNL A   1      37.996  31.988  32.521  1.00  0.00     0.049 A 
ATOM     46  N   UNL A   1      39.321  32.659  35.131  1.00  0.00    -0.248 NA
ATOM     47  C   UNL A   1      37.681  34.277  35.499  1.00  0.00     0.031 C 
ATOM     48  C   UNL A   1      37.417  31.648  31.220  1.00  0.00     0.029 A 
ATOM     49  N   UNL A   1      39.104  31.180  32.609  1.00  0.00    -0.354 N 
ATOM     50  C   UNL A   1      39.600  33.324  36.320  1.00  0.00     0.074 A 
ATOM     51  C   UNL A   1      38.585  34.346  36.468  1.00  0.00     0.031 C 
ATOM     52  C   UNL A   1      38.145  30.676  30.652  1.00  0.00     0.029 A 
ATOM     53  C   UNL A   1      39.266  30.347  31.526  1.00  0.00     0.049 A 
ATOM     54  H   UNL A   1      39.724  31.195  33.374  1.00  0.00     0.167 HD
ATOM     55  C   UNL A   1      40.596  33.091  37.212  1.00  0.00     0.037 A 
ATOM     56  C   UNL A   1      40.206  29.419  31.263  1.00  0.00     0.037 A 
ATOM     57  C   UNL A   1      41.599  32.064  37.063  1.00  0.00     0.049 A 
ATOM     58  C   UNL A   1      41.291  29.170  32.277  1.00  0.00     0.074 A 
ATOM     59  C   UNL A   1      42.611  31.707  37.938  1.00  0.00     0.029 A 
ATOM     60  N   UNL A   1      41.720  31.232  35.958  1.00  0.00    -0.354 N 
ATOM     61  N   UNL A   1      41.484  29.744  33.439  1.00  0.00    -0.248 NA
ATOM     62  C   UNL A   1      42.282  28.137  31.946  1.00  0.00     0.031 C 
ATOM     63  C   UNL A   1      43.374  30.696  37.342  1.00  0.00     0.029 A 
ATOM     64  C   UNL A   1      42.803  30.381  36.120  1.00  0.00     0.049 A 
ATOM     65  H   UNL A   1      41.124  31.246  35.174  1.00  0.00     0.167 HD
ATOM     66  C   UNL A   1      42.599  29.127  33.989  1.00  0.00     0.074 A 
ATOM     67  C   UNL A   1      43.027  28.118  33.042  1.00  0.00     0.031 C 
ATOM     68  C   UNL A   1      43.214  29.376  35.171  1.00  0.00     0.037 A 
BRANCH  55  69
ATOM     69  C   UNL A   1      40.658  33.963  38.440  1.00  0.00     0.064 A 
ATOM     70  C   UNL A   1      41.435  35.131  38.476  1.00  0.00     0.173 A 
ATOM     71  C   UNL A   1      39.897  33.654  39.580  1.00  0.00     0.173 A 
ATOM     72  F   UNL A   1      42.180  35.479  37.415  1.00  0.00    -0.203 F 
ATOM     73  C   UNL A   1      41.483  35.931  39.616  1.00  0.00     0.198 A 
ATOM     74  C   UNL A   1      39.922  34.475  40.708  1.00  0.00     0.198 A 
ATOM     75  F   UNL A   1      39.119  32.562  39.600  1.00  0.00    -0.203 F 
ATOM     76  F   UNL A   1      42.277  37.011  39.643  1.00  0.00    -0.200 F 
ATOM     77  C   UNL A   1      40.723  35.605  40.729  1.00  0.00     0.200 A 
ATOM     78  F   UNL A   1      39.172  34.168  41.775  1.00  0.00    -0.200 F 
ATOM     79  F   UNL A   1      40.769  36.377  41.824  1.00  0.00    -0.200 F 
ENDBRANCH  55  69
BRANCH  56  80
ATOM     80  C   UNL A   1      40.143  28.628  30.003  1.00  0.00     0.064 A 
ATOM     81  C   UNL A   1      39.484  27.392  29.959  1.00  0.00     0.173 A 
ATOM     82  C   UNL A   1      40.735  29.091  28.818  1.00  0.00     0.173 A 
ATOM     83  F   UNL A   1      38.918  26.894  31.069  1.00  0.00    -0.203 F 
ATOM     84  C   UNL A   1      39.440  26.638  28.787  1.00  0.00     0.198 A 
ATOM     85  C   UNL A   1      40.662  28.352  27.639  1.00  0.00     0.198 A 
ATOM     86  F   UNL A   1      41.372  30.271  28.802  1.00  0.00    -0.203 F 
ATOM     87  F   UNL A   1      38.847  25.437  28.787  1.00  0.00    -0.200 F 
ATOM     88  C   UNL A   1      40.023  27.122  27.626  1.00  0.00     0.200 A 
ATOM     89  F   UNL A   1      41.211  28.832  26.515  1.00  0.00    -0.200 F 
ATOM     90  F   UNL A   1      39.975  26.400  26.498  1.00  0.00    -0.200 F 
ENDBRANCH  56  80
BRANCH  68  91
ATOM     91  C   UNL A   1      44.398  28.521  35.524  1.00  0.00     0.064 A 
ATOM     92  C   UNL A   1      44.263  27.360  36.300  1.00  0.00     0.173 A 
ATOM     93  C   UNL A   1      45.678  28.849  35.051  1.00  0.00     0.173 A 
ATOM     94  F   UNL A   1      43.065  27.009  36.790  1.00  0.00    -0.203 F 
ATOM     95  C   UNL A   1      45.371  26.573  36.610  1.00  0.00     0.198 A 
ATOM     96  C   UNL A   1      46.776  28.044  35.334  1.00  0.00     0.198 A 
ATOM     97  F   UNL A   1      45.861  29.947  34.301  1.00  0.00    -0.203 F 
ATOM     98  F   UNL A   1      45.228  25.497  37.394  1.00  0.00    -0.200 F 
ATOM     99  C   UNL A   1      46.624  26.912  36.120  1.00  0.00     0.200 A 
ATOM    100  F   UNL A   1      47.984  28.363  34.849  1.00  0.00    -0.200 F 
ATOM    101  F   UNL A   1      47.687  26.149  36.412  1.00  0.00    -0.200 F 
ENDBRANCH  68  91
ENDBRANCH  42  43
ENDBRANCH  34  37
ENDBRANCH  32  33
ENDBRANCH  31  32
ENDBRANCH  30  31
ENDBRANCH   1  30
TORSDOF 15
ENDMDL
MODEL 3
REMARK VINA RESULT:     -13.4      6.739     12.012
REMARK SMILES O=C(COc1ccccc1/C=C1/SC(=S)N(c2ccc(F)c(Cl)c2)C1=O)NCCCCNC(=O)c1ccc(-c2c3nc(c(-c4c(F)c(F)c(F)c(F)c4F)c4ccc([nH]4)c(-c4c(F)c(F)c(F)c(F)c4F)c4nc(c(-c5c(F)c(F)c(F)c(F)c5F)c5ccc2[nH]5)C=C4)C=C3)cc1
REMARK SMILES IDX 28 1 27 2 1 3 2 4 3 6 4 7 5 8 6 9 10 10 7 11 9 12 8 13 11 14
REMARK SMILES IDX 12 15 13 16 25 17 14 18 16 19 26 20 15 21 17 22 18 23 24 24
REMARK SMILES IDX 19 25 22 26 20 27 23 28 21 29 29 30 30 31 31 32 32 33 33 34
REMARK SMILES IDX 34 36 35 37 36 38 97 39 37 40 96 41 38 42 39 43 40 44 90 45
REMARK SMILES IDX 41 46 95 47 89 48 91 49 42 50 94 51 88 52 87 53 43 55 75 56
REMARK SMILES IDX 55 57 74 58 56 59 59 60 73 61 92 62 57 63 58 64 72 66 93 67
REMARK SMILES IDX 60 68 44 69 45 70 53 71 46 72 47 73 51 74 54 75 48 76 49 77
REMARK SMILES IDX 52 78 50 79 76 80 77 81 85 82 78 83 79 84 83 85 86 86 80 87
REMARK SMILES IDX 81 88 84 89 82 90 61 91 62 92 70 93 63 94 64 95 68 96 71 97
REMARK SMILES IDX 65 98 66 99 69 100 67 101
REMARK H PARENT 27 5 32 35 91 54 59 65
REMARK Flexibility Score: inf
ROOT
ATOM      1  C   UNL A   1      40.365  21.602  26.696  1.00  0.00     0.116 C 
ENDROOT
BRANCH   1   2
ATOM      2  N   UNL A   1      38.485  22.118  25.876  1.00  0.00    -0.353 N 
ATOM      3  O   UNL A   1      37.133  24.182  26.136  1.00  0.00    -0.271 OA
ATOM      4  C   UNL A   1      37.379  23.097  25.619  1.00  0.00     0.257 C 
ATOM      5  H   UNL A   1      38.179  21.290  25.440  1.00  0.00     0.163 HD
BRANCH   4   6
ATOM      6  C   UNL A   1      36.466  22.621  24.494  1.00  0.00     0.329 C 
BRANCH   6   7
ATOM      7  O   UNL A   1      35.434  21.795  24.990  1.00  0.00    -0.483 OA
BRANCH   7   8
ATOM      8  C   UNL A   1      34.401  22.431  25.643  1.00  0.00     0.127 A 
ATOM      9  C   UNL A   1      34.396  22.106  27.006  1.00  0.00     0.047 A 
ATOM     10  C   UNL A   1      33.291  23.091  25.041  1.00  0.00     0.018 A 
ATOM     11  C   UNL A   1      33.275  22.354  27.784  1.00  0.00     0.004 A 
ATOM     12  C   UNL A   1      32.171  23.327  25.853  1.00  0.00     0.012 A 
ATOM     13  C   UNL A   1      32.156  22.939  27.201  1.00  0.00     0.001 A 
BRANCH  10  14
ATOM     14  C   UNL A   1      33.144  23.432  23.597  1.00  0.00     0.033 C 
ATOM     15  C   UNL A   1      33.512  24.657  23.146  1.00  0.00     0.081 C 
ATOM     16  S   UNL A   1      32.154  25.648  21.599  1.00  0.00    -0.054 SA
ATOM     17  C   UNL A   1      34.017  25.945  24.541  1.00  0.00     0.270 C 
ATOM     18  C   UNL A   1      31.931  27.593  22.919  1.00  0.00     0.152 C 
ATOM     19  N   UNL A   1      33.029  27.445  24.373  1.00  0.00    -0.261 N 
ATOM     20  O   UNL A   1      34.902  25.756  25.362  1.00  0.00    -0.268 OA
ATOM     21  S   UNL A   1      30.663  28.675  22.630  1.00  0.00    -0.051 S 
BRANCH  19  22
ATOM     22  C   UNL A   1      33.036  28.377  25.452  1.00  0.00     0.052 A 
ATOM     23  C   UNL A   1      34.028  28.388  26.442  1.00  0.00     0.030 A 
ATOM     24  C   UNL A   1      32.028  29.330  25.515  1.00  0.00     0.050 A 
ATOM     25  C   UNL A   1      34.128  29.483  27.310  1.00  0.00     0.043 A 
ATOM     26  C   UNL A   1      32.161  30.453  26.317  1.00  0.00     0.078 A 
ATOM     27  C   UNL A   1      33.235  30.544  27.186  1.00  0.00     0.141 A 
ATOM     28  Cl  UNL A   1      31.028  31.729  26.128  1.00  0.00    -0.081 Cl
ATOM     29  F   UNL A   1      33.447  31.661  27.894  1.00  0.00    -0.205 F 
ENDBRANCH  19  22
ENDBRANCH  10  14
ENDBRANCH   7   8
ENDBRANCH   6   7
ENDBRANCH   4   6
ENDBRANCH   1   2
BRANCH   1  30
ATOM     30  C   UNL A   1      41.763  20.673  26.153  1.00  0.00     0.023 C 
BRANCH  30  31
ATOM     31  C   UNL A   1      42.104  19.161  26.124  1.00  0.00     0.023 C 
BRANCH  31  32
ATOM     32  C   UNL A   1      43.579  18.706  26.162  1.00  0.00     0.116 C 
BRANCH  32  33
ATOM     33  N   UNL A   1      44.138  18.583  24.827  1.00  0.00    -0.352 N 
ATOM     34  C   UNL A   1      44.783  19.494  24.034  1.00  0.00     0.251 C 
ATOM     35  H   UNL A   1      44.033  17.691  24.421  1.00  0.00     0.163 HD
ATOM     36  O   UNL A   1      45.170  19.167  22.916  1.00  0.00    -0.269 OA
BRANCH  34  37
ATOM     37  C   UNL A   1      45.014  20.879  24.480  1.00  0.00     0.039 A 
ATOM     38  C   UNL A   1      45.571  21.093  25.743  1.00  0.00     0.014 A 
ATOM     39  C   UNL A   1      44.510  21.956  23.746  1.00  0.00     0.014 A 
ATOM     40  C   UNL A   1      45.653  22.392  26.259  1.00  0.00     0.010 A 
ATOM     41  C   UNL A   1      44.629  23.260  24.251  1.00  0.00     0.010 A 
ATOM     42  C   UNL A   1      45.210  23.498  25.509  1.00  0.00    -0.014 A 
BRANCH  42  43
ATOM     43  C   UNL A   1      45.435  24.888  26.014  1.00  0.00     0.031 A 
ATOM     44  C   UNL A   1      46.786  25.555  25.958  1.00  0.00     0.074 A 
ATOM     45  C   UNL A   1      44.394  25.550  26.559  1.00  0.00     0.049 A 
ATOM     46  N   UNL A   1      47.128  26.769  26.320  1.00  0.00    -0.248 NA
ATOM     47  C   UNL A   1      47.906  24.750  25.450  1.00  0.00     0.031 C 
ATOM     48  C   UNL A   1      43.051  24.995  26.737  1.00  0.00     0.029 A 
ATOM     49  N   UNL A   1      44.291  26.827  27.058  1.00  0.00    -0.354 N 
ATOM     50  C   UNL A   1      48.497  26.871  26.094  1.00  0.00     0.074 A 
ATOM     51  C   UNL A   1      48.931  25.578  25.607  1.00  0.00     0.031 C 
ATOM     52  C   UNL A   1      42.251  25.934  27.263  1.00  0.00     0.029 A 
ATOM     53  C   UNL A   1      43.027  27.147  27.497  1.00  0.00     0.049 A 
ATOM     54  H   UNL A   1      45.050  27.453  27.098  1.00  0.00     0.167 HD
ATOM     55  C   UNL A   1      49.309  27.946  26.258  1.00  0.00     0.037 A 
ATOM     56  C   UNL A   1      42.543  28.287  28.025  1.00  0.00     0.037 A 
ATOM     57  C   UNL A   1      48.868  29.235  26.734  1.00  0.00     0.049 A 
ATOM     58  C   UNL A   1      43.461  29.469  28.181  1.00  0.00     0.074 A 
ATOM     59  C   UNL A   1      49.598  30.403  26.876  1.00  0.00     0.029 A 
ATOM     60  N   UNL A   1      47.576  29.522  27.155  1.00  0.00    -0.354 N 
ATOM     61  N   UNL A   1      44.731  29.576  27.873  1.00  0.00    -0.248 NA
ATOM     62  C   UNL A   1      42.877  30.692  28.749  1.00  0.00     0.031 C 
ATOM     63  C   UNL A   1      48.763  31.381  27.430  1.00  0.00     0.029 A 
ATOM     64  C   UNL A   1      47.496  30.841  27.578  1.00  0.00     0.049 A 
ATOM     65  H   UNL A   1      46.828  28.882  27.154  1.00  0.00     0.167 HD
ATOM     66  C   UNL A   1      45.091  30.879  28.184  1.00  0.00     0.074 A 
ATOM     67  C   UNL A   1      43.899  31.533  28.685  1.00  0.00     0.031 C 
ATOM     68  C   UNL A   1      46.300  31.480  28.069  1.00  0.00     0.037 A 
BRANCH  55  69
ATOM     69  C   UNL A   1      50.768  27.782  25.918  1.00  0.00     0.064 A 
ATOM     70  C   UNL A   1      51.241  27.939  24.606  1.00  0.00     0.173 A 
ATOM     71  C   UNL A   1      51.714  27.510  26.921  1.00  0.00     0.173 A 
ATOM     72  F   UNL A   1      50.385  28.203  23.607  1.00  0.00    -0.203 F 
ATOM     73  C   UNL A   1      52.593  27.786  24.303  1.00  0.00     0.198 A 
ATOM     74  C   UNL A   1      53.070  27.390  26.619  1.00  0.00     0.198 A 
ATOM     75  F   UNL A   1      51.326  27.369  28.197  1.00  0.00    -0.203 F 
ATOM     76  F   UNL A   1      53.010  27.886  23.033  1.00  0.00    -0.200 F 
ATOM     77  C   UNL A   1      53.507  27.517  25.310  1.00  0.00     0.200 A 
ATOM     78  F   UNL A   1      53.954  27.150  27.598  1.00  0.00    -0.200 F 
ATOM     79  F   UNL A   1      54.808  27.374  25.018  1.00  0.00    -0.200 F 
ENDBRANCH  55  69
BRANCH  56  80
ATOM     80  C   UNL A   1      41.107  28.380  28.409  1.00  0.00     0.064 A 
ATOM     81  C   UNL A   1      40.153  28.892  27.519  1.00  0.00     0.173 A 
ATOM     82  C   UNL A   1      40.658  27.958  29.669  1.00  0.00     0.173 A 
ATOM     83  F   UNL A   1      40.532  29.328  26.308  1.00  0.00    -0.203 F 
ATOM     84  C   UNL A   1      38.811  29.001  27.882  1.00  0.00     0.198 A 
ATOM     85  C   UNL A   1      39.311  28.037  30.020  1.00  0.00     0.198 A 
ATOM     86  F   UNL A   1      41.527  27.453  30.558  1.00  0.00    -0.203 F 
ATOM     87  F   UNL A   1      37.930  29.540  27.028  1.00  0.00    -0.200 F 
ATOM     88  C   UNL A   1      38.390  28.566  29.129  1.00  0.00     0.200 A 
ATOM     89  F   UNL A   1      38.906  27.599  31.219  1.00  0.00    -0.200 F 
ATOM     90  F   UNL A   1      37.099  28.665  29.475  1.00  0.00    -0.200 F 
ENDBRANCH  56  80
BRANCH  68  91
ATOM     91  C   UNL A   1      46.390  32.928  28.458  1.00  0.00     0.064 A 
ATOM     92  C   UNL A   1      46.726  33.323  29.762  1.00  0.00     0.173 A 
ATOM     93  C   UNL A   1      46.168  33.935  27.505  1.00  0.00     0.173 A 
ATOM     94  F   UNL A   1      46.932  32.402  30.714  1.00  0.00    -0.203 F 
ATOM     95  C   UNL A   1      46.814  34.671  30.102  1.00  0.00     0.198 A 
ATOM     96  C   UNL A   1      46.288  35.280  27.840  1.00  0.00     0.198 A 
ATOM     97  F   UNL A   1      45.847  33.612  26.243  1.00  0.00    -0.203 F 
ATOM     98  F   UNL A   1      47.087  35.025  31.364  1.00  0.00    -0.200 F 
ATOM     99  C   UNL A   1      46.602  35.647  29.139  1.00  0.00     0.200 A 
ATOM    100  F   UNL A   1      46.099  36.222  26.905  1.00  0.00    -0.200 F 
ATOM    101  F   UNL A   1      46.695  36.943  29.467  1.00  0.00    -0.200 F 
ENDBRANCH  68  91
ENDBRANCH  42  43
ENDBRANCH  34  37
ENDBRANCH  32  33
ENDBRANCH  31  32
ENDBRANCH  30  31
ENDBRANCH   1  30
TORSDOF 15
ENDMDL
