MODEL 1
REMARK VINA RESULT:     -12.2      0.000      0.000
REMARK SMILES COc1ccc(CCn2cc(C(=O)NCCCCNC(=O)c3ccc(-c4c5nc(c(-c6c(F)c(F)c(F)c(F)c6F)c6ccc([nH]6)c(-c6c(F)c(F)c(F)c(F)c6F)c6nc(c(-c7c(F)c(F)c(F)c(F)c7F)c7ccc4[nH]7)C=C6)C=C5)cc3)ccc2=O)cc1OC
REMARK SMILES IDX 15 1 14 2 12 3 13 4 11 6 9 7 10 8 87 9 86 10 88 11 85 12
REMARK SMILES IDX 8 13 7 14 6 15 3 16 4 17 90 18 5 19 89 20 2 21 1 22 91 23
REMARK SMILES IDX 92 24 16 25 17 26 18 27 19 28 20 29 21 31 22 32 23 33 84 34
REMARK SMILES IDX 24 35 83 36 25 37 26 38 27 39 77 40 28 41 82 42 76 43 78 44
REMARK SMILES IDX 29 45 81 46 75 47 74 48 30 50 62 51 42 52 61 53 43 54 46 55
REMARK SMILES IDX 60 56 79 57 44 58 45 59 59 61 80 62 47 63 31 64 32 65 40 66
REMARK SMILES IDX 33 67 34 68 38 69 41 70 35 71 36 72 39 73 37 74 63 75 64 76
REMARK SMILES IDX 72 77 65 78 66 79 70 80 73 81 67 82 68 83 71 84 69 85 48 86
REMARK SMILES IDX 49 87 57 88 50 89 51 90 55 91 58 92 52 93 53 94 56 95 54 96
REMARK H PARENT 14 5 19 30 78 49 46 60
REMARK Flexibility Score: inf
ROOT
ATOM      1  C   UNL A   1      32.721  29.958  26.511  1.00  0.00     0.116 C 
ENDROOT
BRANCH   1   2
ATOM      2  N   UNL A   1      32.109  28.760  27.056  1.00  0.00    -0.352 N 
ATOM      3  C   UNL A   1      31.542  27.663  26.482  1.00  0.00     0.252 C 
ATOM      4  O   UNL A   1      31.064  26.814  27.236  1.00  0.00    -0.269 OA
ATOM      5  H   UNL A   1      32.104  28.736  28.040  1.00  0.00     0.163 HD
BRANCH   3   6
ATOM      6  C   UNL A   1      31.605  27.400  25.005  1.00  0.00     0.056 A 
ATOM      7  N   UNL A   1      32.546  26.356  23.077  1.00  0.00    -0.314 N 
ATOM      8  C   UNL A   1      32.652  26.837  24.377  1.00  0.00     0.103 A 
ATOM      9  C   UNL A   1      31.476  26.705  22.247  1.00  0.00     0.250 A 
ATOM     10  C   UNL A   1      30.389  27.483  22.893  1.00  0.00     0.072 A 
ATOM     11  O   UNL A   1      31.368  26.392  21.066  1.00  0.00    -0.269 OA
ATOM     12  C   UNL A   1      30.449  27.763  24.200  1.00  0.00     0.021 A 
BRANCH   7  13
ATOM     13  C   UNL A   1      33.509  25.376  22.562  1.00  0.00     0.130 C 
BRANCH  13  14
ATOM     14  C   UNL A   1      34.328  24.555  23.588  1.00  0.00     0.057 C 
BRANCH  14  15
ATOM     15  C   UNL A   1      34.006  23.101  23.900  1.00  0.00    -0.042 A 
ATOM     16  C   UNL A   1      33.565  20.464  24.846  1.00  0.00     0.160 A 
ATOM     17  C   UNL A   1      32.494  21.273  24.462  1.00  0.00     0.051 A 
ATOM     18  C   UNL A   1      34.871  20.931  24.699  1.00  0.00     0.160 A 
ATOM     19  C   UNL A   1      32.715  22.569  23.975  1.00  0.00     0.008 A 
ATOM     20  C   UNL A   1      35.071  22.253  24.262  1.00  0.00     0.054 A 
BRANCH  16  21
ATOM     21  O   UNL A   1      33.270  19.205  25.296  1.00  0.00    -0.493 OA
ATOM     22  C   UNL A   1      32.496  18.479  24.341  1.00  0.00     0.278 C 
ENDBRANCH  16  21
BRANCH  18  23
ATOM     23  O   UNL A   1      36.038  20.267  24.966  1.00  0.00    -0.493 OA
ATOM     24  C   UNL A   1      37.177  21.040  25.323  1.00  0.00     0.278 C 
ENDBRANCH  18  23
ENDBRANCH  14  15
ENDBRANCH  13  14
ENDBRANCH   7  13
ENDBRANCH   3   6
ENDBRANCH   1   2
BRANCH   1  25
ATOM     25  C   UNL A   1      31.650  30.871  25.914  1.00  0.00     0.023 C 
BRANCH  25  26
ATOM     26  C   UNL A   1      31.362  32.095  26.785  1.00  0.00     0.023 C 
BRANCH  26  27
ATOM     27  C   UNL A   1      32.610  32.815  27.284  1.00  0.00     0.116 C 
BRANCH  27  28
ATOM     28  N   UNL A   1      32.376  34.214  27.609  1.00  0.00    -0.352 N 
ATOM     29  C   UNL A   1      33.011  34.979  28.558  1.00  0.00     0.251 C 
ATOM     30  H   UNL A   1      31.677  34.667  27.086  1.00  0.00     0.163 HD
ATOM     31  O   UNL A   1      32.629  36.117  28.811  1.00  0.00    -0.269 OA
BRANCH  29  32
ATOM     32  C   UNL A   1      34.141  34.390  29.299  1.00  0.00     0.039 A 
ATOM     33  C   UNL A   1      33.881  33.603  30.421  1.00  0.00     0.014 A 
ATOM     34  C   UNL A   1      35.448  34.562  28.834  1.00  0.00     0.014 A 
ATOM     35  C   UNL A   1      34.931  32.926  31.043  1.00  0.00     0.010 A 
ATOM     36  C   UNL A   1      36.480  33.832  29.409  1.00  0.00     0.010 A 
ATOM     37  C   UNL A   1      36.231  33.007  30.518  1.00  0.00    -0.014 A 
BRANCH  37  38
ATOM     38  C   UNL A   1      37.357  32.248  31.116  1.00  0.00     0.031 A 
ATOM     39  C   UNL A   1      37.852  32.614  32.486  1.00  0.00     0.074 A 
ATOM     40  C   UNL A   1      37.984  31.296  30.399  1.00  0.00     0.049 A 
ATOM     41  N   UNL A   1      38.892  32.164  33.140  1.00  0.00    -0.248 NA
ATOM     42  C   UNL A   1      37.093  33.651  33.204  1.00  0.00     0.031 C 
ATOM     43  C   UNL A   1      37.623  30.883  29.041  1.00  0.00     0.029 A 
ATOM     44  N   UNL A   1      39.068  30.514  30.706  1.00  0.00    -0.354 N 
ATOM     45  C   UNL A   1      38.925  32.876  34.331  1.00  0.00     0.074 A 
ATOM     46  C   UNL A   1      37.834  33.825  34.289  1.00  0.00     0.031 C 
ATOM     47  C   UNL A   1      38.461  29.913  28.641  1.00  0.00     0.029 A 
ATOM     48  C   UNL A   1      39.439  29.662  29.695  1.00  0.00     0.049 A 
ATOM     49  H   UNL A   1      39.537  30.559  31.572  1.00  0.00     0.167 HD
ATOM     50  C   UNL A   1      39.775  32.735  35.375  1.00  0.00     0.037 A 
ATOM     51  C   UNL A   1      40.460  28.787  29.625  1.00  0.00     0.037 A 
ATOM     52  C   UNL A   1      40.836  31.765  35.427  1.00  0.00     0.049 A 
ATOM     53  C   UNL A   1      41.387  28.644  30.803  1.00  0.00     0.074 A 
ATOM     54  C   UNL A   1      41.715  31.503  36.462  1.00  0.00     0.029 A 
ATOM     55  N   UNL A   1      41.156  30.892  34.397  1.00  0.00    -0.354 N 
ATOM     56  N   UNL A   1      41.373  29.283  31.947  1.00  0.00    -0.248 NA
ATOM     57  C   UNL A   1      42.466  27.654  30.681  1.00  0.00     0.031 C 
ATOM     58  C   UNL A   1      42.593  30.497  36.044  1.00  0.00     0.029 A 
ATOM     59  C   UNL A   1      42.229  30.100  34.767  1.00  0.00     0.049 A 
ATOM     60  H   UNL A   1      40.689  30.844  33.532  1.00  0.00     0.167 HD
ATOM     61  C   UNL A   1      42.415  28.749  32.695  1.00  0.00     0.074 A 
ATOM     62  C   UNL A   1      43.037  27.730  31.876  1.00  0.00     0.031 C 
ATOM     63  C   UNL A   1      42.818  29.073  33.947  1.00  0.00     0.037 A 
BRANCH  50  64
ATOM     64  C   UNL A   1      39.586  33.649  36.550  1.00  0.00     0.064 A 
ATOM     65  C   UNL A   1      38.784  33.285  37.643  1.00  0.00     0.173 A 
ATOM     66  C   UNL A   1      40.239  34.889  36.600  1.00  0.00     0.173 A 
ATOM     67  F   UNL A   1      38.126  32.116  37.638  1.00  0.00    -0.203 F 
ATOM     68  C   UNL A   1      38.619  34.143  38.727  1.00  0.00     0.198 A 
ATOM     69  C   UNL A   1      40.096  35.732  37.700  1.00  0.00     0.198 A 
ATOM     70  F   UNL A   1      41.021  35.284  35.583  1.00  0.00    -0.203 F 
ATOM     71  F   UNL A   1      37.805  33.796  39.734  1.00  0.00    -0.200 F 
ATOM     72  C   UNL A   1      39.280  35.361  38.759  1.00  0.00     0.200 A 
ATOM     73  F   UNL A   1      40.745  36.903  37.734  1.00  0.00    -0.200 F 
ATOM     74  F   UNL A   1      39.125  36.182  39.806  1.00  0.00    -0.200 F 
ENDBRANCH  50  64
BRANCH  51  75
ATOM     75  C   UNL A   1      40.646  27.956  28.407  1.00  0.00     0.064 A 
ATOM     76  C   UNL A   1      40.060  26.686  28.308  1.00  0.00     0.173 A 
ATOM     77  C   UNL A   1      41.418  28.405  27.324  1.00  0.00     0.173 A 
ATOM     78  F   UNL A   1      39.330  26.206  29.325  1.00  0.00    -0.203 F 
ATOM     79  C   UNL A   1      40.256  25.887  27.184  1.00  0.00     0.198 A 
ATOM     80  C   UNL A   1      41.590  27.616  26.188  1.00  0.00     0.198 A 
ATOM     81  F   UNL A   1      41.995  29.614  27.367  1.00  0.00    -0.203 F 
ATOM     82  F   UNL A   1      39.723  24.659  27.136  1.00  0.00    -0.200 F 
ATOM     83  C   UNL A   1      41.017  26.354  26.123  1.00  0.00     0.200 A 
ATOM     84  F   UNL A   1      42.315  28.076  25.160  1.00  0.00    -0.200 F 
ATOM     85  F   UNL A   1      41.204  25.587  25.040  1.00  0.00    -0.200 F 
ENDBRANCH  51  75
BRANCH  63  86
ATOM     86  C   UNL A   1      43.951  28.284  34.535  1.00  0.00     0.064 A 
ATOM     87  C   UNL A   1      45.277  28.732  34.461  1.00  0.00     0.173 A 
ATOM     88  C   UNL A   1      43.694  27.093  35.232  1.00  0.00     0.173 A 
ATOM     89  F   UNL A   1      45.575  29.856  33.793  1.00  0.00    -0.203 F 
ATOM     90  C   UNL A   1      46.310  28.004  35.050  1.00  0.00     0.198 A 
ATOM     91  C   UNL A   1      44.724  26.385  35.842  1.00  0.00     0.198 A 
ATOM     92  F   UNL A   1      42.440  26.628  35.336  1.00  0.00    -0.203 F 
ATOM     93  F   UNL A   1      47.575  28.429  34.935  1.00  0.00    -0.200 F 
ATOM     94  C   UNL A   1      46.031  26.837  35.746  1.00  0.00     0.200 A 
ATOM     95  F   UNL A   1      44.451  25.265  36.527  1.00  0.00    -0.200 F 
ATOM     96  F   UNL A   1      47.024  26.147  36.322  1.00  0.00    -0.200 F 
ENDBRANCH  63  86
ENDBRANCH  37  38
ENDBRANCH  29  32
ENDBRANCH  27  28
ENDBRANCH  26  27
ENDBRANCH  25  26
ENDBRANCH   1  25
TORSDOF 16
ENDMDL
MODEL 2
REMARK VINA RESULT:     -12.1      0.760      7.307
REMARK SMILES COc1ccc(CCn2cc(C(=O)NCCCCNC(=O)c3ccc(-c4c5nc(c(-c6c(F)c(F)c(F)c(F)c6F)c6ccc([nH]6)c(-c6c(F)c(F)c(F)c(F)c6F)c6nc(c(-c7c(F)c(F)c(F)c(F)c7F)c7ccc4[nH]7)C=C6)C=C5)cc3)ccc2=O)cc1OC
REMARK SMILES IDX 15 1 14 2 12 3 13 4 11 6 9 7 10 8 87 9 86 10 88 11 85 12
REMARK SMILES IDX 8 13 7 14 6 15 3 16 4 17 90 18 5 19 89 20 2 21 1 22 91 23
REMARK SMILES IDX 92 24 16 25 17 26 18 27 19 28 20 29 21 31 22 32 23 33 84 34
REMARK SMILES IDX 24 35 83 36 25 37 26 38 27 39 77 40 28 41 82 42 76 43 78 44
REMARK SMILES IDX 29 45 81 46 75 47 74 48 30 50 62 51 42 52 61 53 43 54 46 55
REMARK SMILES IDX 60 56 79 57 44 58 45 59 59 61 80 62 47 63 31 64 32 65 40 66
REMARK SMILES IDX 33 67 34 68 38 69 41 70 35 71 36 72 39 73 37 74 63 75 64 76
REMARK SMILES IDX 72 77 65 78 66 79 70 80 73 81 67 82 68 83 71 84 69 85 48 86
REMARK SMILES IDX 49 87 57 88 50 89 51 90 55 91 58 92 52 93 53 94 56 95 54 96
REMARK H PARENT 14 5 19 30 78 49 46 60
REMARK Flexibility Score: inf
ROOT
ATOM      1  C   UNL A   1      32.487  30.084  26.458  1.00  0.00     0.116 C 
ENDROOT
BRANCH   1   2
ATOM      2  N   UNL A   1      31.967  28.855  27.028  1.00  0.00    -0.352 N 
ATOM      3  C   UNL A   1      31.501  27.699  26.478  1.00  0.00     0.252 C 
ATOM      4  O   UNL A   1      31.082  26.835  27.250  1.00  0.00    -0.269 OA
ATOM      5  H   UNL A   1      31.946  28.858  28.012  1.00  0.00     0.163 HD
BRANCH   3   6
ATOM      6  C   UNL A   1      31.613  27.400  25.011  1.00  0.00     0.056 A 
ATOM      7  N   UNL A   1      32.607  26.300  23.142  1.00  0.00    -0.314 N 
ATOM      8  C   UNL A   1      32.674  26.811  24.434  1.00  0.00     0.103 A 
ATOM      9  C   UNL A   1      31.572  26.642  22.267  1.00  0.00     0.250 A 
ATOM     10  C   UNL A   1      30.473  27.448  22.855  1.00  0.00     0.072 A 
ATOM     11  O   UNL A   1      31.501  26.303  21.090  1.00  0.00    -0.269 OA
ATOM     12  C   UNL A   1      30.491  27.758  24.157  1.00  0.00     0.021 A 
BRANCH   7  13
ATOM     13  C   UNL A   1      33.574  25.297  22.684  1.00  0.00     0.130 C 
BRANCH  13  14
ATOM     14  C   UNL A   1      34.337  24.480  23.756  1.00  0.00     0.057 C 
BRANCH  14  15
ATOM     15  C   UNL A   1      33.804  23.162  24.297  1.00  0.00    -0.042 A 
ATOM     16  C   UNL A   1      32.517  20.743  25.030  1.00  0.00     0.160 A 
ATOM     17  C   UNL A   1      33.827  20.737  24.547  1.00  0.00     0.051 A 
ATOM     18  C   UNL A   1      31.856  21.957  25.220  1.00  0.00     0.160 A 
ATOM     19  C   UNL A   1      34.469  21.935  24.204  1.00  0.00     0.008 A 
ATOM     20  C   UNL A   1      32.495  23.144  24.818  1.00  0.00     0.054 A 
BRANCH  16  21
ATOM     21  O   UNL A   1      31.964  19.535  25.358  1.00  0.00    -0.493 OA
ATOM     22  C   UNL A   1      32.905  18.473  25.203  1.00  0.00     0.278 C 
ENDBRANCH  16  21
BRANCH  18  23
ATOM     23  O   UNL A   1      30.603  22.163  25.730  1.00  0.00    -0.493 OA
ATOM     24  C   UNL A   1      30.472  23.042  26.840  1.00  0.00     0.278 C 
ENDBRANCH  18  23
ENDBRANCH  14  15
ENDBRANCH  13  14
ENDBRANCH   7  13
ENDBRANCH   3   6
ENDBRANCH   1   2
BRANCH   1  25
ATOM     25  C   UNL A   1      31.349  30.910  25.858  1.00  0.00     0.023 C 
BRANCH  25  26
ATOM     26  C   UNL A   1      31.196  32.278  26.524  1.00  0.00     0.023 C 
BRANCH  26  27
ATOM     27  C   UNL A   1      32.486  32.827  27.126  1.00  0.00     0.116 C 
BRANCH  27  28
ATOM     28  N   UNL A   1      32.339  34.167  27.675  1.00  0.00    -0.352 N 
ATOM     29  C   UNL A   1      33.100  34.771  28.647  1.00  0.00     0.251 C 
ATOM     30  H   UNL A   1      31.603  34.706  27.307  1.00  0.00     0.163 HD
ATOM     31  O   UNL A   1      32.790  35.866  29.104  1.00  0.00    -0.269 OA
BRANCH  29  32
ATOM     32  C   UNL A   1      34.283  34.057  29.161  1.00  0.00     0.039 A 
ATOM     33  C   UNL A   1      35.546  34.394  28.671  1.00  0.00     0.014 A 
ATOM     34  C   UNL A   1      34.141  33.108  30.177  1.00  0.00     0.014 A 
ATOM     35  C   UNL A   1      36.681  33.827  29.251  1.00  0.00     0.010 A 
ATOM     36  C   UNL A   1      35.273  32.600  30.802  1.00  0.00     0.010 A 
ATOM     37  C   UNL A   1      36.553  32.955  30.345  1.00  0.00    -0.014 A 
BRANCH  37  38
ATOM     38  C   UNL A   1      37.742  32.386  31.026  1.00  0.00     0.031 A 
ATOM     39  C   UNL A   1      38.521  31.286  30.363  1.00  0.00     0.074 A 
ATOM     40  C   UNL A   1      38.068  32.798  32.266  1.00  0.00     0.049 A 
ATOM     41  N   UNL A   1      39.511  30.571  30.832  1.00  0.00    -0.248 NA
ATOM     42  C   UNL A   1      38.106  30.917  29.000  1.00  0.00     0.031 C 
ATOM     43  C   UNL A   1      37.362  33.827  33.031  1.00  0.00     0.029 A 
ATOM     44  N   UNL A   1      39.068  32.386  33.110  1.00  0.00    -0.354 N 
ATOM     45  C   UNL A   1      39.821  29.657  29.834  1.00  0.00     0.074 A 
ATOM     46  C   UNL A   1      38.881  29.870  28.756  1.00  0.00     0.031 C 
ATOM     47  C   UNL A   1      37.962  33.977  34.223  1.00  0.00     0.029 A 
ATOM     48  C   UNL A   1      39.068  33.030  34.323  1.00  0.00     0.049 A 
ATOM     49  H   UNL A   1      39.726  31.692  32.869  1.00  0.00     0.167 HD
ATOM     50  C   UNL A   1      40.814  28.739  29.812  1.00  0.00     0.037 A 
ATOM     51  C   UNL A   1      39.865  32.866  35.396  1.00  0.00     0.037 A 
ATOM     52  C   UNL A   1      41.770  28.555  30.872  1.00  0.00     0.049 A 
ATOM     53  C   UNL A   1      40.968  31.842  35.341  1.00  0.00     0.074 A 
ATOM     54  C   UNL A   1      42.849  27.692  30.921  1.00  0.00     0.029 A 
ATOM     55  N   UNL A   1      41.760  29.256  32.069  1.00  0.00    -0.354 N 
ATOM     56  N   UNL A   1      41.288  31.023  34.370  1.00  0.00    -0.248 NA
ATOM     57  C   UNL A   1      41.824  31.725  36.531  1.00  0.00     0.031 C 
ATOM     58  C   UNL A   1      43.471  27.842  32.165  1.00  0.00     0.029 A 
ATOM     59  C   UNL A   1      42.808  28.833  32.870  1.00  0.00     0.049 A 
ATOM     60  H   UNL A   1      41.106  29.950  32.313  1.00  0.00     0.167 HD
ATOM     61  C   UNL A   1      42.401  30.320  34.814  1.00  0.00     0.074 A 
ATOM     62  C   UNL A   1      42.704  30.814  36.140  1.00  0.00     0.031 C 
ATOM     63  C   UNL A   1      43.109  29.355  34.178  1.00  0.00     0.037 A 
BRANCH  50  64
ATOM     64  C   UNL A   1      40.922  27.866  28.596  1.00  0.00     0.064 A 
ATOM     65  C   UNL A   1      40.211  26.661  28.490  1.00  0.00     0.173 A 
ATOM     66  C   UNL A   1      41.721  28.254  27.509  1.00  0.00     0.173 A 
ATOM     67  F   UNL A   1      39.445  26.238  29.506  1.00  0.00    -0.203 F 
ATOM     68  C   UNL A   1      40.321  25.862  27.355  1.00  0.00     0.198 A 
ATOM     69  C   UNL A   1      41.804  27.467  26.363  1.00  0.00     0.198 A 
ATOM     70  F   UNL A   1      42.419  29.399  27.557  1.00  0.00    -0.203 F 
ATOM     71  F   UNL A   1      39.674  24.689  27.299  1.00  0.00    -0.200 F 
ATOM     72  C   UNL A   1      41.110  26.269  26.290  1.00  0.00     0.200 A 
ATOM     73  F   UNL A   1      42.558  27.868  25.330  1.00  0.00    -0.200 F 
ATOM     74  F   UNL A   1      41.208  25.502  25.196  1.00  0.00    -0.200 F 
ENDBRANCH  50  64
BRANCH  51  75
ATOM     75  C   UNL A   1      39.670  33.708  36.605  1.00  0.00     0.064 A 
ATOM     76  C   UNL A   1      38.805  33.301  37.631  1.00  0.00     0.173 A 
ATOM     77  C   UNL A   1      40.329  34.937  36.756  1.00  0.00     0.173 A 
ATOM     78  F   UNL A   1      38.137  32.143  37.522  1.00  0.00    -0.203 F 
ATOM     79  C   UNL A   1      38.591  34.099  38.752  1.00  0.00     0.198 A 
ATOM     80  C   UNL A   1      40.136  35.722  37.892  1.00  0.00     0.198 A 
ATOM     81  F   UNL A   1      41.171  35.369  35.806  1.00  0.00    -0.203 F 
ATOM     82  F   UNL A   1      37.724  33.708  39.695  1.00  0.00    -0.200 F 
ATOM     83  C   UNL A   1      39.260  35.307  38.884  1.00  0.00     0.200 A 
ATOM     84  F   UNL A   1      40.793  36.882  38.021  1.00  0.00    -0.200 F 
ATOM     85  F   UNL A   1      39.055  36.075  39.963  1.00  0.00    -0.200 F 
ENDBRANCH  51  75
BRANCH  63  86
ATOM     86  C   UNL A   1      44.313  28.804  34.882  1.00  0.00     0.064 A 
ATOM     87  C   UNL A   1      44.236  27.663  35.693  1.00  0.00     0.173 A 
ATOM     88  C   UNL A   1      45.572  29.395  34.693  1.00  0.00     0.173 A 
ATOM     89  F   UNL A   1      43.053  27.071  35.917  1.00  0.00    -0.203 F 
ATOM     90  C   UNL A   1      45.375  27.144  36.304  1.00  0.00     0.198 A 
ATOM     91  C   UNL A   1      46.711  28.856  35.282  1.00  0.00     0.198 A 
ATOM     92  F   UNL A   1      45.698  30.484  33.920  1.00  0.00    -0.203 F 
ATOM     93  F   UNL A   1      45.273  26.075  37.106  1.00  0.00    -0.200 F 
ATOM     94  C   UNL A   1      46.612  27.735  36.091  1.00  0.00     0.200 A 
ATOM     95  F   UNL A   1      47.908  29.420  35.063  1.00  0.00    -0.200 F 
ATOM     96  F   UNL A   1      47.707  27.225  36.670  1.00  0.00    -0.200 F 
ENDBRANCH  63  86
ENDBRANCH  37  38
ENDBRANCH  29  32
ENDBRANCH  27  28
ENDBRANCH  26  27
ENDBRANCH  25  26
ENDBRANCH   1  25
TORSDOF 16
ENDMDL
MODEL 3
REMARK VINA RESULT:     -11.9      0.749      7.239
REMARK SMILES COc1ccc(CCn2cc(C(=O)NCCCCNC(=O)c3ccc(-c4c5nc(c(-c6c(F)c(F)c(F)c(F)c6F)c6ccc([nH]6)c(-c6c(F)c(F)c(F)c(F)c6F)c6nc(c(-c7c(F)c(F)c(F)c(F)c7F)c7ccc4[nH]7)C=C6)C=C5)cc3)ccc2=O)cc1OC
REMARK SMILES IDX 15 1 14 2 12 3 13 4 11 6 9 7 10 8 87 9 86 10 88 11 85 12
REMARK SMILES IDX 8 13 7 14 6 15 3 16 4 17 90 18 5 19 89 20 2 21 1 22 91 23
REMARK SMILES IDX 92 24 16 25 17 26 18 27 19 28 20 29 21 31 22 32 23 33 84 34
REMARK SMILES IDX 24 35 83 36 25 37 26 38 27 39 77 40 28 41 82 42 76 43 78 44
REMARK SMILES IDX 29 45 81 46 75 47 74 48 30 50 62 51 42 52 61 53 43 54 46 55
REMARK SMILES IDX 60 56 79 57 44 58 45 59 59 61 80 62 47 63 31 64 32 65 40 66
REMARK SMILES IDX 33 67 34 68 38 69 41 70 35 71 36 72 39 73 37 74 63 75 64 76
REMARK SMILES IDX 72 77 65 78 66 79 70 80 73 81 67 82 68 83 71 84 69 85 48 86
REMARK SMILES IDX 49 87 57 88 50 89 51 90 55 91 58 92 52 93 53 94 56 95 54 96
REMARK H PARENT 14 5 19 30 78 49 46 60
REMARK Flexibility Score: inf
ROOT
ATOM      1  C   UNL A   1      32.769  29.438  26.903  1.00  0.00     0.116 C 
ENDROOT
BRANCH   1   2
ATOM      2  N   UNL A   1      31.842  28.360  27.191  1.00  0.00    -0.352 N 
ATOM      3  C   UNL A   1      31.282  27.384  26.422  1.00  0.00     0.252 C 
ATOM      4  O   UNL A   1      30.482  26.624  26.969  1.00  0.00    -0.269 OA
ATOM      5  H   UNL A   1      31.561  28.326  28.134  1.00  0.00     0.163 HD
BRANCH   3   6
ATOM      6  C   UNL A   1      31.708  27.129  25.005  1.00  0.00     0.056 A 
ATOM      7  N   UNL A   1      32.732  25.805  23.306  1.00  0.00    -0.314 N 
ATOM      8  C   UNL A   1      32.595  26.190  24.635  1.00  0.00     0.103 A 
ATOM      9  C   UNL A   1      32.209  26.571  22.259  1.00  0.00     0.250 A 
ATOM     10  C   UNL A   1      31.366  27.723  22.665  1.00  0.00     0.072 A 
ATOM     11  O   UNL A   1      32.373  26.340  21.065  1.00  0.00    -0.269 OA
ATOM     12  C   UNL A   1      31.108  27.944  23.959  1.00  0.00     0.021 A 
BRANCH   7  13
ATOM     13  C   UNL A   1      33.348  24.519  22.959  1.00  0.00     0.130 C 
BRANCH  13  14
ATOM     14  C   UNL A   1      32.417  23.296  22.771  1.00  0.00     0.057 C 
BRANCH  14  15
ATOM     15  C   UNL A   1      32.812  21.902  23.235  1.00  0.00    -0.042 A 
ATOM     16  C   UNL A   1      33.452  19.431  24.471  1.00  0.00     0.160 A 
ATOM     17  C   UNL A   1      32.452  19.506  23.500  1.00  0.00     0.051 A 
ATOM     18  C   UNL A   1      34.194  20.570  24.789  1.00  0.00     0.160 A 
ATOM     19  C   UNL A   1      32.151  20.724  22.876  1.00  0.00     0.008 A 
ATOM     20  C   UNL A   1      33.840  21.794  24.194  1.00  0.00     0.054 A 
BRANCH  16  21
ATOM     21  O   UNL A   1      33.699  18.203  25.024  1.00  0.00    -0.493 OA
ATOM     22  C   UNL A   1      34.637  17.461  24.245  1.00  0.00     0.278 C 
ENDBRANCH  16  21
BRANCH  18  23
ATOM     23  O   UNL A   1      35.239  20.676  25.666  1.00  0.00    -0.493 OA
ATOM     24  C   UNL A   1      36.487  21.133  25.161  1.00  0.00     0.278 C 
ENDBRANCH  18  23
ENDBRANCH  14  15
ENDBRANCH  13  14
ENDBRANCH   7  13
ENDBRANCH   3   6
ENDBRANCH   1   2
BRANCH   1  25
ATOM     25  C   UNL A   1      32.080  30.513  26.061  1.00  0.00     0.023 C 
BRANCH  25  26
ATOM     26  C   UNL A   1      31.661  31.731  26.885  1.00  0.00     0.023 C 
BRANCH  26  27
ATOM     27  C   UNL A   1      32.824  32.598  27.356  1.00  0.00     0.116 C 
BRANCH  27  28
ATOM     28  N   UNL A   1      32.449  33.984  27.595  1.00  0.00    -0.352 N 
ATOM     29  C   UNL A   1      32.987  34.861  28.506  1.00  0.00     0.251 C 
ATOM     30  H   UNL A   1      31.719  34.336  27.036  1.00  0.00     0.163 HD
ATOM     31  O   UNL A   1      32.493  35.969  28.685  1.00  0.00    -0.269 OA
BRANCH  29  32
ATOM     32  C   UNL A   1      34.155  34.429  29.295  1.00  0.00     0.039 A 
ATOM     33  C   UNL A   1      33.948  33.793  30.520  1.00  0.00     0.014 A 
ATOM     34  C   UNL A   1      35.445  34.593  28.783  1.00  0.00     0.014 A 
ATOM     35  C   UNL A   1      35.039  33.256  31.206  1.00  0.00     0.010 A 
ATOM     36  C   UNL A   1      36.518  33.994  29.430  1.00  0.00     0.010 A 
ATOM     37  C   UNL A   1      36.325  33.319  30.647  1.00  0.00    -0.014 A 
BRANCH  37  38
ATOM     38  C   UNL A   1      37.494  32.700  31.319  1.00  0.00     0.031 A 
ATOM     39  C   UNL A   1      38.224  31.573  30.647  1.00  0.00     0.074 A 
ATOM     40  C   UNL A   1      37.843  33.093  32.559  1.00  0.00     0.049 A 
ATOM     41  N   UNL A   1      39.187  30.817  31.108  1.00  0.00    -0.248 NA
ATOM     42  C   UNL A   1      37.787  31.227  29.284  1.00  0.00     0.031 C 
ATOM     43  C   UNL A   1      37.182  34.146  33.332  1.00  0.00     0.029 A 
ATOM     44  N   UNL A   1      38.830  32.637  33.395  1.00  0.00    -0.354 N 
ATOM     45  C   UNL A   1      39.455  29.895  30.104  1.00  0.00     0.074 A 
ATOM     46  C   UNL A   1      38.519  30.151  29.032  1.00  0.00     0.031 C 
ATOM     47  C   UNL A   1      37.794  34.267  34.521  1.00  0.00     0.029 A 
ATOM     48  C   UNL A   1      38.862  33.276  34.611  1.00  0.00     0.049 A 
ATOM     49  H   UNL A   1      39.458  31.919  33.148  1.00  0.00     0.167 HD
ATOM     50  C   UNL A   1      40.410  28.938  30.072  1.00  0.00     0.037 A 
ATOM     51  C   UNL A   1      39.658  33.075  35.679  1.00  0.00     0.037 A 
ATOM     52  C   UNL A   1      41.363  28.712  31.126  1.00  0.00     0.049 A 
ATOM     53  C   UNL A   1      40.718  32.008  35.614  1.00  0.00     0.074 A 
ATOM     54  C   UNL A   1      42.407  27.806  31.166  1.00  0.00     0.029 A 
ATOM     55  N   UNL A   1      41.388  29.407  32.327  1.00  0.00    -0.354 N 
ATOM     56  N   UNL A   1      41.000  31.181  34.638  1.00  0.00    -0.248 NA
ATOM     57  C   UNL A   1      41.575  31.852  36.798  1.00  0.00     0.031 C 
ATOM     58  C   UNL A   1      43.042  27.925  32.407  1.00  0.00     0.029 A 
ATOM     59  C   UNL A   1      42.422  28.939  33.120  1.00  0.00     0.049 A 
ATOM     60  H   UNL A   1      40.764  30.125  32.577  1.00  0.00     0.167 HD
ATOM     61  C   UNL A   1      42.086  30.432  35.072  1.00  0.00     0.074 A 
ATOM     62  C   UNL A   1      42.416  30.907  36.399  1.00  0.00     0.031 C 
ATOM     63  C   UNL A   1      42.751  29.442  34.429  1.00  0.00     0.037 A 
BRANCH  50  64
ATOM     64  C   UNL A   1      40.477  28.066  28.852  1.00  0.00     0.064 A 
ATOM     65  C   UNL A   1      39.773  26.855  28.774  1.00  0.00     0.173 A 
ATOM     66  C   UNL A   1      41.226  28.463  27.734  1.00  0.00     0.173 A 
ATOM     67  F   UNL A   1      39.054  26.424  29.821  1.00  0.00    -0.203 F 
ATOM     68  C   UNL A   1      39.844  26.057  27.635  1.00  0.00     0.198 A 
ATOM     69  C   UNL A   1      41.269  27.678  26.585  1.00  0.00     0.198 A 
ATOM     70  F   UNL A   1      41.914  29.615  27.755  1.00  0.00    -0.203 F 
ATOM     71  F   UNL A   1      39.207  24.878  27.605  1.00  0.00    -0.200 F 
ATOM     72  C   UNL A   1      40.584  26.473  26.539  1.00  0.00     0.200 A 
ATOM     73  F   UNL A   1      41.976  28.086  25.522  1.00  0.00    -0.200 F 
ATOM     74  F   UNL A   1      40.646  25.707  25.441  1.00  0.00    -0.200 F 
ENDBRANCH  50  64
BRANCH  51  75
ATOM     75  C   UNL A   1      39.502  33.919  36.892  1.00  0.00     0.064 A 
ATOM     76  C   UNL A   1      40.132  35.169  36.982  1.00  0.00     0.173 A 
ATOM     77  C   UNL A   1      38.734  33.495  37.987  1.00  0.00     0.173 A 
ATOM     78  F   UNL A   1      40.893  35.608  35.969  1.00  0.00    -0.203 F 
ATOM     79  C   UNL A   1      40.018  35.952  38.128  1.00  0.00     0.198 A 
ATOM     80  C   UNL A   1      38.598  34.292  39.122  1.00  0.00     0.198 A 
ATOM     81  F   UNL A   1      38.107  32.310  37.948  1.00  0.00    -0.203 F 
ATOM     82  F   UNL A   1      40.669  37.121  38.206  1.00  0.00    -0.200 F 
ATOM     83  C   UNL A   1      39.248  35.516  39.196  1.00  0.00     0.200 A 
ATOM     84  F   UNL A   1      37.843  33.872  40.145  1.00  0.00    -0.200 F 
ATOM     85  F   UNL A   1      39.137  36.270  40.298  1.00  0.00    -0.200 F 
ENDBRANCH  51  75
BRANCH  63  86
ATOM     86  C   UNL A   1      43.936  28.840  35.123  1.00  0.00     0.064 A 
ATOM     87  C   UNL A   1      45.223  29.378  34.986  1.00  0.00     0.173 A 
ATOM     88  C   UNL A   1      43.768  27.743  35.983  1.00  0.00     0.173 A 
ATOM     89  F   UNL A   1      45.438  30.417  34.164  1.00  0.00    -0.203 F 
ATOM     90  C   UNL A   1      46.304  28.828  35.672  1.00  0.00     0.198 A 
ATOM     91  C   UNL A   1      44.844  27.215  36.688  1.00  0.00     0.198 A 
ATOM     92  F   UNL A   1      42.554  27.197  36.152  1.00  0.00    -0.203 F 
ATOM     93  F   UNL A   1      47.532  29.334  35.498  1.00  0.00    -0.200 F 
ATOM     94  C   UNL A   1      46.112  27.754  36.529  1.00  0.00     0.200 A 
ATOM     95  F   UNL A   1      44.654  26.186  37.526  1.00  0.00    -0.200 F 
ATOM     96  F   UNL A   1      47.150  27.235  37.197  1.00  0.00    -0.200 F 
ENDBRANCH  63  86
ENDBRANCH  37  38
ENDBRANCH  29  32
ENDBRANCH  27  28
ENDBRANCH  26  27
ENDBRANCH  25  26
ENDBRANCH   1  25
TORSDOF 16
ENDMDL
