MODEL 1
REMARK VINA RESULT:     -13.3      0.000      0.000
REMARK SMILES Cc1cc(C)c(OCC(=O)Nc2ccc(Cl)c(C(=O)NCCCCNC(=O)c3ccc(-c4c5nc(c(-c6c(F)c(F)c(F)c(F)c6F)c6ccc([nH]6)c(-c6c(F)c(F)c(F)c(F)c6F)c6nc(c(-c7c(F)c(F)c(F)c(F)c7F)c7ccc4[nH]7)C=C6)C=C5)cc3)c2)c(Cl)c1
REMARK SMILES IDX 21 1 20 2 18 3 19 4 17 6 12 7 13 8 91 9 14 10 15 11 16 12
REMARK SMILES IDX 11 13 9 14 10 15 8 17 7 18 6 19 1 20 2 21 3 22 94 23 4 24
REMARK SMILES IDX 92 25 5 26 93 27 22 28 23 29 24 30 25 31 26 32 27 34 28 35
REMARK SMILES IDX 29 36 90 37 30 38 89 39 31 40 32 41 33 42 83 43 34 44 88 45
REMARK SMILES IDX 82 46 84 47 35 48 87 49 81 50 80 51 36 53 68 54 48 55 67 56
REMARK SMILES IDX 49 57 52 58 66 59 85 60 50 61 51 62 65 64 86 65 53 66 37 67
REMARK SMILES IDX 38 68 46 69 39 70 40 71 44 72 47 73 41 74 42 75 45 76 43 77
REMARK SMILES IDX 69 78 70 79 78 80 71 81 72 82 76 83 79 84 73 85 74 86 77 87
REMARK SMILES IDX 75 88 54 89 55 90 63 91 56 92 57 93 61 94 64 95 58 96 59 97
REMARK SMILES IDX 62 98 60 99
REMARK H PARENT 20 5 11 16 25 33 84 52 52 63
REMARK Flexibility Score: inf
ROOT
ATOM      1  C   UNL A   1      31.653  30.268  25.114  1.00  0.00     0.116 C 
ENDROOT
BRANCH   1   2
ATOM      2  N   UNL A   1      32.846  29.621  24.600  1.00  0.00    -0.352 N 
ATOM      3  C   UNL A   1      33.046  28.295  24.271  1.00  0.00     0.252 C 
ATOM      4  O   UNL A   1      34.122  27.957  23.781  1.00  0.00    -0.269 OA
ATOM      5  H   UNL A   1      33.623  30.210  24.467  1.00  0.00     0.163 HD
BRANCH   3   6
ATOM      6  C   UNL A   1      32.050  27.254  24.617  1.00  0.00     0.060 A 
ATOM      7  C   UNL A   1      31.355  25.569  26.200  1.00  0.00     0.042 A 
ATOM      8  C   UNL A   1      30.094  25.582  25.632  1.00  0.00     0.028 A 
ATOM      9  C   UNL A   1      32.290  26.514  25.789  1.00  0.00     0.041 A 
ATOM     10  C   UNL A   1      29.887  26.222  24.422  1.00  0.00     0.023 A 
ATOM     11  C   UNL A   1      30.923  26.947  23.850  1.00  0.00     0.053 A 
ATOM     12  Cl  UNL A   1      30.795  27.264  22.157  1.00  0.00    -0.083 Cl
BRANCH   7  13
ATOM     13  N   UNL A   1      31.734  24.574  27.103  1.00  0.00    -0.323 N 
ATOM     14  C   UNL A   1      31.662  23.211  26.920  1.00  0.00     0.262 C 
ATOM     15  O   UNL A   1      32.212  22.504  27.772  1.00  0.00    -0.271 OA
ATOM     16  H   UNL A   1      32.092  24.880  27.968  1.00  0.00     0.170 HD
BRANCH  14  17
ATOM     17  C   UNL A   1      31.126  22.575  25.599  1.00  0.00     0.329 C 
BRANCH  17  18
ATOM     18  O   UNL A   1      31.868  22.157  24.474  1.00  0.00    -0.482 OA
BRANCH  18  19
ATOM     19  C   UNL A   1      33.229  22.070  24.431  1.00  0.00     0.141 A 
ATOM     20  C   UNL A   1      37.500  21.343  24.694  1.00  0.00     0.044 C 
ATOM     21  C   UNL A   1      36.024  21.582  24.587  1.00  0.00    -0.049 A 
ATOM     22  C   UNL A   1      35.518  22.783  24.082  1.00  0.00     0.010 A 
ATOM     23  C   UNL A   1      35.125  20.596  24.974  1.00  0.00     0.027 A 
ATOM     24  C   UNL A   1      34.131  23.030  23.957  1.00  0.00    -0.007 A 
ATOM     25  C   UNL A   1      33.750  20.830  24.879  1.00  0.00     0.083 A 
ATOM     26  C   UNL A   1      33.765  24.320  23.285  1.00  0.00     0.048 C 
ATOM     27  Cl  UNL A   1      32.715  19.511  25.334  1.00  0.00    -0.080 Cl
ENDBRANCH  18  19
ENDBRANCH  17  18
ENDBRANCH  14  17
ENDBRANCH   7  13
ENDBRANCH   3   6
ENDBRANCH   1   2
BRANCH   1  28
ATOM     28  C   UNL A   1      31.688  30.654  26.583  1.00  0.00     0.023 C 
BRANCH  28  29
ATOM     29  C   UNL A   1      31.446  32.125  26.897  1.00  0.00     0.023 C 
BRANCH  29  30
ATOM     30  C   UNL A   1      32.666  32.953  27.290  1.00  0.00     0.116 C 
BRANCH  30  31
ATOM     31  N   UNL A   1      32.355  34.297  27.753  1.00  0.00    -0.352 N 
ATOM     32  C   UNL A   1      32.987  35.083  28.688  1.00  0.00     0.251 C 
ATOM     33  H   UNL A   1      31.569  34.710  27.330  1.00  0.00     0.163 HD
ATOM     34  O   UNL A   1      32.522  36.183  28.975  1.00  0.00    -0.269 OA
BRANCH  32  35
ATOM     35  C   UNL A   1      34.193  34.594  29.394  1.00  0.00     0.039 A 
ATOM     36  C   UNL A   1      34.033  33.993  30.646  1.00  0.00     0.014 A 
ATOM     37  C   UNL A   1      35.466  34.699  28.830  1.00  0.00     0.014 A 
ATOM     38  C   UNL A   1      35.132  33.415  31.284  1.00  0.00     0.010 A 
ATOM     39  C   UNL A   1      36.543  34.043  29.423  1.00  0.00     0.010 A 
ATOM     40  C   UNL A   1      36.387  33.387  30.653  1.00  0.00    -0.014 A 
BRANCH  40  41
ATOM     41  C   UNL A   1      37.529  32.656  31.264  1.00  0.00     0.031 A 
ATOM     42  C   UNL A   1      38.036  33.032  32.629  1.00  0.00     0.074 A 
ATOM     43  C   UNL A   1      38.136  31.675  30.567  1.00  0.00     0.049 A 
ATOM     44  N   UNL A   1      39.029  32.519  33.313  1.00  0.00    -0.248 NA
ATOM     45  C   UNL A   1      37.357  34.146  33.309  1.00  0.00     0.031 C 
ATOM     46  C   UNL A   1      37.785  31.259  29.207  1.00  0.00     0.029 A 
ATOM     47  N   UNL A   1      39.182  30.848  30.903  1.00  0.00    -0.354 N 
ATOM     48  C   UNL A   1      39.088  33.243  34.496  1.00  0.00     0.074 A 
ATOM     49  C   UNL A   1      38.078  34.275  34.412  1.00  0.00     0.031 C 
ATOM     50  C   UNL A   1      38.576  30.238  28.839  1.00  0.00     0.029 A 
ATOM     51  C   UNL A   1      39.512  29.947  29.919  1.00  0.00     0.049 A 
ATOM     52  H   UNL A   1      39.649  30.897  31.768  1.00  0.00     0.167 HD
ATOM     53  C   UNL A   1      39.887  33.043  35.572  1.00  0.00     0.037 A 
ATOM     54  C   UNL A   1      40.462  28.994  29.892  1.00  0.00     0.037 A 
ATOM     55  C   UNL A   1      40.882  32.008  35.664  1.00  0.00     0.049 A 
ATOM     56  C   UNL A   1      41.335  28.796  31.104  1.00  0.00     0.074 A 
ATOM     57  C   UNL A   1      41.723  31.708  36.723  1.00  0.00     0.029 A 
ATOM     58  N   UNL A   1      41.168  31.097  34.658  1.00  0.00    -0.354 N 
ATOM     59  N   UNL A   1      41.331  29.445  32.243  1.00  0.00    -0.248 NA
ATOM     60  C   UNL A   1      42.335  27.722  31.029  1.00  0.00     0.031 C 
ATOM     61  C   UNL A   1      42.540  30.637  36.345  1.00  0.00     0.029 A 
ATOM     62  C   UNL A   1      42.177  30.241  35.069  1.00  0.00     0.049 A 
ATOM     63  H   UNL A   1      40.720  31.063  33.782  1.00  0.00     0.167 HD
ATOM     64  C   UNL A   1      42.304  28.841  33.028  1.00  0.00     0.074 A 
ATOM     65  C   UNL A   1      42.860  27.757  32.245  1.00  0.00     0.031 C 
ATOM     66  C   UNL A   1      42.709  29.159  34.282  1.00  0.00     0.037 A 
BRANCH  53  67
ATOM     67  C   UNL A   1      39.697  33.947  36.756  1.00  0.00     0.064 A 
ATOM     68  C   UNL A   1      38.872  33.575  37.828  1.00  0.00     0.173 A 
ATOM     69  C   UNL A   1      40.389  35.162  36.851  1.00  0.00     0.173 A 
ATOM     70  F   UNL A   1      38.178  32.427  37.781  1.00  0.00    -0.203 F 
ATOM     71  C   UNL A   1      38.733  34.395  38.944  1.00  0.00     0.198 A 
ATOM     72  C   UNL A   1      40.270  35.968  37.981  1.00  0.00     0.198 A 
ATOM     73  F   UNL A   1      41.195  35.563  35.855  1.00  0.00    -0.203 F 
ATOM     74  F   UNL A   1      37.910  34.037  39.940  1.00  0.00    -0.200 F 
ATOM     75  C   UNL A   1      39.439  35.586  39.024  1.00  0.00     0.200 A 
ATOM     76  F   UNL A   1      40.963  37.112  38.064  1.00  0.00    -0.200 F 
ATOM     77  F   UNL A   1      39.317  36.368  40.106  1.00  0.00    -0.200 F 
ENDBRANCH  53  67
BRANCH  54  78
ATOM     78  C   UNL A   1      40.635  28.135  28.690  1.00  0.00     0.064 A 
ATOM     79  C   UNL A   1      41.442  28.545  27.618  1.00  0.00     0.173 A 
ATOM     80  C   UNL A   1      39.965  26.909  28.568  1.00  0.00     0.173 A 
ATOM     81  F   UNL A   1      42.087  29.719  27.676  1.00  0.00    -0.203 F 
ATOM     82  C   UNL A   1      41.539  27.781  26.456  1.00  0.00     0.198 A 
ATOM     83  C   UNL A   1      40.090  26.130  27.420  1.00  0.00     0.198 A 
ATOM     84  F   UNL A   1      39.187  26.466  29.567  1.00  0.00    -0.203 F 
ATOM     85  F   UNL A   1      42.263  28.230  25.422  1.00  0.00    -0.200 F 
ATOM     86  C   UNL A   1      40.866  26.573  26.360  1.00  0.00     0.200 A 
ATOM     87  F   UNL A   1      39.450  24.957  27.336  1.00  0.00    -0.200 F 
ATOM     88  F   UNL A   1      40.954  25.843  25.239  1.00  0.00    -0.200 F 
ENDBRANCH  54  78
BRANCH  66  89
ATOM     89  C   UNL A   1      43.778  28.301  34.893  1.00  0.00     0.064 A 
ATOM     90  C   UNL A   1      43.467  27.150  35.632  1.00  0.00     0.173 A 
ATOM     91  C   UNL A   1      45.133  28.628  34.725  1.00  0.00     0.173 A 
ATOM     92  F   UNL A   1      42.186  26.804  35.834  1.00  0.00    -0.203 F 
ATOM     93  C   UNL A   1      44.470  26.379  36.212  1.00  0.00     0.198 A 
ATOM     94  C   UNL A   1      46.135  27.836  35.278  1.00  0.00     0.198 A 
ATOM     95  F   UNL A   1      45.485  29.714  34.021  1.00  0.00    -0.203 F 
ATOM     96  F   UNL A   1      44.146  25.319  36.965  1.00  0.00    -0.200 F 
ATOM     97  C   UNL A   1      45.803  26.719  36.030  1.00  0.00     0.200 A 
ATOM     98  F   UNL A   1      47.421  28.158  35.091  1.00  0.00    -0.200 F 
ATOM     99  F   UNL A   1      46.767  25.976  36.591  1.00  0.00    -0.200 F 
ENDBRANCH  66  89
ENDBRANCH  40  41
ENDBRANCH  32  35
ENDBRANCH  30  31
ENDBRANCH  29  30
ENDBRANCH  28  29
ENDBRANCH   1  28
TORSDOF 15
ENDMDL
MODEL 2
REMARK VINA RESULT:     -13.3      4.602     10.310
REMARK SMILES Cc1cc(C)c(OCC(=O)Nc2ccc(Cl)c(C(=O)NCCCCNC(=O)c3ccc(-c4c5nc(c(-c6c(F)c(F)c(F)c(F)c6F)c6ccc([nH]6)c(-c6c(F)c(F)c(F)c(F)c6F)c6nc(c(-c7c(F)c(F)c(F)c(F)c7F)c7ccc4[nH]7)C=C6)C=C5)cc3)c2)c(Cl)c1
REMARK SMILES IDX 21 1 20 2 18 3 19 4 17 6 12 7 13 8 91 9 14 10 15 11 16 12
REMARK SMILES IDX 11 13 9 14 10 15 8 17 7 18 6 19 1 20 2 21 3 22 94 23 4 24
REMARK SMILES IDX 92 25 5 26 93 27 22 28 23 29 24 30 25 31 26 32 27 34 28 35
REMARK SMILES IDX 29 36 90 37 30 38 89 39 31 40 32 41 33 42 83 43 34 44 88 45
REMARK SMILES IDX 82 46 84 47 35 48 87 49 81 50 80 51 36 53 68 54 48 55 67 56
REMARK SMILES IDX 49 57 52 58 66 59 85 60 50 61 51 62 65 64 86 65 53 66 37 67
REMARK SMILES IDX 38 68 46 69 39 70 40 71 44 72 47 73 41 74 42 75 45 76 43 77
REMARK SMILES IDX 69 78 70 79 78 80 71 81 72 82 76 83 79 84 73 85 74 86 77 87
REMARK SMILES IDX 75 88 54 89 55 90 63 91 56 92 57 93 61 94 64 95 58 96 59 97
REMARK SMILES IDX 62 98 60 99
REMARK H PARENT 20 5 11 16 25 33 84 52 52 63
REMARK Flexibility Score: inf
ROOT
ATOM      1  C   UNL A   1      33.388  20.131  24.481  1.00  0.00     0.116 C 
ENDROOT
BRANCH   1   2
ATOM      2  N   UNL A   1      32.221  20.567  25.224  1.00  0.00    -0.352 N 
ATOM      3  C   UNL A   1      31.779  21.849  25.479  1.00  0.00     0.252 C 
ATOM      4  O   UNL A   1      30.716  22.008  26.076  1.00  0.00    -0.269 OA
ATOM      5  H   UNL A   1      31.665  19.847  25.599  1.00  0.00     0.163 HD
BRANCH   3   6
ATOM      6  C   UNL A   1      32.617  23.032  25.170  1.00  0.00     0.060 A 
ATOM      7  C   UNL A   1      33.286  24.657  23.513  1.00  0.00     0.042 A 
ATOM      8  C   UNL A   1      33.773  25.462  24.527  1.00  0.00     0.028 A 
ATOM      9  C   UNL A   1      32.573  23.509  23.847  1.00  0.00     0.041 A 
ATOM     10  C   UNL A   1      33.915  24.953  25.807  1.00  0.00     0.023 A 
ATOM     11  C   UNL A   1      33.455  23.674  26.085  1.00  0.00     0.053 A 
ATOM     12  Cl  UNL A   1      34.111  22.911  27.489  1.00  0.00    -0.083 Cl
BRANCH   7  13
ATOM     13  N   UNL A   1      33.576  24.921  22.173  1.00  0.00    -0.323 N 
ATOM     14  C   UNL A   1      32.765  25.544  21.252  1.00  0.00     0.262 C 
ATOM     15  O   UNL A   1      33.278  25.837  20.165  1.00  0.00    -0.271 OA
ATOM     16  H   UNL A   1      34.460  24.628  21.851  1.00  0.00     0.170 HD
BRANCH  14  17
ATOM     17  C   UNL A   1      31.343  26.070  21.616  1.00  0.00     0.329 C 
BRANCH  17  18
ATOM     18  O   UNL A   1      30.996  27.322  22.168  1.00  0.00    -0.482 OA
BRANCH  18  19
ATOM     19  C   UNL A   1      31.509  27.827  23.327  1.00  0.00     0.141 A 
ATOM     20  C   UNL A   1      32.596  29.331  27.250  1.00  0.00     0.044 C 
ATOM     21  C   UNL A   1      32.228  28.794  25.900  1.00  0.00    -0.049 A 
ATOM     22  C   UNL A   1      32.977  29.112  24.764  1.00  0.00     0.010 A 
ATOM     23  C   UNL A   1      31.137  27.946  25.758  1.00  0.00     0.027 A 
ATOM     24  C   UNL A   1      32.660  28.609  23.480  1.00  0.00    -0.007 A 
ATOM     25  C   UNL A   1      30.795  27.456  24.494  1.00  0.00     0.083 A 
ATOM     26  C   UNL A   1      33.637  28.953  22.396  1.00  0.00     0.048 C 
ATOM     27  Cl  UNL A   1      29.451  26.358  24.435  1.00  0.00    -0.080 Cl
ENDBRANCH  18  19
ENDBRANCH  17  18
ENDBRANCH  14  17
ENDBRANCH   7  13
ENDBRANCH   3   6
ENDBRANCH   1   2
BRANCH   1  28
ATOM     28  C   UNL A   1      34.717  20.243  25.209  1.00  0.00     0.023 C 
BRANCH  28  29
ATOM     29  C   UNL A   1      35.720  21.231  24.627  1.00  0.00     0.023 C 
BRANCH  29  30
ATOM     30  C   UNL A   1      36.841  21.697  25.551  1.00  0.00     0.116 C 
BRANCH  30  31
ATOM     31  N   UNL A   1      37.953  20.766  25.665  1.00  0.00    -0.352 N 
ATOM     32  C   UNL A   1      39.233  20.962  26.127  1.00  0.00     0.251 C 
ATOM     33  H   UNL A   1      37.759  19.849  25.363  1.00  0.00     0.163 HD
ATOM     34  O   UNL A   1      40.046  20.042  26.085  1.00  0.00    -0.269 OA
BRANCH  32  35
ATOM     35  C   UNL A   1      39.659  22.289  26.626  1.00  0.00     0.039 A 
ATOM     36  C   UNL A   1      40.678  22.345  27.581  1.00  0.00     0.014 A 
ATOM     37  C   UNL A   1      39.086  23.471  26.151  1.00  0.00     0.014 A 
ATOM     38  C   UNL A   1      41.185  23.582  27.984  1.00  0.00     0.010 A 
ATOM     39  C   UNL A   1      39.652  24.699  26.484  1.00  0.00     0.010 A 
ATOM     40  C   UNL A   1      40.714  24.769  27.399  1.00  0.00    -0.014 A 
BRANCH  40  41
ATOM     41  C   UNL A   1      41.340  26.078  27.722  1.00  0.00     0.031 A 
ATOM     42  C   UNL A   1      42.746  26.383  27.282  1.00  0.00     0.074 A 
ATOM     43  C   UNL A   1      40.652  26.981  28.449  1.00  0.00     0.049 A 
ATOM     44  N   UNL A   1      43.460  27.462  27.486  1.00  0.00    -0.248 NA
ATOM     45  C   UNL A   1      43.454  25.331  26.536  1.00  0.00     0.031 C 
ATOM     46  C   UNL A   1      39.307  26.781  28.994  1.00  0.00     0.029 A 
ATOM     47  N   UNL A   1      40.988  28.248  28.861  1.00  0.00    -0.354 N 
ATOM     48  C   UNL A   1      44.692  27.218  26.892  1.00  0.00     0.074 A 
ATOM     49  C   UNL A   1      44.655  25.865  26.381  1.00  0.00     0.031 C 
ATOM     50  C   UNL A   1      38.922  27.895  29.638  1.00  0.00     0.029 A 
ATOM     51  C   UNL A   1      40.001  28.875  29.583  1.00  0.00     0.049 A 
ATOM     52  H   UNL A   1      41.855  28.667  28.657  1.00  0.00     0.167 HD
ATOM     53  C   UNL A   1      45.747  28.057  26.754  1.00  0.00     0.037 A 
ATOM     54  C   UNL A   1      39.970  30.101  30.136  1.00  0.00     0.037 A 
ATOM     55  C   UNL A   1      45.780  29.408  27.249  1.00  0.00     0.049 A 
ATOM     56  C   UNL A   1      41.158  31.012  29.964  1.00  0.00     0.074 A 
ATOM     57  C   UNL A   1      46.792  30.346  27.135  1.00  0.00     0.029 A 
ATOM     58  N   UNL A   1      44.750  30.017  27.950  1.00  0.00    -0.354 N 
ATOM     59  N   UNL A   1      42.288  30.791  29.340  1.00  0.00    -0.248 NA
ATOM     60  C   UNL A   1      41.056  32.350  30.565  1.00  0.00     0.031 C 
ATOM     61  C   UNL A   1      46.388  31.511  27.796  1.00  0.00     0.029 A 
ATOM     62  C   UNL A   1      45.107  31.314  28.281  1.00  0.00     0.049 A 
ATOM     63  H   UNL A   1      43.892  29.591  28.179  1.00  0.00     0.167 HD
ATOM     64  C   UNL A   1      43.019  31.966  29.448  1.00  0.00     0.074 A 
ATOM     65  C   UNL A   1      42.193  32.907  30.174  1.00  0.00     0.031 C 
ATOM     66  C   UNL A   1      44.266  32.241  28.994  1.00  0.00     0.037 A 
BRANCH  53  67
ATOM     67  C   UNL A   1      46.946  27.549  26.007  1.00  0.00     0.064 A 
ATOM     68  C   UNL A   1      47.043  27.680  24.614  1.00  0.00     0.173 A 
ATOM     69  C   UNL A   1      48.032  26.984  26.691  1.00  0.00     0.173 A 
ATOM     70  F   UNL A   1      46.026  28.203  23.911  1.00  0.00    -0.203 F 
ATOM     71  C   UNL A   1      48.176  27.248  23.931  1.00  0.00     0.198 A 
ATOM     72  C   UNL A   1      49.176  26.578  26.007  1.00  0.00     0.198 A 
ATOM     73  F   UNL A   1      47.992  26.840  28.025  1.00  0.00    -0.203 F 
ATOM     74  F   UNL A   1      48.231  27.350  22.595  1.00  0.00    -0.200 F 
ATOM     75  C   UNL A   1      49.245  26.707  24.628  1.00  0.00     0.200 A 
ATOM     76  F   UNL A   1      50.214  26.068  26.684  1.00  0.00    -0.200 F 
ATOM     77  F   UNL A   1      50.342  26.305  23.971  1.00  0.00    -0.200 F 
ENDBRANCH  53  67
BRANCH  54  78
ATOM     78  C   UNL A   1      38.771  30.559  30.889  1.00  0.00     0.064 A 
ATOM     79  C   UNL A   1      37.681  31.142  30.225  1.00  0.00     0.173 A 
ATOM     80  C   UNL A   1      38.708  30.466  32.286  1.00  0.00     0.173 A 
ATOM     81  F   UNL A   1      37.701  31.274  28.891  1.00  0.00    -0.203 F 
ATOM     82  C   UNL A   1      36.593  31.649  30.934  1.00  0.00     0.198 A 
ATOM     83  C   UNL A   1      37.605  30.942  32.991  1.00  0.00     0.198 A 
ATOM     84  F   UNL A   1      39.720  29.910  32.969  1.00  0.00    -0.203 F 
ATOM     85  F   UNL A   1      35.597  32.261  30.280  1.00  0.00    -0.200 F 
ATOM     86  C   UNL A   1      36.555  31.545  32.316  1.00  0.00     0.200 A 
ATOM     87  F   UNL A   1      37.565  30.827  34.325  1.00  0.00    -0.200 F 
ATOM     88  F   UNL A   1      35.512  32.039  32.998  1.00  0.00    -0.200 F 
ENDBRANCH  54  78
BRANCH  66  89
ATOM     89  C   UNL A   1      44.793  33.625  29.240  1.00  0.00     0.064 A 
ATOM     90  C   UNL A   1      44.562  34.673  28.336  1.00  0.00     0.173 A 
ATOM     91  C   UNL A   1      45.527  33.910  30.402  1.00  0.00     0.173 A 
ATOM     92  F   UNL A   1      43.879  34.449  27.203  1.00  0.00    -0.203 F 
ATOM     93  C   UNL A   1      45.078  35.945  28.569  1.00  0.00     0.198 A 
ATOM     94  C   UNL A   1      46.013  35.190  30.647  1.00  0.00     0.198 A 
ATOM     95  F   UNL A   1      45.770  32.945  31.302  1.00  0.00    -0.203 F 
ATOM     96  F   UNL A   1      44.897  36.915  27.662  1.00  0.00    -0.200 F 
ATOM     97  C   UNL A   1      45.798  36.204  29.725  1.00  0.00     0.200 A 
ATOM     98  F   UNL A   1      46.697  35.441  31.771  1.00  0.00    -0.200 F 
ATOM     99  F   UNL A   1      46.295  37.429  29.947  1.00  0.00    -0.200 F 
ENDBRANCH  66  89
ENDBRANCH  40  41
ENDBRANCH  32  35
ENDBRANCH  30  31
ENDBRANCH  29  30
ENDBRANCH  28  29
ENDBRANCH   1  28
TORSDOF 15
ENDMDL
MODEL 3
REMARK VINA RESULT:     -13.2      0.382      7.207
REMARK SMILES Cc1cc(C)c(OCC(=O)Nc2ccc(Cl)c(C(=O)NCCCCNC(=O)c3ccc(-c4c5nc(c(-c6c(F)c(F)c(F)c(F)c6F)c6ccc([nH]6)c(-c6c(F)c(F)c(F)c(F)c6F)c6nc(c(-c7c(F)c(F)c(F)c(F)c7F)c7ccc4[nH]7)C=C6)C=C5)cc3)c2)c(Cl)c1
REMARK SMILES IDX 21 1 20 2 18 3 19 4 17 6 12 7 13 8 91 9 14 10 15 11 16 12
REMARK SMILES IDX 11 13 9 14 10 15 8 17 7 18 6 19 1 20 2 21 3 22 94 23 4 24
REMARK SMILES IDX 92 25 5 26 93 27 22 28 23 29 24 30 25 31 26 32 27 34 28 35
REMARK SMILES IDX 29 36 90 37 30 38 89 39 31 40 32 41 33 42 83 43 34 44 88 45
REMARK SMILES IDX 82 46 84 47 35 48 87 49 81 50 80 51 36 53 68 54 48 55 67 56
REMARK SMILES IDX 49 57 52 58 66 59 85 60 50 61 51 62 65 64 86 65 53 66 37 67
REMARK SMILES IDX 38 68 46 69 39 70 40 71 44 72 47 73 41 74 42 75 45 76 43 77
REMARK SMILES IDX 69 78 70 79 78 80 71 81 72 82 76 83 79 84 73 85 74 86 77 87
REMARK SMILES IDX 75 88 54 89 55 90 63 91 56 92 57 93 61 94 64 95 58 96 59 97
REMARK SMILES IDX 62 98 60 99
REMARK H PARENT 20 5 11 16 25 33 84 52 52 63
REMARK Flexibility Score: inf
ROOT
ATOM      1  C   UNL A   1      31.633  30.276  25.025  1.00  0.00     0.116 C 
ENDROOT
BRANCH   1   2
ATOM      2  N   UNL A   1      32.806  29.597  24.506  1.00  0.00    -0.352 N 
ATOM      3  C   UNL A   1      32.981  28.261  24.213  1.00  0.00     0.252 C 
ATOM      4  O   UNL A   1      34.042  27.892  23.710  1.00  0.00    -0.269 OA
ATOM      5  H   UNL A   1      33.588  30.172  24.339  1.00  0.00     0.163 HD
BRANCH   3   6
ATOM      6  C   UNL A   1      31.979  27.244  24.610  1.00  0.00     0.060 A 
ATOM      7  C   UNL A   1      31.330  25.568  26.222  1.00  0.00     0.042 A 
ATOM      8  C   UNL A   1      30.039  25.618  25.727  1.00  0.00     0.028 A 
ATOM      9  C   UNL A   1      32.266  26.490  25.762  1.00  0.00     0.041 A 
ATOM     10  C   UNL A   1      29.781  26.271  24.534  1.00  0.00     0.023 A 
ATOM     11  C   UNL A   1      30.802  26.972  23.907  1.00  0.00     0.053 A 
ATOM     12  Cl  UNL A   1      30.585  27.303  22.226  1.00  0.00    -0.083 Cl
BRANCH   7  13
ATOM     13  N   UNL A   1      31.734  24.556  27.096  1.00  0.00    -0.323 N 
ATOM     14  C   UNL A   1      31.726  23.200  26.862  1.00  0.00     0.262 C 
ATOM     15  O   UNL A   1      32.288  22.485  27.700  1.00  0.00    -0.271 OA
ATOM     16  H   UNL A   1      32.060  24.845  27.979  1.00  0.00     0.170 HD
BRANCH  14  17
ATOM     17  C   UNL A   1      31.246  22.591  25.507  1.00  0.00     0.329 C 
BRANCH  17  18
ATOM     18  O   UNL A   1      32.032  22.219  24.396  1.00  0.00    -0.482 OA
BRANCH  18  19
ATOM     19  C   UNL A   1      33.390  22.083  24.417  1.00  0.00     0.141 A 
ATOM     20  C   UNL A   1      37.614  21.190  24.864  1.00  0.00     0.044 C 
ATOM     21  C   UNL A   1      36.155  21.487  24.693  1.00  0.00    -0.049 A 
ATOM     22  C   UNL A   1      35.718  22.723  24.210  1.00  0.00     0.010 A 
ATOM     23  C   UNL A   1      35.203  20.521  24.997  1.00  0.00     0.027 A 
ATOM     24  C   UNL A   1      34.348  23.026  24.027  1.00  0.00    -0.007 A 
ATOM     25  C   UNL A   1      33.844  20.809  24.843  1.00  0.00     0.083 A 
ATOM     26  C   UNL A   1      34.063  24.352  23.387  1.00  0.00     0.048 C 
ATOM     27  Cl  UNL A   1      32.741  19.514  25.194  1.00  0.00    -0.080 Cl
ENDBRANCH  18  19
ENDBRANCH  17  18
ENDBRANCH  14  17
ENDBRANCH   7  13
ENDBRANCH   3   6
ENDBRANCH   1   2
BRANCH   1  28
ATOM     28  C   UNL A   1      31.657  30.600  26.509  1.00  0.00     0.023 C 
BRANCH  28  29
ATOM     29  C   UNL A   1      31.416  32.057  26.883  1.00  0.00     0.023 C 
BRANCH  29  30
ATOM     30  C   UNL A   1      32.642  32.881  27.263  1.00  0.00     0.116 C 
BRANCH  30  31
ATOM     31  N   UNL A   1      32.347  34.249  27.661  1.00  0.00    -0.352 N 
ATOM     32  C   UNL A   1      32.973  35.064  28.574  1.00  0.00     0.251 C 
ATOM     33  H   UNL A   1      31.577  34.657  27.203  1.00  0.00     0.163 HD
ATOM     34  O   UNL A   1      32.523  36.184  28.803  1.00  0.00    -0.269 OA
BRANCH  32  35
ATOM     35  C   UNL A   1      34.154  34.584  29.327  1.00  0.00     0.039 A 
ATOM     36  C   UNL A   1      33.963  34.087  30.619  1.00  0.00     0.014 A 
ATOM     37  C   UNL A   1      35.435  34.599  28.770  1.00  0.00     0.014 A 
ATOM     38  C   UNL A   1      35.035  33.517  31.310  1.00  0.00     0.010 A 
ATOM     39  C   UNL A   1      36.482  33.950  29.421  1.00  0.00     0.010 A 
ATOM     40  C   UNL A   1      36.293  33.395  30.695  1.00  0.00    -0.014 A 
BRANCH  40  41
ATOM     41  C   UNL A   1      37.402  32.670  31.370  1.00  0.00     0.031 A 
ATOM     42  C   UNL A   1      38.089  31.518  30.690  1.00  0.00     0.074 A 
ATOM     43  C   UNL A   1      37.765  33.029  32.618  1.00  0.00     0.049 A 
ATOM     44  N   UNL A   1      39.062  30.760  31.129  1.00  0.00    -0.248 NA
ATOM     45  C   UNL A   1      37.605  31.151  29.350  1.00  0.00     0.031 C 
ATOM     46  C   UNL A   1      37.134  34.085  33.414  1.00  0.00     0.029 A 
ATOM     47  N   UNL A   1      38.752  32.542  33.441  1.00  0.00    -0.354 N 
ATOM     48  C   UNL A   1      39.306  29.835  30.122  1.00  0.00     0.074 A 
ATOM     49  C   UNL A   1      38.335  30.081  29.078  1.00  0.00     0.031 C 
ATOM     50  C   UNL A   1      37.768  34.187  34.593  1.00  0.00     0.029 A 
ATOM     51  C   UNL A   1      38.828  33.186  34.653  1.00  0.00     0.049 A 
ATOM     52  H   UNL A   1      39.349  31.803  33.186  1.00  0.00     0.167 HD
ATOM     53  C   UNL A   1      40.274  28.889  30.056  1.00  0.00     0.037 A 
ATOM     54  C   UNL A   1      39.657  32.991  35.695  1.00  0.00     0.037 A 
ATOM     55  C   UNL A   1      41.250  28.653  31.088  1.00  0.00     0.049 A 
ATOM     56  C   UNL A   1      40.725  31.932  35.592  1.00  0.00     0.074 A 
ATOM     57  C   UNL A   1      42.287  27.736  31.103  1.00  0.00     0.029 A 
ATOM     58  N   UNL A   1      41.312  29.344  32.289  1.00  0.00    -0.354 N 
ATOM     59  N   UNL A   1      40.986  31.112  34.603  1.00  0.00    -0.248 NA
ATOM     60  C   UNL A   1      41.620  31.783  36.747  1.00  0.00     0.031 C 
ATOM     61  C   UNL A   1      42.956  27.850  32.326  1.00  0.00     0.029 A 
ATOM     62  C   UNL A   1      42.364  28.868  33.054  1.00  0.00     0.049 A 
ATOM     63  H   UNL A   1      40.699  30.066  32.558  1.00  0.00     0.167 HD
ATOM     64  C   UNL A   1      42.089  30.372  35.004  1.00  0.00     0.074 A 
ATOM     65  C   UNL A   1      42.465  30.858  36.315  1.00  0.00     0.031 C 
ATOM     66  C   UNL A   1      42.732  29.373  34.351  1.00  0.00     0.037 A 
BRANCH  53  67
ATOM     67  C   UNL A   1      40.348  28.056  28.810  1.00  0.00     0.064 A 
ATOM     68  C   UNL A   1      41.097  28.474  27.700  1.00  0.00     0.173 A 
ATOM     69  C   UNL A   1      39.720  26.804  28.744  1.00  0.00     0.173 A 
ATOM     70  F   UNL A   1      41.707  29.669  27.708  1.00  0.00    -0.203 F 
ATOM     71  C   UNL A   1      41.199  27.678  26.563  1.00  0.00     0.198 A 
ATOM     72  C   UNL A   1      39.847  25.997  27.616  1.00  0.00     0.198 A 
ATOM     73  F   UNL A   1      38.996  26.354  29.781  1.00  0.00    -0.203 F 
ATOM     74  F   UNL A   1      41.890  28.115  25.500  1.00  0.00    -0.200 F 
ATOM     75  C   UNL A   1      40.583  26.436  26.526  1.00  0.00     0.200 A 
ATOM     76  F   UNL A   1      39.263  24.792  27.586  1.00  0.00    -0.200 F 
ATOM     77  F   UNL A   1      40.695  25.663  25.436  1.00  0.00    -0.200 F 
ENDBRANCH  53  67
BRANCH  54  78
ATOM     78  C   UNL A   1      39.537  33.822  36.922  1.00  0.00     0.064 A 
ATOM     79  C   UNL A   1      38.796  33.376  38.027  1.00  0.00     0.173 A 
ATOM     80  C   UNL A   1      40.121  35.095  37.002  1.00  0.00     0.173 A 
ATOM     81  F   UNL A   1      38.199  32.176  37.994  1.00  0.00    -0.203 F 
ATOM     82  C   UNL A   1      38.610  34.188  39.146  1.00  0.00     0.198 A 
ATOM     83  C   UNL A   1      39.964  35.890  38.134  1.00  0.00     0.198 A 
ATOM     84  F   UNL A   1      40.846  35.566  35.977  1.00  0.00    -0.203 F 
ATOM     85  F   UNL A   1      37.841  33.763  40.157  1.00  0.00    -0.200 F 
ATOM     86  C   UNL A   1      39.197  35.442  39.199  1.00  0.00     0.200 A 
ATOM     87  F   UNL A   1      40.544  37.096  38.188  1.00  0.00    -0.200 F 
ATOM     88  F   UNL A   1      39.013  36.225  40.271  1.00  0.00    -0.200 F 
ENDBRANCH  54  78
BRANCH  66  89
ATOM     89  C   UNL A   1      43.925  28.768  35.031  1.00  0.00     0.064 A 
ATOM     90  C   UNL A   1      43.807  27.654  35.876  1.00  0.00     0.173 A 
ATOM     91  C   UNL A   1      45.207  29.301  34.823  1.00  0.00     0.173 A 
ATOM     92  F   UNL A   1      42.601  27.117  36.119  1.00  0.00    -0.203 F 
ATOM     93  C   UNL A   1      44.921  27.122  36.517  1.00  0.00     0.198 A 
ATOM     94  C   UNL A   1      46.324  28.745  35.440  1.00  0.00     0.198 A 
ATOM     95  F   UNL A   1      45.377  30.362  34.018  1.00  0.00    -0.203 F 
ATOM     96  F   UNL A   1      44.775  26.096  37.368  1.00  0.00    -0.200 F 
ATOM     97  C   UNL A   1      46.178  27.663  36.295  1.00  0.00     0.200 A 
ATOM     98  F   UNL A   1      47.539  29.262  35.214  1.00  0.00    -0.200 F 
ATOM     99  F   UNL A   1      47.250  27.149  36.915  1.00  0.00    -0.200 F 
ENDBRANCH  66  89
ENDBRANCH  40  41
ENDBRANCH  32  35
ENDBRANCH  30  31
ENDBRANCH  29  30
ENDBRANCH  28  29
ENDBRANCH   1  28
TORSDOF 15
ENDMDL
