MODEL 1
REMARK VINA RESULT:     -12.2      0.000      0.000
REMARK SMILES Cc1ccc(S(=O)(=O)Nc2ccc(C(=O)CCC(=O)NCCCCNC(=O)c3ccc(-c4c5nc(c(-c6c(F)c(F)c(F)c(F)c6F)c6ccc([nH]6)c(-c6c(F)c(F)c(F)c(F)c6F)c6nc(c(-c7c(F)c(F)c(F)c(F)c7F)c7ccc4[nH]7)C=C6)C=C5)cc3)cc2)c(C)c1
REMARK SMILES IDX 18 1 19 2 20 3 17 5 16 6 14 7 15 8 13 9 10 10 11 11 92 12
REMARK SMILES IDX 12 13 91 14 9 15 6 17 7 18 8 19 5 20 1 21 2 22 3 23 95 24
REMARK SMILES IDX 4 25 93 26 94 27 21 28 22 29 23 30 24 31 25 32 26 33 27 35
REMARK SMILES IDX 28 36 29 37 90 38 30 39 89 40 31 41 32 42 33 43 83 44 34 45
REMARK SMILES IDX 88 46 82 47 84 48 35 49 87 50 81 51 80 52 36 54 68 55 48 56
REMARK SMILES IDX 67 57 49 58 52 59 66 60 85 61 50 62 51 63 65 65 86 66 53 67
REMARK SMILES IDX 37 68 38 69 46 70 39 71 40 72 44 73 47 74 41 75 42 76 45 77
REMARK SMILES IDX 43 78 69 79 70 80 78 81 71 82 72 83 76 84 79 85 73 86 74 87
REMARK SMILES IDX 77 88 75 89 54 90 55 91 63 92 56 93 57 94 61 95 64 96 58 97
REMARK SMILES IDX 59 98 62 99 60 100
REMARK H PARENT 20 4 9 16 25 34 84 53 52 64
REMARK Flexibility Score: inf
ROOT
ATOM      1  C   UNL A   1      33.724  28.215  24.991  1.00  0.00     0.220 C 
ATOM      2  O   UNL A   1      33.760  27.094  24.485  1.00  0.00    -0.275 OA
ATOM      3  N   UNL A   1      34.255  28.384  26.228  1.00  0.00    -0.356 N 
ATOM      4  H   UNL A   1      34.294  27.563  26.770  1.00  0.00     0.163 HD
ENDROOT
BRANCH   1   5
ATOM      5  C   UNL A   1      32.974  29.341  24.343  1.00  0.00     0.108 C 
BRANCH   5   6
ATOM      6  C   UNL A   1      32.809  29.032  22.850  1.00  0.00     0.091 C 
BRANCH   6   7
ATOM      7  C   UNL A   1      31.382  28.663  22.473  1.00  0.00     0.163 C 
ATOM      8  O   UNL A   1      30.642  29.521  21.987  1.00  0.00    -0.294 OA
BRANCH   7   9
ATOM      9  C   UNL A   1      30.805  27.310  22.803  1.00  0.00     0.018 A 
ATOM     10  C   UNL A   1      30.263  24.906  24.179  1.00  0.00     0.049 A 
ATOM     11  C   UNL A   1      29.513  26.061  24.439  1.00  0.00     0.027 A 
ATOM     12  C   UNL A   1      31.113  24.908  23.075  1.00  0.00     0.027 A 
ATOM     13  C   UNL A   1      29.784  27.258  23.759  1.00  0.00     0.014 A 
ATOM     14  C   UNL A   1      31.362  26.103  22.372  1.00  0.00     0.014 A 
BRANCH  10  15
ATOM     15  N   UNL A   1      30.360  23.969  25.255  1.00  0.00    -0.280 N 
ATOM     16  H   UNL A   1      29.674  23.264  25.282  1.00  0.00     0.180 HD
BRANCH  15  17
ATOM     17  S   UNL A   1      31.510  23.930  26.474  1.00  0.00     0.262 S 
ATOM     18  O   UNL A   1      31.114  22.906  27.422  1.00  0.00    -0.201 OA
ATOM     19  O   UNL A   1      31.669  25.312  26.865  1.00  0.00    -0.201 OA
BRANCH  17  20
ATOM     20  C   UNL A   1      33.085  23.444  25.775  1.00  0.00     0.090 A 
ATOM     21  C   UNL A   1      36.582  22.945  23.311  1.00  0.00     0.044 C 
ATOM     22  C   UNL A   1      35.406  23.034  24.240  1.00  0.00    -0.051 A 
ATOM     23  C   UNL A   1      35.403  23.952  25.286  1.00  0.00     0.005 A 
ATOM     24  C   UNL A   1      34.310  22.183  24.104  1.00  0.00     0.008 A 
ATOM     25  C   UNL A   1      34.237  24.189  26.025  1.00  0.00     0.023 A 
ATOM     26  C   UNL A   1      33.156  22.346  24.897  1.00  0.00    -0.030 A 
ATOM     27  C   UNL A   1      32.121  21.258  24.833  1.00  0.00     0.046 C 
ENDBRANCH  17  20
ENDBRANCH  15  17
ENDBRANCH  10  15
ENDBRANCH   7   9
ENDBRANCH   6   7
ENDBRANCH   5   6
ENDBRANCH   1   5
BRANCH   3  28
ATOM     28  C   UNL A   1      34.779  29.569  26.888  1.00  0.00     0.116 C 
BRANCH  28  29
ATOM     29  C   UNL A   1      33.752  30.375  27.685  1.00  0.00     0.023 C 
BRANCH  29  30
ATOM     30  C   UNL A   1      33.592  31.822  27.227  1.00  0.00     0.023 C 
BRANCH  30  31
ATOM     31  C   UNL A   1      32.209  32.453  27.345  1.00  0.00     0.116 C 
BRANCH  31  32
ATOM     32  N   UNL A   1      32.308  33.891  27.515  1.00  0.00    -0.352 N 
ATOM     33  C   UNL A   1      32.998  34.652  28.429  1.00  0.00     0.251 C 
ATOM     34  H   UNL A   1      31.790  34.412  26.862  1.00  0.00     0.163 HD
ATOM     35  O   UNL A   1      32.649  35.824  28.575  1.00  0.00    -0.269 OA
BRANCH  33  36
ATOM     36  C   UNL A   1      34.145  34.140  29.232  1.00  0.00     0.039 A 
ATOM     37  C   UNL A   1      35.444  34.433  28.785  1.00  0.00     0.014 A 
ATOM     38  C   UNL A   1      33.999  33.287  30.328  1.00  0.00     0.014 A 
ATOM     39  C   UNL A   1      36.567  33.879  29.415  1.00  0.00     0.010 A 
ATOM     40  C   UNL A   1      35.123  32.802  31.010  1.00  0.00     0.010 A 
ATOM     41  C   UNL A   1      36.421  33.064  30.545  1.00  0.00    -0.014 A 
BRANCH  41  42
ATOM     42  C   UNL A   1      37.601  32.439  31.214  1.00  0.00     0.031 A 
ATOM     43  C   UNL A   1      38.355  31.316  30.540  1.00  0.00     0.074 A 
ATOM     44  C   UNL A   1      37.982  32.847  32.441  1.00  0.00     0.049 A 
ATOM     45  N   UNL A   1      39.355  30.595  30.989  1.00  0.00    -0.248 NA
ATOM     46  C   UNL A   1      37.916  30.939  29.187  1.00  0.00     0.031 C 
ATOM     47  C   UNL A   1      37.338  33.904  33.218  1.00  0.00     0.029 A 
ATOM     48  N   UNL A   1      39.000  32.411  33.257  1.00  0.00    -0.354 N 
ATOM     49  C   UNL A   1      39.638  29.667  29.993  1.00  0.00     0.074 A 
ATOM     50  C   UNL A   1      38.684  29.891  28.929  1.00  0.00     0.031 C 
ATOM     51  C   UNL A   1      37.981  34.047  34.389  1.00  0.00     0.029 A 
ATOM     52  C   UNL A   1      39.055  33.061  34.467  1.00  0.00     0.049 A 
ATOM     53  H   UNL A   1      39.631  31.700  32.999  1.00  0.00     0.167 HD
ATOM     54  C   UNL A   1      40.612  28.726  29.959  1.00  0.00     0.037 A 
ATOM     55  C   UNL A   1      39.866  32.874  35.527  1.00  0.00     0.037 A 
ATOM     56  C   UNL A   1      41.589  28.527  30.998  1.00  0.00     0.049 A 
ATOM     57  C   UNL A   1      40.928  31.807  35.468  1.00  0.00     0.074 A 
ATOM     58  C   UNL A   1      42.661  27.651  31.019  1.00  0.00     0.029 A 
ATOM     59  N   UNL A   1      41.612  29.213  32.203  1.00  0.00    -0.354 N 
ATOM     60  N   UNL A   1      41.228  30.987  34.490  1.00  0.00    -0.248 NA
ATOM     61  C   UNL A   1      41.769  31.643  36.662  1.00  0.00     0.031 C 
ATOM     62  C   UNL A   1      43.298  27.765  32.258  1.00  0.00     0.029 A 
ATOM     63  C   UNL A   1      42.663  28.758  32.985  1.00  0.00     0.049 A 
ATOM     64  H   UNL A   1      40.978  29.919  32.465  1.00  0.00     0.167 HD
ATOM     65  C   UNL A   1      42.312  30.241  34.936  1.00  0.00     0.074 A 
ATOM     66  C   UNL A   1      42.628  30.716  36.266  1.00  0.00     0.031 C 
ATOM     67  C   UNL A   1      42.984  29.251  34.300  1.00  0.00     0.037 A 
BRANCH  54  68
ATOM     68  C   UNL A   1      40.682  27.824  28.759  1.00  0.00     0.064 A 
ATOM     69  C   UNL A   1      39.949  26.631  28.686  1.00  0.00     0.173 A 
ATOM     70  C   UNL A   1      41.435  28.198  27.634  1.00  0.00     0.173 A 
ATOM     71  F   UNL A   1      39.216  26.222  29.733  1.00  0.00    -0.203 F 
ATOM     72  C   UNL A   1      39.983  25.837  27.541  1.00  0.00     0.198 A 
ATOM     73  C   UNL A   1      41.442  27.418  26.481  1.00  0.00     0.198 A 
ATOM     74  F   UNL A   1      42.148  29.336  27.644  1.00  0.00    -0.203 F 
ATOM     75  F   UNL A   1      39.305  24.681  27.509  1.00  0.00    -0.200 F 
ATOM     76  C   UNL A   1      40.721  26.235  26.437  1.00  0.00     0.200 A 
ATOM     77  F   UNL A   1      42.143  27.814  25.409  1.00  0.00    -0.200 F 
ATOM     78  F   UNL A   1      40.740  25.477  25.332  1.00  0.00    -0.200 F 
ENDBRANCH  54  68
BRANCH  55  79
ATOM     79  C   UNL A   1      39.720  33.719  36.744  1.00  0.00     0.064 A 
ATOM     80  C   UNL A   1      38.912  33.308  37.813  1.00  0.00     0.173 A 
ATOM     81  C   UNL A   1      40.348  34.970  36.847  1.00  0.00     0.173 A 
ATOM     82  F   UNL A   1      38.270  32.132  37.753  1.00  0.00    -0.203 F 
ATOM     83  C   UNL A   1      38.711  34.127  38.922  1.00  0.00     0.198 A 
ATOM     84  C   UNL A   1      40.173  35.774  37.972  1.00  0.00     0.198 A 
ATOM     85  F   UNL A   1      41.134  35.412  35.854  1.00  0.00    -0.203 F 
ATOM     86  F   UNL A   1      37.881  33.736  39.899  1.00  0.00    -0.200 F 
ATOM     87  C   UNL A   1      39.345  35.358  39.003  1.00  0.00     0.200 A 
ATOM     88  F   UNL A   1      40.799  36.956  38.053  1.00  0.00    -0.200 F 
ATOM     89  F   UNL A   1      39.146  36.147  40.067  1.00  0.00    -0.200 F 
ENDBRANCH  55  79
BRANCH  67  90
ATOM     90  C   UNL A   1      44.165  28.648  35.006  1.00  0.00     0.064 A 
ATOM     91  C   UNL A   1      45.455  29.184  34.881  1.00  0.00     0.173 A 
ATOM     92  C   UNL A   1      43.994  27.540  35.850  1.00  0.00     0.173 A 
ATOM     93  F   UNL A   1      45.676  30.234  34.075  1.00  0.00    -0.203 F 
ATOM     94  C   UNL A   1      46.535  28.613  35.550  1.00  0.00     0.198 A 
ATOM     95  C   UNL A   1      45.069  26.995  36.545  1.00  0.00     0.198 A 
ATOM     96  F   UNL A   1      42.779  26.994  36.013  1.00  0.00    -0.203 F 
ATOM     97  F   UNL A   1      47.767  29.109  35.374  1.00  0.00    -0.200 F 
ATOM     98  C   UNL A   1      46.340  27.525  36.388  1.00  0.00     0.200 A 
ATOM     99  F   UNL A   1      44.875  25.954  37.368  1.00  0.00    -0.200 F 
ATOM    100  F   UNL A   1      47.379  26.984  37.039  1.00  0.00    -0.200 F 
ENDBRANCH  67  90
ENDBRANCH  41  42
ENDBRANCH  33  36
ENDBRANCH  31  32
ENDBRANCH  30  31
ENDBRANCH  29  30
ENDBRANCH  28  29
ENDBRANCH   3  28
TORSDOF 17
ENDMDL
MODEL 2
REMARK VINA RESULT:     -12.1      6.256     10.747
REMARK SMILES Cc1ccc(S(=O)(=O)Nc2ccc(C(=O)CCC(=O)NCCCCNC(=O)c3ccc(-c4c5nc(c(-c6c(F)c(F)c(F)c(F)c6F)c6ccc([nH]6)c(-c6c(F)c(F)c(F)c(F)c6F)c6nc(c(-c7c(F)c(F)c(F)c(F)c7F)c7ccc4[nH]7)C=C6)C=C5)cc3)cc2)c(C)c1
REMARK SMILES IDX 18 1 19 2 20 3 17 5 16 6 14 7 15 8 13 9 10 10 11 11 92 12
REMARK SMILES IDX 12 13 91 14 9 15 6 17 7 18 8 19 5 20 1 21 2 22 3 23 95 24
REMARK SMILES IDX 4 25 93 26 94 27 21 28 22 29 23 30 24 31 25 32 26 33 27 35
REMARK SMILES IDX 28 36 29 37 90 38 30 39 89 40 31 41 32 42 33 43 83 44 34 45
REMARK SMILES IDX 88 46 82 47 84 48 35 49 87 50 81 51 80 52 36 54 68 55 48 56
REMARK SMILES IDX 67 57 49 58 52 59 66 60 85 61 50 62 51 63 65 65 86 66 53 67
REMARK SMILES IDX 37 68 38 69 46 70 39 71 40 72 44 73 47 74 41 75 42 76 45 77
REMARK SMILES IDX 43 78 69 79 70 80 78 81 71 82 72 83 76 84 79 85 73 86 74 87
REMARK SMILES IDX 77 88 75 89 54 90 55 91 63 92 56 93 57 94 61 95 64 96 58 97
REMARK SMILES IDX 59 98 62 99 60 100
REMARK H PARENT 20 4 9 16 25 34 84 53 52 64
REMARK Flexibility Score: inf
ROOT
ATOM      1  C   UNL A   1      38.628  22.716  26.120  1.00  0.00     0.220 C 
ATOM      2  O   UNL A   1      38.090  23.818  26.224  1.00  0.00    -0.275 OA
ATOM      3  N   UNL A   1      39.890  22.565  26.595  1.00  0.00    -0.356 N 
ATOM      4  H   UNL A   1      40.408  23.400  26.647  1.00  0.00     0.163 HD
ENDROOT
BRANCH   1   5
ATOM      5  C   UNL A   1      37.985  21.602  25.350  1.00  0.00     0.108 C 
BRANCH   5   6
ATOM      6  C   UNL A   1      36.612  22.071  24.854  1.00  0.00     0.091 C 
BRANCH   6   7
ATOM      7  C   UNL A   1      35.565  20.966  24.869  1.00  0.00     0.163 C 
ATOM      8  O   UNL A   1      35.921  19.794  25.001  1.00  0.00    -0.294 OA
BRANCH   7   9
ATOM      9  C   UNL A   1      34.112  21.255  24.590  1.00  0.00     0.018 A 
ATOM     10  C   UNL A   1      31.587  22.518  24.636  1.00  0.00     0.049 A 
ATOM     11  C   UNL A   1      32.561  22.903  23.704  1.00  0.00     0.027 A 
ATOM     12  C   UNL A   1      31.806  21.356  25.373  1.00  0.00     0.027 A 
ATOM     13  C   UNL A   1      33.817  22.279  23.683  1.00  0.00     0.014 A 
ATOM     14  C   UNL A   1      33.057  20.711  25.329  1.00  0.00     0.014 A 
BRANCH  10  15
ATOM     15  N   UNL A   1      30.639  23.524  25.000  1.00  0.00    -0.280 N 
ATOM     16  H   UNL A   1      29.795  23.530  24.495  1.00  0.00     0.180 HD
BRANCH  15  17
ATOM     17  S   UNL A   1      30.798  24.693  26.191  1.00  0.00     0.262 S 
ATOM     18  O   UNL A   1      31.590  24.123  27.265  1.00  0.00    -0.201 OA
ATOM     19  O   UNL A   1      29.454  25.175  26.407  1.00  0.00    -0.201 OA
BRANCH  17  20
ATOM     20  C   UNL A   1      31.708  26.084  25.525  1.00  0.00     0.090 A 
ATOM     21  C   UNL A   1      33.682  28.951  22.989  1.00  0.00     0.044 C 
ATOM     22  C   UNL A   1      33.036  28.012  23.966  1.00  0.00    -0.051 A 
ATOM     23  C   UNL A   1      31.722  28.217  24.377  1.00  0.00     0.005 A 
ATOM     24  C   UNL A   1      33.739  26.938  24.512  1.00  0.00     0.008 A 
ATOM     25  C   UNL A   1      31.045  27.241  25.118  1.00  0.00     0.023 A 
ATOM     26  C   UNL A   1      33.098  25.988  25.332  1.00  0.00    -0.030 A 
ATOM     27  C   UNL A   1      33.976  24.996  26.044  1.00  0.00     0.046 C 
ENDBRANCH  17  20
ENDBRANCH  15  17
ENDBRANCH  10  15
ENDBRANCH   7   9
ENDBRANCH   6   7
ENDBRANCH   5   6
ENDBRANCH   1   5
BRANCH   3  28
ATOM     28  C   UNL A   1      40.607  21.381  27.041  1.00  0.00     0.116 C 
BRANCH  28  29
ATOM     29  C   UNL A   1      41.841  21.020  26.213  1.00  0.00     0.023 C 
BRANCH  29  30
ATOM     30  C   UNL A   1      41.890  19.565  25.754  1.00  0.00     0.023 C 
BRANCH  30  31
ATOM     31  C   UNL A   1      43.095  18.731  26.176  1.00  0.00     0.116 C 
BRANCH  31  32
ATOM     32  N   UNL A   1      43.968  18.475  25.045  1.00  0.00    -0.352 N 
ATOM     33  C   UNL A   1      44.631  19.330  24.197  1.00  0.00     0.251 C 
ATOM     34  H   UNL A   1      44.111  17.521  24.852  1.00  0.00     0.163 HD
ATOM     35  O   UNL A   1      45.025  18.877  23.122  1.00  0.00    -0.269 OA
BRANCH  33  36
ATOM     36  C   UNL A   1      44.907  20.761  24.516  1.00  0.00     0.039 A 
ATOM     37  C   UNL A   1      45.508  21.054  25.752  1.00  0.00     0.014 A 
ATOM     38  C   UNL A   1      44.491  21.824  23.713  1.00  0.00     0.014 A 
ATOM     39  C   UNL A   1      45.681  22.379  26.174  1.00  0.00     0.010 A 
ATOM     40  C   UNL A   1      44.741  23.149  24.097  1.00  0.00     0.010 A 
ATOM     41  C   UNL A   1      45.308  23.446  25.346  1.00  0.00    -0.014 A 
BRANCH  41  42
ATOM     42  C   UNL A   1      45.456  24.865  25.787  1.00  0.00     0.031 A 
ATOM     43  C   UNL A   1      46.799  25.553  25.712  1.00  0.00     0.074 A 
ATOM     44  C   UNL A   1      44.400  25.534  26.292  1.00  0.00     0.049 A 
ATOM     45  N   UNL A   1      47.147  26.751  26.117  1.00  0.00    -0.248 NA
ATOM     46  C   UNL A   1      47.906  24.786  25.119  1.00  0.00     0.031 C 
ATOM     47  C   UNL A   1      43.050  24.992  26.442  1.00  0.00     0.029 A 
ATOM     48  N   UNL A   1      44.297  26.814  26.783  1.00  0.00    -0.354 N 
ATOM     49  C   UNL A   1      48.509  26.865  25.858  1.00  0.00     0.074 A 
ATOM     50  C   UNL A   1      48.934  25.603  25.293  1.00  0.00     0.031 C 
ATOM     51  C   UNL A   1      42.253  25.934  26.974  1.00  0.00     0.029 A 
ATOM     52  C   UNL A   1      43.042  27.131  27.244  1.00  0.00     0.049 A 
ATOM     53  H   UNL A   1      45.053  27.446  26.803  1.00  0.00     0.167 HD
ATOM     54  C   UNL A   1      49.326  27.927  26.056  1.00  0.00     0.037 A 
ATOM     55  C   UNL A   1      42.581  28.252  27.835  1.00  0.00     0.037 A 
ATOM     56  C   UNL A   1      48.898  29.198  26.580  1.00  0.00     0.049 A 
ATOM     57  C   UNL A   1      43.519  29.409  28.060  1.00  0.00     0.074 A 
ATOM     58  C   UNL A   1      49.638  30.357  26.745  1.00  0.00     0.029 A 
ATOM     59  N   UNL A   1      47.616  29.477  27.028  1.00  0.00    -0.354 N 
ATOM     60  N   UNL A   1      44.786  29.526  27.742  1.00  0.00    -0.248 NA
ATOM     61  C   UNL A   1      42.959  30.596  28.722  1.00  0.00     0.031 C 
ATOM     62  C   UNL A   1      48.820  31.318  27.344  1.00  0.00     0.029 A 
ATOM     63  C   UNL A   1      47.553  30.781  27.494  1.00  0.00     0.049 A 
ATOM     64  H   UNL A   1      46.862  28.844  27.014  1.00  0.00     0.167 HD
ATOM     65  C   UNL A   1      45.160  30.806  28.131  1.00  0.00     0.074 A 
ATOM     66  C   UNL A   1      43.984  31.435  28.692  1.00  0.00     0.031 C 
ATOM     67  C   UNL A   1      46.371  31.406  28.031  1.00  0.00     0.037 A 
BRANCH  54  68
ATOM     68  C   UNL A   1      50.781  27.773  25.709  1.00  0.00     0.064 A 
ATOM     69  C   UNL A   1      51.741  27.436  26.675  1.00  0.00     0.173 A 
ATOM     70  C   UNL A   1      51.208  27.890  24.376  1.00  0.00     0.173 A 
ATOM     71  F   UNL A   1      51.390  27.317  27.964  1.00  0.00    -0.203 F 
ATOM     72  C   UNL A   1      53.075  27.243  26.323  1.00  0.00     0.198 A 
ATOM     73  C   UNL A   1      52.536  27.665  24.024  1.00  0.00     0.198 A 
ATOM     74  F   UNL A   1      50.330  28.199  23.409  1.00  0.00    -0.203 F 
ATOM     75  F   UNL A   1      53.981  26.961  27.270  1.00  0.00    -0.200 F 
ATOM     76  C   UNL A   1      53.470  27.348  24.998  1.00  0.00     0.200 A 
ATOM     77  F   UNL A   1      52.912  27.750  22.740  1.00  0.00    -0.200 F 
ATOM     78  F   UNL A   1      54.751  27.146  24.661  1.00  0.00    -0.200 F 
ENDBRANCH  54  68
BRANCH  55  79
ATOM     79  C   UNL A   1      41.156  28.350  28.254  1.00  0.00     0.064 A 
ATOM     80  C   UNL A   1      40.191  28.900  27.399  1.00  0.00     0.173 A 
ATOM     81  C   UNL A   1      40.737  27.938  29.528  1.00  0.00     0.173 A 
ATOM     82  F   UNL A   1      40.545  29.332  26.179  1.00  0.00    -0.203 F 
ATOM     83  C   UNL A   1      38.870  29.064  27.812  1.00  0.00     0.198 A 
ATOM     84  C   UNL A   1      39.408  28.072  29.928  1.00  0.00     0.198 A 
ATOM     85  F   UNL A   1      41.618  27.404  30.386  1.00  0.00    -0.203 F 
ATOM     86  F   UNL A   1      37.984  29.653  26.997  1.00  0.00    -0.200 F 
ATOM     87  C   UNL A   1      38.479  28.646  29.075  1.00  0.00     0.200 A 
ATOM     88  F   UNL A   1      39.031  27.654  31.144  1.00  0.00    -0.200 F 
ATOM     89  F   UNL A   1      37.211  28.810  29.473  1.00  0.00    -0.200 F 
ENDBRANCH  55  79
BRANCH  67  90
ATOM     90  C   UNL A   1      46.479  32.834  28.487  1.00  0.00     0.064 A 
ATOM     91  C   UNL A   1      46.884  33.168  29.787  1.00  0.00     0.173 A 
ATOM     92  C   UNL A   1      46.207  33.883  27.594  1.00  0.00     0.173 A 
ATOM     93  F   UNL A   1      47.141  32.203  30.684  1.00  0.00    -0.203 F 
ATOM     94  C   UNL A   1      46.984  34.498  30.186  1.00  0.00     0.198 A 
ATOM     95  C   UNL A   1      46.342  35.212  27.987  1.00  0.00     0.198 A 
ATOM     96  F   UNL A   1      45.824  33.619  26.336  1.00  0.00    -0.203 F 
ATOM     97  F   UNL A   1      47.321  34.793  31.449  1.00  0.00    -0.200 F 
ATOM     98  C   UNL A   1      46.721  35.519  29.284  1.00  0.00     0.200 A 
ATOM     99  F   UNL A   1      46.104  36.196  27.108  1.00  0.00    -0.200 F 
ATOM    100  F   UNL A   1      46.827  36.798  29.668  1.00  0.00    -0.200 F 
ENDBRANCH  67  90
ENDBRANCH  41  42
ENDBRANCH  33  36
ENDBRANCH  31  32
ENDBRANCH  30  31
ENDBRANCH  29  30
ENDBRANCH  28  29
ENDBRANCH   3  28
TORSDOF 17
ENDMDL
MODEL 3
REMARK VINA RESULT:     -12.1      1.399      1.988
REMARK SMILES Cc1ccc(S(=O)(=O)Nc2ccc(C(=O)CCC(=O)NCCCCNC(=O)c3ccc(-c4c5nc(c(-c6c(F)c(F)c(F)c(F)c6F)c6ccc([nH]6)c(-c6c(F)c(F)c(F)c(F)c6F)c6nc(c(-c7c(F)c(F)c(F)c(F)c7F)c7ccc4[nH]7)C=C6)C=C5)cc3)cc2)c(C)c1
REMARK SMILES IDX 18 1 19 2 20 3 17 5 16 6 14 7 15 8 13 9 10 10 11 11 92 12
REMARK SMILES IDX 12 13 91 14 9 15 6 17 7 18 8 19 5 20 1 21 2 22 3 23 95 24
REMARK SMILES IDX 4 25 93 26 94 27 21 28 22 29 23 30 24 31 25 32 26 33 27 35
REMARK SMILES IDX 28 36 29 37 90 38 30 39 89 40 31 41 32 42 33 43 83 44 34 45
REMARK SMILES IDX 88 46 82 47 84 48 35 49 87 50 81 51 80 52 36 54 68 55 48 56
REMARK SMILES IDX 67 57 49 58 52 59 66 60 85 61 50 62 51 63 65 65 86 66 53 67
REMARK SMILES IDX 37 68 38 69 46 70 39 71 40 72 44 73 47 74 41 75 42 76 45 77
REMARK SMILES IDX 43 78 69 79 70 80 78 81 71 82 72 83 76 84 79 85 73 86 74 87
REMARK SMILES IDX 77 88 75 89 54 90 55 91 63 92 56 93 57 94 61 95 64 96 58 97
REMARK SMILES IDX 59 98 62 99 60 100
REMARK H PARENT 20 4 9 16 25 34 84 53 52 64
REMARK Flexibility Score: inf
ROOT
ATOM      1  C   UNL A   1      32.504  29.008  23.921  1.00  0.00     0.220 C 
ATOM      2  O   UNL A   1      33.099  29.004  22.843  1.00  0.00    -0.275 OA
ATOM      3  N   UNL A   1      33.055  29.684  24.960  1.00  0.00    -0.356 N 
ATOM      4  H   UNL A   1      34.030  29.804  24.897  1.00  0.00     0.163 HD
ENDROOT
BRANCH   1   5
ATOM      5  C   UNL A   1      31.285  28.164  24.143  1.00  0.00     0.108 C 
BRANCH   5   6
ATOM      6  C   UNL A   1      31.583  27.144  25.249  1.00  0.00     0.091 C 
BRANCH   6   7
ATOM      7  C   UNL A   1      30.675  25.924  25.193  1.00  0.00     0.163 C 
ATOM      8  O   UNL A   1      29.588  26.002  24.618  1.00  0.00    -0.294 OA
BRANCH   7   9
ATOM      9  C   UNL A   1      31.009  24.659  25.942  1.00  0.00     0.018 A 
ATOM     10  C   UNL A   1      32.233  22.208  26.624  1.00  0.00     0.049 A 
ATOM     11  C   UNL A   1      32.796  23.425  27.033  1.00  0.00     0.027 A 
ATOM     12  C   UNL A   1      30.949  22.227  26.082  1.00  0.00     0.027 A 
ATOM     13  C   UNL A   1      32.191  24.643  26.691  1.00  0.00     0.014 A 
ATOM     14  C   UNL A   1      30.328  23.451  25.767  1.00  0.00     0.014 A 
BRANCH  10  15
ATOM     15  N   UNL A   1      33.146  21.118  26.467  1.00  0.00    -0.280 N 
ATOM     16  H   UNL A   1      33.154  20.450  27.190  1.00  0.00     0.180 HD
BRANCH  15  17
ATOM     17  S   UNL A   1      34.201  20.846  25.194  1.00  0.00     0.262 S 
ATOM     18  O   UNL A   1      33.822  19.594  24.567  1.00  0.00    -0.201 OA
ATOM     19  O   UNL A   1      35.514  21.048  25.763  1.00  0.00    -0.201 OA
BRANCH  17  20
ATOM     20  C   UNL A   1      33.998  22.145  23.980  1.00  0.00     0.090 A 
ATOM     21  C   UNL A   1      32.930  25.725  21.837  1.00  0.00     0.044 C 
ATOM     22  C   UNL A   1      33.352  24.439  22.484  1.00  0.00    -0.051 A 
ATOM     23  C   UNL A   1      34.561  24.359  23.169  1.00  0.00     0.005 A 
ATOM     24  C   UNL A   1      32.570  23.288  22.387  1.00  0.00     0.008 A 
ATOM     25  C   UNL A   1      34.867  23.235  23.948  1.00  0.00     0.023 A 
ATOM     26  C   UNL A   1      32.905  22.116  23.095  1.00  0.00    -0.030 A 
ATOM     27  C   UNL A   1      32.131  20.871  22.761  1.00  0.00     0.046 C 
ENDBRANCH  17  20
ENDBRANCH  15  17
ENDBRANCH  10  15
ENDBRANCH   7   9
ENDBRANCH   6   7
ENDBRANCH   5   6
ENDBRANCH   1   5
BRANCH   3  28
ATOM     28  C   UNL A   1      32.451  30.261  26.150  1.00  0.00     0.116 C 
BRANCH  28  29
ATOM     29  C   UNL A   1      31.192  31.093  25.901  1.00  0.00     0.023 C 
BRANCH  29  30
ATOM     30  C   UNL A   1      31.250  32.510  26.468  1.00  0.00     0.023 C 
BRANCH  30  31
ATOM     31  C   UNL A   1      32.508  32.918  27.226  1.00  0.00     0.116 C 
BRANCH  31  32
ATOM     32  N   UNL A   1      32.452  34.317  27.606  1.00  0.00    -0.352 N 
ATOM     33  C   UNL A   1      33.011  34.996  28.663  1.00  0.00     0.251 C 
ATOM     34  H   UNL A   1      31.920  34.880  26.999  1.00  0.00     0.163 HD
ATOM     35  O   UNL A   1      32.538  36.095  28.951  1.00  0.00    -0.269 OA
BRANCH  33  36
ATOM     36  C   UNL A   1      34.160  34.478  29.461  1.00  0.00     0.039 A 
ATOM     37  C   UNL A   1      35.440  34.540  28.887  1.00  0.00     0.014 A 
ATOM     38  C   UNL A   1      34.015  33.826  30.687  1.00  0.00     0.014 A 
ATOM     39  C   UNL A   1      36.546  33.959  29.523  1.00  0.00     0.010 A 
ATOM     40  C   UNL A   1      35.133  33.319  31.363  1.00  0.00     0.010 A 
ATOM     41  C   UNL A   1      36.408  33.349  30.777  1.00  0.00    -0.014 A 
BRANCH  41  42
ATOM     42  C   UNL A   1      37.566  32.696  31.459  1.00  0.00     0.031 A 
ATOM     43  C   UNL A   1      38.290  31.545  30.800  1.00  0.00     0.074 A 
ATOM     44  C   UNL A   1      37.952  33.105  32.684  1.00  0.00     0.049 A 
ATOM     45  N   UNL A   1      39.265  30.799  31.262  1.00  0.00    -0.248 NA
ATOM     46  C   UNL A   1      37.848  31.168  29.448  1.00  0.00     0.031 C 
ATOM     47  C   UNL A   1      37.335  34.189  33.447  1.00  0.00     0.029 A 
ATOM     48  N   UNL A   1      38.952  32.648  33.510  1.00  0.00    -0.354 N 
ATOM     49  C   UNL A   1      39.526  29.853  30.276  1.00  0.00     0.074 A 
ATOM     50  C   UNL A   1      38.586  30.095  29.205  1.00  0.00     0.031 C 
ATOM     51  C   UNL A   1      37.976  34.324  34.620  1.00  0.00     0.029 A 
ATOM     52  C   UNL A   1      39.021  33.308  34.713  1.00  0.00     0.049 A 
ATOM     53  H   UNL A   1      39.564  31.916  33.262  1.00  0.00     0.167 HD
ATOM     54  C   UNL A   1      40.473  28.884  30.257  1.00  0.00     0.037 A 
ATOM     55  C   UNL A   1      39.820  33.107  35.780  1.00  0.00     0.037 A 
ATOM     56  C   UNL A   1      41.438  28.667  31.304  1.00  0.00     0.049 A 
ATOM     57  C   UNL A   1      40.850  32.009  35.737  1.00  0.00     0.074 A 
ATOM     58  C   UNL A   1      42.483  27.760  31.338  1.00  0.00     0.029 A 
ATOM     59  N   UNL A   1      41.475  29.364  32.502  1.00  0.00    -0.354 N 
ATOM     60  N   UNL A   1      41.131  31.171  34.769  1.00  0.00    -0.248 NA
ATOM     61  C   UNL A   1      41.680  31.832  36.938  1.00  0.00     0.031 C 
ATOM     62  C   UNL A   1      43.117  27.868  32.580  1.00  0.00     0.029 A 
ATOM     63  C   UNL A   1      42.507  28.886  33.294  1.00  0.00     0.049 A 
ATOM     64  H   UNL A   1      40.860  30.091  32.753  1.00  0.00     0.167 HD
ATOM     65  C   UNL A   1      42.190  30.398  35.228  1.00  0.00     0.074 A 
ATOM     66  C   UNL A   1      42.513  30.876  36.555  1.00  0.00     0.031 C 
ATOM     67  C   UNL A   1      42.836  29.383  34.605  1.00  0.00     0.037 A 
BRANCH  54  68
ATOM     68  C   UNL A   1      40.523  27.969  29.066  1.00  0.00     0.064 A 
ATOM     69  C   UNL A   1      39.738  26.808  28.991  1.00  0.00     0.173 A 
ATOM     70  C   UNL A   1      41.309  28.299  27.951  1.00  0.00     0.173 A 
ATOM     71  F   UNL A   1      38.972  26.442  30.029  1.00  0.00    -0.203 F 
ATOM     72  C   UNL A   1      39.756  26.002  27.854  1.00  0.00     0.198 A 
ATOM     73  C   UNL A   1      41.301  27.508  26.804  1.00  0.00     0.198 A 
ATOM     74  F   UNL A   1      42.071  29.404  27.963  1.00  0.00    -0.203 F 
ATOM     75  F   UNL A   1      39.029  24.877  27.822  1.00  0.00    -0.200 F 
ATOM     76  C   UNL A   1      40.529  26.357  26.759  1.00  0.00     0.200 A 
ATOM     77  F   UNL A   1      42.036  27.863  25.741  1.00  0.00    -0.200 F 
ATOM     78  F   UNL A   1      40.532  25.589  25.661  1.00  0.00    -0.200 F 
ENDBRANCH  54  68
BRANCH  55  79
ATOM     79  C   UNL A   1      39.693  33.968  36.988  1.00  0.00     0.064 A 
ATOM     80  C   UNL A   1      38.897  33.574  38.072  1.00  0.00     0.173 A 
ATOM     81  C   UNL A   1      40.326  35.218  37.067  1.00  0.00     0.173 A 
ATOM     82  F   UNL A   1      38.250  32.399  38.036  1.00  0.00    -0.203 F 
ATOM     83  C   UNL A   1      38.713  34.408  39.174  1.00  0.00     0.198 A 
ATOM     84  C   UNL A   1      40.168  36.037  38.184  1.00  0.00     0.198 A 
ATOM     85  F   UNL A   1      41.100  35.645  36.058  1.00  0.00    -0.203 F 
ATOM     86  F   UNL A   1      37.894  34.032  40.166  1.00  0.00    -0.200 F 
ATOM     87  C   UNL A   1      39.352  35.637  39.230  1.00  0.00     0.200 A 
ATOM     88  F   UNL A   1      40.799  37.218  38.241  1.00  0.00    -0.200 F 
ATOM     89  F   UNL A   1      39.170  36.441  40.286  1.00  0.00    -0.200 F 
ENDBRANCH  55  79
BRANCH  67  90
ATOM     90  C   UNL A   1      43.995  28.752  35.324  1.00  0.00     0.064 A 
ATOM     91  C   UNL A   1      45.311  29.200  35.142  1.00  0.00     0.173 A 
ATOM     92  C   UNL A   1      43.778  27.708  36.237  1.00  0.00     0.173 A 
ATOM     93  F   UNL A   1      45.576  30.185  34.270  1.00  0.00    -0.203 F 
ATOM     94  C   UNL A   1      46.371  28.606  35.824  1.00  0.00     0.198 A 
ATOM     95  C   UNL A   1      44.834  27.141  36.943  1.00  0.00     0.198 A 
ATOM     96  F   UNL A   1      42.537  27.247  36.456  1.00  0.00    -0.203 F 
ATOM     97  F   UNL A   1      47.626  29.014  35.594  1.00  0.00    -0.200 F 
ATOM     98  C   UNL A   1      46.131  27.583  36.730  1.00  0.00     0.200 A 
ATOM     99  F   UNL A   1      44.598  26.164  37.831  1.00  0.00    -0.200 F 
ATOM    100  F   UNL A   1      47.150  27.020  37.392  1.00  0.00    -0.200 F 
ENDBRANCH  67  90
ENDBRANCH  41  42
ENDBRANCH  33  36
ENDBRANCH  31  32
ENDBRANCH  30  31
ENDBRANCH  29  30
ENDBRANCH  28  29
ENDBRANCH   3  28
TORSDOF 17
ENDMDL
