MODEL 1
REMARK VINA RESULT:     -12.9      0.000      0.000
REMARK SMILES C[C@H]1[C@@H]([NH2+]C[C@H]2CC[C@@H](C(=O)NCCCCNC(=O)c3ccc(-c4c5nc(c(-c6c(F)c(F)c(F)c(F)c6F)c6ccc([nH]6)c(-c6c(F)c(F)c(F)c(F)c6F)c6nc(c(-c7c(F)c(F)c(F)c(F)c7F)c7ccc4[nH]7)C=C6)C=C5)cc3)CC2)CCC[C@@H]1C
REMARK SMILES IDX 14 1 13 2 12 3 10 4 11 5 9 7 6 8 7 9 84 10 8 11 83 12 5 13
REMARK SMILES IDX 4 14 3 17 1 18 2 19 88 20 85 21 87 22 89 23 86 24 15 25
REMARK SMILES IDX 16 26 17 27 18 28 19 30 20 31 21 32 82 33 22 34 81 35 23 36
REMARK SMILES IDX 24 37 25 38 75 39 26 40 80 41 74 42 76 43 27 44 79 45 73 46
REMARK SMILES IDX 72 47 28 49 60 50 40 51 59 52 41 53 44 54 58 55 77 56 42 57
REMARK SMILES IDX 43 58 57 60 78 61 45 62 29 63 30 64 38 65 31 66 32 67 36 68
REMARK SMILES IDX 39 69 33 70 34 71 37 72 35 73 61 74 62 75 70 76 63 77 64 78
REMARK SMILES IDX 68 79 71 80 65 81 66 82 69 83 67 84 46 85 47 86 55 87 48 88
REMARK SMILES IDX 49 89 53 90 56 91 50 92 51 93 54 94 52 95
REMARK H PARENT 12 6 4 15 4 16 17 29 76 48 44 59
REMARK Flexibility Score: inf
ROOT
ATOM      1  C   UNL A   1      31.904  30.534  26.535  1.00  0.00     0.023 C 
ENDROOT
BRANCH   1   2
ATOM      2  C   UNL A   1      33.364  30.109  26.658  1.00  0.00     0.116 C 
BRANCH   2   3
ATOM      3  N   UNL A   1      33.863  29.427  25.485  1.00  0.00    -0.356 N 
ATOM      4  C   UNL A   1      33.486  28.243  24.929  1.00  0.00     0.223 C 
ATOM      5  O   UNL A   1      34.027  27.927  23.865  1.00  0.00    -0.275 OA
ATOM      6  H   UNL A   1      34.592  29.893  25.016  1.00  0.00     0.163 HD
BRANCH   4   7
ATOM      7  C   UNL A   1      32.430  27.327  25.556  1.00  0.00     0.078 C 
ATOM      8  C   UNL A   1      30.655  24.910  25.609  1.00  0.00     0.044 C 
ATOM      9  C   UNL A   1      31.903  25.040  26.501  1.00  0.00     0.010 C 
ATOM     10  C   UNL A   1      30.080  26.321  25.365  1.00  0.00     0.010 C 
ATOM     11  C   UNL A   1      32.979  25.935  25.889  1.00  0.00     0.014 C 
ATOM     12  C   UNL A   1      31.099  27.314  24.789  1.00  0.00     0.014 C 
BRANCH   8  13
ATOM     13  C   UNL A   1      30.872  24.159  24.267  1.00  0.00     0.264 C 
BRANCH  13  14
ATOM     14  N   UNL A   1      31.458  22.833  24.451  1.00  0.00    -0.343 N 
ATOM     15  H   UNL A   1      32.119  22.892  25.226  1.00  0.00     0.346 HD
ATOM     16  H   UNL A   1      30.666  22.211  24.613  1.00  0.00     0.346 HD
BRANCH  14  17
ATOM     17  C   UNL A   1      32.173  22.257  23.296  1.00  0.00     0.185 C 
ATOM     18  C   UNL A   1      32.533  20.062  24.569  1.00  0.00     0.014 C 
ATOM     19  C   UNL A   1      33.209  21.182  23.773  1.00  0.00     0.047 C 
ATOM     20  C   UNL A   1      34.405  21.828  24.536  1.00  0.00    -0.006 C 
ATOM     21  C   UNL A   1      32.922  23.267  22.409  1.00  0.00     0.065 C 
ATOM     22  C   UNL A   1      35.087  22.888  23.658  1.00  0.00     0.004 C 
ATOM     23  C   UNL A   1      35.453  20.816  25.001  1.00  0.00     0.008 C 
ATOM     24  C   UNL A   1      34.088  23.910  23.144  1.00  0.00     0.006 C 
ENDBRANCH  14  17
ENDBRANCH  13  14
ENDBRANCH   8  13
ENDBRANCH   4   7
ENDBRANCH   2   3
ENDBRANCH   1   2
BRANCH   1  25
ATOM     25  C   UNL A   1      31.650  32.033  26.706  1.00  0.00     0.023 C 
BRANCH  25  26
ATOM     26  C   UNL A   1      32.720  32.808  27.474  1.00  0.00     0.116 C 
BRANCH  26  27
ATOM     27  N   UNL A   1      32.338  34.169  27.821  1.00  0.00    -0.352 N 
ATOM     28  C   UNL A   1      32.987  35.085  28.613  1.00  0.00     0.251 C 
ATOM     29  H   UNL A   1      31.490  34.478  27.430  1.00  0.00     0.163 HD
ATOM     30  O   UNL A   1      32.530  36.217  28.751  1.00  0.00    -0.269 OA
BRANCH  28  31
ATOM     31  C   UNL A   1      34.180  34.676  29.384  1.00  0.00     0.039 A 
ATOM     32  C   UNL A   1      33.982  34.200  30.684  1.00  0.00     0.014 A 
ATOM     33  C   UNL A   1      35.455  34.665  28.816  1.00  0.00     0.014 A 
ATOM     34  C   UNL A   1      35.038  33.605  31.371  1.00  0.00     0.010 A 
ATOM     35  C   UNL A   1      36.493  34.012  29.477  1.00  0.00     0.010 A 
ATOM     36  C   UNL A   1      36.285  33.451  30.746  1.00  0.00    -0.014 A 
BRANCH  36  37
ATOM     37  C   UNL A   1      37.359  32.651  31.383  1.00  0.00     0.031 A 
ATOM     38  C   UNL A   1      37.849  32.995  32.757  1.00  0.00     0.074 A 
ATOM     39  C   UNL A   1      37.944  31.658  30.683  1.00  0.00     0.049 A 
ATOM     40  N   UNL A   1      38.821  32.454  33.448  1.00  0.00    -0.248 NA
ATOM     41  C   UNL A   1      37.176  34.112  33.437  1.00  0.00     0.031 C 
ATOM     42  C   UNL A   1      37.595  31.269  29.315  1.00  0.00     0.029 A 
ATOM     43  N   UNL A   1      38.963  30.803  31.020  1.00  0.00    -0.354 N 
ATOM     44  C   UNL A   1      38.887  33.174  34.631  1.00  0.00     0.074 A 
ATOM     45  C   UNL A   1      37.886  34.216  34.551  1.00  0.00     0.031 C 
ATOM     46  C   UNL A   1      38.371  30.241  28.937  1.00  0.00     0.029 A 
ATOM     47  C   UNL A   1      39.292  29.918  30.022  1.00  0.00     0.049 A 
ATOM     48  H   UNL A   1      39.416  30.822  31.894  1.00  0.00     0.167 HD
ATOM     49  C   UNL A   1      39.698  32.971  35.697  1.00  0.00     0.037 A 
ATOM     50  C   UNL A   1      40.235  28.957  29.986  1.00  0.00     0.037 A 
ATOM     51  C   UNL A   1      40.669  31.913  35.788  1.00  0.00     0.049 A 
ATOM     52  C   UNL A   1      41.103  28.736  31.193  1.00  0.00     0.074 A 
ATOM     53  C   UNL A   1      41.489  31.582  36.852  1.00  0.00     0.029 A 
ATOM     54  N   UNL A   1      40.951  31.012  34.770  1.00  0.00    -0.354 N 
ATOM     55  N   UNL A   1      41.108  29.378  32.336  1.00  0.00    -0.248 NA
ATOM     56  C   UNL A   1      42.094  27.654  31.108  1.00  0.00     0.031 C 
ATOM     57  C   UNL A   1      42.289  30.499  36.469  1.00  0.00     0.029 A 
ATOM     58  C   UNL A   1      41.942  30.134  35.178  1.00  0.00     0.049 A 
ATOM     59  H   UNL A   1      40.510  30.999  33.889  1.00  0.00     0.167 HD
ATOM     60  C   UNL A   1      42.080  28.765  33.113  1.00  0.00     0.074 A 
ATOM     61  C   UNL A   1      42.638  27.692  32.317  1.00  0.00     0.031 C 
ATOM     62  C   UNL A   1      42.476  29.066  34.374  1.00  0.00     0.037 A 
BRANCH  49  63
ATOM     63  C   UNL A   1      39.563  33.913  36.854  1.00  0.00     0.064 A 
ATOM     64  C   UNL A   1      40.198  35.164  36.858  1.00  0.00     0.173 A 
ATOM     65  C   UNL A   1      38.769  33.574  37.960  1.00  0.00     0.173 A 
ATOM     66  F   UNL A   1      40.979  35.527  35.830  1.00  0.00    -0.203 F 
ATOM     67  C   UNL A   1      40.065  36.031  37.939  1.00  0.00     0.198 A 
ATOM     68  C   UNL A   1      38.618  34.454  39.028  1.00  0.00     0.198 A 
ATOM     69  F   UNL A   1      38.138  32.391  38.003  1.00  0.00    -0.203 F 
ATOM     70  F   UNL A   1      40.718  37.201  37.942  1.00  0.00    -0.200 F 
ATOM     71  C   UNL A   1      39.271  35.678  39.020  1.00  0.00     0.200 A 
ATOM     72  F   UNL A   1      37.844  34.116  40.068  1.00  0.00    -0.200 F 
ATOM     73  F   UNL A   1      39.142  36.514  40.060  1.00  0.00    -0.200 F 
ENDBRANCH  49  63
BRANCH  50  74
ATOM     74  C   UNL A   1      40.385  28.110  28.776  1.00  0.00     0.064 A 
ATOM     75  C   UNL A   1      41.195  28.522  27.709  1.00  0.00     0.173 A 
ATOM     76  C   UNL A   1      39.724  26.880  28.659  1.00  0.00     0.173 A 
ATOM     77  F   UNL A   1      41.830  29.701  27.768  1.00  0.00    -0.203 F 
ATOM     78  C   UNL A   1      41.324  27.742  26.562  1.00  0.00     0.198 A 
ATOM     79  C   UNL A   1      39.872  26.089  27.521  1.00  0.00     0.198 A 
ATOM     80  F   UNL A   1      38.941  26.441  29.655  1.00  0.00    -0.203 F 
ATOM     81  F   UNL A   1      42.073  28.178  25.540  1.00  0.00    -0.200 F 
ATOM     82  C   UNL A   1      40.666  26.525  26.470  1.00  0.00     0.200 A 
ATOM     83  F   UNL A   1      39.244  24.909  27.440  1.00  0.00    -0.200 F 
ATOM     84  F   UNL A   1      40.793  25.774  25.367  1.00  0.00    -0.200 F 
ENDBRANCH  50  74
BRANCH  62  85
ATOM     85  C   UNL A   1      43.544  28.206  34.978  1.00  0.00     0.064 A 
ATOM     86  C   UNL A   1      44.899  28.554  34.893  1.00  0.00     0.173 A 
ATOM     87  C   UNL A   1      43.203  27.043  35.685  1.00  0.00     0.173 A 
ATOM     88  F   UNL A   1      45.275  29.647  34.213  1.00  0.00    -0.203 F 
ATOM     89  C   UNL A   1      45.879  27.756  35.481  1.00  0.00     0.198 A 
ATOM     90  C   UNL A   1      44.182  26.262  36.290  1.00  0.00     0.198 A 
ATOM     91  F   UNL A   1      41.919  26.672  35.796  1.00  0.00    -0.203 F 
ATOM     92  F   UNL A   1      47.172  28.086  35.356  1.00  0.00    -0.200 F 
ATOM     93  C   UNL A   1      45.519  26.616  36.184  1.00  0.00     0.200 A 
ATOM     94  F   UNL A   1      43.832  25.165  36.976  1.00  0.00    -0.200 F 
ATOM     95  F   UNL A   1      46.462  25.854  36.754  1.00  0.00    -0.200 F 
ENDBRANCH  62  85
ENDBRANCH  36  37
ENDBRANCH  28  31
ENDBRANCH  26  27
ENDBRANCH  25  26
ENDBRANCH   1  25
TORSDOF 14
ENDMDL
MODEL 2
REMARK VINA RESULT:     -12.8      0.431      7.403
REMARK SMILES C[C@H]1[C@@H]([NH2+]C[C@H]2CC[C@@H](C(=O)NCCCCNC(=O)c3ccc(-c4c5nc(c(-c6c(F)c(F)c(F)c(F)c6F)c6ccc([nH]6)c(-c6c(F)c(F)c(F)c(F)c6F)c6nc(c(-c7c(F)c(F)c(F)c(F)c7F)c7ccc4[nH]7)C=C6)C=C5)cc3)CC2)CCC[C@@H]1C
REMARK SMILES IDX 14 1 13 2 12 3 10 4 11 5 9 7 6 8 7 9 84 10 8 11 83 12 5 13
REMARK SMILES IDX 4 14 3 17 1 18 2 19 88 20 85 21 87 22 89 23 86 24 15 25
REMARK SMILES IDX 16 26 17 27 18 28 19 30 20 31 21 32 82 33 22 34 81 35 23 36
REMARK SMILES IDX 24 37 25 38 75 39 26 40 80 41 74 42 76 43 27 44 79 45 73 46
REMARK SMILES IDX 72 47 28 49 60 50 40 51 59 52 41 53 44 54 58 55 77 56 42 57
REMARK SMILES IDX 43 58 57 60 78 61 45 62 29 63 30 64 38 65 31 66 32 67 36 68
REMARK SMILES IDX 39 69 33 70 34 71 37 72 35 73 61 74 62 75 70 76 63 77 64 78
REMARK SMILES IDX 68 79 71 80 65 81 66 82 69 83 67 84 46 85 47 86 55 87 48 88
REMARK SMILES IDX 49 89 53 90 56 91 50 92 51 93 54 94 52 95
REMARK H PARENT 12 6 4 15 4 16 17 29 76 48 44 59
REMARK Flexibility Score: inf
ROOT
ATOM      1  C   UNL A   1      32.253  30.161  27.016  1.00  0.00     0.023 C 
ENDROOT
BRANCH   1   2
ATOM      2  C   UNL A   1      33.729  29.792  26.900  1.00  0.00     0.116 C 
BRANCH   2   3
ATOM      3  N   UNL A   1      34.073  29.198  25.628  1.00  0.00    -0.356 N 
ATOM      4  C   UNL A   1      33.598  28.073  25.025  1.00  0.00     0.223 C 
ATOM      5  O   UNL A   1      34.007  27.832  23.886  1.00  0.00    -0.275 OA
ATOM      6  H   UNL A   1      34.760  29.684  25.117  1.00  0.00     0.163 HD
BRANCH   4   7
ATOM      7  C   UNL A   1      32.588  27.134  25.693  1.00  0.00     0.078 C 
ATOM      8  C   UNL A   1      30.828  24.708  25.791  1.00  0.00     0.044 C 
ATOM      9  C   UNL A   1      32.132  24.818  26.603  1.00  0.00     0.010 C 
ATOM     10  C   UNL A   1      30.234  26.122  25.627  1.00  0.00     0.010 C 
ATOM     11  C   UNL A   1      33.163  25.735  25.949  1.00  0.00     0.014 C 
ATOM     12  C   UNL A   1      31.210  27.137  25.015  1.00  0.00     0.014 C 
BRANCH   8  13
ATOM     13  C   UNL A   1      30.959  23.997  24.416  1.00  0.00     0.264 C 
BRANCH  13  14
ATOM     14  N   UNL A   1      31.452  22.626  24.535  1.00  0.00    -0.343 N 
ATOM     15  H   UNL A   1      32.088  22.594  25.332  1.00  0.00     0.346 HD
ATOM     16  H   UNL A   1      30.617  22.049  24.631  1.00  0.00     0.346 HD
BRANCH  14  17
ATOM     17  C   UNL A   1      32.170  22.077  23.368  1.00  0.00     0.185 C 
ATOM     18  C   UNL A   1      32.587  19.878  24.617  1.00  0.00     0.014 C 
ATOM     19  C   UNL A   1      33.233  21.020  23.826  1.00  0.00     0.047 C 
ATOM     20  C   UNL A   1      34.421  21.684  24.586  1.00  0.00    -0.006 C 
ATOM     21  C   UNL A   1      32.889  23.111  22.484  1.00  0.00     0.065 C 
ATOM     22  C   UNL A   1      35.072  22.767  23.712  1.00  0.00     0.004 C 
ATOM     23  C   UNL A   1      35.494  20.691  25.033  1.00  0.00     0.008 C 
ATOM     24  C   UNL A   1      34.047  23.772  23.216  1.00  0.00     0.006 C 
ENDBRANCH  14  17
ENDBRANCH  13  14
ENDBRANCH   8  13
ENDBRANCH   4   7
ENDBRANCH   2   3
ENDBRANCH   1   2
BRANCH   1  25
ATOM     25  C   UNL A   1      31.940  31.647  26.834  1.00  0.00     0.023 C 
BRANCH  25  26
ATOM     26  C   UNL A   1      32.992  32.620  27.363  1.00  0.00     0.116 C 
BRANCH  26  27
ATOM     27  N   UNL A   1      32.468  33.929  27.723  1.00  0.00    -0.352 N 
ATOM     28  C   UNL A   1      33.002  34.891  28.547  1.00  0.00     0.251 C 
ATOM     29  H   UNL A   1      31.602  34.159  27.315  1.00  0.00     0.163 HD
ATOM     30  O   UNL A   1      32.430  35.968  28.692  1.00  0.00    -0.269 OA
BRANCH  28  31
ATOM     31  C   UNL A   1      34.210  34.587  29.341  1.00  0.00     0.039 A 
ATOM     32  C   UNL A   1      34.030  34.149  30.658  1.00  0.00     0.014 A 
ATOM     33  C   UNL A   1      35.490  34.638  28.784  1.00  0.00     0.014 A 
ATOM     34  C   UNL A   1      35.115  33.649  31.374  1.00  0.00     0.010 A 
ATOM     35  C   UNL A   1      36.561  34.078  29.477  1.00  0.00     0.010 A 
ATOM     36  C   UNL A   1      36.376  33.552  30.765  1.00  0.00    -0.014 A 
BRANCH  36  37
ATOM     37  C   UNL A   1      37.493  32.847  31.440  1.00  0.00     0.031 A 
ATOM     38  C   UNL A   1      38.166  31.683  30.779  1.00  0.00     0.074 A 
ATOM     39  C   UNL A   1      37.846  33.216  32.687  1.00  0.00     0.049 A 
ATOM     40  N   UNL A   1      39.113  30.904  31.239  1.00  0.00    -0.248 NA
ATOM     41  C   UNL A   1      37.696  31.328  29.430  1.00  0.00     0.031 C 
ATOM     42  C   UNL A   1      37.225  34.295  33.459  1.00  0.00     0.029 A 
ATOM     43  N   UNL A   1      38.807  32.717  33.532  1.00  0.00    -0.354 N 
ATOM     44  C   UNL A   1      39.338  29.960  30.247  1.00  0.00     0.074 A 
ATOM     45  C   UNL A   1      38.404  30.236  29.177  1.00  0.00     0.031 C 
ATOM     46  C   UNL A   1      37.832  34.390  34.652  1.00  0.00     0.029 A 
ATOM     47  C   UNL A   1      38.863  33.361  34.744  1.00  0.00     0.049 A 
ATOM     48  H   UNL A   1      39.399  31.969  33.292  1.00  0.00     0.167 HD
ATOM     49  C   UNL A   1      40.256  28.965  30.226  1.00  0.00     0.037 A 
ATOM     50  C   UNL A   1      39.655  33.143  35.810  1.00  0.00     0.037 A 
ATOM     51  C   UNL A   1      41.206  28.714  31.277  1.00  0.00     0.049 A 
ATOM     52  C   UNL A   1      40.683  32.048  35.749  1.00  0.00     0.074 A 
ATOM     53  C   UNL A   1      42.221  27.774  31.317  1.00  0.00     0.029 A 
ATOM     54  N   UNL A   1      41.257  29.410  32.476  1.00  0.00    -0.354 N 
ATOM     55  N   UNL A   1      40.936  31.207  34.776  1.00  0.00    -0.248 NA
ATOM     56  C   UNL A   1      41.540  31.875  36.929  1.00  0.00     0.031 C 
ATOM     57  C   UNL A   1      42.868  27.881  32.554  1.00  0.00     0.029 A 
ATOM     58  C   UNL A   1      42.277  28.911  33.269  1.00  0.00     0.049 A 
ATOM     59  H   UNL A   1      40.657  30.150  32.726  1.00  0.00     0.167 HD
ATOM     60  C   UNL A   1      41.993  30.423  35.215  1.00  0.00     0.074 A 
ATOM     61  C   UNL A   1      42.343  30.896  36.539  1.00  0.00     0.031 C 
ATOM     62  C   UNL A   1      42.616  29.401  34.579  1.00  0.00     0.037 A 
BRANCH  49  63
ATOM     63  C   UNL A   1      40.278  28.075  29.020  1.00  0.00     0.064 A 
ATOM     64  C   UNL A   1      41.017  28.411  27.876  1.00  0.00     0.173 A 
ATOM     65  C   UNL A   1      39.577  26.860  29.018  1.00  0.00     0.173 A 
ATOM     66  F   UNL A   1      41.692  29.569  27.825  1.00  0.00    -0.203 F 
ATOM     67  C   UNL A   1      41.031  27.576  26.762  1.00  0.00     0.198 A 
ATOM     68  C   UNL A   1      39.613  26.016  27.912  1.00  0.00     0.198 A 
ATOM     69  F   UNL A   1      38.858  26.492  30.089  1.00  0.00    -0.203 F 
ATOM     70  F   UNL A   1      41.705  27.940  25.662  1.00  0.00    -0.200 F 
ATOM     71  C   UNL A   1      40.334  26.377  26.783  1.00  0.00     0.200 A 
ATOM     72  F   UNL A   1      38.946  24.854  27.935  1.00  0.00    -0.200 F 
ATOM     73  F   UNL A   1      40.349  25.573  25.711  1.00  0.00    -0.200 F 
ENDBRANCH  49  63
BRANCH  50  74
ATOM     74  C   UNL A   1      39.529  34.000  37.016  1.00  0.00     0.064 A 
ATOM     75  C   UNL A   1      38.770  33.580  38.118  1.00  0.00     0.173 A 
ATOM     76  C   UNL A   1      40.156  35.251  37.093  1.00  0.00     0.173 A 
ATOM     77  F   UNL A   1      38.134  32.400  38.080  1.00  0.00    -0.203 F 
ATOM     78  C   UNL A   1      38.630  34.388  39.244  1.00  0.00     0.198 A 
ATOM     79  C   UNL A   1      40.035  36.048  38.230  1.00  0.00     0.198 A 
ATOM     80  F   UNL A   1      40.897  35.695  36.067  1.00  0.00    -0.203 F 
ATOM     81  F   UNL A   1      37.866  33.979  40.267  1.00  0.00    -0.200 F 
ATOM     82  C   UNL A   1      39.265  35.618  39.302  1.00  0.00     0.200 A 
ATOM     83  F   UNL A   1      40.659  37.232  38.286  1.00  0.00    -0.200 F 
ATOM     84  F   UNL A   1      39.132  36.393  40.386  1.00  0.00    -0.200 F 
ENDBRANCH  50  74
BRANCH  62  85
ATOM     85  C   UNL A   1      43.758  28.746  35.295  1.00  0.00     0.064 A 
ATOM     86  C   UNL A   1      43.554  27.659  36.157  1.00  0.00     0.173 A 
ATOM     87  C   UNL A   1      45.074  29.184  35.084  1.00  0.00     0.173 A 
ATOM     88  F   UNL A   1      42.313  27.216  36.403  1.00  0.00    -0.203 F 
ATOM     89  C   UNL A   1      44.628  27.045  36.797  1.00  0.00     0.198 A 
ATOM     90  C   UNL A   1      46.146  28.554  35.707  1.00  0.00     0.198 A 
ATOM     91  F   UNL A   1      45.318  30.218  34.265  1.00  0.00    -0.203 F 
ATOM     92  F   UNL A   1      44.408  26.032  37.646  1.00  0.00    -0.200 F 
ATOM     93  C   UNL A   1      45.922  27.488  36.566  1.00  0.00     0.200 A 
ATOM     94  F   UNL A   1      47.396  28.977  35.476  1.00  0.00    -0.200 F 
ATOM     95  F   UNL A   1      46.954  26.892  37.178  1.00  0.00    -0.200 F 
ENDBRANCH  62  85
ENDBRANCH  36  37
ENDBRANCH  28  31
ENDBRANCH  26  27
ENDBRANCH  25  26
ENDBRANCH   1  25
TORSDOF 14
ENDMDL
MODEL 3
REMARK VINA RESULT:     -12.7      0.242      1.610
REMARK SMILES C[C@H]1[C@@H]([NH2+]C[C@H]2CC[C@@H](C(=O)NCCCCNC(=O)c3ccc(-c4c5nc(c(-c6c(F)c(F)c(F)c(F)c6F)c6ccc([nH]6)c(-c6c(F)c(F)c(F)c(F)c6F)c6nc(c(-c7c(F)c(F)c(F)c(F)c7F)c7ccc4[nH]7)C=C6)C=C5)cc3)CC2)CCC[C@@H]1C
REMARK SMILES IDX 14 1 13 2 12 3 10 4 11 5 9 7 6 8 7 9 84 10 8 11 83 12 5 13
REMARK SMILES IDX 4 14 3 17 1 18 2 19 88 20 85 21 87 22 89 23 86 24 15 25
REMARK SMILES IDX 16 26 17 27 18 28 19 30 20 31 21 32 82 33 22 34 81 35 23 36
REMARK SMILES IDX 24 37 25 38 75 39 26 40 80 41 74 42 76 43 27 44 79 45 73 46
REMARK SMILES IDX 72 47 28 49 60 50 40 51 59 52 41 53 44 54 58 55 77 56 42 57
REMARK SMILES IDX 43 58 57 60 78 61 45 62 29 63 30 64 38 65 31 66 32 67 36 68
REMARK SMILES IDX 39 69 33 70 34 71 37 72 35 73 61 74 62 75 70 76 63 77 64 78
REMARK SMILES IDX 68 79 71 80 65 81 66 82 69 83 67 84 46 85 47 86 55 87 48 88
REMARK SMILES IDX 49 89 53 90 56 91 50 92 51 93 54 94 52 95
REMARK H PARENT 12 6 4 15 4 16 17 29 76 48 44 59
REMARK Flexibility Score: inf
ROOT
ATOM      1  C   UNL A   1      32.060  30.349  26.937  1.00  0.00     0.023 C 
ENDROOT
BRANCH   1   2
ATOM      2  C   UNL A   1      33.544  30.000  26.884  1.00  0.00     0.116 C 
BRANCH   2   3
ATOM      3  N   UNL A   1      33.957  29.445  25.614  1.00  0.00    -0.356 N 
ATOM      4  C   UNL A   1      33.637  28.260  25.026  1.00  0.00     0.223 C 
ATOM      5  O   UNL A   1      34.066  28.066  23.885  1.00  0.00    -0.275 OA
ATOM      6  H   UNL A   1      34.568  30.015  25.093  1.00  0.00     0.163 HD
BRANCH   4   7
ATOM      7  C   UNL A   1      32.769  27.198  25.711  1.00  0.00     0.078 C 
ATOM      8  C   UNL A   1      31.205  24.641  25.784  1.00  0.00     0.044 C 
ATOM      9  C   UNL A   1      32.574  24.794  26.472  1.00  0.00     0.010 C 
ATOM     10  C   UNL A   1      30.499  26.012  25.792  1.00  0.00     0.010 C 
ATOM     11  C   UNL A   1      33.465  25.834  25.797  1.00  0.00     0.014 C 
ATOM     12  C   UNL A   1      31.332  27.142  25.172  1.00  0.00     0.014 C 
BRANCH   8  13
ATOM     13  C   UNL A   1      31.245  24.044  24.351  1.00  0.00     0.264 C 
BRANCH  13  14
ATOM     14  N   UNL A   1      31.382  22.589  24.349  1.00  0.00    -0.343 N 
ATOM     15  H   UNL A   1      31.828  22.319  25.225  1.00  0.00     0.346 HD
ATOM     16  H   UNL A   1      30.435  22.232  24.225  1.00  0.00     0.346 HD
BRANCH  14  17
ATOM     17  C   UNL A   1      32.167  21.998  23.247  1.00  0.00     0.185 C 
ATOM     18  C   UNL A   1      32.535  19.860  24.611  1.00  0.00     0.014 C 
ATOM     19  C   UNL A   1      33.212  20.973  23.807  1.00  0.00     0.047 C 
ATOM     20  C   UNL A   1      34.352  21.683  24.600  1.00  0.00    -0.006 C 
ATOM     21  C   UNL A   1      32.923  23.002  22.359  1.00  0.00     0.065 C 
ATOM     22  C   UNL A   1      35.040  22.734  23.716  1.00  0.00     0.004 C 
ATOM     23  C   UNL A   1      35.407  20.722  25.146  1.00  0.00     0.008 C 
ATOM     24  C   UNL A   1      34.034  23.706  23.123  1.00  0.00     0.006 C 
ENDBRANCH  14  17
ENDBRANCH  13  14
ENDBRANCH   8  13
ENDBRANCH   4   7
ENDBRANCH   2   3
ENDBRANCH   1   2
BRANCH   1  25
ATOM     25  C   UNL A   1      31.743  31.844  26.856  1.00  0.00     0.023 C 
BRANCH  25  26
ATOM     26  C   UNL A   1      32.859  32.788  27.305  1.00  0.00     0.116 C 
BRANCH  26  27
ATOM     27  N   UNL A   1      32.395  34.098  27.733  1.00  0.00    -0.352 N 
ATOM     28  C   UNL A   1      32.978  34.994  28.597  1.00  0.00     0.251 C 
ATOM     29  H   UNL A   1      31.538  34.386  27.346  1.00  0.00     0.163 HD
ATOM     30  O   UNL A   1      32.456  36.087  28.800  1.00  0.00    -0.269 OA
BRANCH  28  31
ATOM     31  C   UNL A   1      34.179  34.600  29.363  1.00  0.00     0.039 A 
ATOM     32  C   UNL A   1      33.989  34.079  30.648  1.00  0.00     0.014 A 
ATOM     33  C   UNL A   1      35.457  34.647  28.804  1.00  0.00     0.014 A 
ATOM     34  C   UNL A   1      35.059  33.497  31.323  1.00  0.00     0.010 A 
ATOM     35  C   UNL A   1      36.512  34.009  29.452  1.00  0.00     0.010 A 
ATOM     36  C   UNL A   1      36.314  33.403  30.703  1.00  0.00    -0.014 A 
BRANCH  36  37
ATOM     37  C   UNL A   1      37.410  32.619  31.322  1.00  0.00     0.031 A 
ATOM     38  C   UNL A   1      37.911  32.964  32.692  1.00  0.00     0.074 A 
ATOM     39  C   UNL A   1      38.004  31.640  30.610  1.00  0.00     0.049 A 
ATOM     40  N   UNL A   1      38.900  32.437  33.369  1.00  0.00    -0.248 NA
ATOM     41  C   UNL A   1      37.227  34.066  33.386  1.00  0.00     0.031 C 
ATOM     42  C   UNL A   1      37.645  31.252  29.244  1.00  0.00     0.029 A 
ATOM     43  N   UNL A   1      39.043  30.802  30.930  1.00  0.00    -0.354 N 
ATOM     44  C   UNL A   1      38.968  33.153  34.555  1.00  0.00     0.074 A 
ATOM     45  C   UNL A   1      37.948  34.178  34.492  1.00  0.00     0.031 C 
ATOM     46  C   UNL A   1      38.435  30.240  28.852  1.00  0.00     0.029 A 
ATOM     47  C   UNL A   1      39.375  29.928  29.925  1.00  0.00     0.049 A 
ATOM     48  H   UNL A   1      39.505  30.825  31.799  1.00  0.00     0.167 HD
ATOM     49  C   UNL A   1      39.795  32.959  35.609  1.00  0.00     0.037 A 
ATOM     50  C   UNL A   1      40.334  28.984  29.872  1.00  0.00     0.037 A 
ATOM     51  C   UNL A   1      40.786  31.918  35.683  1.00  0.00     0.049 A 
ATOM     52  C   UNL A   1      41.221  28.772  31.068  1.00  0.00     0.074 A 
ATOM     53  C   UNL A   1      41.624  31.597  36.736  1.00  0.00     0.029 A 
ATOM     54  N   UNL A   1      41.071  31.027  34.658  1.00  0.00    -0.354 N 
ATOM     55  N   UNL A   1      41.228  29.408  32.213  1.00  0.00    -0.248 NA
ATOM     56  C   UNL A   1      42.229  27.709  30.965  1.00  0.00     0.031 C 
ATOM     57  C   UNL A   1      42.438  30.530  36.338  1.00  0.00     0.029 A 
ATOM     58  C   UNL A   1      42.082  30.165  35.049  1.00  0.00     0.049 A 
ATOM     59  H   UNL A   1      40.620  31.011  33.782  1.00  0.00     0.167 HD
ATOM     60  C   UNL A   1      42.220  28.809  32.975  1.00  0.00     0.074 A 
ATOM     61  C   UNL A   1      42.787  27.750  32.167  1.00  0.00     0.031 C 
ATOM     62  C   UNL A   1      42.626  29.111  34.233  1.00  0.00     0.037 A 
BRANCH  49  63
ATOM     63  C   UNL A   1      39.657  33.892  36.773  1.00  0.00     0.064 A 
ATOM     64  C   UNL A   1      38.870  33.563  37.887  1.00  0.00     0.173 A 
ATOM     65  C   UNL A   1      40.341  35.118  36.790  1.00  0.00     0.173 A 
ATOM     66  F   UNL A   1      38.187  32.409  37.912  1.00  0.00    -0.203 F 
ATOM     67  C   UNL A   1      38.751  34.438  38.963  1.00  0.00     0.198 A 
ATOM     68  C   UNL A   1      40.239  35.978  37.878  1.00  0.00     0.198 A 
ATOM     69  F   UNL A   1      41.108  35.477  35.751  1.00  0.00    -0.203 F 
ATOM     70  F   UNL A   1      37.956  34.123  39.996  1.00  0.00    -0.200 F 
ATOM     71  C   UNL A   1      39.439  35.642  38.961  1.00  0.00     0.200 A 
ATOM     72  F   UNL A   1      40.910  37.138  37.879  1.00  0.00    -0.200 F 
ATOM     73  F   UNL A   1      39.324  36.483  39.998  1.00  0.00    -0.200 F 
ENDBRANCH  49  63
BRANCH  50  74
ATOM     74  C   UNL A   1      40.484  28.146  28.656  1.00  0.00     0.064 A 
ATOM     75  C   UNL A   1      39.841  26.905  28.557  1.00  0.00     0.173 A 
ATOM     76  C   UNL A   1      41.272  28.563  27.574  1.00  0.00     0.173 A 
ATOM     77  F   UNL A   1      39.095  26.455  29.576  1.00  0.00    -0.203 F 
ATOM     78  C   UNL A   1      39.995  26.103  27.427  1.00  0.00     0.198 A 
ATOM     79  C   UNL A   1      41.405  27.772  26.435  1.00  0.00     0.198 A 
ATOM     80  F   UNL A   1      41.903  29.745  27.619  1.00  0.00    -0.203 F 
ATOM     81  F   UNL A   1      39.400  24.903  27.375  1.00  0.00    -0.200 F 
ATOM     82  C   UNL A   1      40.772  26.539  26.366  1.00  0.00     0.200 A 
ATOM     83  F   UNL A   1      42.149  28.201  25.406  1.00  0.00    -0.200 F 
ATOM     84  F   UNL A   1      40.918  25.769  25.279  1.00  0.00    -0.200 F 
ENDBRANCH  50  74
BRANCH  62  85
ATOM     85  C   UNL A   1      43.716  28.267  34.820  1.00  0.00     0.064 A 
ATOM     86  C   UNL A   1      45.063  28.644  34.729  1.00  0.00     0.173 A 
ATOM     87  C   UNL A   1      43.405  27.089  35.517  1.00  0.00     0.173 A 
ATOM     88  F   UNL A   1      45.410  29.752  34.059  1.00  0.00    -0.203 F 
ATOM     89  C   UNL A   1      46.063  27.861  35.301  1.00  0.00     0.198 A 
ATOM     90  C   UNL A   1      44.404  26.322  36.106  1.00  0.00     0.198 A 
ATOM     91  F   UNL A   1      42.129  26.691  35.633  1.00  0.00    -0.203 F 
ATOM     92  F   UNL A   1      47.348  28.219  35.170  1.00  0.00    -0.200 F 
ATOM     93  C   UNL A   1      45.732  26.706  35.994  1.00  0.00     0.200 A 
ATOM     94  F   UNL A   1      44.083  25.211  36.783  1.00  0.00    -0.200 F 
ATOM     95  F   UNL A   1      46.695  25.957  36.549  1.00  0.00    -0.200 F 
ENDBRANCH  62  85
ENDBRANCH  36  37
ENDBRANCH  28  31
ENDBRANCH  26  27
ENDBRANCH  25  26
ENDBRANCH   1  25
TORSDOF 14
ENDMDL
