MODEL 1
REMARK VINA RESULT:     -14.6      0.000      0.000
REMARK SMILES Cc1ccc(C(=O)NC2(CC(=O)NCCCCNC(=O)c3ccc(-c4c5nc(c(-c6c(F)c(F)c(F)c(F)c6F)c6ccc([nH]6)c(-c6c(F)c(F)c(F)c(F)c6F)c6nc(c(-c7c(F)c(F)c(F)c(F)c7F)c7ccc4[nH]7)C=C6)C=C5)cc3)CCC2)cc1
REMARK SMILES IDX 15 1 14 2 13 3 11 4 12 5 10 7 9 8 84 9 86 10 85 11 8 12 6 13
REMARK SMILES IDX 7 14 5 16 1 17 2 18 3 19 88 20 4 21 87 22 16 23 17 24 18 25
REMARK SMILES IDX 19 26 20 28 21 29 22 30 83 31 23 32 82 33 24 34 25 35 26 36
REMARK SMILES IDX 76 37 27 38 81 39 75 40 77 41 28 42 80 43 74 44 73 45 29 47
REMARK SMILES IDX 61 48 41 49 60 50 42 51 45 52 59 53 78 54 43 55 44 56 58 58
REMARK SMILES IDX 79 59 46 60 30 61 31 62 39 63 32 64 33 65 37 66 40 67 34 68
REMARK SMILES IDX 35 69 38 70 36 71 62 72 63 73 71 74 64 75 65 76 69 77 72 78
REMARK SMILES IDX 66 79 67 80 70 81 68 82 47 83 48 84 56 85 49 86 50 87 54 88
REMARK SMILES IDX 57 89 51 90 52 91 55 92 53 93
REMARK H PARENT 13 6 8 15 18 27 77 46 45 57
REMARK Flexibility Score: inf
ROOT
ATOM      1  C   UNL A   1      36.502  23.401  24.278  1.00  0.00     0.023 C 
ENDROOT
BRANCH   1   2
ATOM      2  C   UNL A   1      35.029  23.800  24.368  1.00  0.00     0.116 C 
BRANCH   2   3
ATOM      3  N   UNL A   1      34.772  25.427  24.785  1.00  0.00    -0.356 N 
ATOM      4  C   UNL A   1      33.581  26.487  25.934  1.00  0.00     0.222 C 
ATOM      5  O   UNL A   1      33.711  27.649  26.425  1.00  0.00    -0.275 OA
ATOM      6  H   UNL A   1      35.406  26.011  24.311  1.00  0.00     0.163 HD
BRANCH   4   7
ATOM      7  C   UNL A   1      31.865  25.890  26.501  1.00  0.00     0.128 C 
BRANCH   7   8
ATOM      8  C   UNL A   1      30.632  25.369  25.473  1.00  0.00     0.049 C 
ATOM      9  C   UNL A   1      31.036  24.611  24.158  1.00  0.00     0.029 C 
ATOM     10  C   UNL A   1      29.544  26.106  24.396  1.00  0.00     0.029 C 
ATOM     11  C   UNL A   1      30.549  25.820  23.301  1.00  0.00     0.005 C 
BRANCH   8  12
ATOM     12  N   UNL A   1      29.666  24.761  26.373  1.00  0.00    -0.346 N 
ATOM     13  C   UNL A   1      30.062  23.555  26.876  1.00  0.00     0.251 C 
ATOM     14  O   UNL A   1      29.457  22.953  27.747  1.00  0.00    -0.269 OA
ATOM     15  H   UNL A   1      28.804  25.178  26.597  1.00  0.00     0.164 HD
BRANCH  13  16
ATOM     16  C   UNL A   1      31.207  22.950  26.104  1.00  0.00     0.039 A 
ATOM     17  C   UNL A   1      35.194  20.034  25.001  1.00  0.00     0.044 C 
ATOM     18  C   UNL A   1      33.848  20.545  25.434  1.00  0.00    -0.051 A 
ATOM     19  C   UNL A   1      33.828  21.471  26.982  1.00  0.00     0.004 A 
ATOM     20  C   UNL A   1      32.543  20.719  24.207  1.00  0.00     0.004 A 
ATOM     21  C   UNL A   1      32.527  22.653  27.312  1.00  0.00     0.014 A 
ATOM     22  C   UNL A   1      31.211  21.950  24.493  1.00  0.00     0.014 A 
ENDBRANCH  13  16
ENDBRANCH   8  12
ENDBRANCH   7   8
ENDBRANCH   4   7
ENDBRANCH   2   3
ENDBRANCH   1   2
BRANCH   1  23
ATOM     23  C   UNL A   1      37.075  22.867  25.577  1.00  0.00     0.023 C 
BRANCH  23  24
ATOM     24  C   UNL A   1      38.296  22.003  25.350  1.00  0.00     0.116 C 
BRANCH  24  25
ATOM     25  N   UNL A   1      39.183  21.941  26.500  1.00  0.00    -0.352 N 
ATOM     26  C   UNL A   1      40.062  22.903  26.952  1.00  0.00     0.251 C 
ATOM     27  H   UNL A   1      39.153  21.106  27.021  1.00  0.00     0.163 HD
ATOM     28  O   UNL A   1      41.083  22.558  27.537  1.00  0.00    -0.269 OA
BRANCH  26  29
ATOM     29  C   UNL A   1      39.638  24.330  26.980  1.00  0.00     0.039 A 
ATOM     30  C   UNL A   1      40.462  25.218  26.273  1.00  0.00     0.014 A 
ATOM     31  C   UNL A   1      38.903  24.791  28.057  1.00  0.00     0.014 A 
ATOM     32  C   UNL A   1      40.808  26.427  26.852  1.00  0.00     0.010 A 
ATOM     33  C   UNL A   1      39.411  25.842  28.752  1.00  0.00     0.010 A 
ATOM     34  C   UNL A   1      40.385  26.635  28.154  1.00  0.00    -0.014 A 
BRANCH  34  35
ATOM     35  C   UNL A   1      40.658  27.800  28.950  1.00  0.00     0.031 A 
ATOM     36  C   UNL A   1      39.618  28.835  28.825  1.00  0.00     0.074 A 
ATOM     37  C   UNL A   1      41.630  27.666  29.882  1.00  0.00     0.049 A 
ATOM     38  N   UNL A   1      39.789  30.063  29.113  1.00  0.00    -0.248 NA
ATOM     39  C   UNL A   1      38.267  28.582  28.293  1.00  0.00     0.031 C 
ATOM     40  C   UNL A   1      41.944  28.466  31.058  1.00  0.00     0.029 A 
ATOM     41  N   UNL A   1      42.705  26.756  29.818  1.00  0.00    -0.354 N 
ATOM     42  C   UNL A   1      38.540  30.644  29.197  1.00  0.00     0.074 A 
ATOM     43  C   UNL A   1      37.647  29.743  28.526  1.00  0.00     0.031 C 
ATOM     44  C   UNL A   1      43.250  28.305  31.354  1.00  0.00     0.029 A 
ATOM     45  C   UNL A   1      43.822  27.466  30.315  1.00  0.00     0.049 A 
ATOM     46  H   UNL A   1      42.682  25.826  29.497  1.00  0.00     0.167 HD
ATOM     47  C   UNL A   1      38.423  31.738  29.998  1.00  0.00     0.037 A 
ATOM     48  C   UNL A   1      44.797  27.849  29.434  1.00  0.00     0.037 A 
ATOM     49  C   UNL A   1      39.737  32.014  30.573  1.00  0.00     0.049 A 
ATOM     50  C   UNL A   1      44.782  29.350  29.245  1.00  0.00     0.074 A 
ATOM     51  C   UNL A   1      40.332  31.622  31.761  1.00  0.00     0.029 A 
ATOM     52  N   UNL A   1      40.766  32.343  29.705  1.00  0.00    -0.354 N 
ATOM     53  N   UNL A   1      43.714  30.098  29.366  1.00  0.00    -0.248 NA
ATOM     54  C   UNL A   1      45.999  30.128  29.057  1.00  0.00     0.031 C 
ATOM     55  C   UNL A   1      41.741  31.704  31.582  1.00  0.00     0.029 A 
ATOM     56  C   UNL A   1      41.995  32.129  30.288  1.00  0.00     0.049 A 
ATOM     57  H   UNL A   1      40.635  32.684  28.791  1.00  0.00     0.167 HD
ATOM     58  C   UNL A   1      44.083  31.423  29.356  1.00  0.00     0.074 A 
ATOM     59  C   UNL A   1      45.522  31.380  29.163  1.00  0.00     0.031 C 
ATOM     60  C   UNL A   1      43.204  32.457  29.547  1.00  0.00     0.037 A 
BRANCH  47  61
ATOM     61  C   UNL A   1      37.167  32.422  30.468  1.00  0.00     0.064 A 
ATOM     62  C   UNL A   1      36.504  33.326  29.603  1.00  0.00     0.173 A 
ATOM     63  C   UNL A   1      36.538  32.229  31.712  1.00  0.00     0.173 A 
ATOM     64  F   UNL A   1      36.974  33.596  28.378  1.00  0.00    -0.203 F 
ATOM     65  C   UNL A   1      35.331  33.991  29.957  1.00  0.00     0.198 A 
ATOM     66  C   UNL A   1      35.369  32.912  32.073  1.00  0.00     0.198 A 
ATOM     67  F   UNL A   1      37.001  31.346  32.603  1.00  0.00    -0.203 F 
ATOM     68  F   UNL A   1      34.754  34.826  29.082  1.00  0.00    -0.200 F 
ATOM     69  C   UNL A   1      34.763  33.789  31.195  1.00  0.00     0.200 A 
ATOM     70  F   UNL A   1      34.822  32.703  33.280  1.00  0.00    -0.200 F 
ATOM     71  F   UNL A   1      33.633  34.423  31.532  1.00  0.00    -0.200 F 
ENDBRANCH  47  61
BRANCH  48  72
ATOM     72  C   UNL A   1      45.029  26.777  28.411  1.00  0.00     0.064 A 
ATOM     73  C   UNL A   1      44.662  27.114  27.087  1.00  0.00     0.173 A 
ATOM     74  C   UNL A   1      46.019  25.801  28.567  1.00  0.00     0.173 A 
ATOM     75  F   UNL A   1      43.683  28.008  26.872  1.00  0.00    -0.203 F 
ATOM     76  C   UNL A   1      45.429  26.706  25.997  1.00  0.00     0.198 A 
ATOM     77  C   UNL A   1      46.736  25.334  27.458  1.00  0.00     0.198 A 
ATOM     78  F   UNL A   1      46.399  25.407  29.792  1.00  0.00    -0.203 F 
ATOM     79  F   UNL A   1      45.205  27.239  24.786  1.00  0.00    -0.200 F 
ATOM     80  C   UNL A   1      46.495  25.849  26.191  1.00  0.00     0.200 A 
ATOM     81  F   UNL A   1      47.735  24.456  27.632  1.00  0.00    -0.200 F 
ATOM     82  F   UNL A   1      47.309  25.559  25.166  1.00  0.00    -0.200 F 
ENDBRANCH  48  72
BRANCH  60  83
ATOM     83  C   UNL A   1      43.401  33.908  29.124  1.00  0.00     0.064 A 
ATOM     84  C   UNL A   1      43.425  34.995  30.011  1.00  0.00     0.173 A 
ATOM     85  C   UNL A   1      43.736  34.244  27.780  1.00  0.00     0.173 A 
ATOM     86  F   UNL A   1      43.299  34.836  31.332  1.00  0.00    -0.203 F 
ATOM     87  C   UNL A   1      43.655  36.304  29.582  1.00  0.00     0.198 A 
ATOM     88  C   UNL A   1      44.080  35.533  27.381  1.00  0.00     0.198 A 
ATOM     89  F   UNL A   1      43.778  33.340  26.793  1.00  0.00    -0.203 F 
ATOM     90  F   UNL A   1      43.571  37.307  30.466  1.00  0.00    -0.200 F 
ATOM     91  C   UNL A   1      44.004  36.572  28.275  1.00  0.00     0.200 A 
ATOM     92  F   UNL A   1      44.504  35.746  26.126  1.00  0.00    -0.200 F 
ATOM     93  F   UNL A   1      44.283  37.820  27.884  1.00  0.00    -0.200 F 
ENDBRANCH  60  83
ENDBRANCH  34  35
ENDBRANCH  26  29
ENDBRANCH  24  25
ENDBRANCH  23  24
ENDBRANCH   1  23
TORSDOF 14
ENDMDL
MODEL 2
REMARK VINA RESULT:     -14.2      3.892      9.365
REMARK SMILES Cc1ccc(C(=O)NC2(CC(=O)NCCCCNC(=O)c3ccc(-c4c5nc(c(-c6c(F)c(F)c(F)c(F)c6F)c6ccc([nH]6)c(-c6c(F)c(F)c(F)c(F)c6F)c6nc(c(-c7c(F)c(F)c(F)c(F)c7F)c7ccc4[nH]7)C=C6)C=C5)cc3)CCC2)cc1
REMARK SMILES IDX 15 1 14 2 13 3 11 4 12 5 10 7 9 8 84 9 86 10 85 11 8 12 6 13
REMARK SMILES IDX 7 14 5 16 1 17 2 18 3 19 88 20 4 21 87 22 16 23 17 24 18 25
REMARK SMILES IDX 19 26 20 28 21 29 22 30 83 31 23 32 82 33 24 34 25 35 26 36
REMARK SMILES IDX 76 37 27 38 81 39 75 40 77 41 28 42 80 43 74 44 73 45 29 47
REMARK SMILES IDX 61 48 41 49 60 50 42 51 45 52 59 53 78 54 43 55 44 56 58 58
REMARK SMILES IDX 79 59 46 60 30 61 31 62 39 63 32 64 33 65 37 66 40 67 34 68
REMARK SMILES IDX 35 69 38 70 36 71 62 72 63 73 71 74 64 75 65 76 69 77 72 78
REMARK SMILES IDX 66 79 67 80 70 81 68 82 47 83 48 84 56 85 49 86 50 87 54 88
REMARK SMILES IDX 57 89 51 90 52 91 55 92 53 93
REMARK H PARENT 13 6 8 15 18 27 77 46 45 57
REMARK Flexibility Score: inf
ROOT
ATOM      1  C   UNL A   1      35.094  32.138  27.647  1.00  0.00     0.023 C 
ENDROOT
BRANCH   1   2
ATOM      2  C   UNL A   1      34.998  30.615  27.723  1.00  0.00     0.116 C 
BRANCH   2   3
ATOM      3  N   UNL A   1      33.424  30.027  27.968  1.00  0.00    -0.356 N 
ATOM      4  C   UNL A   1      32.261  28.592  27.296  1.00  0.00     0.222 C 
ATOM      5  O   UNL A   1      31.235  28.042  27.801  1.00  0.00    -0.275 OA
ATOM      6  H   UNL A   1      32.954  30.563  28.646  1.00  0.00     0.163 HD
BRANCH   4   7
ATOM      7  C   UNL A   1      32.493  27.761  25.599  1.00  0.00     0.128 C 
BRANCH   7   8
ATOM      8  C   UNL A   1      31.239  27.269  24.582  1.00  0.00     0.049 C 
ATOM      9  C   UNL A   1      31.609  26.779  23.136  1.00  0.00     0.029 C 
ATOM     10  C   UNL A   1      29.994  28.033  23.715  1.00  0.00     0.029 C 
ATOM     11  C   UNL A   1      30.928  28.043  22.525  1.00  0.00     0.005 C 
BRANCH   8  12
ATOM     12  N   UNL A   1      30.421  26.417  25.430  1.00  0.00    -0.346 N 
ATOM     13  C   UNL A   1      31.005  25.224  25.743  1.00  0.00     0.251 C 
ATOM     14  O   UNL A   1      30.540  24.433  26.547  1.00  0.00    -0.269 OA
ATOM     15  H   UNL A   1      29.527  26.677  25.748  1.00  0.00     0.164 HD
BRANCH  13  16
ATOM     16  C   UNL A   1      32.169  24.892  24.845  1.00  0.00     0.039 A 
ATOM     17  C   UNL A   1      36.592  22.988  23.289  1.00  0.00     0.044 C 
ATOM     18  C   UNL A   1      35.219  23.173  23.872  1.00  0.00    -0.051 A 
ATOM     19  C   UNL A   1      35.148  24.102  25.417  1.00  0.00     0.004 A 
ATOM     20  C   UNL A   1      33.784  23.002  22.801  1.00  0.00     0.004 A 
ATOM     21  C   UNL A   1      33.646  24.946  25.896  1.00  0.00     0.014 A 
ATOM     22  C   UNL A   1      32.236  23.886  23.239  1.00  0.00     0.014 A 
ENDBRANCH  13  16
ENDBRANCH   8  12
ENDBRANCH   7   8
ENDBRANCH   4   7
ENDBRANCH   2   3
ENDBRANCH   1   2
BRANCH   1  23
ATOM     23  C   UNL A   1      35.605  32.787  28.920  1.00  0.00     0.023 C 
BRANCH  23  24
ATOM     24  C   UNL A   1      34.829  32.343  30.139  1.00  0.00     0.116 C 
BRANCH  24  25
ATOM     25  N   UNL A   1      34.175  33.435  30.840  1.00  0.00    -0.352 N 
ATOM     26  C   UNL A   1      34.312  33.803  32.163  1.00  0.00     0.251 C 
ATOM     27  H   UNL A   1      33.557  33.981  30.303  1.00  0.00     0.163 HD
ATOM     28  O   UNL A   1      33.368  34.332  32.740  1.00  0.00    -0.269 OA
BRANCH  26  29
ATOM     29  C   UNL A   1      35.664  33.817  32.785  1.00  0.00     0.039 A 
ATOM     30  C   UNL A   1      36.631  34.575  32.107  1.00  0.00     0.014 A 
ATOM     31  C   UNL A   1      36.059  32.741  33.560  1.00  0.00     0.014 A 
ATOM     32  C   UNL A   1      37.898  34.048  31.926  1.00  0.00     0.010 A 
ATOM     33  C   UNL A   1      37.198  32.097  33.193  1.00  0.00     0.010 A 
ATOM     34  C   UNL A   1      38.096  32.745  32.352  1.00  0.00    -0.014 A 
BRANCH  34  35
ATOM     35  C   UNL A   1      39.318  31.998  32.233  1.00  0.00     0.031 A 
ATOM     36  C   UNL A   1      39.189  30.829  31.346  1.00  0.00     0.074 A 
ATOM     37  C   UNL A   1      40.433  32.610  32.693  1.00  0.00     0.049 A 
ATOM     38  N   UNL A   1      39.975  29.828  31.360  1.00  0.00    -0.248 NA
ATOM     39  C   UNL A   1      38.097  30.653  30.373  1.00  0.00     0.031 C 
ATOM     40  C   UNL A   1      41.843  32.340  32.446  1.00  0.00     0.029 A 
ATOM     41  N   UNL A   1      40.469  33.603  33.694  1.00  0.00    -0.354 N 
ATOM     42  C   UNL A   1      39.757  29.117  30.197  1.00  0.00     0.074 A 
ATOM     43  C   UNL A   1      38.486  29.564  29.703  1.00  0.00     0.031 C 
ATOM     44  C   UNL A   1      42.562  32.807  33.487  1.00  0.00     0.029 A 
ATOM     45  C   UNL A   1      41.614  33.307  34.468  1.00  0.00     0.049 A 
ATOM     46  H   UNL A   1      39.833  34.342  33.825  1.00  0.00     0.167 HD
ATOM     47  C   UNL A   1      40.795  28.373  29.727  1.00  0.00     0.037 A 
ATOM     48  C   UNL A   1      41.438  32.804  35.729  1.00  0.00     0.037 A 
ATOM     49  C   UNL A   1      41.916  28.537  30.648  1.00  0.00     0.049 A 
ATOM     50  C   UNL A   1      41.861  31.352  35.785  1.00  0.00     0.074 A 
ATOM     51  C   UNL A   1      42.988  29.416  30.659  1.00  0.00     0.029 A 
ATOM     52  N   UNL A   1      41.753  28.097  31.951  1.00  0.00    -0.354 N 
ATOM     53  N   UNL A   1      41.812  30.530  34.766  1.00  0.00    -0.248 NA
ATOM     54  C   UNL A   1      42.509  30.769  36.952  1.00  0.00     0.031 C 
ATOM     55  C   UNL A   1      43.452  29.509  32.001  1.00  0.00     0.029 A 
ATOM     56  C   UNL A   1      42.655  28.702  32.798  1.00  0.00     0.049 A 
ATOM     57  H   UNL A   1      41.078  27.439  32.236  1.00  0.00     0.167 HD
ATOM     58  C   UNL A   1      42.471  29.367  35.090  1.00  0.00     0.074 A 
ATOM     59  C   UNL A   1      42.887  29.575  36.465  1.00  0.00     0.031 C 
ATOM     60  C   UNL A   1      42.669  28.338  34.206  1.00  0.00     0.037 A 
BRANCH  47  61
ATOM     61  C   UNL A   1      40.932  27.702  28.386  1.00  0.00     0.064 A 
ATOM     62  C   UNL A   1      40.286  26.463  28.161  1.00  0.00     0.173 A 
ATOM     63  C   UNL A   1      41.635  28.210  27.278  1.00  0.00     0.173 A 
ATOM     64  F   UNL A   1      39.562  25.866  29.118  1.00  0.00    -0.203 F 
ATOM     65  C   UNL A   1      40.353  25.783  26.946  1.00  0.00     0.198 A 
ATOM     66  C   UNL A   1      41.717  27.516  26.063  1.00  0.00     0.198 A 
ATOM     67  F   UNL A   1      42.229  29.407  27.311  1.00  0.00    -0.203 F 
ATOM     68  F   UNL A   1      39.708  24.617  26.804  1.00  0.00    -0.200 F 
ATOM     69  C   UNL A   1      41.073  26.306  25.896  1.00  0.00     0.200 A 
ATOM     70  F   UNL A   1      42.417  28.038  25.044  1.00  0.00    -0.200 F 
ATOM     71  F   UNL A   1      41.132  25.656  24.726  1.00  0.00    -0.200 F 
ENDBRANCH  47  61
BRANCH  48  72
ATOM     72  C   UNL A   1      40.273  33.469  36.400  1.00  0.00     0.064 A 
ATOM     73  C   UNL A   1      39.152  32.636  36.632  1.00  0.00     0.173 A 
ATOM     74  C   UNL A   1      40.432  34.572  37.246  1.00  0.00     0.173 A 
ATOM     75  F   UNL A   1      38.919  31.590  35.823  1.00  0.00    -0.203 F 
ATOM     76  C   UNL A   1      38.402  32.742  37.802  1.00  0.00     0.198 A 
ATOM     77  C   UNL A   1      39.622  34.718  38.380  1.00  0.00     0.198 A 
ATOM     78  F   UNL A   1      41.452  35.423  37.069  1.00  0.00    -0.203 F 
ATOM     79  F   UNL A   1      37.508  31.790  38.111  1.00  0.00    -0.200 F 
ATOM     80  C   UNL A   1      38.667  33.760  38.698  1.00  0.00     0.200 A 
ATOM     81  F   UNL A   1      39.836  35.738  39.225  1.00  0.00    -0.200 F 
ATOM     82  F   UNL A   1      38.036  33.787  39.879  1.00  0.00    -0.200 F 
ENDBRANCH  48  72
BRANCH  60  83
ATOM     83  C   UNL A   1      42.967  26.885  34.556  1.00  0.00     0.064 A 
ATOM     84  C   UNL A   1      42.058  26.020  35.185  1.00  0.00     0.173 A 
ATOM     85  C   UNL A   1      44.166  26.251  34.117  1.00  0.00     0.173 A 
ATOM     86  F   UNL A   1      40.821  26.405  35.510  1.00  0.00    -0.203 F 
ATOM     87  C   UNL A   1      42.359  24.681  35.445  1.00  0.00     0.198 A 
ATOM     88  C   UNL A   1      44.410  24.890  34.274  1.00  0.00     0.198 A 
ATOM     89  F   UNL A   1      45.147  26.910  33.486  1.00  0.00    -0.203 F 
ATOM     90  F   UNL A   1      41.485  23.935  36.132  1.00  0.00    -0.200 F 
ATOM     91  C   UNL A   1      43.523  24.110  34.972  1.00  0.00     0.200 A 
ATOM     92  F   UNL A   1      45.506  24.346  33.724  1.00  0.00    -0.200 F 
ATOM     93  F   UNL A   1      43.776  22.812  35.171  1.00  0.00    -0.200 F 
ENDBRANCH  60  83
ENDBRANCH  34  35
ENDBRANCH  26  29
ENDBRANCH  24  25
ENDBRANCH  23  24
ENDBRANCH   1  23
TORSDOF 14
ENDMDL
MODEL 3
REMARK VINA RESULT:     -14.2      1.249      2.703
REMARK SMILES Cc1ccc(C(=O)NC2(CC(=O)NCCCCNC(=O)c3ccc(-c4c5nc(c(-c6c(F)c(F)c(F)c(F)c6F)c6ccc([nH]6)c(-c6c(F)c(F)c(F)c(F)c6F)c6nc(c(-c7c(F)c(F)c(F)c(F)c7F)c7ccc4[nH]7)C=C6)C=C5)cc3)CCC2)cc1
REMARK SMILES IDX 15 1 14 2 13 3 11 4 12 5 10 7 9 8 84 9 86 10 85 11 8 12 6 13
REMARK SMILES IDX 7 14 5 16 1 17 2 18 3 19 88 20 4 21 87 22 16 23 17 24 18 25
REMARK SMILES IDX 19 26 20 28 21 29 22 30 83 31 23 32 82 33 24 34 25 35 26 36
REMARK SMILES IDX 76 37 27 38 81 39 75 40 77 41 28 42 80 43 74 44 73 45 29 47
REMARK SMILES IDX 61 48 41 49 60 50 42 51 45 52 59 53 78 54 43 55 44 56 58 58
REMARK SMILES IDX 79 59 46 60 30 61 31 62 39 63 32 64 33 65 37 66 40 67 34 68
REMARK SMILES IDX 35 69 38 70 36 71 62 72 63 73 71 74 64 75 65 76 69 77 72 78
REMARK SMILES IDX 66 79 67 80 70 81 68 82 47 83 48 84 56 85 49 86 50 87 54 88
REMARK SMILES IDX 57 89 51 90 52 91 55 92 53 93
REMARK H PARENT 13 6 8 15 18 27 77 46 45 57
REMARK Flexibility Score: inf
ROOT
ATOM      1  C   UNL A   1      36.331  20.796  24.604  1.00  0.00     0.023 C 
ENDROOT
BRANCH   1   2
ATOM      2  C   UNL A   1      35.319  19.737  25.039  1.00  0.00     0.116 C 
BRANCH   2   3
ATOM      3  N   UNL A   1      33.829  19.823  24.228  1.00  0.00    -0.356 N 
ATOM      4  C   UNL A   1      32.618  21.190  23.502  1.00  0.00     0.222 C 
ATOM      5  O   UNL A   1      31.711  21.119  22.617  1.00  0.00    -0.275 OA
ATOM      6  H   UNL A   1      33.464  18.922  24.076  1.00  0.00     0.163 HD
BRANCH   4   7
ATOM      7  C   UNL A   1      32.587  22.994  24.110  1.00  0.00     0.128 C 
BRANCH   7   8
ATOM      8  C   UNL A   1      33.300  23.548  25.537  1.00  0.00     0.049 C 
ATOM      9  C   UNL A   1      33.956  24.975  25.530  1.00  0.00     0.029 C 
ATOM     10  C   UNL A   1      34.711  23.197  26.416  1.00  0.00     0.029 C 
ATOM     11  C   UNL A   1      35.371  24.335  25.668  1.00  0.00     0.005 C 
BRANCH   8  12
ATOM     12  N   UNL A   1      32.321  23.223  26.561  1.00  0.00    -0.346 N 
ATOM     13  C   UNL A   1      31.227  24.039  26.559  1.00  0.00     0.251 C 
ATOM     14  O   UNL A   1      30.238  23.848  27.247  1.00  0.00    -0.269 OA
ATOM     15  H   UNL A   1      32.437  22.483  27.199  1.00  0.00     0.164 HD
BRANCH  13  16
ATOM     16  C   UNL A   1      31.448  25.307  25.775  1.00  0.00     0.039 A 
ATOM     17  C   UNL A   1      30.486  29.351  22.887  1.00  0.00     0.044 C 
ATOM     18  C   UNL A   1      30.460  28.295  23.956  1.00  0.00    -0.051 A 
ATOM     19  C   UNL A   1      29.872  26.671  23.433  1.00  0.00     0.004 A 
ATOM     20  C   UNL A   1      31.486  28.506  25.420  1.00  0.00     0.004 A 
ATOM     21  C   UNL A   1      30.358  25.202  24.329  1.00  0.00     0.014 A 
ATOM     22  C   UNL A   1      32.036  27.018  26.343  1.00  0.00     0.014 A 
ENDBRANCH  13  16
ENDBRANCH   8  12
ENDBRANCH   7   8
ENDBRANCH   4   7
ENDBRANCH   2   3
ENDBRANCH   1   2
BRANCH   1  23
ATOM     23  C   UNL A   1      37.652  20.728  25.348  1.00  0.00     0.023 C 
BRANCH  23  24
ATOM     24  C   UNL A   1      38.248  22.098  25.582  1.00  0.00     0.116 C 
BRANCH  24  25
ATOM     25  N   UNL A   1      39.353  22.095  26.526  1.00  0.00    -0.352 N 
ATOM     26  C   UNL A   1      40.250  23.109  26.792  1.00  0.00     0.251 C 
ATOM     27  H   UNL A   1      39.476  21.265  27.040  1.00  0.00     0.163 HD
ATOM     28  O   UNL A   1      41.387  22.825  27.156  1.00  0.00    -0.269 OA
BRANCH  26  29
ATOM     29  C   UNL A   1      39.761  24.510  26.910  1.00  0.00     0.039 A 
ATOM     30  C   UNL A   1      40.516  25.471  26.221  1.00  0.00     0.014 A 
ATOM     31  C   UNL A   1      39.047  24.880  28.035  1.00  0.00     0.014 A 
ATOM     32  C   UNL A   1      40.826  26.665  26.850  1.00  0.00     0.010 A 
ATOM     33  C   UNL A   1      39.532  25.918  28.765  1.00  0.00     0.010 A 
ATOM     34  C   UNL A   1      40.444  26.787  28.175  1.00  0.00    -0.014 A 
BRANCH  34  35
ATOM     35  C   UNL A   1      40.693  27.921  29.020  1.00  0.00     0.031 A 
ATOM     36  C   UNL A   1      39.651  28.957  28.908  1.00  0.00     0.074 A 
ATOM     37  C   UNL A   1      41.642  27.756  29.970  1.00  0.00     0.049 A 
ATOM     38  N   UNL A   1      39.811  30.174  29.246  1.00  0.00    -0.248 NA
ATOM     39  C   UNL A   1      38.316  28.720  28.334  1.00  0.00     0.031 C 
ATOM     40  C   UNL A   1      41.924  28.513  31.183  1.00  0.00     0.029 A 
ATOM     41  N   UNL A   1      42.722  26.853  29.899  1.00  0.00    -0.354 N 
ATOM     42  C   UNL A   1      38.557  30.748  29.320  1.00  0.00     0.074 A 
ATOM     43  C   UNL A   1      37.685  29.869  28.595  1.00  0.00     0.031 C 
ATOM     44  C   UNL A   1      43.223  28.345  31.505  1.00  0.00     0.029 A 
ATOM     45  C   UNL A   1      43.823  27.548  30.449  1.00  0.00     0.049 A 
ATOM     46  H   UNL A   1      42.711  25.935  29.543  1.00  0.00     0.167 HD
ATOM     47  C   UNL A   1      38.416  31.811  30.159  1.00  0.00     0.037 A 
ATOM     48  C   UNL A   1      44.818  27.966  29.607  1.00  0.00     0.037 A 
ATOM     49  C   UNL A   1      39.714  32.069  30.776  1.00  0.00     0.049 A 
ATOM     50  C   UNL A   1      44.802  29.473  29.475  1.00  0.00     0.074 A 
ATOM     51  C   UNL A   1      40.282  31.634  31.963  1.00  0.00     0.029 A 
ATOM     52  N   UNL A   1      40.763  32.434  29.947  1.00  0.00    -0.354 N 
ATOM     53  N   UNL A   1      43.728  30.213  29.597  1.00  0.00    -0.248 NA
ATOM     54  C   UNL A   1      46.020  30.262  29.345  1.00  0.00     0.031 C 
ATOM     55  C   UNL A   1      41.695  31.728  31.822  1.00  0.00     0.029 A 
ATOM     56  C   UNL A   1      41.979  32.202  30.551  1.00  0.00     0.049 A 
ATOM     57  H   UNL A   1      40.653  32.809  29.043  1.00  0.00     0.167 HD
ATOM     58  C   UNL A   1      44.092  31.538  29.645  1.00  0.00     0.074 A 
ATOM     59  C   UNL A   1      45.535  31.507  29.487  1.00  0.00     0.031 C 
ATOM     60  C   UNL A   1      43.203  32.561  29.853  1.00  0.00     0.037 A 
BRANCH  47  61
ATOM     61  C   UNL A   1      37.146  32.472  30.623  1.00  0.00     0.064 A 
ATOM     62  C   UNL A   1      36.510  33.418  29.783  1.00  0.00     0.173 A 
ATOM     63  C   UNL A   1      36.480  32.220  31.837  1.00  0.00     0.173 A 
ATOM     64  F   UNL A   1      37.016  33.745  28.587  1.00  0.00    -0.203 F 
ATOM     65  C   UNL A   1      35.326  34.066  30.133  1.00  0.00     0.198 A 
ATOM     66  C   UNL A   1      35.300  32.887  32.195  1.00  0.00     0.198 A 
ATOM     67  F   UNL A   1      36.916  31.296  32.698  1.00  0.00    -0.203 F 
ATOM     68  F   UNL A   1      34.776  34.943  29.281  1.00  0.00    -0.200 F 
ATOM     69  C   UNL A   1      34.721  33.806  31.342  1.00  0.00     0.200 A 
ATOM     70  F   UNL A   1      34.717  32.621  33.373  1.00  0.00    -0.200 F 
ATOM     71  F   UNL A   1      33.581  34.423  31.675  1.00  0.00    -0.200 F 
ENDBRANCH  47  61
BRANCH  48  72
ATOM     72  C   UNL A   1      45.079  26.934  28.552  1.00  0.00     0.064 A 
ATOM     73  C   UNL A   1      44.709  27.304  27.237  1.00  0.00     0.173 A 
ATOM     74  C   UNL A   1      46.093  25.978  28.680  1.00  0.00     0.173 A 
ATOM     75  F   UNL A   1      43.709  28.181  27.048  1.00  0.00    -0.203 F 
ATOM     76  C   UNL A   1      45.489  26.951  26.138  1.00  0.00     0.198 A 
ATOM     77  C   UNL A   1      46.825  25.564  27.559  1.00  0.00     0.198 A 
ATOM     78  F   UNL A   1      46.478  25.554  29.892  1.00  0.00    -0.203 F 
ATOM     79  F   UNL A   1      45.256  27.518  24.944  1.00  0.00    -0.200 F 
ATOM     80  C   UNL A   1      46.575  26.114  26.308  1.00  0.00     0.200 A 
ATOM     81  F   UNL A   1      47.844  24.706  27.708  1.00  0.00    -0.200 F 
ATOM     82  F   UNL A   1      47.399  25.878  25.278  1.00  0.00    -0.200 F 
ENDBRANCH  48  72
BRANCH  60  83
ATOM     83  C   UNL A   1      43.405  34.028  29.490  1.00  0.00     0.064 A 
ATOM     84  C   UNL A   1      43.521  35.067  30.425  1.00  0.00     0.173 A 
ATOM     85  C   UNL A   1      43.649  34.426  28.143  1.00  0.00     0.173 A 
ATOM     86  F   UNL A   1      43.488  34.843  31.742  1.00  0.00    -0.203 F 
ATOM     87  C   UNL A   1      43.751  36.391  30.046  1.00  0.00     0.198 A 
ATOM     88  C   UNL A   1      43.995  35.726  27.784  1.00  0.00     0.198 A 
ATOM     89  F   UNL A   1      43.597  33.573  27.112  1.00  0.00    -0.203 F 
ATOM     90  F   UNL A   1      43.756  37.348  30.983  1.00  0.00    -0.200 F 
ATOM     91  C   UNL A   1      44.010  36.718  28.732  1.00  0.00     0.200 A 
ATOM     92  F   UNL A   1      44.331  35.995  26.513  1.00  0.00    -0.200 F 
ATOM     93  F   UNL A   1      44.291  37.979  28.384  1.00  0.00    -0.200 F 
ENDBRANCH  60  83
ENDBRANCH  34  35
ENDBRANCH  26  29
ENDBRANCH  24  25
ENDBRANCH  23  24
ENDBRANCH   1  23
TORSDOF 14
ENDMDL
