MODEL 1
REMARK VINA RESULT:     -13.1      0.000      0.000
REMARK SMILES CCc1cc(C)c2c(c1)C=C(C(=O)NCCCCNC(=O)c1ccc(-c3c4nc(c(-c5c(F)c(F)c(F)c(F)c5F)c5ccc([nH]5)c(-c5c(F)c(F)c(F)c(F)c5F)c5nc(c(-c6c(F)c(F)c(F)c(F)c6F)c6ccc3[nH]6)C=C5)C=C4)cc1)[C@@H](C(F)(F)F)O2
REMARK SMILES IDX 17 1 16 2 15 3 14 4 12 5 13 6 11 8 3 9 4 10 9 11 5 12 8 13
REMARK SMILES IDX 6 14 7 15 10 16 90 17 85 18 2 19 1 20 86 21 87 22 88 23
REMARK SMILES IDX 89 24 18 25 19 26 20 27 21 29 22 30 23 31 84 32 24 33 83 34
REMARK SMILES IDX 25 35 26 36 27 37 77 38 28 39 82 40 76 41 78 42 29 43 81 44
REMARK SMILES IDX 75 45 74 46 30 48 62 49 42 50 61 51 43 52 46 53 60 54 79 55
REMARK SMILES IDX 44 56 45 57 59 59 80 60 47 61 31 62 32 63 40 64 33 65 34 66
REMARK SMILES IDX 38 67 41 68 35 69 36 70 39 71 37 72 63 73 64 74 72 75 65 76
REMARK SMILES IDX 66 77 70 78 73 79 67 80 68 81 71 82 69 83 48 84 49 85 57 86
REMARK SMILES IDX 50 87 51 88 55 89 58 90 52 91 53 92 56 93 54 94
REMARK H PARENT 14 7 19 28 78 47 46 58
REMARK Flexibility Score: inf
ROOT
ATOM      1  C   UNL A   1      31.723  31.941  26.848  1.00  0.00     0.023 C 
ENDROOT
BRANCH   1   2
ATOM      2  C   UNL A   1      31.995  30.435  26.858  1.00  0.00     0.023 C 
BRANCH   2   3
ATOM      3  C   UNL A   1      33.359  30.049  26.294  1.00  0.00     0.116 C 
BRANCH   3   4
ATOM      4  N   UNL A   1      33.286  29.719  24.884  1.00  0.00    -0.352 N 
ATOM      5  C   UNL A   1      32.994  28.624  24.142  1.00  0.00     0.251 C 
ATOM      6  O   UNL A   1      33.077  28.786  22.920  1.00  0.00    -0.270 OA
ATOM      7  H   UNL A   1      33.504  30.494  24.318  1.00  0.00     0.163 HD
BRANCH   5   8
ATOM      8  C   UNL A   1      32.597  27.294  24.688  1.00  0.00     0.067 C 
ATOM      9  C   UNL A   1      34.023  22.944  26.272  1.00  0.00    -0.047 A 
ATOM     10  C   UNL A   1      32.695  22.645  26.620  1.00  0.00     0.011 A 
ATOM     11  C   UNL A   1      34.314  24.203  25.729  1.00  0.00     0.015 A 
ATOM     12  C   UNL A   1      31.673  23.589  26.450  1.00  0.00    -0.008 A 
ATOM     13  C   UNL A   1      33.306  25.155  25.556  1.00  0.00     0.018 A 
ATOM     14  C   UNL A   1      30.258  23.253  26.824  1.00  0.00     0.048 C 
ATOM     15  C   UNL A   1      31.993  24.840  25.912  1.00  0.00     0.130 A 
ATOM     16  C   UNL A   1      33.612  26.486  25.043  1.00  0.00     0.025 C 
ATOM     17  O   UNL A   1      30.979  25.749  25.789  1.00  0.00    -0.475 OA
ATOM     18  C   UNL A   1      31.181  26.809  24.817  1.00  0.00     0.314 C 
BRANCH   9  19
ATOM     19  C   UNL A   1      35.101  21.900  26.451  1.00  0.00     0.032 C 
ATOM     20  C   UNL A   1      35.484  21.194  25.158  1.00  0.00     0.009 C 
ENDBRANCH   9  19
BRANCH  18  21
ATOM     21  C   UNL A   1      30.572  26.387  23.466  1.00  0.00     0.429 C 
ATOM     22  F   UNL A   1      29.713  25.351  23.639  1.00  0.00    -0.167 F 
ATOM     23  F   UNL A   1      29.855  27.382  22.890  1.00  0.00    -0.167 F 
ATOM     24  F   UNL A   1      31.501  26.000  22.566  1.00  0.00    -0.167 F 
ENDBRANCH  18  21
ENDBRANCH   5   8
ENDBRANCH   3   4
ENDBRANCH   2   3
ENDBRANCH   1   2
BRANCH   1  25
ATOM     25  C   UNL A   1      32.851  32.807  27.405  1.00  0.00     0.116 C 
BRANCH  25  26
ATOM     26  N   UNL A   1      32.448  34.178  27.688  1.00  0.00    -0.352 N 
ATOM     27  C   UNL A   1      32.994  35.036  28.611  1.00  0.00     0.251 C 
ATOM     28  H   UNL A   1      31.698  34.529  27.156  1.00  0.00     0.163 HD
ATOM     29  O   UNL A   1      32.528  36.152  28.803  1.00  0.00    -0.269 OA
BRANCH  27  30
ATOM     30  C   UNL A   1      34.141  34.558  29.395  1.00  0.00     0.039 A 
ATOM     31  C   UNL A   1      33.904  33.927  30.617  1.00  0.00     0.014 A 
ATOM     32  C   UNL A   1      35.431  34.649  28.862  1.00  0.00     0.014 A 
ATOM     33  C   UNL A   1      34.966  33.329  31.290  1.00  0.00     0.010 A 
ATOM     34  C   UNL A   1      36.480  34.017  29.514  1.00  0.00     0.010 A 
ATOM     35  C   UNL A   1      36.253  33.350  30.729  1.00  0.00    -0.014 A 
BRANCH  35  36
ATOM     36  C   UNL A   1      37.392  32.704  31.416  1.00  0.00     0.031 A 
ATOM     37  C   UNL A   1      38.098  31.563  30.750  1.00  0.00     0.074 A 
ATOM     38  C   UNL A   1      37.748  33.109  32.648  1.00  0.00     0.049 A 
ATOM     39  N   UNL A   1      39.066  30.811  31.204  1.00  0.00    -0.248 NA
ATOM     40  C   UNL A   1      37.638  31.208  29.398  1.00  0.00     0.031 C 
ATOM     41  C   UNL A   1      37.115  34.193  33.399  1.00  0.00     0.029 A 
ATOM     42  N   UNL A   1      38.727  32.646  33.489  1.00  0.00    -0.354 N 
ATOM     43  C   UNL A   1      39.328  29.893  30.198  1.00  0.00     0.074 A 
ATOM     44  C   UNL A   1      38.387  30.149  29.129  1.00  0.00     0.031 C 
ATOM     45  C   UNL A   1      37.731  34.322  34.586  1.00  0.00     0.029 A 
ATOM     46  C   UNL A   1      38.783  33.313  34.687  1.00  0.00     0.049 A 
ATOM     47  H   UNL A   1      39.332  31.905  33.256  1.00  0.00     0.167 HD
ATOM     48  C   UNL A   1      40.284  28.937  30.162  1.00  0.00     0.037 A 
ATOM     49  C   UNL A   1      39.593  33.125  35.745  1.00  0.00     0.037 A 
ATOM     50  C   UNL A   1      41.226  28.697  31.220  1.00  0.00     0.049 A 
ATOM     51  C   UNL A   1      40.632  32.039  35.690  1.00  0.00     0.074 A 
ATOM     52  C   UNL A   1      42.257  27.777  31.266  1.00  0.00     0.029 A 
ATOM     53  N   UNL A   1      41.250  29.389  32.423  1.00  0.00    -0.354 N 
ATOM     54  N   UNL A   1      40.896  31.198  34.721  1.00  0.00    -0.248 NA
ATOM     55  C   UNL A   1      41.483  31.876  36.877  1.00  0.00     0.031 C 
ATOM     56  C   UNL A   1      42.889  27.892  32.509  1.00  0.00     0.029 A 
ATOM     57  C   UNL A   1      42.271  28.906  33.224  1.00  0.00     0.049 A 
ATOM     58  H   UNL A   1      40.632  30.115  32.668  1.00  0.00     0.167 HD
ATOM     59  C   UNL A   1      41.952  30.417  35.170  1.00  0.00     0.074 A 
ATOM     60  C   UNL A   1      42.289  30.893  36.496  1.00  0.00     0.031 C 
ATOM     61  C   UNL A   1      42.584  29.396  34.541  1.00  0.00     0.037 A 
BRANCH  48  62
ATOM     62  C   UNL A   1      40.357  28.090  28.929  1.00  0.00     0.064 A 
ATOM     63  C   UNL A   1      41.114  28.488  27.817  1.00  0.00     0.173 A 
ATOM     64  C   UNL A   1      39.677  26.867  28.860  1.00  0.00     0.173 A 
ATOM     65  F   UNL A   1      41.767  29.660  27.830  1.00  0.00    -0.203 F 
ATOM     66  C   UNL A   1      41.170  27.700  26.671  1.00  0.00     0.198 A 
ATOM     67  C   UNL A   1      39.752  26.071  27.721  1.00  0.00     0.198 A 
ATOM     68  F   UNL A   1      38.937  26.445  29.896  1.00  0.00    -0.203 F 
ATOM     69  F   UNL A   1      41.864  28.121  25.605  1.00  0.00    -0.200 F 
ATOM     70  C   UNL A   1      40.493  26.491  26.626  1.00  0.00     0.200 A 
ATOM     71  F   UNL A   1      39.103  24.899  27.679  1.00  0.00    -0.200 F 
ATOM     72  F   UNL A   1      40.548  25.732  25.522  1.00  0.00    -0.200 F 
ENDBRANCH  48  62
BRANCH  49  73
ATOM     73  C   UNL A   1      39.473  34.007  36.933  1.00  0.00     0.064 A 
ATOM     74  C   UNL A   1      38.718  33.608  38.044  1.00  0.00     0.173 A 
ATOM     75  C   UNL A   1      40.117  35.251  36.990  1.00  0.00     0.173 A 
ATOM     76  F   UNL A   1      38.070  32.434  38.025  1.00  0.00    -0.203 F 
ATOM     77  C   UNL A   1      38.602  34.426  39.165  1.00  0.00     0.198 A 
ATOM     78  C   UNL A   1      40.015  36.060  38.120  1.00  0.00     0.198 A 
ATOM     79  F   UNL A   1      40.853  35.674  35.952  1.00  0.00    -0.203 F 
ATOM     80  F   UNL A   1      37.851  34.034  40.204  1.00  0.00    -0.200 F 
ATOM     81  C   UNL A   1      39.255  35.649  39.205  1.00  0.00     0.200 A 
ATOM     82  F   UNL A   1      40.654  37.237  38.158  1.00  0.00    -0.200 F 
ATOM     83  F   UNL A   1      39.149  36.433  40.286  1.00  0.00    -0.200 F 
ENDBRANCH  49  73
BRANCH  61  84
ATOM     84  C   UNL A   1      43.710  28.732  35.273  1.00  0.00     0.064 A 
ATOM     85  C   UNL A   1      43.479  27.653  36.138  1.00  0.00     0.173 A 
ATOM     86  C   UNL A   1      45.035  29.137  35.058  1.00  0.00     0.173 A 
ATOM     87  F   UNL A   1      42.226  27.241  36.384  1.00  0.00    -0.203 F 
ATOM     88  C   UNL A   1      44.537  27.007  36.771  1.00  0.00     0.198 A 
ATOM     89  C   UNL A   1      46.092  28.475  35.676  1.00  0.00     0.198 A 
ATOM     90  F   UNL A   1      45.304  30.161  34.236  1.00  0.00    -0.203 F 
ATOM     91  F   UNL A   1      44.294  25.996  37.616  1.00  0.00    -0.200 F 
ATOM     92  C   UNL A   1      45.843  27.414  36.533  1.00  0.00     0.200 A 
ATOM     93  F   UNL A   1      47.354  28.862  35.438  1.00  0.00    -0.200 F 
ATOM     94  F   UNL A   1      46.860  26.784  37.135  1.00  0.00    -0.200 F 
ENDBRANCH  61  84
ENDBRANCH  35  36
ENDBRANCH  27  30
ENDBRANCH  25  26
ENDBRANCH   1  25
TORSDOF 13
ENDMDL
MODEL 2
REMARK VINA RESULT:     -13.1      0.237      1.213
REMARK SMILES CCc1cc(C)c2c(c1)C=C(C(=O)NCCCCNC(=O)c1ccc(-c3c4nc(c(-c5c(F)c(F)c(F)c(F)c5F)c5ccc([nH]5)c(-c5c(F)c(F)c(F)c(F)c5F)c5nc(c(-c6c(F)c(F)c(F)c(F)c6F)c6ccc3[nH]6)C=C5)C=C4)cc1)[C@@H](C(F)(F)F)O2
REMARK SMILES IDX 17 1 16 2 15 3 14 4 12 5 13 6 11 8 3 9 4 10 9 11 5 12 8 13
REMARK SMILES IDX 6 14 7 15 10 16 90 17 85 18 2 19 1 20 86 21 87 22 88 23
REMARK SMILES IDX 89 24 18 25 19 26 20 27 21 29 22 30 23 31 84 32 24 33 83 34
REMARK SMILES IDX 25 35 26 36 27 37 77 38 28 39 82 40 76 41 78 42 29 43 81 44
REMARK SMILES IDX 75 45 74 46 30 48 62 49 42 50 61 51 43 52 46 53 60 54 79 55
REMARK SMILES IDX 44 56 45 57 59 59 80 60 47 61 31 62 32 63 40 64 33 65 34 66
REMARK SMILES IDX 38 67 41 68 35 69 36 70 39 71 37 72 63 73 64 74 72 75 65 76
REMARK SMILES IDX 66 77 70 78 73 79 67 80 68 81 71 82 69 83 48 84 49 85 57 86
REMARK SMILES IDX 50 87 51 88 55 89 58 90 52 91 53 92 56 93 54 94
REMARK H PARENT 14 7 19 28 78 47 46 58
REMARK Flexibility Score: inf
ROOT
ATOM      1  C   UNL A   1      31.760  31.995  26.742  1.00  0.00     0.023 C 
ENDROOT
BRANCH   1   2
ATOM      2  C   UNL A   1      31.919  30.478  26.866  1.00  0.00     0.023 C 
BRANCH   2   3
ATOM      3  C   UNL A   1      33.349  29.987  26.662  1.00  0.00     0.116 C 
BRANCH   3   4
ATOM      4  N   UNL A   1      33.604  29.633  25.280  1.00  0.00    -0.352 N 
ATOM      5  C   UNL A   1      33.488  28.526  24.508  1.00  0.00     0.251 C 
ATOM      6  O   UNL A   1      33.854  28.667  23.336  1.00  0.00    -0.270 OA
ATOM      7  H   UNL A   1      33.953  30.398  24.767  1.00  0.00     0.163 HD
BRANCH   5   8
ATOM      8  C   UNL A   1      32.967  27.206  24.968  1.00  0.00     0.067 C 
ATOM      9  C   UNL A   1      33.970  22.627  26.194  1.00  0.00    -0.047 A 
ATOM     10  C   UNL A   1      32.627  22.440  26.557  1.00  0.00     0.011 A 
ATOM     11  C   UNL A   1      34.378  23.887  25.734  1.00  0.00     0.015 A 
ATOM     12  C   UNL A   1      31.704  23.492  26.486  1.00  0.00    -0.008 A 
ATOM     13  C   UNL A   1      33.470  24.947  25.659  1.00  0.00     0.018 A 
ATOM     14  C   UNL A   1      30.270  23.275  26.875  1.00  0.00     0.048 C 
ATOM     15  C   UNL A   1      32.140  24.741  26.029  1.00  0.00     0.130 A 
ATOM     16  C   UNL A   1      33.901  26.275  25.234  1.00  0.00     0.025 C 
ATOM     17  O   UNL A   1      31.223  25.756  26.002  1.00  0.00    -0.475 OA
ATOM     18  C   UNL A   1      31.512  26.859  25.103  1.00  0.00     0.314 C 
BRANCH   9  19
ATOM     19  C   UNL A   1      34.938  21.470  26.266  1.00  0.00     0.032 C 
ATOM     20  C   UNL A   1      34.965  20.619  25.003  1.00  0.00     0.009 C 
ENDBRANCH   9  19
BRANCH  18  21
ATOM     21  C   UNL A   1      30.834  26.603  23.744  1.00  0.00     0.429 C 
ATOM     22  F   UNL A   1      30.228  27.732  23.298  1.00  0.00    -0.167 F 
ATOM     23  F   UNL A   1      31.720  26.243  22.784  1.00  0.00    -0.167 F 
ATOM     24  F   UNL A   1      29.896  25.632  23.796  1.00  0.00    -0.167 F 
ENDBRANCH  18  21
ENDBRANCH   5   8
ENDBRANCH   3   4
ENDBRANCH   2   3
ENDBRANCH   1   2
BRANCH   1  25
ATOM     25  C   UNL A   1      32.870  32.819  27.390  1.00  0.00     0.116 C 
BRANCH  25  26
ATOM     26  N   UNL A   1      32.490  34.199  27.659  1.00  0.00    -0.352 N 
ATOM     27  C   UNL A   1      33.052  35.058  28.572  1.00  0.00     0.251 C 
ATOM     28  H   UNL A   1      31.745  34.557  27.125  1.00  0.00     0.163 HD
ATOM     29  O   UNL A   1      32.605  36.184  28.754  1.00  0.00    -0.269 OA
BRANCH  27  30
ATOM     30  C   UNL A   1      34.192  34.569  29.360  1.00  0.00     0.039 A 
ATOM     31  C   UNL A   1      33.949  33.987  30.605  1.00  0.00     0.014 A 
ATOM     32  C   UNL A   1      35.478  34.602  28.811  1.00  0.00     0.014 A 
ATOM     33  C   UNL A   1      35.000  33.377  31.286  1.00  0.00     0.010 A 
ATOM     34  C   UNL A   1      36.514  33.957  29.473  1.00  0.00     0.010 A 
ATOM     35  C   UNL A   1      36.280  33.339  30.711  1.00  0.00    -0.014 A 
BRANCH  35  36
ATOM     36  C   UNL A   1      37.405  32.679  31.407  1.00  0.00     0.031 A 
ATOM     37  C   UNL A   1      38.097  31.524  30.751  1.00  0.00     0.074 A 
ATOM     38  C   UNL A   1      37.761  33.085  32.639  1.00  0.00     0.049 A 
ATOM     39  N   UNL A   1      39.051  30.759  31.214  1.00  0.00    -0.248 NA
ATOM     40  C   UNL A   1      37.638  31.167  29.400  1.00  0.00     0.031 C 
ATOM     41  C   UNL A   1      37.142  34.184  33.380  1.00  0.00     0.029 A 
ATOM     42  N   UNL A   1      38.729  32.612  33.487  1.00  0.00    -0.354 N 
ATOM     43  C   UNL A   1      39.303  29.832  30.214  1.00  0.00     0.074 A 
ATOM     44  C   UNL A   1      38.372  30.095  29.140  1.00  0.00     0.031 C 
ATOM     45  C   UNL A   1      37.754  34.310  34.570  1.00  0.00     0.029 A 
ATOM     46  C   UNL A   1      38.790  33.285  34.682  1.00  0.00     0.049 A 
ATOM     47  H   UNL A   1      39.324  31.861  33.261  1.00  0.00     0.167 HD
ATOM     48  C   UNL A   1      40.245  28.861  30.189  1.00  0.00     0.037 A 
ATOM     49  C   UNL A   1      39.592  33.092  35.745  1.00  0.00     0.037 A 
ATOM     50  C   UNL A   1      41.178  28.613  31.253  1.00  0.00     0.049 A 
ATOM     51  C   UNL A   1      40.614  31.989  35.701  1.00  0.00     0.074 A 
ATOM     52  C   UNL A   1      42.195  27.677  31.310  1.00  0.00     0.029 A 
ATOM     53  N   UNL A   1      41.207  29.311  32.452  1.00  0.00    -0.354 N 
ATOM     54  N   UNL A   1      40.870  31.139  34.738  1.00  0.00    -0.248 NA
ATOM     55  C   UNL A   1      41.457  31.820  36.893  1.00  0.00     0.031 C 
ATOM     56  C   UNL A   1      42.822  27.790  32.554  1.00  0.00     0.029 A 
ATOM     57  C   UNL A   1      42.216  28.818  33.260  1.00  0.00     0.049 A 
ATOM     58  H   UNL A   1      40.599  30.048  32.690  1.00  0.00     0.167 HD
ATOM     59  C   UNL A   1      41.911  30.344  35.196  1.00  0.00     0.074 A 
ATOM     60  C   UNL A   1      42.249  30.823  36.521  1.00  0.00     0.031 C 
ATOM     61  C   UNL A   1      42.531  29.310  34.576  1.00  0.00     0.037 A 
BRANCH  48  62
ATOM     62  C   UNL A   1      40.311  28.006  28.961  1.00  0.00     0.064 A 
ATOM     63  C   UNL A   1      39.616  26.790  28.884  1.00  0.00     0.173 A 
ATOM     64  C   UNL A   1      41.061  28.409  27.847  1.00  0.00     0.173 A 
ATOM     65  F   UNL A   1      38.900  26.354  29.932  1.00  0.00    -0.203 F 
ATOM     66  C   UNL A   1      39.689  25.996  27.743  1.00  0.00     0.198 A 
ATOM     67  C   UNL A   1      41.114  27.623  26.700  1.00  0.00     0.198 A 
ATOM     68  F   UNL A   1      41.744  29.563  27.874  1.00  0.00    -0.203 F 
ATOM     69  F   UNL A   1      39.053  24.817  27.709  1.00  0.00    -0.200 F 
ATOM     70  C   UNL A   1      40.433  26.415  26.651  1.00  0.00     0.200 A 
ATOM     71  F   UNL A   1      41.828  28.032  25.642  1.00  0.00    -0.200 F 
ATOM     72  F   UNL A   1      40.502  25.651  25.553  1.00  0.00    -0.200 F 
ENDBRANCH  48  62
BRANCH  49  73
ATOM     73  C   UNL A   1      39.480  33.981  36.927  1.00  0.00     0.064 A 
ATOM     74  C   UNL A   1      38.722  33.596  38.041  1.00  0.00     0.173 A 
ATOM     75  C   UNL A   1      40.134  35.220  36.976  1.00  0.00     0.173 A 
ATOM     76  F   UNL A   1      38.063  32.428  38.030  1.00  0.00    -0.203 F 
ATOM     77  C   UNL A   1      38.613  34.423  39.157  1.00  0.00     0.198 A 
ATOM     78  C   UNL A   1      40.040  36.038  38.101  1.00  0.00     0.198 A 
ATOM     79  F   UNL A   1      40.873  35.630  35.935  1.00  0.00    -0.203 F 
ATOM     80  F   UNL A   1      37.859  34.043  40.198  1.00  0.00    -0.200 F 
ATOM     81  C   UNL A   1      39.277  35.641  39.188  1.00  0.00     0.200 A 
ATOM     82  F   UNL A   1      40.689  37.209  38.131  1.00  0.00    -0.200 F 
ATOM     83  F   UNL A   1      39.177  36.432  40.265  1.00  0.00    -0.200 F 
ENDBRANCH  49  73
BRANCH  61  84
ATOM     84  C   UNL A   1      43.643  28.633  35.318  1.00  0.00     0.064 A 
ATOM     85  C   UNL A   1      43.395  27.543  36.164  1.00  0.00     0.173 A 
ATOM     86  C   UNL A   1      44.973  29.037  35.130  1.00  0.00     0.173 A 
ATOM     87  F   UNL A   1      42.137  27.132  36.384  1.00  0.00    -0.203 F 
ATOM     88  C   UNL A   1      44.441  26.886  36.805  1.00  0.00     0.198 A 
ATOM     89  C   UNL A   1      46.017  28.364  35.756  1.00  0.00     0.198 A 
ATOM     90  F   UNL A   1      45.258  30.072  34.326  1.00  0.00    -0.203 F 
ATOM     91  F   UNL A   1      44.182  25.865  37.632  1.00  0.00    -0.200 F 
ATOM     92  C   UNL A   1      45.751  27.292  36.594  1.00  0.00     0.200 A 
ATOM     93  F   UNL A   1      47.284  28.750  35.544  1.00  0.00    -0.200 F 
ATOM     94  F   UNL A   1      46.758  26.651  37.204  1.00  0.00    -0.200 F 
ENDBRANCH  61  84
ENDBRANCH  35  36
ENDBRANCH  27  30
ENDBRANCH  25  26
ENDBRANCH   1  25
TORSDOF 13
ENDMDL
MODEL 3
REMARK VINA RESULT:     -13.1      0.646      7.475
REMARK SMILES CCc1cc(C)c2c(c1)C=C(C(=O)NCCCCNC(=O)c1ccc(-c3c4nc(c(-c5c(F)c(F)c(F)c(F)c5F)c5ccc([nH]5)c(-c5c(F)c(F)c(F)c(F)c5F)c5nc(c(-c6c(F)c(F)c(F)c(F)c6F)c6ccc3[nH]6)C=C5)C=C4)cc1)[C@@H](C(F)(F)F)O2
REMARK SMILES IDX 17 1 16 2 15 3 14 4 12 5 13 6 11 8 3 9 4 10 9 11 5 12 8 13
REMARK SMILES IDX 6 14 7 15 10 16 90 17 85 18 2 19 1 20 86 21 87 22 88 23
REMARK SMILES IDX 89 24 18 25 19 26 20 27 21 29 22 30 23 31 84 32 24 33 83 34
REMARK SMILES IDX 25 35 26 36 27 37 77 38 28 39 82 40 76 41 78 42 29 43 81 44
REMARK SMILES IDX 75 45 74 46 30 48 62 49 42 50 61 51 43 52 46 53 60 54 79 55
REMARK SMILES IDX 44 56 45 57 59 59 80 60 47 61 31 62 32 63 40 64 33 65 34 66
REMARK SMILES IDX 38 67 41 68 35 69 36 70 39 71 37 72 63 73 64 74 72 75 65 76
REMARK SMILES IDX 66 77 70 78 73 79 67 80 68 81 71 82 69 83 48 84 49 85 57 86
REMARK SMILES IDX 50 87 51 88 55 89 58 90 52 91 53 92 56 93 54 94
REMARK H PARENT 14 7 19 28 78 47 46 58
REMARK Flexibility Score: inf
ROOT
ATOM      1  C   UNL A   1      31.498  32.042  26.762  1.00  0.00     0.023 C 
ENDROOT
BRANCH   1   2
ATOM      2  C   UNL A   1      31.713  30.531  26.663  1.00  0.00     0.023 C 
BRANCH   2   3
ATOM      3  C   UNL A   1      33.180  30.114  26.641  1.00  0.00     0.116 C 
BRANCH   3   4
ATOM      4  N   UNL A   1      33.598  29.684  25.320  1.00  0.00    -0.352 N 
ATOM      5  C   UNL A   1      33.561  28.538  24.599  1.00  0.00     0.251 C 
ATOM      6  O   UNL A   1      34.070  28.613  23.476  1.00  0.00    -0.270 OA
ATOM      7  H   UNL A   1      34.019  30.418  24.816  1.00  0.00     0.163 HD
BRANCH   5   8
ATOM      8  C   UNL A   1      32.967  27.250  25.060  1.00  0.00     0.067 C 
ATOM      9  C   UNL A   1      33.741  22.708  26.558  1.00  0.00    -0.047 A 
ATOM     10  C   UNL A   1      32.365  22.562  26.799  1.00  0.00     0.011 A 
ATOM     11  C   UNL A   1      34.220  23.939  26.089  1.00  0.00     0.015 A 
ATOM     12  C   UNL A   1      31.479  23.629  26.597  1.00  0.00    -0.008 A 
ATOM     13  C   UNL A   1      33.349  25.012  25.886  1.00  0.00     0.018 A 
ATOM     14  C   UNL A   1      30.009  23.456  26.856  1.00  0.00     0.048 C 
ATOM     15  C   UNL A   1      31.985  24.848  26.135  1.00  0.00     0.130 A 
ATOM     16  C   UNL A   1      33.849  26.312  25.452  1.00  0.00     0.025 C 
ATOM     17  O   UNL A   1      31.099  25.879  25.979  1.00  0.00    -0.475 OA
ATOM     18  C   UNL A   1      31.498  26.937  25.069  1.00  0.00     0.314 C 
BRANCH   9  19
ATOM     19  C   UNL A   1      34.670  21.535  26.769  1.00  0.00     0.032 C 
ATOM     20  C   UNL A   1      35.609  21.285  25.597  1.00  0.00     0.009 C 
ENDBRANCH   9  19
BRANCH  18  21
ATOM     21  C   UNL A   1      30.946  26.637  23.662  1.00  0.00     0.429 C 
ATOM     22  F   UNL A   1      31.915  26.099  22.879  1.00  0.00    -0.167 F 
ATOM     23  F   UNL A   1      29.934  25.737  23.685  1.00  0.00    -0.167 F 
ATOM     24  F   UNL A   1      30.479  27.737  23.032  1.00  0.00    -0.167 F 
ENDBRANCH  18  21
ENDBRANCH   5   8
ENDBRANCH   3   4
ENDBRANCH   2   3
ENDBRANCH   1   2
BRANCH   1  25
ATOM     25  C   UNL A   1      32.700  32.837  27.270  1.00  0.00     0.116 C 
BRANCH  25  26
ATOM     26  N   UNL A   1      32.376  34.203  27.655  1.00  0.00    -0.352 N 
ATOM     27  C   UNL A   1      32.995  34.971  28.610  1.00  0.00     0.251 C 
ATOM     28  H   UNL A   1      31.627  34.624  27.175  1.00  0.00     0.163 HD
ATOM     29  O   UNL A   1      32.593  36.093  28.891  1.00  0.00    -0.269 OA
BRANCH  27  30
ATOM     30  C   UNL A   1      34.143  34.389  29.319  1.00  0.00     0.039 A 
ATOM     31  C   UNL A   1      33.905  33.555  30.413  1.00  0.00     0.014 A 
ATOM     32  C   UNL A   1      35.436  34.594  28.829  1.00  0.00     0.014 A 
ATOM     33  C   UNL A   1      34.972  32.871  30.990  1.00  0.00     0.010 A 
ATOM     34  C   UNL A   1      36.492  33.879  29.379  1.00  0.00     0.010 A 
ATOM     35  C   UNL A   1      36.265  33.012  30.459  1.00  0.00    -0.014 A 
BRANCH  35  36
ATOM     36  C   UNL A   1      37.409  32.280  31.044  1.00  0.00     0.031 A 
ATOM     37  C   UNL A   1      37.896  32.653  32.411  1.00  0.00     0.074 A 
ATOM     38  C   UNL A   1      38.032  31.328  30.327  1.00  0.00     0.049 A 
ATOM     39  N   UNL A   1      38.923  32.193  33.077  1.00  0.00    -0.248 NA
ATOM     40  C   UNL A   1      37.137  33.699  33.114  1.00  0.00     0.031 C 
ATOM     41  C   UNL A   1      37.656  30.901  28.979  1.00  0.00     0.029 A 
ATOM     42  N   UNL A   1      39.121  30.552  30.633  1.00  0.00    -0.354 N 
ATOM     43  C   UNL A   1      38.935  32.895  34.273  1.00  0.00     0.074 A 
ATOM     44  C   UNL A   1      37.845  33.845  34.224  1.00  0.00     0.031 C 
ATOM     45  C   UNL A   1      38.494  29.929  28.578  1.00  0.00     0.029 A 
ATOM     46  C   UNL A   1      39.477  29.685  29.630  1.00  0.00     0.049 A 
ATOM     47  H   UNL A   1      39.601  30.612  31.491  1.00  0.00     0.167 HD
ATOM     48  C   UNL A   1      39.770  32.743  35.327  1.00  0.00     0.037 A 
ATOM     49  C   UNL A   1      40.487  28.798  29.572  1.00  0.00     0.037 A 
ATOM     50  C   UNL A   1      40.842  31.788  35.376  1.00  0.00     0.049 A 
ATOM     51  C   UNL A   1      41.416  28.666  30.748  1.00  0.00     0.074 A 
ATOM     52  C   UNL A   1      41.722  31.530  36.412  1.00  0.00     0.029 A 
ATOM     53  N   UNL A   1      41.178  30.930  34.339  1.00  0.00    -0.354 N 
ATOM     54  N   UNL A   1      41.400  29.309  31.889  1.00  0.00    -0.248 NA
ATOM     55  C   UNL A   1      42.505  27.686  30.625  1.00  0.00     0.031 C 
ATOM     56  C   UNL A   1      42.608  30.534  35.991  1.00  0.00     0.029 A 
ATOM     57  C   UNL A   1      42.261  30.150  34.706  1.00  0.00     0.049 A 
ATOM     58  H   UNL A   1      40.714  30.883  33.472  1.00  0.00     0.167 HD
ATOM     59  C   UNL A   1      42.461  28.803  32.628  1.00  0.00     0.074 A 
ATOM     60  C   UNL A   1      43.094  27.790  31.809  1.00  0.00     0.031 C 
ATOM     61  C   UNL A   1      42.874  29.149  33.872  1.00  0.00     0.037 A 
BRANCH  48  62
ATOM     62  C   UNL A   1      39.541  33.630  36.512  1.00  0.00     0.064 A 
ATOM     63  C   UNL A   1      38.724  33.223  37.577  1.00  0.00     0.173 A 
ATOM     64  C   UNL A   1      40.151  34.889  36.593  1.00  0.00     0.173 A 
ATOM     65  F   UNL A   1      38.104  32.034  37.536  1.00  0.00    -0.203 F 
ATOM     66  C   UNL A   1      38.508  34.056  38.671  1.00  0.00     0.198 A 
ATOM     67  C   UNL A   1      39.951  35.710  37.698  1.00  0.00     0.198 A 
ATOM     68  F   UNL A   1      40.939  35.323  35.598  1.00  0.00    -0.203 F 
ATOM     69  F   UNL A   1      37.688  33.664  39.657  1.00  0.00    -0.200 F 
ATOM     70  C   UNL A   1      39.126  35.295  38.733  1.00  0.00     0.200 A 
ATOM     71  F   UNL A   1      40.553  36.906  37.761  1.00  0.00    -0.200 F 
ATOM     72  F   UNL A   1      38.918  36.096  39.788  1.00  0.00    -0.200 F 
ENDBRANCH  48  62
BRANCH  49  73
ATOM     73  C   UNL A   1      40.652  27.944  28.370  1.00  0.00     0.064 A 
ATOM     74  C   UNL A   1      41.407  28.389  27.277  1.00  0.00     0.173 A 
ATOM     75  C   UNL A   1      40.074  26.669  28.293  1.00  0.00     0.173 A 
ATOM     76  F   UNL A   1      41.962  29.610  27.300  1.00  0.00    -0.203 F 
ATOM     77  C   UNL A   1      41.571  27.594  26.145  1.00  0.00     0.198 A 
ATOM     78  C   UNL A   1      40.254  25.867  27.167  1.00  0.00     0.198 A 
ATOM     79  F   UNL A   1      39.345  26.199  29.315  1.00  0.00    -0.203 F 
ATOM     80  F   UNL A   1      42.275  28.054  25.102  1.00  0.00    -0.200 F 
ATOM     81  C   UNL A   1      40.999  26.331  26.093  1.00  0.00     0.200 A 
ATOM     82  F   UNL A   1      39.708  24.645  27.124  1.00  0.00    -0.200 F 
ATOM     83  F   UNL A   1      41.163  25.564  25.007  1.00  0.00    -0.200 F 
ENDBRANCH  49  73
BRANCH  61  84
ATOM     84  C   UNL A   1      44.059  28.419  34.428  1.00  0.00     0.064 A 
ATOM     85  C   UNL A   1      45.357  28.930  34.291  1.00  0.00     0.173 A 
ATOM     86  C   UNL A   1      43.887  27.235  35.158  1.00  0.00     0.173 A 
ATOM     87  F   UNL A   1      45.570  30.053  33.588  1.00  0.00    -0.203 F 
ATOM     88  C   UNL A   1      46.445  28.274  34.858  1.00  0.00     0.198 A 
ATOM     89  C   UNL A   1      44.974  26.593  35.742  1.00  0.00     0.198 A 
ATOM     90  F   UNL A   1      42.662  26.712  35.319  1.00  0.00    -0.203 F 
ATOM     91  F   UNL A   1      47.682  28.762  34.692  1.00  0.00    -0.200 F 
ATOM     92  C   UNL A   1      46.251  27.110  35.590  1.00  0.00     0.200 A 
ATOM     93  F   UNL A   1      44.785  25.474  36.457  1.00  0.00    -0.200 F 
ATOM     94  F   UNL A   1      47.299  26.485  36.144  1.00  0.00    -0.200 F 
ENDBRANCH  61  84
ENDBRANCH  35  36
ENDBRANCH  27  30
ENDBRANCH  25  26
ENDBRANCH   1  25
TORSDOF 13
ENDMDL
