MODEL 1
REMARK VINA RESULT:     -14.0      0.000      0.000
REMARK SMILES Cc1nc(-c2ccc3c(c2)CCN3S(=O)(=O)c2ccc(F)c(C(=O)NCCCCNC(=O)c3ccc(-c4c5nc(c(-c6c(F)c(F)c(F)c(F)c6F)c6ccc([nH]6)c(-c6c(F)c(F)c(F)c(F)c6F)c6nc(c(-c7c(F)c(F)c(F)c(F)c7F)c7ccc4[nH]7)C=C6)C=C5)cc3)c2)cs1
REMARK SMILES IDX 27 1 26 2 25 3 23 4 24 5 22 7 17 8 18 9 96 10 19 11 20 12
REMARK SMILES IDX 21 13 14 14 15 15 16 16 13 17 5 18 6 19 10 20 7 21 9 22 8 23
REMARK SMILES IDX 11 24 12 25 4 26 1 27 2 28 3 29 98 30 97 31 28 32 29 33
REMARK SMILES IDX 30 34 31 35 32 37 33 38 34 39 95 40 35 41 94 42 36 43 37 44
REMARK SMILES IDX 38 45 88 46 39 47 93 48 87 49 89 50 40 51 92 52 86 53 85 54
REMARK SMILES IDX 41 56 73 57 53 58 72 59 54 60 57 61 71 62 90 63 55 64 56 65
REMARK SMILES IDX 70 67 91 68 58 69 42 70 43 71 51 72 44 73 45 74 49 75 52 76
REMARK SMILES IDX 46 77 47 78 50 79 48 80 74 81 75 82 83 83 76 84 77 85 81 86
REMARK SMILES IDX 84 87 78 88 79 89 82 90 80 91 59 92 60 93 68 94 61 95 62 96
REMARK SMILES IDX 66 97 69 98 63 99 64 100 67 101 65 102
REMARK H PARENT 25 6 30 36 89 55 57 66
REMARK Flexibility Score: inf
ROOT
ATOM      1  C   UNL A   1      32.048  30.137  26.978  1.00  0.00     0.023 C 
ENDROOT
BRANCH   1   2
ATOM      2  C   UNL A   1      33.402  29.607  26.535  1.00  0.00     0.116 C 
BRANCH   2   3
ATOM      3  N   UNL A   1      33.674  29.701  25.112  1.00  0.00    -0.352 N 
ATOM      4  C   UNL A   1      33.300  28.894  24.059  1.00  0.00     0.254 C 
ATOM      5  O   UNL A   1      33.618  29.255  22.924  1.00  0.00    -0.269 OA
ATOM      6  H   UNL A   1      34.223  30.477  24.854  1.00  0.00     0.163 HD
BRANCH   4   7
ATOM      7  C   UNL A   1      32.610  27.582  24.217  1.00  0.00     0.076 A 
ATOM      8  C   UNL A   1      32.678  25.169  23.980  1.00  0.00     0.089 A 
ATOM      9  C   UNL A   1      31.487  25.044  24.704  1.00  0.00     0.025 A 
ATOM     10  C   UNL A   1      33.295  26.418  23.819  1.00  0.00     0.039 A 
ATOM     11  C   UNL A   1      30.775  26.191  25.015  1.00  0.00     0.041 A 
ATOM     12  C   UNL A   1      31.296  27.435  24.669  1.00  0.00     0.136 A 
ATOM     13  F   UNL A   1      30.434  28.462  24.670  1.00  0.00    -0.206 F 
BRANCH   8  14
ATOM     14  S   UNL A   1      33.289  23.711  23.172  1.00  0.00     0.264 S 
ATOM     15  O   UNL A   1      34.397  24.146  22.344  1.00  0.00    -0.201 OA
ATOM     16  O   UNL A   1      32.159  23.034  22.564  1.00  0.00    -0.201 OA
BRANCH  14  17
ATOM     17  N   UNL A   1      33.903  22.675  24.399  1.00  0.00    -0.266 N 
ATOM     18  C   UNL A   1      37.871  21.783  25.574  1.00  0.00     0.001 A 
ATOM     19  C   UNL A   1      37.526  23.129  25.383  1.00  0.00     0.012 A 
ATOM     20  C   UNL A   1      36.890  20.799  25.387  1.00  0.00     0.016 A 
ATOM     21  C   UNL A   1      36.235  23.493  24.991  1.00  0.00     0.028 A 
ATOM     22  C   UNL A   1      35.615  21.189  24.967  1.00  0.00    -0.021 A 
ATOM     23  C   UNL A   1      35.303  22.519  24.691  1.00  0.00     0.055 A 
ATOM     24  C   UNL A   1      34.382  20.343  24.945  1.00  0.00     0.060 C 
ATOM     25  C   UNL A   1      33.360  21.269  24.266  1.00  0.00     0.140 C 
BRANCH  18  26
ATOM     26  C   UNL A   1      39.199  21.475  26.081  1.00  0.00     0.081 A 
ATOM     27  C   UNL A   1      42.055  22.655  28.027  1.00  0.00     0.079 C 
ATOM     28  C   UNL A   1      41.067  21.926  27.184  1.00  0.00     0.090 A 
ATOM     29  N   UNL A   1      39.897  22.410  26.833  1.00  0.00    -0.242 NA
ATOM     30  S   UNL A   1      41.419  20.351  26.595  1.00  0.00    -0.127 S 
ATOM     31  C   UNL A   1      39.878  20.300  25.838  1.00  0.00     0.095 A 
ENDBRANCH  18  26
ENDBRANCH  14  17
ENDBRANCH   8  14
ENDBRANCH   4   7
ENDBRANCH   2   3
ENDBRANCH   1   2
BRANCH   1  32
ATOM     32  C   UNL A   1      31.827  31.635  26.861  1.00  0.00     0.023 C 
BRANCH  32  33
ATOM     33  C   UNL A   1      32.962  32.517  27.366  1.00  0.00     0.116 C 
BRANCH  33  34
ATOM     34  N   UNL A   1      32.563  33.885  27.669  1.00  0.00    -0.352 N 
ATOM     35  C   UNL A   1      33.071  34.758  28.604  1.00  0.00     0.251 C 
ATOM     36  H   UNL A   1      31.823  34.238  27.125  1.00  0.00     0.163 HD
ATOM     37  O   UNL A   1      32.550  35.854  28.782  1.00  0.00    -0.269 OA
BRANCH  35  38
ATOM     38  C   UNL A   1      34.225  34.349  29.430  1.00  0.00     0.039 A 
ATOM     39  C   UNL A   1      33.994  33.780  30.685  1.00  0.00     0.014 A 
ATOM     40  C   UNL A   1      35.527  34.474  28.941  1.00  0.00     0.014 A 
ATOM     41  C   UNL A   1      35.065  33.248  31.406  1.00  0.00     0.010 A 
ATOM     42  C   UNL A   1      36.576  33.856  29.613  1.00  0.00     0.010 A 
ATOM     43  C   UNL A   1      36.357  33.234  30.852  1.00  0.00    -0.014 A 
BRANCH  43  44
ATOM     44  C   UNL A   1      37.491  32.571  31.545  1.00  0.00     0.031 A 
ATOM     45  C   UNL A   1      38.168  31.387  30.913  1.00  0.00     0.074 A 
ATOM     46  C   UNL A   1      37.870  32.992  32.767  1.00  0.00     0.049 A 
ATOM     47  N   UNL A   1      39.125  30.631  31.389  1.00  0.00    -0.248 NA
ATOM     48  C   UNL A   1      37.687  30.980  29.583  1.00  0.00     0.031 C 
ATOM     49  C   UNL A   1      37.264  34.103  33.503  1.00  0.00     0.029 A 
ATOM     50  N   UNL A   1      38.853  32.535  33.609  1.00  0.00    -0.354 N 
ATOM     51  C   UNL A   1      39.355  29.663  30.420  1.00  0.00     0.074 A 
ATOM     52  C   UNL A   1      38.390  29.879  29.365  1.00  0.00     0.031 C 
ATOM     53  C   UNL A   1      37.914  34.268  34.664  1.00  0.00     0.029 A 
ATOM     54  C   UNL A   1      38.951  33.246  34.781  1.00  0.00     0.049 A 
ATOM     55  H   UNL A   1      39.434  31.770  33.394  1.00  0.00     0.167 HD
ATOM     56  C   UNL A   1      40.306  28.701  30.398  1.00  0.00     0.037 A 
ATOM     57  C   UNL A   1      39.781  33.091  35.831  1.00  0.00     0.037 A 
ATOM     58  C   UNL A   1      41.275  28.500  31.443  1.00  0.00     0.049 A 
ATOM     59  C   UNL A   1      40.806  31.991  35.801  1.00  0.00     0.074 A 
ATOM     60  C   UNL A   1      42.304  27.578  31.496  1.00  0.00     0.029 A 
ATOM     61  N   UNL A   1      41.333  29.234  32.620  1.00  0.00    -0.354 N 
ATOM     62  N   UNL A   1      41.048  31.112  34.858  1.00  0.00    -0.248 NA
ATOM     63  C   UNL A   1      41.675  31.860  36.978  1.00  0.00     0.031 C 
ATOM     64  C   UNL A   1      42.951  27.715  32.727  1.00  0.00     0.029 A 
ATOM     65  C   UNL A   1      42.366  28.767  33.415  1.00  0.00     0.049 A 
ATOM     66  H   UNL A   1      40.730  29.976  32.854  1.00  0.00     0.167 HD
ATOM     67  C   UNL A   1      42.111  30.345  35.313  1.00  0.00     0.074 A 
ATOM     68  C   UNL A   1      42.476  30.867  36.613  1.00  0.00     0.031 C 
ATOM     69  C   UNL A   1      42.727  29.302  34.704  1.00  0.00     0.037 A 
BRANCH  56  70
ATOM     70  C   UNL A   1      40.361  27.801  29.197  1.00  0.00     0.064 A 
ATOM     71  C   UNL A   1      41.170  28.122  28.097  1.00  0.00     0.173 A 
ATOM     72  C   UNL A   1      39.567  26.646  29.111  1.00  0.00     0.173 A 
ATOM     73  F   UNL A   1      41.946  29.217  28.124  1.00  0.00    -0.203 F 
ATOM     74  C   UNL A   1      41.174  27.328  26.953  1.00  0.00     0.198 A 
ATOM     75  C   UNL A   1      39.599  25.836  27.979  1.00  0.00     0.198 A 
ATOM     76  F   UNL A   1      38.784  26.286  30.140  1.00  0.00    -0.203 F 
ATOM     77  F   UNL A   1      41.929  27.675  25.902  1.00  0.00    -0.200 F 
ATOM     78  C   UNL A   1      40.394  26.183  26.898  1.00  0.00     0.200 A 
ATOM     79  F   UNL A   1      38.867  24.714  27.940  1.00  0.00    -0.200 F 
ATOM     80  F   UNL A   1      40.411  25.412  25.802  1.00  0.00    -0.200 F 
ENDBRANCH  56  70
BRANCH  57  81
ATOM     81  C   UNL A   1      39.701  34.040  36.973  1.00  0.00     0.064 A 
ATOM     82  C   UNL A   1      38.921  33.765  38.105  1.00  0.00     0.173 A 
ATOM     83  C   UNL A   1      40.380  35.266  36.933  1.00  0.00     0.173 A 
ATOM     84  F   UNL A   1      38.248  32.607  38.192  1.00  0.00    -0.203 F 
ATOM     85  C   UNL A   1      38.799  34.691  39.139  1.00  0.00     0.198 A 
ATOM     86  C   UNL A   1      40.281  36.179  37.981  1.00  0.00     0.198 A 
ATOM     87  F   UNL A   1      41.156  35.567  35.882  1.00  0.00    -0.203 F 
ATOM     88  F   UNL A   1      38.013  34.419  40.190  1.00  0.00    -0.200 F 
ATOM     89  C   UNL A   1      39.482  35.896  39.078  1.00  0.00     0.200 A 
ATOM     90  F   UNL A   1      40.961  37.333  37.927  1.00  0.00    -0.200 F 
ATOM     91  F   UNL A   1      39.371  36.783  40.076  1.00  0.00    -0.200 F 
ENDBRANCH  57  81
BRANCH  69  92
ATOM     92  C   UNL A   1      43.885  28.660  35.413  1.00  0.00     0.064 A 
ATOM     93  C   UNL A   1      43.661  27.653  36.365  1.00  0.00     0.173 A 
ATOM     94  C   UNL A   1      45.201  29.105  35.226  1.00  0.00     0.173 A 
ATOM     95  F   UNL A   1      42.418  27.199  36.590  1.00  0.00    -0.203 F 
ATOM     96  C   UNL A   1      44.708  27.133  37.120  1.00  0.00     0.198 A 
ATOM     97  C   UNL A   1      46.252  28.559  35.960  1.00  0.00     0.198 A 
ATOM     98  F   UNL A   1      45.470  30.057  34.319  1.00  0.00    -0.203 F 
ATOM     99  F   UNL A   1      44.462  26.207  38.056  1.00  0.00    -0.200 F 
ATOM    100  C   UNL A   1      46.003  27.584  36.915  1.00  0.00     0.200 A 
ATOM    101  F   UNL A   1      47.506  28.977  35.743  1.00  0.00    -0.200 F 
ATOM    102  F   UNL A   1      47.012  27.079  37.637  1.00  0.00    -0.200 F 
ENDBRANCH  69  92
ENDBRANCH  43  44
ENDBRANCH  35  38
ENDBRANCH  33  34
ENDBRANCH  32  33
ENDBRANCH   1  32
TORSDOF 14
ENDMDL
MODEL 2
REMARK VINA RESULT:     -13.6      5.274     11.347
REMARK SMILES Cc1nc(-c2ccc3c(c2)CCN3S(=O)(=O)c2ccc(F)c(C(=O)NCCCCNC(=O)c3ccc(-c4c5nc(c(-c6c(F)c(F)c(F)c(F)c6F)c6ccc([nH]6)c(-c6c(F)c(F)c(F)c(F)c6F)c6nc(c(-c7c(F)c(F)c(F)c(F)c7F)c7ccc4[nH]7)C=C6)C=C5)cc3)c2)cs1
REMARK SMILES IDX 27 1 26 2 25 3 23 4 24 5 22 7 17 8 18 9 96 10 19 11 20 12
REMARK SMILES IDX 21 13 14 14 15 15 16 16 13 17 5 18 6 19 10 20 7 21 9 22 8 23
REMARK SMILES IDX 11 24 12 25 4 26 1 27 2 28 3 29 98 30 97 31 28 32 29 33
REMARK SMILES IDX 30 34 31 35 32 37 33 38 34 39 95 40 35 41 94 42 36 43 37 44
REMARK SMILES IDX 38 45 88 46 39 47 93 48 87 49 89 50 40 51 92 52 86 53 85 54
REMARK SMILES IDX 41 56 73 57 53 58 72 59 54 60 57 61 71 62 90 63 55 64 56 65
REMARK SMILES IDX 70 67 91 68 58 69 42 70 43 71 51 72 44 73 45 74 49 75 52 76
REMARK SMILES IDX 46 77 47 78 50 79 48 80 74 81 75 82 83 83 76 84 77 85 81 86
REMARK SMILES IDX 84 87 78 88 79 89 82 90 80 91 59 92 60 93 68 94 61 95 62 96
REMARK SMILES IDX 66 97 69 98 63 99 64 100 67 101 65 102
REMARK H PARENT 25 6 30 36 89 55 57 66
REMARK Flexibility Score: inf
ROOT
ATOM      1  C   UNL A   1      36.811  20.622  25.103  1.00  0.00     0.023 C 
ENDROOT
BRANCH   1   2
ATOM      2  C   UNL A   1      36.517  22.032  25.589  1.00  0.00     0.116 C 
BRANCH   2   3
ATOM      3  N   UNL A   1      35.665  22.124  26.761  1.00  0.00    -0.352 N 
ATOM      4  C   UNL A   1      34.330  22.446  26.892  1.00  0.00     0.254 C 
ATOM      5  O   UNL A   1      33.837  22.378  28.020  1.00  0.00    -0.269 OA
ATOM      6  H   UNL A   1      36.119  21.922  27.611  1.00  0.00     0.163 HD
BRANCH   4   7
ATOM      7  C   UNL A   1      33.478  22.945  25.776  1.00  0.00     0.076 A 
ATOM      8  C   UNL A   1      31.926  24.615  24.947  1.00  0.00     0.089 A 
ATOM      9  C   UNL A   1      32.032  24.098  23.651  1.00  0.00     0.025 A 
ATOM     10  C   UNL A   1      32.717  24.111  25.989  1.00  0.00     0.039 A 
ATOM     11  C   UNL A   1      32.708  22.904  23.464  1.00  0.00     0.041 A 
ATOM     12  C   UNL A   1      33.328  22.291  24.550  1.00  0.00     0.136 A 
ATOM     13  F   UNL A   1      33.654  21.000  24.398  1.00  0.00    -0.206 F 
BRANCH   8  14
ATOM     14  S   UNL A   1      30.664  25.829  25.233  1.00  0.00     0.264 S 
ATOM     15  O   UNL A   1      30.441  25.847  26.665  1.00  0.00    -0.201 OA
ATOM     16  O   UNL A   1      29.561  25.541  24.337  1.00  0.00    -0.201 OA
BRANCH  14  17
ATOM     17  N   UNL A   1      31.314  27.351  24.766  1.00  0.00    -0.266 N 
ATOM     18  C   UNL A   1      32.878  30.544  27.065  1.00  0.00     0.001 A 
ATOM     19  C   UNL A   1      33.307  29.242  27.365  1.00  0.00     0.012 A 
ATOM     20  C   UNL A   1      31.970  30.732  26.014  1.00  0.00     0.016 A 
ATOM     21  C   UNL A   1      32.828  28.143  26.648  1.00  0.00     0.028 A 
ATOM     22  C   UNL A   1      31.485  29.613  25.332  1.00  0.00    -0.021 A 
ATOM     23  C   UNL A   1      31.845  28.315  25.693  1.00  0.00     0.055 A 
ATOM     24  C   UNL A   1      30.716  29.609  24.050  1.00  0.00     0.060 C 
ATOM     25  C   UNL A   1      30.354  28.124  23.888  1.00  0.00     0.140 C 
BRANCH  18  26
ATOM     26  C   UNL A   1      33.490  31.654  27.778  1.00  0.00     0.081 A 
ATOM     27  C   UNL A   1      36.010  32.679  30.214  1.00  0.00     0.079 C 
ATOM     28  C   UNL A   1      34.909  32.560  29.219  1.00  0.00     0.090 A 
ATOM     29  N   UNL A   1      34.505  31.424  28.696  1.00  0.00    -0.242 NA
ATOM     30  S   UNL A   1      34.068  33.959  28.679  1.00  0.00    -0.127 S 
ATOM     31  C   UNL A   1      33.111  32.973  27.648  1.00  0.00     0.095 A 
ENDBRANCH  18  26
ENDBRANCH  14  17
ENDBRANCH   8  14
ENDBRANCH   4   7
ENDBRANCH   2   3
ENDBRANCH   1   2
BRANCH   1  32
ATOM     32  C   UNL A   1      38.251  20.313  24.732  1.00  0.00     0.023 C 
BRANCH  32  33
ATOM     33  C   UNL A   1      39.262  20.382  25.870  1.00  0.00     0.116 C 
BRANCH  33  34
ATOM     34  N   UNL A   1      40.173  19.247  25.927  1.00  0.00    -0.352 N 
ATOM     35  C   UNL A   1      41.531  19.225  26.150  1.00  0.00     0.251 C 
ATOM     36  H   UNL A   1      39.757  18.366  25.786  1.00  0.00     0.163 HD
ATOM     37  O   UNL A   1      42.158  18.174  26.077  1.00  0.00    -0.269 OA
BRANCH  35  38
ATOM     38  C   UNL A   1      42.242  20.488  26.434  1.00  0.00     0.039 A 
ATOM     39  C   UNL A   1      42.799  21.207  25.374  1.00  0.00     0.014 A 
ATOM     40  C   UNL A   1      42.307  20.988  27.736  1.00  0.00     0.014 A 
ATOM     41  C   UNL A   1      43.335  22.475  25.609  1.00  0.00     0.010 A 
ATOM     42  C   UNL A   1      42.749  22.289  27.952  1.00  0.00     0.010 A 
ATOM     43  C   UNL A   1      43.266  23.048  26.891  1.00  0.00    -0.014 A 
BRANCH  43  44
ATOM     44  C   UNL A   1      43.721  24.438  27.144  1.00  0.00     0.031 A 
ATOM     45  C   UNL A   1      42.749  25.466  27.654  1.00  0.00     0.074 A 
ATOM     46  C   UNL A   1      44.989  24.793  26.857  1.00  0.00     0.049 A 
ATOM     47  N   UNL A   1      42.934  26.743  27.870  1.00  0.00    -0.248 NA
ATOM     48  C   UNL A   1      41.380  25.003  27.930  1.00  0.00     0.031 C 
ATOM     49  C   UNL A   1      46.014  23.898  26.318  1.00  0.00     0.029 A 
ATOM     50  N   UNL A   1      45.632  26.000  26.974  1.00  0.00    -0.354 N 
ATOM     51  C   UNL A   1      41.709  27.232  28.303  1.00  0.00     0.074 A 
ATOM     52  C   UNL A   1      40.770  26.134  28.248  1.00  0.00     0.031 C 
ATOM     53  C   UNL A   1      47.165  24.575  26.192  1.00  0.00     0.029 A 
ATOM     54  C   UNL A   1      46.951  25.962  26.592  1.00  0.00     0.049 A 
ATOM     55  H   UNL A   1      45.189  26.817  27.301  1.00  0.00     0.167 HD
ATOM     56  C   UNL A   1      41.403  28.476  28.738  1.00  0.00     0.037 A 
ATOM     57  C   UNL A   1      47.883  26.936  26.568  1.00  0.00     0.037 A 
ATOM     58  C   UNL A   1      42.346  29.562  28.806  1.00  0.00     0.049 A 
ATOM     59  C   UNL A   1      47.510  28.321  27.020  1.00  0.00     0.074 A 
ATOM     60  C   UNL A   1      42.142  30.849  29.269  1.00  0.00     0.029 A 
ATOM     61  N   UNL A   1      43.670  29.485  28.399  1.00  0.00    -0.354 N 
ATOM     62  N   UNL A   1      46.361  28.761  27.474  1.00  0.00    -0.248 NA
ATOM     63  C   UNL A   1      48.560  29.346  26.958  1.00  0.00     0.031 C 
ATOM     64  C   UNL A   1      43.327  31.569  29.091  1.00  0.00     0.029 A 
ATOM     65  C   UNL A   1      44.288  30.712  28.578  1.00  0.00     0.049 A 
ATOM     66  H   UNL A   1      44.106  28.681  28.037  1.00  0.00     0.167 HD
ATOM     67  C   UNL A   1      46.557  30.100  27.779  1.00  0.00     0.074 A 
ATOM     68  C   UNL A   1      47.938  30.402  27.468  1.00  0.00     0.031 C 
ATOM     69  C   UNL A   1      45.668  30.997  28.274  1.00  0.00     0.037 A 
BRANCH  56  70
ATOM     70  C   UNL A   1      39.995  28.730  29.193  1.00  0.00     0.064 A 
ATOM     71  C   UNL A   1      39.618  28.494  30.523  1.00  0.00     0.173 A 
ATOM     72  C   UNL A   1      39.001  29.155  28.296  1.00  0.00     0.173 A 
ATOM     73  F   UNL A   1      40.526  28.082  31.421  1.00  0.00    -0.203 F 
ATOM     74  C   UNL A   1      38.298  28.661  30.935  1.00  0.00     0.198 A 
ATOM     75  C   UNL A   1      37.690  29.355  28.720  1.00  0.00     0.198 A 
ATOM     76  F   UNL A   1      39.310  29.407  27.015  1.00  0.00    -0.203 F 
ATOM     77  F   UNL A   1      37.956  28.396  32.203  1.00  0.00    -0.200 F 
ATOM     78  C   UNL A   1      37.337  29.098  30.036  1.00  0.00     0.200 A 
ATOM     79  F   UNL A   1      36.770  29.806  27.856  1.00  0.00    -0.200 F 
ATOM     80  F   UNL A   1      36.071  29.274  30.438  1.00  0.00    -0.200 F 
ENDBRANCH  56  70
BRANCH  57  81
ATOM     81  C   UNL A   1      49.270  26.611  26.142  1.00  0.00     0.064 A 
ATOM     82  C   UNL A   1      50.220  26.115  27.046  1.00  0.00     0.173 A 
ATOM     83  C   UNL A   1      49.682  26.832  24.820  1.00  0.00     0.173 A 
ATOM     84  F   UNL A   1      49.878  25.891  28.324  1.00  0.00    -0.203 F 
ATOM     85  C   UNL A   1      51.536  25.879  26.652  1.00  0.00     0.198 A 
ATOM     86  C   UNL A   1      50.990  26.568  24.420  1.00  0.00     0.198 A 
ATOM     87  F   UNL A   1      48.805  27.285  23.912  1.00  0.00    -0.203 F 
ATOM     88  F   UNL A   1      52.433  25.445  27.547  1.00  0.00    -0.200 F 
ATOM     89  C   UNL A   1      51.919  26.102  25.338  1.00  0.00     0.200 A 
ATOM     90  F   UNL A   1      51.350  26.763  23.144  1.00  0.00    -0.200 F 
ATOM     91  F   UNL A   1      53.182  25.868  24.958  1.00  0.00    -0.200 F 
ENDBRANCH  57  81
BRANCH  69  92
ATOM     92  C   UNL A   1      46.156  32.392  28.543  1.00  0.00     0.064 A 
ATOM     93  C   UNL A   1      46.108  33.365  27.531  1.00  0.00     0.173 A 
ATOM     94  C   UNL A   1      46.757  32.740  29.760  1.00  0.00     0.173 A 
ATOM     95  F   UNL A   1      45.551  33.080  26.344  1.00  0.00    -0.203 F 
ATOM     96  C   UNL A   1      46.666  34.626  27.721  1.00  0.00     0.198 A 
ATOM     97  C   UNL A   1      47.286  34.014  29.958  1.00  0.00     0.198 A 
ATOM     98  F   UNL A   1      46.818  31.851  30.762  1.00  0.00    -0.203 F 
ATOM     99  F   UNL A   1      46.650  35.521  26.725  1.00  0.00    -0.200 F 
ATOM    100  C   UNL A   1      47.252  34.950  28.935  1.00  0.00     0.200 A 
ATOM    101  F   UNL A   1      47.829  34.335  31.140  1.00  0.00    -0.200 F 
ATOM    102  F   UNL A   1      47.784  36.166  29.120  1.00  0.00    -0.200 F 
ENDBRANCH  69  92
ENDBRANCH  43  44
ENDBRANCH  35  38
ENDBRANCH  33  34
ENDBRANCH  32  33
ENDBRANCH   1  32
TORSDOF 14
ENDMDL
MODEL 3
REMARK VINA RESULT:     -13.4      5.091     10.374
REMARK SMILES Cc1nc(-c2ccc3c(c2)CCN3S(=O)(=O)c2ccc(F)c(C(=O)NCCCCNC(=O)c3ccc(-c4c5nc(c(-c6c(F)c(F)c(F)c(F)c6F)c6ccc([nH]6)c(-c6c(F)c(F)c(F)c(F)c6F)c6nc(c(-c7c(F)c(F)c(F)c(F)c7F)c7ccc4[nH]7)C=C6)C=C5)cc3)c2)cs1
REMARK SMILES IDX 27 1 26 2 25 3 23 4 24 5 22 7 17 8 18 9 96 10 19 11 20 12
REMARK SMILES IDX 21 13 14 14 15 15 16 16 13 17 5 18 6 19 10 20 7 21 9 22 8 23
REMARK SMILES IDX 11 24 12 25 4 26 1 27 2 28 3 29 98 30 97 31 28 32 29 33
REMARK SMILES IDX 30 34 31 35 32 37 33 38 34 39 95 40 35 41 94 42 36 43 37 44
REMARK SMILES IDX 38 45 88 46 39 47 93 48 87 49 89 50 40 51 92 52 86 53 85 54
REMARK SMILES IDX 41 56 73 57 53 58 72 59 54 60 57 61 71 62 90 63 55 64 56 65
REMARK SMILES IDX 70 67 91 68 58 69 42 70 43 71 51 72 44 73 45 74 49 75 52 76
REMARK SMILES IDX 46 77 47 78 50 79 48 80 74 81 75 82 83 83 76 84 77 85 81 86
REMARK SMILES IDX 84 87 78 88 79 89 82 90 80 91 59 92 60 93 68 94 61 95 62 96
REMARK SMILES IDX 66 97 69 98 63 99 64 100 67 101 65 102
REMARK H PARENT 25 6 30 36 89 55 57 66
REMARK Flexibility Score: inf
ROOT
ATOM      1  C   UNL A   1      36.933  19.516  24.997  1.00  0.00     0.023 C 
ENDROOT
BRANCH   1   2
ATOM      2  C   UNL A   1      35.884  20.541  25.399  1.00  0.00     0.116 C 
BRANCH   2   3
ATOM      3  N   UNL A   1      34.528  20.246  24.975  1.00  0.00    -0.352 N 
ATOM      4  C   UNL A   1      33.533  21.060  24.474  1.00  0.00     0.254 C 
ATOM      5  O   UNL A   1      32.481  20.523  24.124  1.00  0.00    -0.269 OA
ATOM      6  H   UNL A   1      34.272  19.299  25.060  1.00  0.00     0.163 HD
BRANCH   4   7
ATOM      7  C   UNL A   1      33.627  22.546  24.408  1.00  0.00     0.076 A 
ATOM      8  C   UNL A   1      32.679  24.704  24.981  1.00  0.00     0.089 A 
ATOM      9  C   UNL A   1      33.841  25.352  24.546  1.00  0.00     0.025 A 
ATOM     10  C   UNL A   1      32.603  23.304  25.008  1.00  0.00     0.039 A 
ATOM     11  C   UNL A   1      34.804  24.613  23.877  1.00  0.00     0.041 A 
ATOM     12  C   UNL A   1      34.629  23.240  23.724  1.00  0.00     0.136 A 
ATOM     13  F   UNL A   1      35.385  22.645  22.791  1.00  0.00    -0.206 F 
BRANCH   8  14
ATOM     14  S   UNL A   1      31.279  25.726  25.362  1.00  0.00     0.264 S 
ATOM     15  O   UNL A   1      31.152  25.709  26.806  1.00  0.00    -0.201 OA
ATOM     16  O   UNL A   1      30.171  25.286  24.537  1.00  0.00    -0.201 OA
BRANCH  14  17
ATOM     17  N   UNL A   1      31.675  27.326  24.872  1.00  0.00    -0.266 N 
ATOM     18  C   UNL A   1      32.900  30.709  27.101  1.00  0.00     0.001 A 
ATOM     19  C   UNL A   1      33.529  29.483  27.364  1.00  0.00     0.012 A 
ATOM     20  C   UNL A   1      31.913  30.766  26.108  1.00  0.00     0.016 A 
ATOM     21  C   UNL A   1      33.170  28.326  26.667  1.00  0.00     0.028 A 
ATOM     22  C   UNL A   1      31.553  29.588  25.447  1.00  0.00    -0.021 A 
ATOM     23  C   UNL A   1      32.117  28.356  25.773  1.00  0.00     0.055 A 
ATOM     24  C   UNL A   1      30.717  29.474  24.212  1.00  0.00     0.060 C 
ATOM     25  C   UNL A   1      30.563  27.953  24.059  1.00  0.00     0.140 C 
BRANCH  18  26
ATOM     26  C   UNL A   1      33.389  31.896  27.786  1.00  0.00     0.081 A 
ATOM     27  C   UNL A   1      35.755  33.239  30.222  1.00  0.00     0.079 C 
ATOM     28  C   UNL A   1      34.688  32.982  29.216  1.00  0.00     0.090 A 
ATOM     29  N   UNL A   1      34.405  31.796  28.725  1.00  0.00    -0.242 NA
ATOM     30  S   UNL A   1      33.722  34.273  28.621  1.00  0.00    -0.127 S 
ATOM     31  C   UNL A   1      32.884  33.167  27.609  1.00  0.00     0.095 A 
ENDBRANCH  18  26
ENDBRANCH  14  17
ENDBRANCH   8  14
ENDBRANCH   4   7
ENDBRANCH   2   3
ENDBRANCH   1   2
BRANCH   1  32
ATOM     32  C   UNL A   1      38.311  20.049  24.646  1.00  0.00     0.023 C 
BRANCH  32  33
ATOM     33  C   UNL A   1      39.296  20.160  25.803  1.00  0.00     0.116 C 
BRANCH  33  34
ATOM     34  N   UNL A   1      40.282  19.088  25.851  1.00  0.00    -0.352 N 
ATOM     35  C   UNL A   1      41.637  19.156  26.078  1.00  0.00     0.251 C 
ATOM     36  H   UNL A   1      39.926  18.183  25.700  1.00  0.00     0.163 HD
ATOM     37  O   UNL A   1      42.334  18.149  25.996  1.00  0.00    -0.269 OA
BRANCH  35  38
ATOM     38  C   UNL A   1      42.261  20.460  26.377  1.00  0.00     0.039 A 
ATOM     39  C   UNL A   1      42.718  21.253  25.321  1.00  0.00     0.014 A 
ATOM     40  C   UNL A   1      42.342  20.923  27.692  1.00  0.00     0.014 A 
ATOM     41  C   UNL A   1      43.165  22.550  25.578  1.00  0.00     0.010 A 
ATOM     42  C   UNL A   1      42.692  22.247  27.934  1.00  0.00     0.010 A 
ATOM     43  C   UNL A   1      43.105  23.076  26.880  1.00  0.00    -0.014 A 
BRANCH  43  44
ATOM     44  C   UNL A   1      43.463  24.489  27.163  1.00  0.00     0.031 A 
ATOM     45  C   UNL A   1      44.874  24.964  26.950  1.00  0.00     0.074 A 
ATOM     46  C   UNL A   1      42.539  25.328  27.669  1.00  0.00     0.049 A 
ATOM     47  N   UNL A   1      45.399  26.136  27.204  1.00  0.00    -0.248 NA
ATOM     48  C   UNL A   1      45.828  23.984  26.407  1.00  0.00     0.031 C 
ATOM     49  C   UNL A   1      41.148  24.975  27.960  1.00  0.00     0.029 A 
ATOM     50  N   UNL A   1      42.627  26.649  28.034  1.00  0.00    -0.354 N 
ATOM     51  C   UNL A   1      46.739  26.030  26.855  1.00  0.00     0.074 A 
ATOM     52  C   UNL A   1      46.964  24.663  26.443  1.00  0.00     0.031 C 
ATOM     53  C   UNL A   1      40.505  26.061  28.416  1.00  0.00     0.029 A 
ATOM     54  C   UNL A   1      41.446  27.174  28.498  1.00  0.00     0.049 A 
ATOM     55  H   UNL A   1      43.460  27.171  27.968  1.00  0.00     0.167 HD
ATOM     56  C   UNL A   1      47.687  26.995  26.847  1.00  0.00     0.037 A 
ATOM     57  C   UNL A   1      41.154  28.413  28.941  1.00  0.00     0.037 A 
ATOM     58  C   UNL A   1      47.453  28.359  27.243  1.00  0.00     0.049 A 
ATOM     59  C   UNL A   1      42.235  29.460  28.960  1.00  0.00     0.074 A 
ATOM     60  C   UNL A   1      48.340  29.421  27.234  1.00  0.00     0.029 A 
ATOM     61  N   UNL A   1      46.245  28.849  27.719  1.00  0.00    -0.354 N 
ATOM     62  N   UNL A   1      43.486  29.362  28.581  1.00  0.00    -0.248 NA
ATOM     63  C   UNL A   1      41.864  30.788  29.466  1.00  0.00     0.031 C 
ATOM     64  C   UNL A   1      47.686  30.539  27.756  1.00  0.00     0.029 A 
ATOM     65  C   UNL A   1      46.372  30.192  28.030  1.00  0.00     0.049 A 
ATOM     66  H   UNL A   1      45.421  28.320  27.821  1.00  0.00     0.167 HD
ATOM     67  C   UNL A   1      44.044  30.619  28.774  1.00  0.00     0.074 A 
ATOM     68  C   UNL A   1      42.992  31.466  29.296  1.00  0.00     0.031 C 
ATOM     69  C   UNL A   1      45.314  31.029  28.538  1.00  0.00     0.037 A 
BRANCH  56  70
ATOM     70  C   UNL A   1      49.063  26.618  26.380  1.00  0.00     0.064 A 
ATOM     71  C   UNL A   1      49.998  26.070  27.273  1.00  0.00     0.173 A 
ATOM     72  C   UNL A   1      49.478  26.850  25.059  1.00  0.00     0.173 A 
ATOM     73  F   UNL A   1      49.656  25.831  28.548  1.00  0.00    -0.203 F 
ATOM     74  C   UNL A   1      51.297  25.781  26.863  1.00  0.00     0.198 A 
ATOM     75  C   UNL A   1      50.768  26.528  24.645  1.00  0.00     0.198 A 
ATOM     76  F   UNL A   1      48.621  27.361  24.162  1.00  0.00    -0.203 F 
ATOM     77  F   UNL A   1      52.181  25.291  27.742  1.00  0.00    -0.200 F 
ATOM     78  C   UNL A   1      51.678  26.004  25.548  1.00  0.00     0.200 A 
ATOM     79  F   UNL A   1      51.125  26.717  23.366  1.00  0.00    -0.200 F 
ATOM     80  F   UNL A   1      52.924  25.711  25.152  1.00  0.00    -0.200 F 
ENDBRANCH  56  70
BRANCH  57  81
ATOM     81  C   UNL A   1      39.763  28.734  29.355  1.00  0.00     0.064 A 
ATOM     82  C   UNL A   1      39.314  28.510  30.664  1.00  0.00     0.173 A 
ATOM     83  C   UNL A   1      38.839  29.237  28.427  1.00  0.00     0.173 A 
ATOM     84  F   UNL A   1      40.156  28.026  31.589  1.00  0.00    -0.203 F 
ATOM     85  C   UNL A   1      37.989  28.751  31.022  1.00  0.00     0.198 A 
ATOM     86  C   UNL A   1      37.522  29.504  28.793  1.00  0.00     0.198 A 
ATOM     87  F   UNL A   1      39.226  29.488  27.167  1.00  0.00    -0.203 F 
ATOM     88  F   UNL A   1      37.577  28.488  32.270  1.00  0.00    -0.200 F 
ATOM     89  C   UNL A   1      37.095  29.251  30.088  1.00  0.00     0.200 A 
ATOM     90  F   UNL A   1      36.668  30.009  27.893  1.00  0.00    -0.200 F 
ATOM     91  F   UNL A   1      35.823  29.489  30.434  1.00  0.00    -0.200 F 
ENDBRANCH  57  81
BRANCH  69  92
ATOM     92  C   UNL A   1      45.648  32.468  28.811  1.00  0.00     0.064 A 
ATOM     93  C   UNL A   1      46.139  32.853  30.069  1.00  0.00     0.173 A 
ATOM     94  C   UNL A   1      45.393  33.474  27.869  1.00  0.00     0.173 A 
ATOM     95  F   UNL A   1      46.391  31.930  31.009  1.00  0.00    -0.203 F 
ATOM     96  C   UNL A   1      46.339  34.195  30.380  1.00  0.00     0.198 A 
ATOM     97  C   UNL A   1      45.625  34.814  28.173  1.00  0.00     0.198 A 
ATOM     98  F   UNL A   1      44.934  33.157  26.649  1.00  0.00    -0.203 F 
ATOM     99  F   UNL A   1      46.763  34.542  31.603  1.00  0.00    -0.200 F 
ATOM    100  C   UNL A   1      46.084  35.173  29.432  1.00  0.00     0.200 A 
ATOM    101  F   UNL A   1      45.402  35.757  27.248  1.00  0.00    -0.200 F 
ATOM    102  F   UNL A   1      46.281  36.465  29.730  1.00  0.00    -0.200 F 
ENDBRANCH  69  92
ENDBRANCH  43  44
ENDBRANCH  35  38
ENDBRANCH  33  34
ENDBRANCH  32  33
ENDBRANCH   1  32
TORSDOF 14
ENDMDL
