MODEL 1
REMARK VINA RESULT:     -10.3      0.000      0.000
REMARK SMILES CCC(CC)C(O)(C(=O)NCCCCNC(=O)c1ccc(-c2c3nc(c(-c4c(F)c(F)c(F)c(F)c4F)c4ccc([nH]4)c(-c4c(F)c(F)c(F)c(F)c4F)c4nc(c(-c5c(F)c(F)c(F)c(F)c5F)c5ccc2[nH]5)C=C4)C=C3)cc1)C(CC)CC
REMARK SMILES IDX 12 1 11 2 10 3 8 4 9 5 6 7 3 8 2 9 1 10 4 11 5 12 7 13 81 15
REMARK SMILES IDX 82 16 83 17 84 18 85 19 13 20 14 21 15 22 16 23 17 25 18 26
REMARK SMILES IDX 19 27 80 28 20 29 79 30 21 31 22 32 23 33 73 34 24 35 78 36
REMARK SMILES IDX 72 37 74 38 25 39 77 40 71 41 70 42 26 44 58 45 38 46 57 47
REMARK SMILES IDX 39 48 42 49 56 50 75 51 40 52 41 53 55 55 76 56 43 57 27 58
REMARK SMILES IDX 28 59 36 60 29 61 30 62 34 63 37 64 31 65 32 66 35 67 33 68
REMARK SMILES IDX 59 69 60 70 68 71 61 72 62 73 66 74 69 75 63 76 64 77 67 78
REMARK SMILES IDX 65 79 44 80 45 81 53 82 46 83 47 84 51 85 54 86 48 87 49 88
REMARK SMILES IDX 52 89 50 90
REMARK H PARENT 10 6 7 14 15 24 74 43 42 54
REMARK Flexibility Score: inf
ROOT
ATOM      1  C   UNL A   1      37.328  21.333  24.653  1.00  0.00     0.023 C 
ENDROOT
BRANCH   1   2
ATOM      2  C   UNL A   1      35.803  21.204  24.621  1.00  0.00     0.116 C 
BRANCH   2   3
ATOM      3  N   UNL A   1      35.183  21.196  25.938  1.00  0.00    -0.354 N 
ATOM      4  C   UNL A   1      33.875  21.316  26.343  1.00  0.00     0.252 C 
ATOM      5  O   UNL A   1      33.664  21.082  27.538  1.00  0.00    -0.272 OA
ATOM      6  H   UNL A   1      35.822  21.083  26.679  1.00  0.00     0.163 HD
BRANCH   4   7
ATOM      7  C   UNL A   1      32.729  21.777  25.365  1.00  0.00     0.148 C 
BRANCH   7   8
ATOM      8  C   UNL A   1      32.755  20.882  24.066  1.00  0.00     0.030 C 
BRANCH   8   9
ATOM      9  C   UNL A   1      32.431  19.391  24.320  1.00  0.00     0.004 C 
ATOM     10  C   UNL A   1      33.564  18.429  23.978  1.00  0.00     0.004 C 
ENDBRANCH   8   9
BRANCH   8  11
ATOM     11  C   UNL A   1      32.219  21.479  22.725  1.00  0.00     0.004 C 
ATOM     12  C   UNL A   1      32.899  22.609  21.984  1.00  0.00     0.004 C 
ENDBRANCH   8  11
ENDBRANCH   7   8
BRANCH   7  13
ATOM     13  O   UNL A   1      31.535  21.452  26.133  1.00  0.00    -0.379 OA
ATOM     14  H   UNL A   1      31.175  22.261  26.528  1.00  0.00     0.212 HD
ENDBRANCH   7  13
BRANCH   7  15
ATOM     15  C   UNL A   1      32.654  23.365  25.244  1.00  0.00     0.030 C 
BRANCH  15  16
ATOM     16  C   UNL A   1      31.257  24.039  25.321  1.00  0.00     0.004 C 
ATOM     17  C   UNL A   1      30.675  24.602  24.030  1.00  0.00     0.004 C 
ENDBRANCH  15  16
BRANCH  15  18
ATOM     18  C   UNL A   1      33.653  24.228  26.079  1.00  0.00     0.004 C 
ATOM     19  C   UNL A   1      34.761  24.961  25.337  1.00  0.00     0.004 C 
ENDBRANCH  15  18
ENDBRANCH   7  15
ENDBRANCH   4   7
ENDBRANCH   2   3
ENDBRANCH   1   2
BRANCH   1  20
ATOM     20  C   UNL A   1      38.076  20.037  24.955  1.00  0.00     0.023 C 
BRANCH  20  21
ATOM     21  C   UNL A   1      39.041  20.137  26.128  1.00  0.00     0.116 C 
BRANCH  21  22
ATOM     22  N   UNL A   1      40.144  19.192  26.023  1.00  0.00    -0.352 N 
ATOM     23  C   UNL A   1      41.496  19.410  26.071  1.00  0.00     0.251 C 
ATOM     24  H   UNL A   1      39.879  18.253  25.899  1.00  0.00     0.163 HD
ATOM     25  O   UNL A   1      42.269  18.497  25.804  1.00  0.00    -0.269 OA
BRANCH  23  26
ATOM     26  C   UNL A   1      42.020  20.747  26.415  1.00  0.00     0.039 A 
ATOM     27  C   UNL A   1      42.255  21.653  25.380  1.00  0.00     0.014 A 
ATOM     28  C   UNL A   1      42.289  21.104  27.739  1.00  0.00     0.014 A 
ATOM     29  C   UNL A   1      42.707  22.937  25.679  1.00  0.00     0.010 A 
ATOM     30  C   UNL A   1      42.657  22.411  28.043  1.00  0.00     0.010 A 
ATOM     31  C   UNL A   1      42.876  23.337  27.016  1.00  0.00    -0.014 A 
BRANCH  31  32
ATOM     32  C   UNL A   1      43.267  24.732  27.335  1.00  0.00     0.031 A 
ATOM     33  C   UNL A   1      44.663  25.215  27.066  1.00  0.00     0.074 A 
ATOM     34  C   UNL A   1      42.357  25.553  27.893  1.00  0.00     0.049 A 
ATOM     35  N   UNL A   1      45.176  26.405  27.257  1.00  0.00    -0.248 NA
ATOM     36  C   UNL A   1      45.620  24.231  26.533  1.00  0.00     0.031 C 
ATOM     37  C   UNL A   1      40.992  25.172  28.265  1.00  0.00     0.029 A 
ATOM     38  N   UNL A   1      42.438  26.877  28.241  1.00  0.00    -0.354 N 
ATOM     39  C   UNL A   1      46.504  26.313  26.864  1.00  0.00     0.074 A 
ATOM     40  C   UNL A   1      46.740  24.937  26.490  1.00  0.00     0.031 C 
ATOM     41  C   UNL A   1      40.354  26.246  28.755  1.00  0.00     0.029 A 
ATOM     42  C   UNL A   1      41.271  27.380  28.764  1.00  0.00     0.049 A 
ATOM     43  H   UNL A   1      43.253  27.416  28.126  1.00  0.00     0.167 HD
ATOM     44  C   UNL A   1      47.431  27.297  26.788  1.00  0.00     0.037 A 
ATOM     45  C   UNL A   1      40.978  28.618  29.201  1.00  0.00     0.037 A 
ATOM     46  C   UNL A   1      47.187  28.667  27.157  1.00  0.00     0.049 A 
ATOM     47  C   UNL A   1      42.028  29.690  29.105  1.00  0.00     0.074 A 
ATOM     48  C   UNL A   1      48.049  29.748  27.086  1.00  0.00     0.029 A 
ATOM     49  N   UNL A   1      45.990  29.145  27.670  1.00  0.00    -0.354 N 
ATOM     50  N   UNL A   1      43.258  29.608  28.656  1.00  0.00    -0.248 NA
ATOM     51  C   UNL A   1      41.644  31.033  29.560  1.00  0.00     0.031 C 
ATOM     52  C   UNL A   1      47.388  30.870  27.599  1.00  0.00     0.029 A 
ATOM     53  C   UNL A   1      46.096  30.501  27.937  1.00  0.00     0.049 A 
ATOM     54  H   UNL A   1      45.183  28.601  27.822  1.00  0.00     0.167 HD
ATOM     55  C   UNL A   1      43.786  30.888  28.756  1.00  0.00     0.074 A 
ATOM     56  C   UNL A   1      42.731  31.734  29.274  1.00  0.00     0.031 C 
ATOM     57  C   UNL A   1      45.035  31.325  28.457  1.00  0.00     0.037 A 
BRANCH  44  58
ATOM     58  C   UNL A   1      48.793  26.932  26.269  1.00  0.00     0.064 A 
ATOM     59  C   UNL A   1      49.120  27.071  24.912  1.00  0.00     0.173 A 
ATOM     60  C   UNL A   1      49.799  26.490  27.143  1.00  0.00     0.173 A 
ATOM     61  F   UNL A   1      48.192  27.477  24.031  1.00  0.00    -0.203 F 
ATOM     62  C   UNL A   1      50.395  26.763  24.445  1.00  0.00     0.198 A 
ATOM     63  C   UNL A   1      51.082  26.213  26.678  1.00  0.00     0.198 A 
ATOM     64  F   UNL A   1      49.542  26.342  28.451  1.00  0.00    -0.203 F 
ATOM     65  F   UNL A   1      50.671  26.864  23.137  1.00  0.00    -0.200 F 
ATOM     66  C   UNL A   1      51.377  26.343  25.328  1.00  0.00     0.200 A 
ATOM     67  F   UNL A   1      52.033  25.821  27.534  1.00  0.00    -0.200 F 
ATOM     68  F   UNL A   1      52.608  26.062  24.879  1.00  0.00    -0.200 F 
ENDBRANCH  44  58
BRANCH  45  69
ATOM     69  C   UNL A   1      39.629  28.915  29.753  1.00  0.00     0.064 A 
ATOM     70  C   UNL A   1      38.613  29.442  28.943  1.00  0.00     0.173 A 
ATOM     71  C   UNL A   1      39.336  28.705  31.108  1.00  0.00     0.173 A 
ATOM     72  F   UNL A   1      38.847  29.678  27.643  1.00  0.00    -0.203 F 
ATOM     73  C   UNL A   1      37.368  29.777  29.473  1.00  0.00     0.198 A 
ATOM     74  C   UNL A   1      38.081  29.006  31.630  1.00  0.00     0.198 A 
ATOM     75  F   UNL A   1      40.269  28.194  31.926  1.00  0.00    -0.203 F 
ATOM     76  F   UNL A   1      36.438  30.336  28.689  1.00  0.00    -0.200 F 
ATOM     77  C   UNL A   1      37.102  29.555  30.815  1.00  0.00     0.200 A 
ATOM     78  F   UNL A   1      37.821  28.772  32.924  1.00  0.00    -0.200 F 
ATOM     79  F   UNL A   1      35.906  29.880  31.326  1.00  0.00    -0.200 F 
ENDBRANCH  45  69
BRANCH  57  80
ATOM     80  C   UNL A   1      45.310  32.786  28.666  1.00  0.00     0.064 A 
ATOM     81  C   UNL A   1      45.830  33.273  29.876  1.00  0.00     0.173 A 
ATOM     82  C   UNL A   1      45.050  33.713  27.646  1.00  0.00     0.173 A 
ATOM     83  F   UNL A   1      46.084  32.431  30.889  1.00  0.00    -0.203 F 
ATOM     84  C   UNL A   1      46.035  34.635  30.072  1.00  0.00     0.198 A 
ATOM     85  C   UNL A   1      45.291  35.072  27.832  1.00  0.00     0.198 A 
ATOM     86  F   UNL A   1      44.563  33.302  26.466  1.00  0.00    -0.203 F 
ATOM     87  F   UNL A   1      46.463  35.083  31.260  1.00  0.00    -0.200 F 
ATOM     88  C   UNL A   1      45.769  35.533  29.049  1.00  0.00     0.200 A 
ATOM     89  F   UNL A   1      45.050  35.936  26.835  1.00  0.00    -0.200 F 
ATOM     90  F   UNL A   1      45.962  36.845  29.239  1.00  0.00    -0.200 F 
ENDBRANCH  57  80
ENDBRANCH  31  32
ENDBRANCH  23  26
ENDBRANCH  21  22
ENDBRANCH  20  21
ENDBRANCH   1  20
TORSDOF 18
ENDMDL
MODEL 2
REMARK VINA RESULT:     -10.2      0.635      7.603
REMARK SMILES CCC(CC)C(O)(C(=O)NCCCCNC(=O)c1ccc(-c2c3nc(c(-c4c(F)c(F)c(F)c(F)c4F)c4ccc([nH]4)c(-c4c(F)c(F)c(F)c(F)c4F)c4nc(c(-c5c(F)c(F)c(F)c(F)c5F)c5ccc2[nH]5)C=C4)C=C3)cc1)C(CC)CC
REMARK SMILES IDX 12 1 11 2 10 3 8 4 9 5 6 7 3 8 2 9 1 10 4 11 5 12 7 13 81 15
REMARK SMILES IDX 82 16 83 17 84 18 85 19 13 20 14 21 15 22 16 23 17 25 18 26
REMARK SMILES IDX 19 27 80 28 20 29 79 30 21 31 22 32 23 33 73 34 24 35 78 36
REMARK SMILES IDX 72 37 74 38 25 39 77 40 71 41 70 42 26 44 58 45 38 46 57 47
REMARK SMILES IDX 39 48 42 49 56 50 75 51 40 52 41 53 55 55 76 56 43 57 27 58
REMARK SMILES IDX 28 59 36 60 29 61 30 62 34 63 37 64 31 65 32 66 35 67 33 68
REMARK SMILES IDX 59 69 60 70 68 71 61 72 62 73 66 74 69 75 63 76 64 77 67 78
REMARK SMILES IDX 65 79 44 80 45 81 53 82 46 83 47 84 51 85 54 86 48 87 49 88
REMARK SMILES IDX 52 89 50 90
REMARK H PARENT 10 6 7 14 15 24 74 43 42 54
REMARK Flexibility Score: inf
ROOT
ATOM      1  C   UNL A   1      37.153  21.160  24.673  1.00  0.00     0.023 C 
ENDROOT
BRANCH   1   2
ATOM      2  C   UNL A   1      35.654  20.849  24.698  1.00  0.00     0.116 C 
BRANCH   2   3
ATOM      3  N   UNL A   1      35.048  20.974  26.015  1.00  0.00    -0.354 N 
ATOM      4  C   UNL A   1      33.762  21.247  26.418  1.00  0.00     0.252 C 
ATOM      5  O   UNL A   1      33.538  21.100  27.624  1.00  0.00    -0.272 OA
ATOM      6  H   UNL A   1      35.678  20.837  26.759  1.00  0.00     0.163 HD
BRANCH   4   7
ATOM      7  C   UNL A   1      32.660  21.769  25.420  1.00  0.00     0.148 C 
BRANCH   7   8
ATOM      8  C   UNL A   1      32.714  20.925  24.088  1.00  0.00     0.030 C 
BRANCH   8   9
ATOM      9  C   UNL A   1      32.332  19.437  24.267  1.00  0.00     0.004 C 
ATOM     10  C   UNL A   1      32.399  18.607  22.990  1.00  0.00     0.004 C 
ENDBRANCH   8   9
BRANCH   8  11
ATOM     11  C   UNL A   1      32.258  21.591  22.750  1.00  0.00     0.004 C 
ATOM     12  C   UNL A   1      32.984  22.750  22.104  1.00  0.00     0.004 C 
ENDBRANCH   8  11
ENDBRANCH   7   8
BRANCH   7  13
ATOM     13  O   UNL A   1      31.434  21.439  26.133  1.00  0.00    -0.379 OA
ATOM     14  H   UNL A   1      31.076  22.240  26.547  1.00  0.00     0.212 HD
ENDBRANCH   7  13
BRANCH   7  15
ATOM     15  C   UNL A   1      32.620  23.362  25.358  1.00  0.00     0.030 C 
BRANCH  15  16
ATOM     16  C   UNL A   1      31.260  24.069  25.608  1.00  0.00     0.004 C 
ATOM     17  C   UNL A   1      30.607  24.775  24.425  1.00  0.00     0.004 C 
ENDBRANCH  15  16
BRANCH  15  18
ATOM     18  C   UNL A   1      33.728  24.169  26.108  1.00  0.00     0.004 C 
ATOM     19  C   UNL A   1      34.952  24.609  25.319  1.00  0.00     0.004 C 
ENDBRANCH  15  18
ENDBRANCH   7  15
ENDBRANCH   4   7
ENDBRANCH   2   3
ENDBRANCH   1   2
BRANCH   1  20
ATOM     20  C   UNL A   1      38.062  19.957  24.912  1.00  0.00     0.023 C 
BRANCH  20  21
ATOM     21  C   UNL A   1      39.097  20.171  26.007  1.00  0.00     0.116 C 
BRANCH  21  22
ATOM     22  N   UNL A   1      40.168  19.185  25.962  1.00  0.00    -0.352 N 
ATOM     23  C   UNL A   1      41.525  19.355  26.043  1.00  0.00     0.251 C 
ATOM     24  H   UNL A   1      39.871  18.253  25.857  1.00  0.00     0.163 HD
ATOM     25  O   UNL A   1      42.271  18.408  25.825  1.00  0.00    -0.269 OA
BRANCH  23  26
ATOM     26  C   UNL A   1      42.088  20.682  26.364  1.00  0.00     0.039 A 
ATOM     27  C   UNL A   1      42.392  21.545  25.310  1.00  0.00     0.014 A 
ATOM     28  C   UNL A   1      42.324  21.072  27.686  1.00  0.00     0.014 A 
ATOM     29  C   UNL A   1      42.882  22.820  25.585  1.00  0.00     0.010 A 
ATOM     30  C   UNL A   1      42.731  22.373  27.961  1.00  0.00     0.010 A 
ATOM     31  C   UNL A   1      43.021  23.257  26.914  1.00  0.00    -0.014 A 
BRANCH  31  32
ATOM     32  C   UNL A   1      43.454  24.646  27.204  1.00  0.00     0.031 A 
ATOM     33  C   UNL A   1      42.478  25.656  27.735  1.00  0.00     0.074 A 
ATOM     34  C   UNL A   1      44.732  24.994  26.962  1.00  0.00     0.049 A 
ATOM     35  N   UNL A   1      42.684  26.906  28.068  1.00  0.00    -0.248 NA
ATOM     36  C   UNL A   1      41.082  25.217  27.892  1.00  0.00     0.031 C 
ATOM     37  C   UNL A   1      45.751  24.116  26.381  1.00  0.00     0.029 A 
ATOM     38  N   UNL A   1      45.396  26.174  27.178  1.00  0.00    -0.354 N 
ATOM     39  C   UNL A   1      41.452  27.396  28.479  1.00  0.00     0.074 A 
ATOM     40  C   UNL A   1      40.489  26.334  28.287  1.00  0.00     0.031 C 
ATOM     41  C   UNL A   1      46.917  24.776  26.319  1.00  0.00     0.029 A 
ATOM     42  C   UNL A   1      46.723  26.131  26.823  1.00  0.00     0.049 A 
ATOM     43  H   UNL A   1      44.964  26.976  27.551  1.00  0.00     0.167 HD
ATOM     44  C   UNL A   1      41.158  28.610  29.002  1.00  0.00     0.037 A 
ATOM     45  C   UNL A   1      47.674  27.081  26.898  1.00  0.00     0.037 A 
ATOM     46  C   UNL A   1      42.123  29.661  29.195  1.00  0.00     0.049 A 
ATOM     47  C   UNL A   1      47.318  28.420  27.483  1.00  0.00     0.074 A 
ATOM     48  C   UNL A   1      41.935  30.916  29.747  1.00  0.00     0.029 A 
ATOM     49  N   UNL A   1      43.461  29.578  28.838  1.00  0.00    -0.354 N 
ATOM     50  N   UNL A   1      46.165  28.845  27.942  1.00  0.00    -0.248 NA
ATOM     51  C   UNL A   1      48.401  29.407  27.577  1.00  0.00     0.031 C 
ATOM     52  C   UNL A   1      43.149  31.610  29.682  1.00  0.00     0.029 A 
ATOM     53  C   UNL A   1      44.107  30.767  29.142  1.00  0.00     0.049 A 
ATOM     54  H   UNL A   1      43.889  28.792  28.429  1.00  0.00     0.167 HD
ATOM     55  C   UNL A   1      46.388  30.138  28.395  1.00  0.00     0.074 A 
ATOM     56  C   UNL A   1      47.795  30.413  28.190  1.00  0.00     0.031 C 
ATOM     57  C   UNL A   1      45.508  31.024  28.925  1.00  0.00     0.037 A 
BRANCH  44  58
ATOM     58  C   UNL A   1      39.737  28.863  29.419  1.00  0.00     0.064 A 
ATOM     59  C   UNL A   1      39.304  28.608  30.729  1.00  0.00     0.173 A 
ATOM     60  C   UNL A   1      38.812  29.416  28.520  1.00  0.00     0.173 A 
ATOM     61  F   UNL A   1      40.144  28.067  31.626  1.00  0.00    -0.203 F 
ATOM     62  C   UNL A   1      37.995  28.878  31.118  1.00  0.00     0.198 A 
ATOM     63  C   UNL A   1      37.513  29.714  28.921  1.00  0.00     0.198 A 
ATOM     64  F   UNL A   1      39.174  29.683  27.256  1.00  0.00    -0.203 F 
ATOM     65  F   UNL A   1      37.593  28.587  32.364  1.00  0.00    -0.200 F 
ATOM     66  C   UNL A   1      37.103  29.439  30.217  1.00  0.00     0.200 A 
ATOM     67  F   UNL A   1      36.656  30.269  28.054  1.00  0.00    -0.200 F 
ATOM     68  F   UNL A   1      35.847  29.712  30.598  1.00  0.00    -0.200 F 
ENDBRANCH  44  58
BRANCH  45  69
ATOM     69  C   UNL A   1      49.054  26.795  26.424  1.00  0.00     0.064 A 
ATOM     70  C   UNL A   1      50.039  26.317  27.300  1.00  0.00     0.173 A 
ATOM     71  C   UNL A   1      49.425  27.020  25.090  1.00  0.00     0.173 A 
ATOM     72  F   UNL A   1      49.739  26.101  28.590  1.00  0.00    -0.203 F 
ATOM     73  C   UNL A   1      51.347  26.107  26.869  1.00  0.00     0.198 A 
ATOM     74  C   UNL A   1      50.724  26.776  24.652  1.00  0.00     0.198 A 
ATOM     75  F   UNL A   1      48.519  27.468  24.207  1.00  0.00    -0.203 F 
ATOM     76  F   UNL A   1      52.282  25.709  27.743  1.00  0.00    -0.200 F 
ATOM     77  C   UNL A   1      51.687  26.332  25.545  1.00  0.00     0.200 A 
ATOM     78  F   UNL A   1      51.044  26.977  23.366  1.00  0.00    -0.200 F 
ATOM     79  F   UNL A   1      52.946  26.132  25.131  1.00  0.00    -0.200 F 
ENDBRANCH  45  69
BRANCH  57  80
ATOM     80  C   UNL A   1      46.055  32.360  29.335  1.00  0.00     0.064 A 
ATOM     81  C   UNL A   1      46.590  32.577  30.615  1.00  0.00     0.173 A 
ATOM     82  C   UNL A   1      46.044  33.440  28.439  1.00  0.00     0.173 A 
ATOM     83  F   UNL A   1      46.613  31.581  31.514  1.00  0.00    -0.203 F 
ATOM     84  C   UNL A   1      47.050  33.833  30.996  1.00  0.00     0.198 A 
ATOM     85  C   UNL A   1      46.538  34.687  28.812  1.00  0.00     0.198 A 
ATOM     86  F   UNL A   1      45.553  33.287  27.200  1.00  0.00    -0.203 F 
ATOM     87  F   UNL A   1      47.489  34.032  32.246  1.00  0.00    -0.200 F 
ATOM     88  C   UNL A   1      47.028  34.886  30.094  1.00  0.00     0.200 A 
ATOM     89  F   UNL A   1      46.533  35.699  27.932  1.00  0.00    -0.200 F 
ATOM     90  F   UNL A   1      47.467  36.096  30.464  1.00  0.00    -0.200 F 
ENDBRANCH  57  80
ENDBRANCH  31  32
ENDBRANCH  23  26
ENDBRANCH  21  22
ENDBRANCH  20  21
ENDBRANCH   1  20
TORSDOF 18
ENDMDL
MODEL 3
REMARK VINA RESULT:     -10.1      5.728      9.762
REMARK SMILES CCC(CC)C(O)(C(=O)NCCCCNC(=O)c1ccc(-c2c3nc(c(-c4c(F)c(F)c(F)c(F)c4F)c4ccc([nH]4)c(-c4c(F)c(F)c(F)c(F)c4F)c4nc(c(-c5c(F)c(F)c(F)c(F)c5F)c5ccc2[nH]5)C=C4)C=C3)cc1)C(CC)CC
REMARK SMILES IDX 12 1 11 2 10 3 8 4 9 5 6 7 3 8 2 9 1 10 4 11 5 12 7 13 81 15
REMARK SMILES IDX 82 16 83 17 84 18 85 19 13 20 14 21 15 22 16 23 17 25 18 26
REMARK SMILES IDX 19 27 80 28 20 29 79 30 21 31 22 32 23 33 73 34 24 35 78 36
REMARK SMILES IDX 72 37 74 38 25 39 77 40 71 41 70 42 26 44 58 45 38 46 57 47
REMARK SMILES IDX 39 48 42 49 56 50 75 51 40 52 41 53 55 55 76 56 43 57 27 58
REMARK SMILES IDX 28 59 36 60 29 61 30 62 34 63 37 64 31 65 32 66 35 67 33 68
REMARK SMILES IDX 59 69 60 70 68 71 61 72 62 73 66 74 69 75 63 76 64 77 67 78
REMARK SMILES IDX 65 79 44 80 45 81 53 82 46 83 47 84 51 85 54 86 48 87 49 88
REMARK SMILES IDX 52 89 50 90
REMARK H PARENT 10 6 7 14 15 24 74 43 42 54
REMARK Flexibility Score: inf
ROOT
ATOM      1  C   UNL A   1      31.512  30.766  25.944  1.00  0.00     0.023 C 
ENDROOT
BRANCH   1   2
ATOM      2  C   UNL A   1      32.840  30.077  26.272  1.00  0.00     0.116 C 
BRANCH   2   3
ATOM      3  N   UNL A   1      33.607  29.686  25.098  1.00  0.00    -0.354 N 
ATOM      4  C   UNL A   1      33.536  28.589  24.272  1.00  0.00     0.252 C 
ATOM      5  O   UNL A   1      34.221  28.650  23.246  1.00  0.00    -0.272 OA
ATOM      6  H   UNL A   1      34.310  30.329  24.849  1.00  0.00     0.163 HD
BRANCH   4   7
ATOM      7  C   UNL A   1      32.684  27.315  24.637  1.00  0.00     0.148 C 
BRANCH   7   8
ATOM      8  C   UNL A   1      33.401  26.025  24.076  1.00  0.00     0.030 C 
BRANCH   8   9
ATOM      9  C   UNL A   1      34.137  25.194  25.153  1.00  0.00     0.004 C 
ATOM     10  C   UNL A   1      35.106  24.155  24.598  1.00  0.00     0.004 C 
ENDBRANCH   8   9
BRANCH   8  11
ATOM     11  C   UNL A   1      32.708  25.209  22.938  1.00  0.00     0.004 C 
ATOM     12  C   UNL A   1      32.878  25.518  21.468  1.00  0.00     0.004 C 
ENDBRANCH   8  11
ENDBRANCH   7   8
BRANCH   7  13
ATOM     13  O   UNL A   1      32.774  27.304  26.091  1.00  0.00    -0.379 OA
ATOM     14  H   UNL A   1      33.355  26.581  26.373  1.00  0.00     0.212 HD
ENDBRANCH   7  13
BRANCH   7  15
ATOM     15  C   UNL A   1      31.128  27.544  24.377  1.00  0.00     0.030 C 
BRANCH  15  16
ATOM     16  C   UNL A   1      30.678  27.960  22.950  1.00  0.00     0.004 C 
ATOM     17  C   UNL A   1      30.354  29.431  22.717  1.00  0.00     0.004 C 
ENDBRANCH  15  16
BRANCH  15  18
ATOM     18  C   UNL A   1      30.115  26.481  24.912  1.00  0.00     0.004 C 
ATOM     19  C   UNL A   1      28.880  26.184  24.075  1.00  0.00     0.004 C 
ENDBRANCH  15  18
ENDBRANCH   7  15
ENDBRANCH   4   7
ENDBRANCH   2   3
ENDBRANCH   1   2
BRANCH   1  20
ATOM     20  C   UNL A   1      31.327  32.140  26.582  1.00  0.00     0.023 C 
BRANCH  20  21
ATOM     21  C   UNL A   1      32.589  32.699  27.224  1.00  0.00     0.116 C 
BRANCH  21  22
ATOM     22  N   UNL A   1      32.450  34.101  27.596  1.00  0.00    -0.352 N 
ATOM     23  C   UNL A   1      33.110  34.827  28.552  1.00  0.00     0.251 C 
ATOM     24  H   UNL A   1      31.778  34.603  27.082  1.00  0.00     0.163 HD
ATOM     25  O   UNL A   1      32.736  35.963  28.820  1.00  0.00    -0.269 OA
BRANCH  23  26
ATOM     26  C   UNL A   1      34.250  34.233  29.278  1.00  0.00     0.039 A 
ATOM     27  C   UNL A   1      33.983  33.338  30.315  1.00  0.00     0.014 A 
ATOM     28  C   UNL A   1      35.570  34.560  28.952  1.00  0.00     0.014 A 
ATOM     29  C   UNL A   1      35.040  32.728  30.987  1.00  0.00     0.010 A 
ATOM     30  C   UNL A   1      36.622  33.887  29.565  1.00  0.00     0.010 A 
ATOM     31  C   UNL A   1      36.367  32.970  30.593  1.00  0.00    -0.014 A 
BRANCH  31  32
ATOM     32  C   UNL A   1      37.486  32.250  31.248  1.00  0.00     0.031 A 
ATOM     33  C   UNL A   1      38.208  31.145  30.531  1.00  0.00     0.074 A 
ATOM     34  C   UNL A   1      37.830  32.585  32.506  1.00  0.00     0.049 A 
ATOM     35  N   UNL A   1      39.223  30.424  30.937  1.00  0.00    -0.248 NA
ATOM     36  C   UNL A   1      37.716  30.784  29.192  1.00  0.00     0.031 C 
ATOM     37  C   UNL A   1      37.154  33.594  33.326  1.00  0.00     0.029 A 
ATOM     38  N   UNL A   1      38.835  32.121  33.315  1.00  0.00    -0.354 N 
ATOM     39  C   UNL A   1      39.491  29.534  29.906  1.00  0.00     0.074 A 
ATOM     40  C   UNL A   1      38.492  29.756  28.884  1.00  0.00     0.031 C 
ATOM     41  C   UNL A   1      37.784  33.696  34.506  1.00  0.00     0.029 A 
ATOM     42  C   UNL A   1      38.885  32.740  34.540  1.00  0.00     0.049 A 
ATOM     43  H   UNL A   1      39.462  31.412  33.044  1.00  0.00     0.167 HD
ATOM     44  C   UNL A   1      40.503  28.639  29.805  1.00  0.00     0.037 A 
ATOM     45  C   UNL A   1      39.727  32.556  35.573  1.00  0.00     0.037 A 
ATOM     46  C   UNL A   1      41.498  28.428  30.824  1.00  0.00     0.049 A 
ATOM     47  C   UNL A   1      40.841  31.555  35.433  1.00  0.00     0.074 A 
ATOM     48  C   UNL A   1      42.583  27.568  30.807  1.00  0.00     0.029 A 
ATOM     49  N   UNL A   1      41.527  29.083  32.047  1.00  0.00    -0.354 N 
ATOM     50  N   UNL A   1      41.132  30.775  34.419  1.00  0.00    -0.248 NA
ATOM     51  C   UNL A   1      41.754  31.419  36.575  1.00  0.00     0.031 C 
ATOM     52  C   UNL A   1      43.242  27.670  32.037  1.00  0.00     0.029 A 
ATOM     53  C   UNL A   1      42.601  28.634  32.799  1.00  0.00     0.049 A 
ATOM     54  H   UNL A   1      40.880  29.765  32.337  1.00  0.00     0.167 HD
ATOM     55  C   UNL A   1      42.269  30.073  34.793  1.00  0.00     0.074 A 
ATOM     56  C   UNL A   1      42.636  30.547  36.111  1.00  0.00     0.031 C 
ATOM     57  C   UNL A   1      42.947  29.114  34.113  1.00  0.00     0.037 A 
BRANCH  44  58
ATOM     58  C   UNL A   1      40.595  27.831  28.542  1.00  0.00     0.064 A 
ATOM     59  C   UNL A   1      41.339  28.280  27.440  1.00  0.00     0.173 A 
ATOM     60  C   UNL A   1      39.981  26.573  28.448  1.00  0.00     0.173 A 
ATOM     61  F   UNL A   1      41.935  29.482  27.472  1.00  0.00    -0.203 F 
ATOM     62  C   UNL A   1      41.448  27.510  26.285  1.00  0.00     0.198 A 
ATOM     63  C   UNL A   1      40.118  25.791  27.304  1.00  0.00     0.198 A 
ATOM     64  F   UNL A   1      39.260  26.093  29.473  1.00  0.00    -0.203 F 
ATOM     65  F   UNL A   1      42.129  27.979  25.230  1.00  0.00    -0.200 F 
ATOM     66  C   UNL A   1      40.846  26.263  26.221  1.00  0.00     0.200 A 
ATOM     67  F   UNL A   1      39.548  24.581  27.248  1.00  0.00    -0.200 F 
ATOM     68  F   UNL A   1      40.964  25.517  25.114  1.00  0.00    -0.200 F 
ENDBRANCH  44  58
BRANCH  45  69
ATOM     69  C   UNL A   1      39.562  33.347  36.822  1.00  0.00     0.064 A 
ATOM     70  C   UNL A   1      40.285  34.529  37.035  1.00  0.00     0.173 A 
ATOM     71  C   UNL A   1      38.697  32.922  37.841  1.00  0.00     0.173 A 
ATOM     72  F   UNL A   1      41.138  34.969  36.098  1.00  0.00    -0.203 F 
ATOM     73  C   UNL A   1      40.175  35.237  38.230  1.00  0.00     0.198 A 
ATOM     74  C   UNL A   1      38.561  33.648  39.021  1.00  0.00     0.198 A 
ATOM     75  F   UNL A   1      37.974  31.802  37.686  1.00  0.00    -0.203 F 
ATOM     76  F   UNL A   1      40.925  36.328  38.430  1.00  0.00    -0.200 F 
ATOM     77  C   UNL A   1      39.310  34.798  39.220  1.00  0.00     0.200 A 
ATOM     78  F   UNL A   1      37.709  33.232  39.968  1.00  0.00    -0.200 F 
ATOM     79  F   UNL A   1      39.206  35.478  40.371  1.00  0.00    -0.200 F 
ENDBRANCH  45  69
BRANCH  57  80
ATOM     80  C   UNL A   1      44.161  28.538  34.782  1.00  0.00     0.064 A 
ATOM     81  C   UNL A   1      45.432  29.112  34.624  1.00  0.00     0.173 A 
ATOM     82  C   UNL A   1      44.055  27.396  35.590  1.00  0.00     0.173 A 
ATOM     83  F   UNL A   1      45.591  30.197  33.850  1.00  0.00    -0.203 F 
ATOM     84  C   UNL A   1      46.556  28.539  35.211  1.00  0.00     0.198 A 
ATOM     85  C   UNL A   1      45.176  26.847  36.207  1.00  0.00     0.198 A 
ATOM     86  F   UNL A   1      42.863  26.812  35.784  1.00  0.00    -0.203 F 
ATOM     87  F   UNL A   1      47.768  29.064  34.986  1.00  0.00    -0.200 F 
ATOM     88  C   UNL A   1      46.427  27.410  36.005  1.00  0.00     0.200 A 
ATOM     89  F   UNL A   1      45.046  25.765  36.988  1.00  0.00    -0.200 F 
ATOM     90  F   UNL A   1      47.510  26.857  36.567  1.00  0.00    -0.200 F 
ENDBRANCH  57  80
ENDBRANCH  31  32
ENDBRANCH  23  26
ENDBRANCH  21  22
ENDBRANCH  20  21
ENDBRANCH   1  20
TORSDOF 18
ENDMDL
