MODEL 1
REMARK VINA RESULT:     -14.3      0.000      0.000
REMARK SMILES COc1cc2c(cc1OC)[C@H](c1cccc([N+](=O)[O-])c1)N(C(=O)CCC(=O)NCCCCNC(=O)c1ccc(-c3c4nc(c(-c5c(F)c(F)c(F)c(F)c5F)c5ccc([nH]5)c(-c5c(F)c(F)c(F)c(F)c5F)c5nc(c(-c6c(F)c(F)c(F)c(F)c6F)c6ccc3[nH]6)C=C5)C=C4)cc1)CC2
REMARK SMILES IDX 29 1 28 2 26 3 27 4 25 6 24 7 22 8 23 9 21 10 3 11 4 12 8 13
REMARK SMILES IDX 5 14 7 15 6 16 100 17 11 18 99 19 2 20 1 21 9 22 10 23 12 24
REMARK SMILES IDX 13 25 20 26 14 27 16 28 15 29 17 30 18 31 19 32 30 33 31 34
REMARK SMILES IDX 32 35 33 36 34 37 35 39 36 40 37 41 98 42 38 43 97 44 39 45
REMARK SMILES IDX 40 46 41 47 91 48 42 49 96 50 90 51 92 52 43 53 95 54 89 55
REMARK SMILES IDX 88 56 44 58 76 59 56 60 75 61 57 62 60 63 74 64 93 65 58 66
REMARK SMILES IDX 59 67 73 69 94 70 61 71 45 72 46 73 54 74 47 75 48 76 52 77
REMARK SMILES IDX 55 78 49 79 50 80 53 81 51 82 77 83 78 84 86 85 79 86 80 87
REMARK SMILES IDX 84 88 87 89 81 90 82 91 85 92 83 93 62 94 63 95 71 96 64 97
REMARK SMILES IDX 65 98 69 99 72 100 66 101 67 102 70 103 68 104
REMARK H PARENT 28 5 33 38 92 57 60 68
REMARK Flexibility Score: inf
ROOT
ATOM      1  C   UNL A   1      33.578  23.078  22.478  1.00  0.00     0.116 C 
ENDROOT
BRANCH   1   2
ATOM      2  N   UNL A   1      32.841  24.043  21.495  1.00  0.00    -0.356 N 
ATOM      3  C   UNL A   1      32.906  25.374  21.224  1.00  0.00     0.220 C 
ATOM      4  O   UNL A   1      32.247  25.784  20.266  1.00  0.00    -0.275 OA
ATOM      5  H   UNL A   1      32.172  23.578  20.941  1.00  0.00     0.163 HD
BRANCH   3   6
ATOM      6  C   UNL A   1      33.723  26.319  22.061  1.00  0.00     0.110 C 
BRANCH   6   7
ATOM      7  C   UNL A   1      33.564  27.775  21.643  1.00  0.00     0.110 C 
BRANCH   7   8
ATOM      8  C   UNL A   1      32.906  28.471  22.791  1.00  0.00     0.223 C 
ATOM      9  O   UNL A   1      33.262  29.598  23.133  1.00  0.00    -0.275 OA
BRANCH   8  10
ATOM     10  N   UNL A   1      32.084  27.685  23.589  1.00  0.00    -0.331 N 
ATOM     11  C   UNL A   1      31.858  22.371  25.701  1.00  0.00     0.161 A 
ATOM     12  C   UNL A   1      30.789  23.070  25.134  1.00  0.00     0.054 A 
ATOM     13  C   UNL A   1      33.154  22.941  26.093  1.00  0.00     0.161 A 
ATOM     14  C   UNL A   1      31.027  24.415  24.985  1.00  0.00    -0.037 A 
ATOM     15  C   UNL A   1      33.510  24.324  26.004  1.00  0.00     0.057 A 
ATOM     16  C   UNL A   1      32.528  25.181  25.517  1.00  0.00    -0.014 A 
ATOM     17  C   UNL A   1      29.903  25.247  23.684  1.00  0.00     0.057 C 
ATOM     18  C   UNL A   1      33.009  26.999  25.054  1.00  0.00     0.146 C 
ATOM     19  C   UNL A   1      30.412  27.051  23.046  1.00  0.00     0.125 C 
BRANCH  11  20
ATOM     20  O   UNL A   1      31.709  20.995  25.779  1.00  0.00    -0.493 OA
ATOM     21  C   UNL A   1      32.153  20.348  24.589  1.00  0.00     0.278 C 
ENDBRANCH  11  20
BRANCH  13  22
ATOM     22  O   UNL A   1      34.011  21.964  26.569  1.00  0.00    -0.493 OA
ATOM     23  C   UNL A   1      34.263  21.904  27.963  1.00  0.00     0.278 C 
ENDBRANCH  13  22
BRANCH  18  24
ATOM     24  C   UNL A   1      33.010  28.139  26.158  1.00  0.00    -0.014 A 
ATOM     25  C   UNL A   1      31.880  28.831  26.594  1.00  0.00     0.007 A 
ATOM     26  C   UNL A   1      34.239  28.557  26.736  1.00  0.00     0.091 A 
ATOM     27  C   UNL A   1      32.013  30.074  27.251  1.00  0.00     0.007 A 
ATOM     28  C   UNL A   1      34.385  29.798  27.364  1.00  0.00     0.269 A 
ATOM     29  C   UNL A   1      33.269  30.591  27.583  1.00  0.00     0.085 A 
BRANCH  28  30
ATOM     30  N   UNL A   1      35.740  30.296  27.652  1.00  0.00     0.062 N 
ATOM     31  O   UNL A   1      36.608  29.465  27.951  1.00  0.00    -0.258 OA
ATOM     32  O   UNL A   1      35.924  31.522  27.625  1.00  0.00    -0.258 OA
ENDBRANCH  28  30
ENDBRANCH  18  24
ENDBRANCH   8  10
ENDBRANCH   7   8
ENDBRANCH   6   7
ENDBRANCH   3   6
ENDBRANCH   1   2
BRANCH   1  33
ATOM     33  C   UNL A   1      35.554  23.112  23.295  1.00  0.00     0.023 C 
BRANCH  33  34
ATOM     34  C   UNL A   1      36.699  22.029  24.119  1.00  0.00     0.023 C 
BRANCH  34  35
ATOM     35  C   UNL A   1      37.362  21.958  25.526  1.00  0.00     0.116 C 
BRANCH  35  36
ATOM     36  N   UNL A   1      38.584  21.174  25.611  1.00  0.00    -0.352 N 
ATOM     37  C   UNL A   1      39.801  21.403  26.196  1.00  0.00     0.251 C 
ATOM     38  H   UNL A   1      38.525  20.304  25.157  1.00  0.00     0.163 HD
ATOM     39  O   UNL A   1      40.710  20.584  26.127  1.00  0.00    -0.269 OA
BRANCH  37  40
ATOM     40  C   UNL A   1      39.980  22.654  26.927  1.00  0.00     0.039 A 
ATOM     41  C   UNL A   1      40.936  22.747  27.936  1.00  0.00     0.014 A 
ATOM     42  C   UNL A   1      39.280  23.766  26.479  1.00  0.00     0.014 A 
ATOM     43  C   UNL A   1      41.308  24.012  28.384  1.00  0.00     0.010 A 
ATOM     44  C   UNL A   1      39.700  25.019  26.863  1.00  0.00     0.010 A 
ATOM     45  C   UNL A   1      40.753  25.150  27.774  1.00  0.00    -0.014 A 
BRANCH  45  46
ATOM     46  C   UNL A   1      41.376  26.483  27.885  1.00  0.00     0.031 A 
ATOM     47  C   UNL A   1      42.755  26.728  27.356  1.00  0.00     0.074 A 
ATOM     48  C   UNL A   1      40.773  27.379  28.691  1.00  0.00     0.049 A 
ATOM     49  N   UNL A   1      43.497  27.799  27.463  1.00  0.00    -0.248 NA
ATOM     50  C   UNL A   1      43.420  25.599  26.685  1.00  0.00     0.031 C 
ATOM     51  C   UNL A   1      39.524  27.152  29.428  1.00  0.00     0.029 A 
ATOM     52  N   UNL A   1      41.141  28.646  29.056  1.00  0.00    -0.354 N 
ATOM     53  C   UNL A   1      44.718  27.466  26.896  1.00  0.00     0.074 A 
ATOM     54  C   UNL A   1      44.646  26.073  26.515  1.00  0.00     0.031 C 
ATOM     55  C   UNL A   1      39.211  28.255  30.123  1.00  0.00     0.029 A 
ATOM     56  C   UNL A   1      40.240  29.259  29.891  1.00  0.00     0.049 A 
ATOM     57  H   UNL A   1      41.972  29.076  28.750  1.00  0.00     0.167 HD
ATOM     58  C   UNL A   1      45.786  28.270  26.685  1.00  0.00     0.037 A 
ATOM     59  C   UNL A   1      40.237  30.507  30.391  1.00  0.00     0.037 A 
ATOM     60  C   UNL A   1      45.804  29.667  27.029  1.00  0.00     0.049 A 
ATOM     61  C   UNL A   1      41.356  31.428  30.007  1.00  0.00     0.074 A 
ATOM     62  C   UNL A   1      46.756  30.622  26.726  1.00  0.00     0.029 A 
ATOM     63  N   UNL A   1      44.808  30.308  27.755  1.00  0.00    -0.354 N 
ATOM     64  N   UNL A   1      42.438  31.163  29.314  1.00  0.00    -0.248 NA
ATOM     65  C   UNL A   1      41.246  32.824  30.447  1.00  0.00     0.031 C 
ATOM     66  C   UNL A   1      46.350  31.836  27.292  1.00  0.00     0.029 A 
ATOM     67  C   UNL A   1      45.128  31.645  27.918  1.00  0.00     0.049 A 
ATOM     68  H   UNL A   1      43.996  29.875  28.104  1.00  0.00     0.167 HD
ATOM     69  C   UNL A   1      43.127  32.360  29.213  1.00  0.00     0.074 A 
ATOM     70  C   UNL A   1      42.332  33.357  29.902  1.00  0.00     0.031 C 
ATOM     71  C   UNL A   1      44.312  32.612  28.607  1.00  0.00     0.037 A 
BRANCH  58  72
ATOM     72  C   UNL A   1      46.991  27.674  26.018  1.00  0.00     0.064 A 
ATOM     73  C   UNL A   1      47.130  27.675  24.620  1.00  0.00     0.173 A 
ATOM     74  C   UNL A   1      48.036  27.127  26.777  1.00  0.00     0.173 A 
ATOM     75  F   UNL A   1      46.157  28.179  23.846  1.00  0.00    -0.203 F 
ATOM     76  C   UNL A   1      48.250  27.119  24.008  1.00  0.00     0.198 A 
ATOM     77  C   UNL A   1      49.172  26.602  26.162  1.00  0.00     0.198 A 
ATOM     78  F   UNL A   1      47.961  27.105  28.115  1.00  0.00    -0.203 F 
ATOM     79  F   UNL A   1      48.331  27.084  22.671  1.00  0.00    -0.200 F 
ATOM     80  C   UNL A   1      49.274  26.591  24.778  1.00  0.00     0.200 A 
ATOM     81  F   UNL A   1      50.166  26.103  26.909  1.00  0.00    -0.200 F 
ATOM     82  F   UNL A   1      50.355  26.064  24.188  1.00  0.00    -0.200 F 
ENDBRANCH  58  72
BRANCH  59  83
ATOM     83  C   UNL A   1      39.084  30.972  31.200  1.00  0.00     0.064 A 
ATOM     84  C   UNL A   1      38.028  31.665  30.593  1.00  0.00     0.173 A 
ATOM     85  C   UNL A   1      38.985  30.698  32.571  1.00  0.00     0.173 A 
ATOM     86  F   UNL A   1      38.082  31.950  29.283  1.00  0.00    -0.203 F 
ATOM     87  C   UNL A   1      36.925  32.087  31.330  1.00  0.00     0.198 A 
ATOM     88  C   UNL A   1      37.871  31.103  33.304  1.00  0.00     0.198 A 
ATOM     89  F   UNL A   1      39.957  30.015  33.192  1.00  0.00    -0.203 F 
ATOM     90  F   UNL A   1      35.944  32.775  30.729  1.00  0.00    -0.200 F 
ATOM     91  C   UNL A   1      36.844  31.802  32.684  1.00  0.00     0.200 A 
ATOM     92  F   UNL A   1      37.786  30.808  34.609  1.00  0.00    -0.200 F 
ATOM     93  F   UNL A   1      35.779  32.202  33.393  1.00  0.00    -0.200 F 
ENDBRANCH  59  83
BRANCH  71  94
ATOM     94  C   UNL A   1      44.808  34.024  28.653  1.00  0.00     0.064 A 
ATOM     95  C   UNL A   1      44.419  34.965  27.690  1.00  0.00     0.173 A 
ATOM     96  C   UNL A   1      45.642  34.450  29.697  1.00  0.00     0.173 A 
ATOM     97  F   UNL A   1      43.635  34.597  26.665  1.00  0.00    -0.203 F 
ATOM     98  C   UNL A   1      44.865  36.280  27.759  1.00  0.00     0.198 A 
ATOM     99  C   UNL A   1      46.065  35.772  29.777  1.00  0.00     0.198 A 
ATOM    100  F   UNL A   1      46.037  33.584  30.643  1.00  0.00    -0.203 F 
ATOM    101  F   UNL A   1      44.514  37.155  26.807  1.00  0.00    -0.200 F 
ATOM    102  C   UNL A   1      45.680  36.685  28.806  1.00  0.00     0.200 A 
ATOM    103  F   UNL A   1      46.845  36.164  30.794  1.00  0.00    -0.200 F 
ATOM    104  F   UNL A   1      46.102  37.955  28.876  1.00  0.00    -0.200 F 
ENDBRANCH  71  94
ENDBRANCH  45  46
ENDBRANCH  37  40
ENDBRANCH  35  36
ENDBRANCH  34  35
ENDBRANCH  33  34
ENDBRANCH   1  33
TORSDOF 18
ENDMDL
MODEL 2
REMARK VINA RESULT:     -13.8      4.691      8.207
REMARK SMILES COc1cc2c(cc1OC)[C@H](c1cccc([N+](=O)[O-])c1)N(C(=O)CCC(=O)NCCCCNC(=O)c1ccc(-c3c4nc(c(-c5c(F)c(F)c(F)c(F)c5F)c5ccc([nH]5)c(-c5c(F)c(F)c(F)c(F)c5F)c5nc(c(-c6c(F)c(F)c(F)c(F)c6F)c6ccc3[nH]6)C=C5)C=C4)cc1)CC2
REMARK SMILES IDX 29 1 28 2 26 3 27 4 25 6 24 7 22 8 23 9 21 10 3 11 4 12 8 13
REMARK SMILES IDX 5 14 7 15 6 16 100 17 11 18 99 19 2 20 1 21 9 22 10 23 12 24
REMARK SMILES IDX 13 25 20 26 14 27 16 28 15 29 17 30 18 31 19 32 30 33 31 34
REMARK SMILES IDX 32 35 33 36 34 37 35 39 36 40 37 41 98 42 38 43 97 44 39 45
REMARK SMILES IDX 40 46 41 47 91 48 42 49 96 50 90 51 92 52 43 53 95 54 89 55
REMARK SMILES IDX 88 56 44 58 76 59 56 60 75 61 57 62 60 63 74 64 93 65 58 66
REMARK SMILES IDX 59 67 73 69 94 70 61 71 45 72 46 73 54 74 47 75 48 76 52 77
REMARK SMILES IDX 55 78 49 79 50 80 53 81 51 82 77 83 78 84 86 85 79 86 80 87
REMARK SMILES IDX 84 88 87 89 81 90 82 91 85 92 83 93 62 94 63 95 71 96 64 97
REMARK SMILES IDX 65 98 69 99 72 100 66 101 67 102 70 103 68 104
REMARK H PARENT 28 5 33 38 92 57 60 68
REMARK Flexibility Score: inf
ROOT
ATOM      1  C   UNL A   1      31.045  29.001  24.148  1.00  0.00     0.116 C 
ENDROOT
BRANCH   1   2
ATOM      2  N   UNL A   1      30.610  27.572  23.694  1.00  0.00    -0.356 N 
ATOM      3  C   UNL A   1      30.131  26.465  24.324  1.00  0.00     0.220 C 
ATOM      4  O   UNL A   1      29.762  25.530  23.612  1.00  0.00    -0.275 OA
ATOM      5  H   UNL A   1      30.705  27.440  22.722  1.00  0.00     0.163 HD
BRANCH   3   6
ATOM      6  C   UNL A   1      30.069  26.367  25.822  1.00  0.00     0.110 C 
BRANCH   6   7
ATOM      7  C   UNL A   1      31.339  25.791  26.435  1.00  0.00     0.110 C 
BRANCH   7   8
ATOM      8  C   UNL A   1      31.097  24.325  26.600  1.00  0.00     0.223 C 
ATOM      9  O   UNL A   1      30.070  23.911  27.135  1.00  0.00    -0.275 OA
BRANCH   8  10
ATOM     10  N   UNL A   1      32.190  23.498  26.367  1.00  0.00    -0.331 N 
ATOM     11  C   UNL A   1      33.342  18.292  24.290  1.00  0.00     0.161 A 
ATOM     12  C   UNL A   1      33.900  18.854  25.441  1.00  0.00     0.054 A 
ATOM     13  C   UNL A   1      32.566  19.007  23.267  1.00  0.00     0.161 A 
ATOM     14  C   UNL A   1      33.692  20.207  25.551  1.00  0.00    -0.037 A 
ATOM     15  C   UNL A   1      32.301  20.413  23.264  1.00  0.00     0.057 A 
ATOM     16  C   UNL A   1      32.845  21.144  24.315  1.00  0.00    -0.014 A 
ATOM     17  C   UNL A   1      33.866  20.861  27.338  1.00  0.00     0.057 C 
ATOM     18  C   UNL A   1      32.281  22.977  24.580  1.00  0.00     0.146 C 
ATOM     19  C   UNL A   1      33.175  22.675  27.725  1.00  0.00     0.125 C 
BRANCH  11  20
ATOM     20  O   UNL A   1      33.435  16.913  24.181  1.00  0.00    -0.493 OA
ATOM     21  C   UNL A   1      33.294  16.274  25.447  1.00  0.00     0.278 C 
ENDBRANCH  11  20
BRANCH  13  22
ATOM     22  O   UNL A   1      32.108  18.144  22.287  1.00  0.00    -0.493 OA
ATOM     23  C   UNL A   1      32.087  18.595  20.943  1.00  0.00     0.278 C 
ENDBRANCH  13  22
BRANCH  18  24
ATOM     24  C   UNL A   1      32.997  24.162  23.803  1.00  0.00    -0.014 A 
ATOM     25  C   UNL A   1      33.830  25.114  24.391  1.00  0.00     0.007 A 
ATOM     26  C   UNL A   1      32.759  24.336  22.413  1.00  0.00     0.091 A 
ATOM     27  C   UNL A   1      34.087  26.339  23.736  1.00  0.00     0.007 A 
ATOM     28  C   UNL A   1      32.984  25.554  21.764  1.00  0.00     0.269 A 
ATOM     29  C   UNL A   1      33.612  26.587  22.445  1.00  0.00     0.085 A 
BRANCH  28  30
ATOM     30  N   UNL A   1      32.425  25.759  20.419  1.00  0.00     0.062 N 
ATOM     31  O   UNL A   1      33.192  25.647  19.453  1.00  0.00    -0.258 OA
ATOM     32  O   UNL A   1      31.229  26.078  20.331  1.00  0.00    -0.258 OA
ENDBRANCH  28  30
ENDBRANCH  18  24
ENDBRANCH   8  10
ENDBRANCH   7   8
ENDBRANCH   6   7
ENDBRANCH   3   6
ENDBRANCH   1   2
BRANCH   1  33
ATOM     33  C   UNL A   1      32.597  29.670  25.458  1.00  0.00     0.023 C 
BRANCH  33  34
ATOM     34  C   UNL A   1      32.790  30.459  27.040  1.00  0.00     0.023 C 
BRANCH  34  35
ATOM     35  C   UNL A   1      33.627  31.644  27.609  1.00  0.00     0.116 C 
BRANCH  35  36
ATOM     36  N   UNL A   1      32.960  32.936  27.631  1.00  0.00    -0.352 N 
ATOM     37  C   UNL A   1      33.174  34.084  28.346  1.00  0.00     0.251 C 
ATOM     38  H   UNL A   1      32.203  32.998  27.006  1.00  0.00     0.163 HD
ATOM     39  O   UNL A   1      32.461  35.070  28.204  1.00  0.00    -0.269 OA
BRANCH  37  40
ATOM     40  C   UNL A   1      34.298  34.106  29.277  1.00  0.00     0.039 A 
ATOM     41  C   UNL A   1      34.113  33.746  30.611  1.00  0.00     0.014 A 
ATOM     42  C   UNL A   1      35.562  34.344  28.753  1.00  0.00     0.014 A 
ATOM     43  C   UNL A   1      35.236  33.463  31.384  1.00  0.00     0.010 A 
ATOM     44  C   UNL A   1      36.668  33.990  29.491  1.00  0.00     0.010 A 
ATOM     45  C   UNL A   1      36.509  33.495  30.789  1.00  0.00    -0.014 A 
BRANCH  45  46
ATOM     46  C   UNL A   1      37.675  32.823  31.394  1.00  0.00     0.031 A 
ATOM     47  C   UNL A   1      38.301  31.636  30.731  1.00  0.00     0.074 A 
ATOM     48  C   UNL A   1      37.986  33.153  32.663  1.00  0.00     0.049 A 
ATOM     49  N   UNL A   1      39.257  30.859  31.171  1.00  0.00    -0.248 NA
ATOM     50  C   UNL A   1      37.731  31.217  29.440  1.00  0.00     0.031 C 
ATOM     51  C   UNL A   1      37.287  34.157  33.473  1.00  0.00     0.029 A 
ATOM     52  N   UNL A   1      38.941  32.658  33.509  1.00  0.00    -0.354 N 
ATOM     53  C   UNL A   1      39.385  29.852  30.226  1.00  0.00     0.074 A 
ATOM     54  C   UNL A   1      38.361  30.071  29.228  1.00  0.00     0.031 C 
ATOM     55  C   UNL A   1      37.863  34.232  34.682  1.00  0.00     0.029 A 
ATOM     56  C   UNL A   1      38.959  33.275  34.736  1.00  0.00     0.049 A 
ATOM     57  H   UNL A   1      39.557  31.930  33.262  1.00  0.00     0.167 HD
ATOM     58  C   UNL A   1      40.302  28.859  30.186  1.00  0.00     0.037 A 
ATOM     59  C   UNL A   1      39.791  33.101  35.778  1.00  0.00     0.037 A 
ATOM     60  C   UNL A   1      41.342  28.702  31.168  1.00  0.00     0.049 A 
ATOM     61  C   UNL A   1      40.900  32.102  35.641  1.00  0.00     0.074 A 
ATOM     62  C   UNL A   1      42.423  27.840  31.158  1.00  0.00     0.029 A 
ATOM     63  N   UNL A   1      41.427  29.439  32.343  1.00  0.00    -0.354 N 
ATOM     64  N   UNL A   1      41.133  31.262  34.661  1.00  0.00    -0.248 NA
ATOM     65  C   UNL A   1      41.877  32.042  36.734  1.00  0.00     0.031 C 
ATOM     66  C   UNL A   1      43.147  28.036  32.339  1.00  0.00     0.029 A 
ATOM     67  C   UNL A   1      42.537  29.045  33.069  1.00  0.00     0.049 A 
ATOM     68  H   UNL A   1      40.791  30.138  32.619  1.00  0.00     0.167 HD
ATOM     69  C   UNL A   1      42.294  30.588  35.005  1.00  0.00     0.074 A 
ATOM     70  C   UNL A   1      42.727  31.132  36.278  1.00  0.00     0.031 C 
ATOM     71  C   UNL A   1      42.942  29.608  34.332  1.00  0.00     0.037 A 
BRANCH  58  72
ATOM     72  C   UNL A   1      40.251  27.903  29.029  1.00  0.00     0.064 A 
ATOM     73  C   UNL A   1      40.948  28.158  27.837  1.00  0.00     0.173 A 
ATOM     74  C   UNL A   1      39.530  26.703  29.120  1.00  0.00     0.173 A 
ATOM     75  F   UNL A   1      41.648  29.293  27.694  1.00  0.00    -0.203 F 
ATOM     76  C   UNL A   1      40.895  27.268  26.768  1.00  0.00     0.198 A 
ATOM     77  C   UNL A   1      39.506  25.798  28.060  1.00  0.00     0.198 A 
ATOM     78  F   UNL A   1      38.851  26.404  30.236  1.00  0.00    -0.203 F 
ATOM     79  F   UNL A   1      41.524  27.562  25.622  1.00  0.00    -0.200 F 
ATOM     80  C   UNL A   1      40.181  26.085  26.883  1.00  0.00     0.200 A 
ATOM     81  F   UNL A   1      38.826  24.649  28.177  1.00  0.00    -0.200 F 
ATOM     82  F   UNL A   1      40.137  25.225  25.856  1.00  0.00    -0.200 F 
ENDBRANCH  58  72
BRANCH  59  83
ATOM     83  C   UNL A   1      39.665  33.972  36.972  1.00  0.00     0.064 A 
ATOM     84  C   UNL A   1      38.906  33.555  38.074  1.00  0.00     0.173 A 
ATOM     85  C   UNL A   1      40.328  35.203  37.062  1.00  0.00     0.173 A 
ATOM     86  F   UNL A   1      38.253  32.383  38.031  1.00  0.00    -0.203 F 
ATOM     87  C   UNL A   1      38.796  34.346  39.214  1.00  0.00     0.198 A 
ATOM     88  C   UNL A   1      40.234  35.985  38.212  1.00  0.00     0.198 A 
ATOM     89  F   UNL A   1      41.087  35.634  36.044  1.00  0.00    -0.203 F 
ATOM     90  F   UNL A   1      38.039  33.935  40.241  1.00  0.00    -0.200 F 
ATOM     91  C   UNL A   1      39.463  35.559  39.284  1.00  0.00     0.200 A 
ATOM     92  F   UNL A   1      40.896  37.147  38.285  1.00  0.00    -0.200 F 
ATOM     93  F   UNL A   1      39.364  36.318  40.385  1.00  0.00    -0.200 F 
ENDBRANCH  59  83
BRANCH  71  94
ATOM     94  C   UNL A   1      44.195  29.075  34.955  1.00  0.00     0.064 A 
ATOM     95  C   UNL A   1      45.441  29.666  34.709  1.00  0.00     0.173 A 
ATOM     96  C   UNL A   1      44.139  27.990  35.843  1.00  0.00     0.173 A 
ATOM     97  F   UNL A   1      45.542  30.695  33.853  1.00  0.00    -0.203 F 
ATOM     98  C   UNL A   1      46.593  29.178  35.315  1.00  0.00     0.198 A 
ATOM     99  C   UNL A   1      45.290  27.521  36.466  1.00  0.00     0.198 A 
ATOM    100  F   UNL A   1      42.967  27.395  36.110  1.00  0.00    -0.203 F 
ATOM    101  F   UNL A   1      47.781  29.732  35.036  1.00  0.00    -0.200 F 
ATOM    102  C   UNL A   1      46.516  28.112  36.199  1.00  0.00     0.200 A 
ATOM    103  F   UNL A   1      45.212  26.497  37.328  1.00  0.00    -0.200 F 
ATOM    104  F   UNL A   1      47.626  27.647  36.789  1.00  0.00    -0.200 F 
ENDBRANCH  71  94
ENDBRANCH  45  46
ENDBRANCH  37  40
ENDBRANCH  35  36
ENDBRANCH  34  35
ENDBRANCH  33  34
ENDBRANCH   1  33
TORSDOF 18
ENDMDL
MODEL 3
REMARK VINA RESULT:     -13.7      4.537      9.678
REMARK SMILES COc1cc2c(cc1OC)[C@H](c1cccc([N+](=O)[O-])c1)N(C(=O)CCC(=O)NCCCCNC(=O)c1ccc(-c3c4nc(c(-c5c(F)c(F)c(F)c(F)c5F)c5ccc([nH]5)c(-c5c(F)c(F)c(F)c(F)c5F)c5nc(c(-c6c(F)c(F)c(F)c(F)c6F)c6ccc3[nH]6)C=C5)C=C4)cc1)CC2
REMARK SMILES IDX 29 1 28 2 26 3 27 4 25 6 24 7 22 8 23 9 21 10 3 11 4 12 8 13
REMARK SMILES IDX 5 14 7 15 6 16 100 17 11 18 99 19 2 20 1 21 9 22 10 23 12 24
REMARK SMILES IDX 13 25 20 26 14 27 16 28 15 29 17 30 18 31 19 32 30 33 31 34
REMARK SMILES IDX 32 35 33 36 34 37 35 39 36 40 37 41 98 42 38 43 97 44 39 45
REMARK SMILES IDX 40 46 41 47 91 48 42 49 96 50 90 51 92 52 43 53 95 54 89 55
REMARK SMILES IDX 88 56 44 58 76 59 56 60 75 61 57 62 60 63 74 64 93 65 58 66
REMARK SMILES IDX 59 67 73 69 94 70 61 71 45 72 46 73 54 74 47 75 48 76 52 77
REMARK SMILES IDX 55 78 49 79 50 80 53 81 51 82 77 83 78 84 86 85 79 86 80 87
REMARK SMILES IDX 84 88 87 89 81 90 82 91 85 92 83 93 62 94 63 95 71 96 64 97
REMARK SMILES IDX 65 98 69 99 72 100 66 101 67 102 70 103 68 104
REMARK H PARENT 28 5 33 38 92 57 60 68
REMARK Flexibility Score: inf
ROOT
ATOM      1  C   UNL A   1      31.058  29.033  24.317  1.00  0.00     0.116 C 
ENDROOT
BRANCH   1   2
ATOM      2  N   UNL A   1      30.639  27.616  23.815  1.00  0.00    -0.356 N 
ATOM      3  C   UNL A   1      30.183  26.480  24.409  1.00  0.00     0.220 C 
ATOM      4  O   UNL A   1      29.818  25.566  23.666  1.00  0.00    -0.275 OA
ATOM      5  H   UNL A   1      30.724  27.521  22.838  1.00  0.00     0.163 HD
BRANCH   3   6
ATOM      6  C   UNL A   1      30.138  26.325  25.903  1.00  0.00     0.110 C 
BRANCH   6   7
ATOM      7  C   UNL A   1      31.421  25.741  26.480  1.00  0.00     0.110 C 
BRANCH   7   8
ATOM      8  C   UNL A   1      31.181  24.273  26.633  1.00  0.00     0.223 C 
ATOM      9  O   UNL A   1      30.161  23.854  27.179  1.00  0.00    -0.275 OA
BRANCH   8  10
ATOM     10  N   UNL A   1      32.269  23.448  26.375  1.00  0.00    -0.331 N 
ATOM     11  C   UNL A   1      33.388  18.265  24.223  1.00  0.00     0.161 A 
ATOM     12  C   UNL A   1      33.963  18.813  25.372  1.00  0.00     0.054 A 
ATOM     13  C   UNL A   1      32.597  18.992  23.220  1.00  0.00     0.161 A 
ATOM     14  C   UNL A   1      33.757  20.165  25.500  1.00  0.00    -0.037 A 
ATOM     15  C   UNL A   1      32.334  20.398  23.236  1.00  0.00     0.057 A 
ATOM     16  C   UNL A   1      32.893  21.117  24.287  1.00  0.00    -0.014 A 
ATOM     17  C   UNL A   1      33.958  20.799  27.292  1.00  0.00     0.057 C 
ATOM     18  C   UNL A   1      32.335  22.947  24.581  1.00  0.00     0.146 C 
ATOM     19  C   UNL A   1      33.273  22.609  27.709  1.00  0.00     0.125 C 
BRANCH  11  20
ATOM     20  O   UNL A   1      33.478  16.887  24.097  1.00  0.00    -0.493 OA
ATOM     21  C   UNL A   1      34.474  16.344  24.960  1.00  0.00     0.278 C 
ENDBRANCH  11  20
BRANCH  13  22
ATOM     22  O   UNL A   1      32.125  18.140  22.236  1.00  0.00    -0.493 OA
ATOM     23  C   UNL A   1      32.059  18.616  20.902  1.00  0.00     0.278 C 
ENDBRANCH  13  22
BRANCH  18  24
ATOM     24  C   UNL A   1      33.041  24.140  23.807  1.00  0.00    -0.014 A 
ATOM     25  C   UNL A   1      33.894  25.077  24.391  1.00  0.00     0.007 A 
ATOM     26  C   UNL A   1      32.771  24.339  22.427  1.00  0.00     0.091 A 
ATOM     27  C   UNL A   1      34.143  26.311  23.751  1.00  0.00     0.007 A 
ATOM     28  C   UNL A   1      32.990  25.566  21.793  1.00  0.00     0.269 A 
ATOM     29  C   UNL A   1      33.641  26.584  22.475  1.00  0.00     0.085 A 
BRANCH  28  30
ATOM     30  N   UNL A   1      32.401  25.797  20.464  1.00  0.00     0.062 N 
ATOM     31  O   UNL A   1      33.137  25.667  19.477  1.00  0.00    -0.258 OA
ATOM     32  O   UNL A   1      31.214  26.155  20.410  1.00  0.00    -0.258 OA
ENDBRANCH  28  30
ENDBRANCH  18  24
ENDBRANCH   8  10
ENDBRANCH   7   8
ENDBRANCH   6   7
ENDBRANCH   3   6
ENDBRANCH   1   2
BRANCH   1  33
ATOM     33  C   UNL A   1      32.588  29.673  25.668  1.00  0.00     0.023 C 
BRANCH  33  34
ATOM     34  C   UNL A   1      32.772  30.640  27.149  1.00  0.00     0.023 C 
BRANCH  34  35
ATOM     35  C   UNL A   1      33.698  31.798  27.625  1.00  0.00     0.116 C 
BRANCH  35  36
ATOM     36  N   UNL A   1      33.068  33.104  27.744  1.00  0.00    -0.352 N 
ATOM     37  C   UNL A   1      33.316  34.190  28.539  1.00  0.00     0.251 C 
ATOM     38  H   UNL A   1      32.310  33.232  27.130  1.00  0.00     0.163 HD
ATOM     39  O   UNL A   1      32.631  35.203  28.473  1.00  0.00    -0.269 OA
BRANCH  37  40
ATOM     40  C   UNL A   1      34.445  34.114  29.462  1.00  0.00     0.039 A 
ATOM     41  C   UNL A   1      34.252  33.684  30.774  1.00  0.00     0.014 A 
ATOM     42  C   UNL A   1      35.714  34.334  28.944  1.00  0.00     0.014 A 
ATOM     43  C   UNL A   1      35.366  33.312  31.521  1.00  0.00     0.010 A 
ATOM     44  C   UNL A   1      36.809  33.895  29.653  1.00  0.00     0.010 A 
ATOM     45  C   UNL A   1      36.637  33.330  30.921  1.00  0.00    -0.014 A 
BRANCH  45  46
ATOM     46  C   UNL A   1      37.778  32.580  31.478  1.00  0.00     0.031 A 
ATOM     47  C   UNL A   1      38.499  33.076  32.693  1.00  0.00     0.074 A 
ATOM     48  C   UNL A   1      38.296  31.594  30.718  1.00  0.00     0.049 A 
ATOM     49  N   UNL A   1      39.584  32.606  33.252  1.00  0.00    -0.248 NA
ATOM     50  C   UNL A   1      37.980  34.303  33.319  1.00  0.00     0.031 C 
ATOM     51  C   UNL A   1      37.787  31.178  29.406  1.00  0.00     0.029 A 
ATOM     52  N   UNL A   1      39.383  30.786  30.917  1.00  0.00    -0.354 N 
ATOM     53  C   UNL A   1      39.888  33.491  34.276  1.00  0.00     0.074 A 
ATOM     54  C   UNL A   1      38.920  34.564  34.216  1.00  0.00     0.031 C 
ATOM     55  C   UNL A   1      38.535  30.168  28.939  1.00  0.00     0.029 A 
ATOM     56  C   UNL A   1      39.580  29.875  29.909  1.00  0.00     0.049 A 
ATOM     57  H   UNL A   1      39.967  30.852  31.707  1.00  0.00     0.167 HD
ATOM     58  C   UNL A   1      40.869  33.387  35.202  1.00  0.00     0.037 A 
ATOM     59  C   UNL A   1      40.493  28.894  29.799  1.00  0.00     0.037 A 
ATOM     60  C   UNL A   1      41.782  32.276  35.267  1.00  0.00     0.049 A 
ATOM     61  C   UNL A   1      41.468  28.703  30.921  1.00  0.00     0.074 A 
ATOM     62  C   UNL A   1      42.713  31.974  36.243  1.00  0.00     0.029 A 
ATOM     63  N   UNL A   1      41.870  31.279  34.304  1.00  0.00    -0.354 N 
ATOM     64  N   UNL A   1      41.644  29.440  31.992  1.00  0.00    -0.248 NA
ATOM     65  C   UNL A   1      42.352  27.534  30.840  1.00  0.00     0.031 C 
ATOM     66  C   UNL A   1      43.383  30.808  35.859  1.00  0.00     0.029 A 
ATOM     67  C   UNL A   1      42.846  30.364  34.660  1.00  0.00     0.049 A 
ATOM     68  H   UNL A   1      41.321  31.230  33.489  1.00  0.00     0.167 HD
ATOM     69  C   UNL A   1      42.641  28.815  32.724  1.00  0.00     0.074 A 
ATOM     70  C   UNL A   1      43.018  27.627  31.982  1.00  0.00     0.031 C 
ATOM     71  C   UNL A   1      43.195  29.190  33.901  1.00  0.00     0.037 A 
BRANCH  58  72
ATOM     72  C   UNL A   1      40.973  34.470  36.237  1.00  0.00     0.064 A 
ATOM     73  C   UNL A   1      41.865  35.545  36.086  1.00  0.00     0.173 A 
ATOM     74  C   UNL A   1      40.153  34.458  37.375  1.00  0.00     0.173 A 
ATOM     75  F   UNL A   1      42.678  35.602  35.020  1.00  0.00    -0.203 F 
ATOM     76  C   UNL A   1      41.957  36.544  37.050  1.00  0.00     0.198 A 
ATOM     77  C   UNL A   1      40.224  35.479  38.322  1.00  0.00     0.198 A 
ATOM     78  F   UNL A   1      39.279  33.460  37.569  1.00  0.00    -0.203 F 
ATOM     79  F   UNL A   1      42.855  37.529  36.907  1.00  0.00    -0.200 F 
ATOM     80  C   UNL A   1      41.132  36.516  38.163  1.00  0.00     0.200 A 
ATOM     81  F   UNL A   1      39.417  35.456  39.391  1.00  0.00    -0.200 F 
ATOM     82  F   UNL A   1      41.216  37.483  39.086  1.00  0.00    -0.200 F 
ENDBRANCH  58  72
BRANCH  59  83
ATOM     83  C   UNL A   1      40.436  27.965  28.645  1.00  0.00     0.064 A 
ATOM     84  C   UNL A   1      41.149  28.250  27.472  1.00  0.00     0.173 A 
ATOM     85  C   UNL A   1      39.719  26.762  28.698  1.00  0.00     0.173 A 
ATOM     86  F   UNL A   1      41.849  29.391  27.377  1.00  0.00    -0.203 F 
ATOM     87  C   UNL A   1      41.129  27.379  26.387  1.00  0.00     0.198 A 
ATOM     88  C   UNL A   1      39.717  25.881  27.618  1.00  0.00     0.198 A 
ATOM     89  F   UNL A   1      39.042  26.432  29.807  1.00  0.00    -0.203 F 
ATOM     90  F   UNL A   1      41.796  27.692  25.266  1.00  0.00    -0.200 F 
ATOM     91  C   UNL A   1      40.417  26.192  26.461  1.00  0.00     0.200 A 
ATOM     92  F   UNL A   1      39.044  24.725  27.701  1.00  0.00    -0.200 F 
ATOM     93  F   UNL A   1      40.404  25.349  25.419  1.00  0.00    -0.200 F 
ENDBRANCH  59  83
BRANCH  71  94
ATOM     94  C   UNL A   1      44.257  28.296  34.463  1.00  0.00     0.064 A 
ATOM     95  C   UNL A   1      45.614  28.514  34.186  1.00  0.00     0.173 A 
ATOM     96  C   UNL A   1      43.916  27.241  35.322  1.00  0.00     0.173 A 
ATOM     97  F   UNL A   1      45.984  29.501  33.357  1.00  0.00    -0.203 F 
ATOM     98  C   UNL A   1      46.593  27.692  34.736  1.00  0.00     0.198 A 
ATOM     99  C   UNL A   1      44.899  26.438  35.889  1.00  0.00     0.198 A 
ATOM    100  F   UNL A   1      42.630  26.999  35.616  1.00  0.00    -0.203 F 
ATOM    101  F   UNL A   1      47.881  27.892  34.428  1.00  0.00    -0.200 F 
ATOM    102  C   UNL A   1      46.235  26.662  35.593  1.00  0.00     0.200 A 
ATOM    103  F   UNL A   1      44.554  25.448  36.724  1.00  0.00    -0.200 F 
ATOM    104  F   UNL A   1      47.181  25.876  36.127  1.00  0.00    -0.200 F 
ENDBRANCH  71  94
ENDBRANCH  45  46
ENDBRANCH  37  40
ENDBRANCH  35  36
ENDBRANCH  34  35
ENDBRANCH  33  34
ENDBRANCH   1  33
TORSDOF 18
ENDMDL
