MODEL 1
REMARK VINA RESULT:     -13.0      0.000      0.000
REMARK SMILES Cc1ccc(S(=O)(=O)Nc2cc(C(=O)NCCCCNC(=O)c3ccc(-c4c5nc(c(-c6c(F)c(F)c(F)c(F)c6F)c6ccc([nH]6)c(-c6c(F)c(F)c(F)c(F)c6F)c6nc(c(-c7c(F)c(F)c(F)c(F)c7F)c7ccc4[nH]7)C=C6)C=C5)cc3)cnc2N2CCCC2)c(C)c1
REMARK SMILES IDX 17 1 16 2 15 3 13 4 14 5 12 7 10 8 11 9 88 10 87 11 86 12
REMARK SMILES IDX 9 13 6 15 7 16 8 17 5 18 1 19 2 20 3 21 96 22 4 23 94 24
REMARK SMILES IDX 95 25 89 26 90 27 93 28 91 29 92 30 18 31 19 32 20 33 21 34
REMARK SMILES IDX 22 36 23 37 24 38 85 39 25 40 84 41 26 42 27 43 28 44 78 45
REMARK SMILES IDX 29 46 83 47 77 48 79 49 30 50 82 51 76 52 75 53 31 55 63 56
REMARK SMILES IDX 43 57 62 58 44 59 47 60 61 61 80 62 45 63 46 64 60 66 81 67
REMARK SMILES IDX 48 68 32 69 33 70 41 71 34 72 35 73 39 74 42 75 36 76 37 77
REMARK SMILES IDX 40 78 38 79 64 80 65 81 73 82 66 83 67 84 71 85 74 86 68 87
REMARK SMILES IDX 69 88 72 89 70 90 49 91 50 92 58 93 51 94 52 95 56 96 59 97
REMARK SMILES IDX 53 98 54 99 57 100 55 101
REMARK H PARENT 15 6 9 14 20 35 79 54 47 65
REMARK Flexibility Score: inf
ROOT
ATOM      1  C   UNL A   1      36.867  19.478  25.000  1.00  0.00     0.023 C 
ENDROOT
BRANCH   1   2
ATOM      2  C   UNL A   1      35.888  20.652  25.001  1.00  0.00     0.116 C 
BRANCH   2   3
ATOM      3  N   UNL A   1      34.516  20.179  25.032  1.00  0.00    -0.352 N 
ATOM      4  C   UNL A   1      33.320  20.833  25.186  1.00  0.00     0.252 C 
ATOM      5  O   UNL A   1      32.291  20.157  25.142  1.00  0.00    -0.269 OA
ATOM      6  H   UNL A   1      34.427  19.204  24.921  1.00  0.00     0.163 HD
BRANCH   4   7
ATOM      7  C   UNL A   1      33.201  22.303  25.334  1.00  0.00     0.060 A 
ATOM      8  C   UNL A   1      32.931  24.551  24.543  1.00  0.00     0.092 A 
ATOM      9  C   UNL A   1      33.298  23.231  24.304  1.00  0.00     0.046 A 
ATOM     10  C   UNL A   1      32.698  24.990  25.865  1.00  0.00     0.153 A 
ATOM     11  N   UNL A   1      32.726  24.118  26.892  1.00  0.00    -0.236 NA
ATOM     12  C   UNL A   1      32.928  22.804  26.604  1.00  0.00     0.127 A 
BRANCH   8  13
ATOM     13  N   UNL A   1      32.762  25.474  23.475  1.00  0.00    -0.276 N 
ATOM     14  H   UNL A   1      33.532  26.039  23.236  1.00  0.00     0.180 HD
BRANCH  13  15
ATOM     15  S   UNL A   1      31.356  25.672  22.595  1.00  0.00     0.262 S 
ATOM     16  O   UNL A   1      30.540  24.506  22.895  1.00  0.00    -0.201 OA
ATOM     17  O   UNL A   1      31.803  25.952  21.250  1.00  0.00    -0.201 OA
BRANCH  15  18
ATOM     18  C   UNL A   1      30.375  27.086  23.114  1.00  0.00     0.090 A 
ATOM     19  C   UNL A   1      27.786  30.541  23.014  1.00  0.00     0.044 C 
ATOM     20  C   UNL A   1      28.690  29.349  23.126  1.00  0.00    -0.051 A 
ATOM     21  C   UNL A   1      28.194  28.093  23.482  1.00  0.00     0.005 A 
ATOM     22  C   UNL A   1      30.065  29.490  22.923  1.00  0.00     0.008 A 
ATOM     23  C   UNL A   1      29.037  26.971  23.501  1.00  0.00     0.023 A 
ATOM     24  C   UNL A   1      30.923  28.374  22.925  1.00  0.00    -0.030 A 
ATOM     25  C   UNL A   1      32.395  28.655  22.770  1.00  0.00     0.046 C 
ENDBRANCH  15  18
ENDBRANCH  13  15
ENDBRANCH   8  13
BRANCH  10  26
ATOM     26  N   UNL A   1      32.507  26.313  26.150  1.00  0.00    -0.355 N 
ATOM     27  C   UNL A   1      33.481  27.385  26.140  1.00  0.00     0.118 C 
ATOM     28  C   UNL A   1      31.179  26.770  26.524  1.00  0.00     0.118 C 
ATOM     29  C   UNL A   1      32.910  28.314  27.209  1.00  0.00     0.023 C 
ATOM     30  C   UNL A   1      31.405  28.221  26.967  1.00  0.00     0.023 C 
ENDBRANCH  10  26
ENDBRANCH   4   7
ENDBRANCH   2   3
ENDBRANCH   1   2
BRANCH   1  31
ATOM     31  C   UNL A   1      38.305  19.880  24.672  1.00  0.00     0.023 C 
BRANCH  31  32
ATOM     32  C   UNL A   1      39.215  20.019  25.886  1.00  0.00     0.116 C 
BRANCH  32  33
ATOM     33  N   UNL A   1      40.284  19.033  25.926  1.00  0.00    -0.352 N 
ATOM     34  C   UNL A   1      41.626  19.247  26.124  1.00  0.00     0.251 C 
ATOM     35  H   UNL A   1      40.012  18.097  25.793  1.00  0.00     0.163 HD
ATOM     36  O   UNL A   1      42.429  18.326  26.041  1.00  0.00    -0.269 OA
BRANCH  34  37
ATOM     37  C   UNL A   1      42.100  20.617  26.404  1.00  0.00     0.039 A 
ATOM     38  C   UNL A   1      42.335  21.479  25.332  1.00  0.00     0.014 A 
ATOM     39  C   UNL A   1      42.280  21.054  27.720  1.00  0.00     0.014 A 
ATOM     40  C   UNL A   1      42.698  22.804  25.581  1.00  0.00     0.010 A 
ATOM     41  C   UNL A   1      42.576  22.389  27.967  1.00  0.00     0.010 A 
ATOM     42  C   UNL A   1      42.794  23.275  26.899  1.00  0.00    -0.014 A 
BRANCH  42  43
ATOM     43  C   UNL A   1      43.140  24.690  27.185  1.00  0.00     0.031 A 
ATOM     44  C   UNL A   1      44.530  25.190  26.909  1.00  0.00     0.074 A 
ATOM     45  C   UNL A   1      42.225  25.500  27.750  1.00  0.00     0.049 A 
ATOM     46  N   UNL A   1      45.049  26.367  27.148  1.00  0.00    -0.248 NA
ATOM     47  C   UNL A   1      45.472  24.229  26.311  1.00  0.00     0.031 C 
ATOM     48  C   UNL A   1      40.860  25.115  28.111  1.00  0.00     0.029 A 
ATOM     49  N   UNL A   1      42.310  26.816  28.128  1.00  0.00    -0.354 N 
ATOM     50  C   UNL A   1      46.378  26.280  26.756  1.00  0.00     0.074 A 
ATOM     51  C   UNL A   1      46.600  24.925  26.304  1.00  0.00     0.031 C 
ATOM     52  C   UNL A   1      40.228  26.178  28.635  1.00  0.00     0.029 A 
ATOM     53  C   UNL A   1      41.151  27.308  28.676  1.00  0.00     0.049 A 
ATOM     54  H   UNL A   1      43.125  27.357  28.018  1.00  0.00     0.167 HD
ATOM     55  C   UNL A   1      47.323  27.251  26.754  1.00  0.00     0.037 A 
ATOM     56  C   UNL A   1      40.869  28.535  29.154  1.00  0.00     0.037 A 
ATOM     57  C   UNL A   1      47.084  28.611  27.157  1.00  0.00     0.049 A 
ATOM     58  C   UNL A   1      41.930  29.601  29.111  1.00  0.00     0.074 A 
ATOM     59  C   UNL A   1      47.953  29.687  27.117  1.00  0.00     0.029 A 
ATOM     60  N   UNL A   1      45.884  29.082  27.669  1.00  0.00    -0.354 N 
ATOM     61  N   UNL A   1      43.160  29.528  28.666  1.00  0.00    -0.248 NA
ATOM     62  C   UNL A   1      41.557  30.926  29.628  1.00  0.00     0.031 C 
ATOM     63  C   UNL A   1      47.289  30.803  27.639  1.00  0.00     0.029 A 
ATOM     64  C   UNL A   1      45.995  30.431  27.963  1.00  0.00     0.049 A 
ATOM     65  H   UNL A   1      45.075  28.539  27.804  1.00  0.00     0.167 HD
ATOM     66  C   UNL A   1      43.695  30.801  28.811  1.00  0.00     0.074 A 
ATOM     67  C   UNL A   1      42.651  31.630  29.380  1.00  0.00     0.031 C 
ATOM     68  C   UNL A   1      44.937  31.245  28.502  1.00  0.00     0.037 A 
BRANCH  55  69
ATOM     69  C   UNL A   1      48.701  26.881  26.295  1.00  0.00     0.064 A 
ATOM     70  C   UNL A   1      49.660  26.370  27.183  1.00  0.00     0.173 A 
ATOM     71  C   UNL A   1      49.054  26.998  24.942  1.00  0.00     0.173 A 
ATOM     72  F   UNL A   1      49.376  26.251  28.488  1.00  0.00    -0.203 F 
ATOM     73  C   UNL A   1      50.929  26.010  26.736  1.00  0.00     0.198 A 
ATOM     74  C   UNL A   1      50.314  26.611  24.495  1.00  0.00     0.198 A 
ATOM     75  F   UNL A   1      48.172  27.478  24.053  1.00  0.00    -0.203 F 
ATOM     76  F   UNL A   1      51.843  25.565  27.609  1.00  0.00    -0.200 F 
ATOM     77  C   UNL A   1      51.252  26.124  25.393  1.00  0.00     0.200 A 
ATOM     78  F   UNL A   1      50.622  26.712  23.194  1.00  0.00    -0.200 F 
ATOM     79  F   UNL A   1      52.471  25.770  24.964  1.00  0.00    -0.200 F 
ENDBRANCH  55  69
BRANCH  56  80
ATOM     80  C   UNL A   1      39.512  28.840  29.677  1.00  0.00     0.064 A 
ATOM     81  C   UNL A   1      38.521  29.363  28.833  1.00  0.00     0.173 A 
ATOM     82  C   UNL A   1      39.184  28.643  31.026  1.00  0.00     0.173 A 
ATOM     83  F   UNL A   1      38.795  29.588  27.541  1.00  0.00    -0.203 F 
ATOM     84  C   UNL A   1      37.263  29.704  29.325  1.00  0.00     0.198 A 
ATOM     85  C   UNL A   1      37.917  28.961  31.510  1.00  0.00     0.198 A 
ATOM     86  F   UNL A   1      40.095  28.143  31.873  1.00  0.00    -0.203 F 
ATOM     87  F   UNL A   1      36.354  30.251  28.508  1.00  0.00    -0.200 F 
ATOM     88  C   UNL A   1      36.961  29.500  30.663  1.00  0.00     0.200 A 
ATOM     89  F   UNL A   1      37.624  28.753  32.802  1.00  0.00    -0.200 F 
ATOM     90  F   UNL A   1      35.753  29.832  31.136  1.00  0.00    -0.200 F 
ENDBRANCH  56  80
BRANCH  68  91
ATOM     91  C   UNL A   1      45.218  32.703  28.715  1.00  0.00     0.064 A 
ATOM     92  C   UNL A   1      45.774  33.180  29.911  1.00  0.00     0.173 A 
ATOM     93  C   UNL A   1      44.960  33.629  27.692  1.00  0.00     0.173 A 
ATOM     94  F   UNL A   1      46.025  32.335  30.922  1.00  0.00    -0.203 F 
ATOM     95  C   UNL A   1      46.037  34.536  30.084  1.00  0.00     0.198 A 
ATOM     96  C   UNL A   1      45.250  34.979  27.859  1.00  0.00     0.198 A 
ATOM     97  F   UNL A   1      44.435  33.220  26.527  1.00  0.00    -0.203 F 
ATOM     98  F   UNL A   1      46.525  34.976  31.252  1.00  0.00    -0.200 F 
ATOM     99  C   UNL A   1      45.781  35.432  29.057  1.00  0.00     0.200 A 
ATOM    100  F   UNL A   1      45.014  35.842  26.862  1.00  0.00    -0.200 F 
ATOM    101  F   UNL A   1      46.040  36.736  29.225  1.00  0.00    -0.200 F 
ENDBRANCH  68  91
ENDBRANCH  42  43
ENDBRANCH  34  37
ENDBRANCH  32  33
ENDBRANCH  31  32
ENDBRANCH   1  31
TORSDOF 15
ENDMDL
MODEL 2
REMARK VINA RESULT:     -12.9      0.730      7.227
REMARK SMILES Cc1ccc(S(=O)(=O)Nc2cc(C(=O)NCCCCNC(=O)c3ccc(-c4c5nc(c(-c6c(F)c(F)c(F)c(F)c6F)c6ccc([nH]6)c(-c6c(F)c(F)c(F)c(F)c6F)c6nc(c(-c7c(F)c(F)c(F)c(F)c7F)c7ccc4[nH]7)C=C6)C=C5)cc3)cnc2N2CCCC2)c(C)c1
REMARK SMILES IDX 17 1 16 2 15 3 13 4 14 5 12 7 10 8 11 9 88 10 87 11 86 12
REMARK SMILES IDX 9 13 6 15 7 16 8 17 5 18 1 19 2 20 3 21 96 22 4 23 94 24
REMARK SMILES IDX 95 25 89 26 90 27 93 28 91 29 92 30 18 31 19 32 20 33 21 34
REMARK SMILES IDX 22 36 23 37 24 38 85 39 25 40 84 41 26 42 27 43 28 44 78 45
REMARK SMILES IDX 29 46 83 47 77 48 79 49 30 50 82 51 76 52 75 53 31 55 63 56
REMARK SMILES IDX 43 57 62 58 44 59 47 60 61 61 80 62 45 63 46 64 60 66 81 67
REMARK SMILES IDX 48 68 32 69 33 70 41 71 34 72 35 73 39 74 42 75 36 76 37 77
REMARK SMILES IDX 40 78 38 79 64 80 65 81 73 82 66 83 67 84 71 85 74 86 68 87
REMARK SMILES IDX 69 88 72 89 70 90 49 91 50 92 58 93 51 94 52 95 56 96 59 97
REMARK SMILES IDX 53 98 54 99 57 100 55 101
REMARK H PARENT 15 6 9 14 20 35 79 54 47 65
REMARK Flexibility Score: inf
ROOT
ATOM      1  C   UNL A   1      37.191  19.630  24.987  1.00  0.00     0.023 C 
ENDROOT
BRANCH   1   2
ATOM      2  C   UNL A   1      36.186  20.782  25.053  1.00  0.00     0.116 C 
BRANCH   2   3
ATOM      3  N   UNL A   1      34.828  20.277  25.123  1.00  0.00    -0.352 N 
ATOM      4  C   UNL A   1      33.619  20.906  25.290  1.00  0.00     0.252 C 
ATOM      5  O   UNL A   1      32.607  20.206  25.282  1.00  0.00    -0.269 OA
ATOM      6  H   UNL A   1      34.760  19.298  25.034  1.00  0.00     0.163 HD
BRANCH   4   7
ATOM      7  C   UNL A   1      33.468  22.376  25.410  1.00  0.00     0.060 A 
ATOM      8  C   UNL A   1      33.147  24.601  24.577  1.00  0.00     0.092 A 
ATOM      9  C   UNL A   1      33.543  23.286  24.363  1.00  0.00     0.046 A 
ATOM     10  C   UNL A   1      32.907  25.060  25.890  1.00  0.00     0.153 A 
ATOM     11  N   UNL A   1      32.957  24.210  26.934  1.00  0.00    -0.236 NA
ATOM     12  C   UNL A   1      33.187  22.895  26.671  1.00  0.00     0.127 A 
BRANCH   8  13
ATOM     13  N   UNL A   1      32.955  25.500  23.492  1.00  0.00    -0.276 N 
ATOM     14  H   UNL A   1      33.709  26.082  23.245  1.00  0.00     0.180 HD
BRANCH  13  15
ATOM     15  S   UNL A   1      31.547  25.641  22.604  1.00  0.00     0.262 S 
ATOM     16  O   UNL A   1      30.767  24.454  22.917  1.00  0.00    -0.201 OA
ATOM     17  O   UNL A   1      31.990  25.917  21.257  1.00  0.00    -0.201 OA
BRANCH  15  18
ATOM     18  C   UNL A   1      30.520  27.030  23.100  1.00  0.00     0.090 A 
ATOM     19  C   UNL A   1      27.824  30.400  22.944  1.00  0.00     0.044 C 
ATOM     20  C   UNL A   1      28.764  29.239  23.076  1.00  0.00    -0.051 A 
ATOM     21  C   UNL A   1      28.307  27.973  23.446  1.00  0.00     0.005 A 
ATOM     22  C   UNL A   1      30.135  29.420  22.877  1.00  0.00     0.008 A 
ATOM     23  C   UNL A   1      29.184  26.878  23.483  1.00  0.00     0.023 A 
ATOM     24  C   UNL A   1      31.028  28.333  22.897  1.00  0.00    -0.030 A 
ATOM     25  C   UNL A   1      32.491  28.657  22.745  1.00  0.00     0.046 C 
ENDBRANCH  15  18
ENDBRANCH  13  15
ENDBRANCH   8  13
BRANCH  10  26
ATOM     26  N   UNL A   1      32.688  26.384  26.151  1.00  0.00    -0.355 N 
ATOM     27  C   UNL A   1      33.635  27.479  26.109  1.00  0.00     0.118 C 
ATOM     28  C   UNL A   1      31.352  26.817  26.531  1.00  0.00     0.118 C 
ATOM     29  C   UNL A   1      33.053  28.415  27.165  1.00  0.00     0.023 C 
ATOM     30  C   UNL A   1      31.548  28.281  26.941  1.00  0.00     0.023 C 
ENDBRANCH  10  26
ENDBRANCH   4   7
ENDBRANCH   2   3
ENDBRANCH   1   2
BRANCH   1  31
ATOM     31  C   UNL A   1      38.639  20.090  24.820  1.00  0.00     0.023 C 
BRANCH  31  32
ATOM     32  C   UNL A   1      39.482  19.991  26.085  1.00  0.00     0.116 C 
BRANCH  32  33
ATOM     33  N   UNL A   1      40.494  18.946  26.027  1.00  0.00    -0.352 N 
ATOM     34  C   UNL A   1      41.857  19.081  26.130  1.00  0.00     0.251 C 
ATOM     35  H   UNL A   1      40.160  18.030  25.897  1.00  0.00     0.163 HD
ATOM     36  O   UNL A   1      42.598  18.119  25.971  1.00  0.00    -0.269 OA
BRANCH  34  37
ATOM     37  C   UNL A   1      42.427  20.416  26.401  1.00  0.00     0.039 A 
ATOM     38  C   UNL A   1      42.818  21.211  25.322  1.00  0.00     0.014 A 
ATOM     39  C   UNL A   1      42.544  20.889  27.711  1.00  0.00     0.014 A 
ATOM     40  C   UNL A   1      43.276  22.509  25.554  1.00  0.00     0.010 A 
ATOM     41  C   UNL A   1      42.937  22.203  27.935  1.00  0.00     0.010 A 
ATOM     42  C   UNL A   1      43.313  23.023  26.859  1.00  0.00    -0.014 A 
BRANCH  42  43
ATOM     43  C   UNL A   1      43.759  24.413  27.124  1.00  0.00     0.031 A 
ATOM     44  C   UNL A   1      42.771  25.437  27.609  1.00  0.00     0.074 A 
ATOM     45  C   UNL A   1      45.033  24.766  26.867  1.00  0.00     0.049 A 
ATOM     46  N   UNL A   1      42.945  26.714  27.835  1.00  0.00    -0.248 NA
ATOM     47  C   UNL A   1      41.394  24.968  27.841  1.00  0.00     0.031 C 
ATOM     48  C   UNL A   1      46.071  23.875  26.346  1.00  0.00     0.029 A 
ATOM     49  N   UNL A   1      45.669  25.975  27.001  1.00  0.00    -0.354 N 
ATOM     50  C   UNL A   1      41.700  27.203  28.210  1.00  0.00     0.074 A 
ATOM     51  C   UNL A   1      40.771  26.098  28.139  1.00  0.00     0.031 C 
ATOM     52  C   UNL A   1      47.220  24.561  26.229  1.00  0.00     0.029 A 
ATOM     53  C   UNL A   1      46.992  25.944  26.636  1.00  0.00     0.049 A 
ATOM     54  H   UNL A   1      45.219  26.787  27.328  1.00  0.00     0.167 HD
ATOM     55  C   UNL A   1      41.369  28.457  28.598  1.00  0.00     0.037 A 
ATOM     56  C   UNL A   1      47.915  26.925  26.633  1.00  0.00     0.037 A 
ATOM     57  C   UNL A   1      42.308  29.541  28.715  1.00  0.00     0.049 A 
ATOM     58  C   UNL A   1      47.524  28.302  27.098  1.00  0.00     0.074 A 
ATOM     59  C   UNL A   1      42.087  30.828  29.175  1.00  0.00     0.029 A 
ATOM     60  N   UNL A   1      43.650  29.462  28.374  1.00  0.00    -0.354 N 
ATOM     61  N   UNL A   1      46.363  28.734  27.524  1.00  0.00    -0.248 NA
ATOM     62  C   UNL A   1      48.579  29.326  27.092  1.00  0.00     0.031 C 
ATOM     63  C   UNL A   1      43.289  31.538  29.079  1.00  0.00     0.029 A 
ATOM     64  C   UNL A   1      44.266  30.681  28.599  1.00  0.00     0.049 A 
ATOM     65  H   UNL A   1      44.097  28.658  28.023  1.00  0.00     0.167 HD
ATOM     66  C   UNL A   1      46.555  30.064  27.873  1.00  0.00     0.074 A 
ATOM     67  C   UNL A   1      47.948  30.366  27.615  1.00  0.00     0.031 C 
ATOM     68  C   UNL A   1      45.660  30.955  28.364  1.00  0.00     0.037 A 
BRANCH  55  69
ATOM     69  C   UNL A   1      39.933  28.727  28.933  1.00  0.00     0.064 A 
ATOM     70  C   UNL A   1      39.024  29.180  27.965  1.00  0.00     0.173 A 
ATOM     71  C   UNL A   1      39.449  28.487  30.228  1.00  0.00     0.173 A 
ATOM     72  F   UNL A   1      39.440  29.437  26.716  1.00  0.00    -0.203 F 
ATOM     73  C   UNL A   1      37.688  29.405  28.287  1.00  0.00     0.198 A 
ATOM     74  C   UNL A   1      38.107  28.686  30.539  1.00  0.00     0.198 A 
ATOM     75  F   UNL A   1      40.276  28.050  31.189  1.00  0.00    -0.203 F 
ATOM     76  F   UNL A   1      36.847  29.879  27.357  1.00  0.00    -0.200 F 
ATOM     77  C   UNL A   1      37.229  29.151  29.570  1.00  0.00     0.200 A 
ATOM     78  F   UNL A   1      37.662  28.430  31.777  1.00  0.00    -0.200 F 
ATOM     79  F   UNL A   1      35.941  29.359  29.876  1.00  0.00    -0.200 F 
ENDBRANCH  55  69
BRANCH  56  80
ATOM     80  C   UNL A   1      49.312  26.637  26.215  1.00  0.00     0.064 A 
ATOM     81  C   UNL A   1      50.252  26.164  27.142  1.00  0.00     0.173 A 
ATOM     82  C   UNL A   1      49.743  26.850  24.898  1.00  0.00     0.173 A 
ATOM     83  F   UNL A   1      49.891  25.965  28.417  1.00  0.00    -0.203 F 
ATOM     84  C   UNL A   1      51.577  25.943  26.774  1.00  0.00     0.198 A 
ATOM     85  C   UNL A   1      51.062  26.604  24.526  1.00  0.00     0.198 A 
ATOM     86  F   UNL A   1      48.881  27.298  23.974  1.00  0.00    -0.203 F 
ATOM     87  F   UNL A   1      52.466  25.542  27.692  1.00  0.00    -0.200 F 
ATOM     88  C   UNL A   1      51.981  26.160  25.466  1.00  0.00     0.200 A 
ATOM     89  F   UNL A   1      51.447  26.805  23.258  1.00  0.00    -0.200 F 
ATOM     90  F   UNL A   1      53.256  25.952  25.113  1.00  0.00    -0.200 F 
ENDBRANCH  56  80
BRANCH  68  91
ATOM     91  C   UNL A   1      46.171  32.321  28.710  1.00  0.00     0.064 A 
ATOM     92  C   UNL A   1      46.156  33.372  27.781  1.00  0.00     0.173 A 
ATOM     93  C   UNL A   1      46.648  32.591  30.002  1.00  0.00     0.173 A 
ATOM     94  F   UNL A   1      45.722  33.159  26.529  1.00  0.00    -0.203 F 
ATOM     95  C   UNL A   1      46.625  34.636  28.126  1.00  0.00     0.198 A 
ATOM     96  C   UNL A   1      47.090  33.863  30.351  1.00  0.00     0.198 A 
ATOM     97  F   UNL A   1      46.675  31.621  30.928  1.00  0.00    -0.203 F 
ATOM     98  F   UNL A   1      46.645  35.613  27.208  1.00  0.00    -0.200 F 
ATOM     99  C   UNL A   1      47.085  34.882  29.410  1.00  0.00     0.200 A 
ATOM    100  F   UNL A   1      47.523  34.102  31.596  1.00  0.00    -0.200 F 
ATOM    101  F   UNL A   1      47.531  36.101  29.742  1.00  0.00    -0.200 F 
ENDBRANCH  68  91
ENDBRANCH  42  43
ENDBRANCH  34  37
ENDBRANCH  32  33
ENDBRANCH  31  32
ENDBRANCH   1  31
TORSDOF 15
ENDMDL
MODEL 3
REMARK VINA RESULT:     -12.9      1.353      7.316
REMARK SMILES Cc1ccc(S(=O)(=O)Nc2cc(C(=O)NCCCCNC(=O)c3ccc(-c4c5nc(c(-c6c(F)c(F)c(F)c(F)c6F)c6ccc([nH]6)c(-c6c(F)c(F)c(F)c(F)c6F)c6nc(c(-c7c(F)c(F)c(F)c(F)c7F)c7ccc4[nH]7)C=C6)C=C5)cc3)cnc2N2CCCC2)c(C)c1
REMARK SMILES IDX 17 1 16 2 15 3 13 4 14 5 12 7 10 8 11 9 88 10 87 11 86 12
REMARK SMILES IDX 9 13 6 15 7 16 8 17 5 18 1 19 2 20 3 21 96 22 4 23 94 24
REMARK SMILES IDX 95 25 89 26 90 27 93 28 91 29 92 30 18 31 19 32 20 33 21 34
REMARK SMILES IDX 22 36 23 37 24 38 85 39 25 40 84 41 26 42 27 43 28 44 78 45
REMARK SMILES IDX 29 46 83 47 77 48 79 49 30 50 82 51 76 52 75 53 31 55 63 56
REMARK SMILES IDX 43 57 62 58 44 59 47 60 61 61 80 62 45 63 46 64 60 66 81 67
REMARK SMILES IDX 48 68 32 69 33 70 41 71 34 72 35 73 39 74 42 75 36 76 37 77
REMARK SMILES IDX 40 78 38 79 64 80 65 81 73 82 66 83 67 84 71 85 74 86 68 87
REMARK SMILES IDX 69 88 72 89 70 90 49 91 50 92 58 93 51 94 52 95 56 96 59 97
REMARK SMILES IDX 53 98 54 99 57 100 55 101
REMARK H PARENT 15 6 9 14 20 35 79 54 47 65
REMARK Flexibility Score: inf
ROOT
ATOM      1  C   UNL A   1      37.215  20.873  24.704  1.00  0.00     0.023 C 
ENDROOT
BRANCH   1   2
ATOM      2  C   UNL A   1      35.994  20.678  25.603  1.00  0.00     0.116 C 
BRANCH   2   3
ATOM      3  N   UNL A   1      35.075  19.716  25.024  1.00  0.00    -0.352 N 
ATOM      4  C   UNL A   1      33.798  19.839  24.538  1.00  0.00     0.252 C 
ATOM      5  O   UNL A   1      33.266  18.830  24.073  1.00  0.00    -0.269 OA
ATOM      6  H   UNL A   1      35.437  18.800  24.971  1.00  0.00     0.163 HD
BRANCH   4   7
ATOM      7  C   UNL A   1      33.061  21.124  24.481  1.00  0.00     0.060 A 
ATOM      8  C   UNL A   1      32.477  23.253  23.546  1.00  0.00     0.092 A 
ATOM      9  C   UNL A   1      33.386  22.209  23.676  1.00  0.00     0.046 A 
ATOM     10  C   UNL A   1      31.358  23.324  24.404  1.00  0.00     0.153 A 
ATOM     11  N   UNL A   1      31.102  22.335  25.282  1.00  0.00    -0.236 NA
ATOM     12  C   UNL A   1      31.921  21.249  25.270  1.00  0.00     0.127 A 
BRANCH   8  13
ATOM     13  N   UNL A   1      32.638  24.251  22.546  1.00  0.00    -0.276 N 
ATOM     14  H   UNL A   1      32.067  24.190  21.747  1.00  0.00     0.180 HD
BRANCH  13  15
ATOM     15  S   UNL A   1      33.724  25.518  22.626  1.00  0.00     0.262 S 
ATOM     16  O   UNL A   1      33.588  26.229  21.365  1.00  0.00    -0.201 OA
ATOM     17  O   UNL A   1      34.974  24.904  23.013  1.00  0.00    -0.201 OA
BRANCH  15  18
ATOM     18  C   UNL A   1      33.331  26.724  23.899  1.00  0.00     0.090 A 
ATOM     19  C   UNL A   1      33.686  29.973  26.721  1.00  0.00     0.044 C 
ATOM     20  C   UNL A   1      33.488  28.836  25.764  1.00  0.00    -0.051 A 
ATOM     21  C   UNL A   1      32.877  29.028  24.524  1.00  0.00     0.005 A 
ATOM     22  C   UNL A   1      33.872  27.542  26.124  1.00  0.00     0.008 A 
ATOM     23  C   UNL A   1      32.775  27.973  23.605  1.00  0.00     0.023 A 
ATOM     24  C   UNL A   1      33.790  26.473  25.211  1.00  0.00    -0.030 A 
ATOM     25  C   UNL A   1      34.161  25.109  25.733  1.00  0.00     0.046 C 
ENDBRANCH  15  18
ENDBRANCH  13  15
ENDBRANCH   8  13
BRANCH  10  26
ATOM     26  N   UNL A   1      30.545  24.424  24.420  1.00  0.00    -0.355 N 
ATOM     27  C   UNL A   1      29.761  24.980  23.337  1.00  0.00     0.118 C 
ATOM     28  C   UNL A   1      30.410  25.184  25.653  1.00  0.00     0.118 C 
ATOM     29  C   UNL A   1      29.751  26.460  23.708  1.00  0.00     0.023 C 
ATOM     30  C   UNL A   1      29.618  26.426  25.229  1.00  0.00     0.023 C 
ENDBRANCH  10  26
ENDBRANCH   4   7
ENDBRANCH   2   3
ENDBRANCH   1   2
BRANCH   1  31
ATOM     31  C   UNL A   1      38.246  19.751  24.821  1.00  0.00     0.023 C 
BRANCH  31  32
ATOM     32  C   UNL A   1      39.398  20.048  25.774  1.00  0.00     0.116 C 
BRANCH  32  33
ATOM     33  N   UNL A   1      40.380  18.977  25.849  1.00  0.00    -0.352 N 
ATOM     34  C   UNL A   1      41.729  19.080  26.084  1.00  0.00     0.251 C 
ATOM     35  H   UNL A   1      40.034  18.065  25.713  1.00  0.00     0.163 HD
ATOM     36  O   UNL A   1      42.455  18.094  26.028  1.00  0.00    -0.269 OA
BRANCH  34  37
ATOM     37  C   UNL A   1      42.308  20.407  26.370  1.00  0.00     0.039 A 
ATOM     38  C   UNL A   1      42.769  21.183  25.304  1.00  0.00     0.014 A 
ATOM     39  C   UNL A   1      42.364  20.894  27.679  1.00  0.00     0.014 A 
ATOM     40  C   UNL A   1      43.238  22.475  25.546  1.00  0.00     0.010 A 
ATOM     41  C   UNL A   1      42.768  22.203  27.909  1.00  0.00     0.010 A 
ATOM     42  C   UNL A   1      43.215  23.004  26.846  1.00  0.00    -0.014 A 
BRANCH  42  43
ATOM     43  C   UNL A   1      43.671  24.389  27.119  1.00  0.00     0.031 A 
ATOM     44  C   UNL A   1      42.698  25.408  27.642  1.00  0.00     0.074 A 
ATOM     45  C   UNL A   1      44.939  24.743  26.835  1.00  0.00     0.049 A 
ATOM     46  N   UNL A   1      42.881  26.681  27.881  1.00  0.00    -0.248 NA
ATOM     47  C   UNL A   1      41.326  24.940  27.902  1.00  0.00     0.031 C 
ATOM     48  C   UNL A   1      45.962  23.857  26.277  1.00  0.00     0.029 A 
ATOM     49  N   UNL A   1      45.582  25.948  26.970  1.00  0.00    -0.354 N 
ATOM     50  C   UNL A   1      41.647  27.169  28.294  1.00  0.00     0.074 A 
ATOM     51  C   UNL A   1      40.713  26.067  28.231  1.00  0.00     0.031 C 
ATOM     52  C   UNL A   1      47.109  24.542  26.141  1.00  0.00     0.029 A 
ATOM     53  C   UNL A   1      46.895  25.919  26.572  1.00  0.00     0.049 A 
ATOM     54  H   UNL A   1      45.142  26.757  27.320  1.00  0.00     0.167 HD
ATOM     55  C   UNL A   1      41.329  28.418  28.707  1.00  0.00     0.037 A 
ATOM     56  C   UNL A   1      47.820  26.898  26.560  1.00  0.00     0.037 A 
ATOM     57  C   UNL A   1      42.274  29.498  28.816  1.00  0.00     0.049 A 
ATOM     58  C   UNL A   1      47.445  28.270  27.053  1.00  0.00     0.074 A 
ATOM     59  C   UNL A   1      42.067  30.779  29.300  1.00  0.00     0.029 A 
ATOM     60  N   UNL A   1      43.607  29.420  28.441  1.00  0.00    -0.354 N 
ATOM     61  N   UNL A   1      46.296  28.698  27.515  1.00  0.00    -0.248 NA
ATOM     62  C   UNL A   1      48.502  29.291  27.036  1.00  0.00     0.031 C 
ATOM     63  C   UNL A   1      43.268  31.487  29.184  1.00  0.00     0.029 A 
ATOM     64  C   UNL A   1      44.232  30.635  28.668  1.00  0.00     0.049 A 
ATOM     65  H   UNL A   1      44.043  28.621  28.068  1.00  0.00     0.167 HD
ATOM     66  C   UNL A   1      46.500  30.022  27.877  1.00  0.00     0.074 A 
ATOM     67  C   UNL A   1      47.887  30.325  27.589  1.00  0.00     0.031 C 
ATOM     68  C   UNL A   1      45.620  30.908  28.402  1.00  0.00     0.037 A 
BRANCH  55  69
ATOM     69  C   UNL A   1      39.902  28.686  29.082  1.00  0.00     0.064 A 
ATOM     70  C   UNL A   1      39.427  28.459  30.382  1.00  0.00     0.173 A 
ATOM     71  C   UNL A   1      39.009  29.218  28.139  1.00  0.00     0.173 A 
ATOM     72  F   UNL A   1      40.239  27.939  31.315  1.00  0.00    -0.203 F 
ATOM     73  C   UNL A   1      38.105  28.734  30.719  1.00  0.00     0.198 A 
ATOM     74  C   UNL A   1      37.695  29.518  28.488  1.00  0.00     0.198 A 
ATOM     75  F   UNL A   1      39.414  29.457  26.883  1.00  0.00    -0.203 F 
ATOM     76  F   UNL A   1      37.662  28.468  31.956  1.00  0.00    -0.200 F 
ATOM     77  C   UNL A   1      37.242  29.269  29.775  1.00  0.00     0.200 A 
ATOM     78  F   UNL A   1      36.865  30.046  27.577  1.00  0.00    -0.200 F 
ATOM     79  F   UNL A   1      35.972  29.541  30.104  1.00  0.00    -0.200 F 
ENDBRANCH  55  69
BRANCH  56  80
ATOM     80  C   UNL A   1      49.206  26.613  26.104  1.00  0.00     0.064 A 
ATOM     81  C   UNL A   1      50.153  26.076  26.988  1.00  0.00     0.173 A 
ATOM     82  C   UNL A   1      49.619  26.892  24.794  1.00  0.00     0.173 A 
ATOM     83  F   UNL A   1      49.809  25.812  28.256  1.00  0.00    -0.203 F 
ATOM     84  C   UNL A   1      51.469  25.855  26.586  1.00  0.00     0.198 A 
ATOM     85  C   UNL A   1      50.928  26.646  24.387  1.00  0.00     0.198 A 
ATOM     86  F   UNL A   1      48.750  27.403  23.910  1.00  0.00    -0.203 F 
ATOM     87  F   UNL A   1      52.366  25.391  27.466  1.00  0.00    -0.200 F 
ATOM     88  C   UNL A   1      51.855  26.138  25.285  1.00  0.00     0.200 A 
ATOM     89  F   UNL A   1      51.296  26.911  23.125  1.00  0.00    -0.200 F 
ATOM     90  F   UNL A   1      53.121  25.931  24.901  1.00  0.00    -0.200 F 
ENDBRANCH  56  80
BRANCH  68  91
ATOM     91  C   UNL A   1      46.142  32.269  28.755  1.00  0.00     0.064 A 
ATOM     92  C   UNL A   1      46.695  32.544  30.014  1.00  0.00     0.173 A 
ATOM     93  C   UNL A   1      46.120  33.302  27.804  1.00  0.00     0.173 A 
ATOM     94  F   UNL A   1      46.725  31.593  30.960  1.00  0.00    -0.203 F 
ATOM     95  C   UNL A   1      47.184  33.812  30.317  1.00  0.00     0.198 A 
ATOM     96  C   UNL A   1      46.635  34.559  28.102  1.00  0.00     0.198 A 
ATOM     97  F   UNL A   1      45.608  33.086  26.584  1.00  0.00    -0.203 F 
ATOM     98  F   UNL A   1      47.666  34.066  31.542  1.00  0.00    -0.200 F 
ATOM     99  C   UNL A   1      47.159  34.815  29.360  1.00  0.00     0.200 A 
ATOM    100  F   UNL A   1      46.622  35.524  27.172  1.00  0.00    -0.200 F 
ATOM    101  F   UNL A   1      47.635  36.033  29.652  1.00  0.00    -0.200 F 
ENDBRANCH  68  91
ENDBRANCH  42  43
ENDBRANCH  34  37
ENDBRANCH  32  33
ENDBRANCH  31  32
ENDBRANCH   1  31
TORSDOF 15
ENDMDL
