MODEL 1
REMARK VINA RESULT:     -13.0      0.000      0.000
REMARK SMILES CC(C)(C)OC(=O)N1CC[N@H+](Cc2ccc(Cl)nc2)[C@H](C(=O)NCCCCNC(=O)c2ccc(-c3c4nc(c(-c5c(F)c(F)c(F)c(F)c5F)c5ccc([nH]5)c(-c5c(F)c(F)c(F)c(F)c5F)c5nc(c(-c6c(F)c(F)c(F)c(F)c6F)c6ccc3[nH]6)C=C5)C=C4)cc2)C1
REMARK SMILES IDX 25 1 24 2 23 3 21 4 22 5 20 7 8 8 9 9 94 10 10 11 11 12 6 14
REMARK SMILES IDX 7 15 5 16 2 17 1 18 3 19 4 20 12 21 13 22 14 23 19 24 15 25
REMARK SMILES IDX 18 26 16 27 17 28 26 29 27 30 28 31 29 32 30 34 31 35 32 36
REMARK SMILES IDX 93 37 33 38 92 39 34 40 35 41 36 42 86 43 37 44 91 45 85 46
REMARK SMILES IDX 87 47 38 48 90 49 84 50 83 51 39 53 71 54 51 55 70 56 52 57
REMARK SMILES IDX 55 58 69 59 88 60 53 61 54 62 68 64 89 65 56 66 40 67 41 68
REMARK SMILES IDX 49 69 42 70 43 71 47 72 50 73 44 74 45 75 48 76 46 77 72 78
REMARK SMILES IDX 73 79 81 80 74 81 75 82 79 83 82 84 76 85 77 86 80 87 78 88
REMARK SMILES IDX 57 89 58 90 66 91 59 92 60 93 64 94 67 95 61 96 62 97 65 98
REMARK SMILES IDX 63 99
REMARK H PARENT 23 6 11 13 28 33 87 52 55 63
REMARK Flexibility Score: inf
ROOT
ATOM      1  C   UNL A   1      31.704  30.610  26.079  1.00  0.00     0.023 C 
ENDROOT
BRANCH   1   2
ATOM      2  C   UNL A   1      33.094  30.024  26.320  1.00  0.00     0.116 C 
BRANCH   2   3
ATOM      3  N   UNL A   1      33.750  29.493  25.136  1.00  0.00    -0.351 N 
ATOM      4  C   UNL A   1      33.660  28.229  24.605  1.00  0.00     0.280 C 
ATOM      5  O   UNL A   1      34.117  28.063  23.472  1.00  0.00    -0.268 OA
ATOM      6  H   UNL A   1      34.333  30.121  24.651  1.00  0.00     0.163 HD
BRANCH   4   7
ATOM      7  C   UNL A   1      33.078  27.059  25.428  1.00  0.00     0.294 C 
ATOM      8  N   UNL A   1      33.404  24.603  26.031  1.00  0.00    -0.296 N 
ATOM      9  C   UNL A   1      31.958  24.447  26.049  1.00  0.00     0.184 C 
ATOM     10  C   UNL A   1      33.988  25.799  25.391  1.00  0.00     0.198 C 
ATOM     11  C   UNL A   1      31.158  25.751  26.056  1.00  0.00     0.285 C 
ATOM     12  N   UNL A   1      31.644  26.790  25.142  1.00  0.00    -0.318 N 
ATOM     13  H   UNL A   1      31.168  27.672  25.336  1.00  0.00     0.349 HD
BRANCH   8  14
ATOM     14  C   UNL A   1      34.128  23.433  26.204  1.00  0.00     0.410 C 
ATOM     15  O   UNL A   1      34.367  22.974  27.320  1.00  0.00    -0.224 OA
BRANCH  14  16
ATOM     16  O   UNL A   1      34.607  22.915  25.046  1.00  0.00    -0.444 OA
BRANCH  16  17
ATOM     17  C   UNL A   1      36.044  22.729  24.880  1.00  0.00     0.106 C 
ATOM     18  C   UNL A   1      36.316  22.994  23.392  1.00  0.00     0.056 C 
ATOM     19  C   UNL A   1      36.427  21.285  25.215  1.00  0.00     0.056 C 
ATOM     20  C   UNL A   1      36.893  23.730  25.687  1.00  0.00     0.056 C 
ENDBRANCH  16  17
ENDBRANCH  14  16
ENDBRANCH   8  14
BRANCH  12  21
ATOM     21  C   UNL A   1      31.196  26.676  23.752  1.00  0.00     0.301 C 
BRANCH  21  22
ATOM     22  C   UNL A   1      30.299  27.719  23.151  1.00  0.00     0.025 A 
ATOM     23  C   UNL A   1      28.933  27.776  23.449  1.00  0.00     0.014 A 
ATOM     24  C   UNL A   1      30.816  28.727  22.341  1.00  0.00     0.122 A 
ATOM     25  C   UNL A   1      28.144  28.776  22.889  1.00  0.00     0.041 A 
ATOM     26  N   UNL A   1      30.080  29.723  21.801  1.00  0.00    -0.244 NA
ATOM     27  C   UNL A   1      28.762  29.711  22.081  1.00  0.00     0.129 A 
ATOM     28  Cl  UNL A   1      27.867  30.987  21.367  1.00  0.00    -0.062 Cl
ENDBRANCH  21  22
ENDBRANCH  12  21
ENDBRANCH   4   7
ENDBRANCH   2   3
ENDBRANCH   1   2
BRANCH   1  29
ATOM     29  C   UNL A   1      31.439  32.020  26.617  1.00  0.00     0.023 C 
BRANCH  29  30
ATOM     30  C   UNL A   1      32.615  32.757  27.253  1.00  0.00     0.116 C 
BRANCH  30  31
ATOM     31  N   UNL A   1      32.322  34.133  27.622  1.00  0.00    -0.352 N 
ATOM     32  C   UNL A   1      32.941  34.974  28.518  1.00  0.00     0.251 C 
ATOM     33  H   UNL A   1      31.553  34.528  27.151  1.00  0.00     0.163 HD
ATOM     34  O   UNL A   1      32.470  36.089  28.725  1.00  0.00    -0.269 OA
BRANCH  32  35
ATOM     35  C   UNL A   1      34.137  34.538  29.277  1.00  0.00     0.039 A 
ATOM     36  C   UNL A   1      33.962  34.064  30.581  1.00  0.00     0.014 A 
ATOM     37  C   UNL A   1      35.420  34.593  28.728  1.00  0.00     0.014 A 
ATOM     38  C   UNL A   1      35.052  33.550  31.291  1.00  0.00     0.010 A 
ATOM     39  C   UNL A   1      36.492  34.012  29.406  1.00  0.00     0.010 A 
ATOM     40  C   UNL A   1      36.317  33.470  30.689  1.00  0.00    -0.014 A 
BRANCH  40  41
ATOM     41  C   UNL A   1      37.456  32.795  31.367  1.00  0.00     0.031 A 
ATOM     42  C   UNL A   1      38.147  31.626  30.723  1.00  0.00     0.074 A 
ATOM     43  C   UNL A   1      37.822  33.188  32.604  1.00  0.00     0.049 A 
ATOM     44  N   UNL A   1      39.091  30.854  31.199  1.00  0.00    -0.248 NA
ATOM     45  C   UNL A   1      37.698  31.258  29.371  1.00  0.00     0.031 C 
ATOM     46  C   UNL A   1      37.206  34.278  33.363  1.00  0.00     0.029 A 
ATOM     47  N   UNL A   1      38.793  32.706  33.449  1.00  0.00    -0.354 N 
ATOM     48  C   UNL A   1      39.337  29.903  30.218  1.00  0.00     0.074 A 
ATOM     49  C   UNL A   1      38.411  30.166  29.137  1.00  0.00     0.031 C 
ATOM     50  C   UNL A   1      37.826  34.395  34.548  1.00  0.00     0.029 A 
ATOM     51  C   UNL A   1      38.855  33.366  34.652  1.00  0.00     0.049 A 
ATOM     52  H   UNL A   1      39.387  31.957  33.213  1.00  0.00     0.167 HD
ATOM     53  C   UNL A   1      40.264  28.915  30.208  1.00  0.00     0.037 A 
ATOM     54  C   UNL A   1      39.648  33.161  35.721  1.00  0.00     0.037 A 
ATOM     55  C   UNL A   1      41.205  28.669  31.269  1.00  0.00     0.049 A 
ATOM     56  C   UNL A   1      40.668  32.055  35.685  1.00  0.00     0.074 A 
ATOM     57  C   UNL A   1      42.215  27.725  31.326  1.00  0.00     0.029 A 
ATOM     58  N   UNL A   1      41.252  29.376  32.461  1.00  0.00    -0.354 N 
ATOM     59  N   UNL A   1      40.927  31.200  34.727  1.00  0.00    -0.248 NA
ATOM     60  C   UNL A   1      41.507  31.889  36.880  1.00  0.00     0.031 C 
ATOM     61  C   UNL A   1      42.852  27.838  32.567  1.00  0.00     0.029 A 
ATOM     62  C   UNL A   1      42.266  28.879  33.266  1.00  0.00     0.049 A 
ATOM     63  H   UNL A   1      40.654  30.121  32.702  1.00  0.00     0.167 HD
ATOM     64  C   UNL A   1      41.975  30.417  35.188  1.00  0.00     0.074 A 
ATOM     65  C   UNL A   1      42.313  30.905  36.508  1.00  0.00     0.031 C 
ATOM     66  C   UNL A   1      42.600  29.385  34.572  1.00  0.00     0.037 A 
BRANCH  53  67
ATOM     67  C   UNL A   1      40.313  28.027  29.000  1.00  0.00     0.064 A 
ATOM     68  C   UNL A   1      41.065  28.373  27.866  1.00  0.00     0.173 A 
ATOM     69  C   UNL A   1      39.634  26.799  28.986  1.00  0.00     0.173 A 
ATOM     70  F   UNL A   1      41.726  29.539  27.825  1.00  0.00    -0.203 F 
ATOM     71  C   UNL A   1      41.110  27.537  26.754  1.00  0.00     0.198 A 
ATOM     72  C   UNL A   1      39.704  25.953  27.883  1.00  0.00     0.198 A 
ATOM     73  F   UNL A   1      38.906  26.418  30.047  1.00  0.00    -0.203 F 
ATOM     74  F   UNL A   1      41.797  27.910  25.665  1.00  0.00    -0.200 F 
ATOM     75  C   UNL A   1      40.436  26.325  26.765  1.00  0.00     0.200 A 
ATOM     76  F   UNL A   1      39.062  24.776  27.900  1.00  0.00    -0.200 F 
ATOM     77  F   UNL A   1      40.485  25.519  25.696  1.00  0.00    -0.200 F 
ENDBRANCH  53  67
BRANCH  54  78
ATOM     78  C   UNL A   1      39.530  34.040  36.914  1.00  0.00     0.064 A 
ATOM     79  C   UNL A   1      40.196  35.273  36.962  1.00  0.00     0.173 A 
ATOM     80  C   UNL A   1      38.766  33.666  38.027  1.00  0.00     0.173 A 
ATOM     81  F   UNL A   1      40.957  35.663  35.929  1.00  0.00    -0.203 F 
ATOM     82  C   UNL A   1      40.119  36.089  38.088  1.00  0.00     0.198 A 
ATOM     83  C   UNL A   1      38.668  34.496  39.143  1.00  0.00     0.198 A 
ATOM     84  F   UNL A   1      38.107  32.498  38.030  1.00  0.00    -0.203 F 
ATOM     85  F   UNL A   1      40.802  37.242  38.125  1.00  0.00    -0.200 F 
ATOM     86  C   UNL A   1      39.351  35.703  39.176  1.00  0.00     0.200 A 
ATOM     87  F   UNL A   1      37.915  34.124  40.187  1.00  0.00    -0.200 F 
ATOM     88  F   UNL A   1      39.275  36.489  40.258  1.00  0.00    -0.200 F 
ENDBRANCH  54  78
BRANCH  66  89
ATOM     89  C   UNL A   1      43.742  28.739  35.301  1.00  0.00     0.064 A 
ATOM     90  C   UNL A   1      45.065  29.171  35.125  1.00  0.00     0.173 A 
ATOM     91  C   UNL A   1      43.505  27.700  36.213  1.00  0.00     0.173 A 
ATOM     92  F   UNL A   1      45.345  30.149  34.251  1.00  0.00    -0.203 F 
ATOM     93  C   UNL A   1      46.112  28.571  35.820  1.00  0.00     0.198 A 
ATOM     94  C   UNL A   1      44.550  27.121  36.927  1.00  0.00     0.198 A 
ATOM     95  F   UNL A   1      42.256  27.254  36.420  1.00  0.00    -0.203 F 
ATOM     96  F   UNL A   1      47.372  28.970  35.604  1.00  0.00    -0.200 F 
ATOM     97  C   UNL A   1      45.852  27.552  36.725  1.00  0.00     0.200 A 
ATOM     98  F   UNL A   1      44.297  26.143  37.807  1.00  0.00    -0.200 F 
ATOM     99  F   UNL A   1      46.860  26.979  37.397  1.00  0.00    -0.200 F 
ENDBRANCH  66  89
ENDBRANCH  40  41
ENDBRANCH  32  35
ENDBRANCH  30  31
ENDBRANCH  29  30
ENDBRANCH   1  29
TORSDOF 16
ENDMDL
MODEL 2
REMARK VINA RESULT:     -13.0      0.397      1.668
REMARK SMILES CC(C)(C)OC(=O)N1CC[N@H+](Cc2ccc(Cl)nc2)[C@H](C(=O)NCCCCNC(=O)c2ccc(-c3c4nc(c(-c5c(F)c(F)c(F)c(F)c5F)c5ccc([nH]5)c(-c5c(F)c(F)c(F)c(F)c5F)c5nc(c(-c6c(F)c(F)c(F)c(F)c6F)c6ccc3[nH]6)C=C5)C=C4)cc2)C1
REMARK SMILES IDX 25 1 24 2 23 3 21 4 22 5 20 7 8 8 9 9 94 10 10 11 11 12 6 14
REMARK SMILES IDX 7 15 5 16 2 17 1 18 3 19 4 20 12 21 13 22 14 23 19 24 15 25
REMARK SMILES IDX 18 26 16 27 17 28 26 29 27 30 28 31 29 32 30 34 31 35 32 36
REMARK SMILES IDX 93 37 33 38 92 39 34 40 35 41 36 42 86 43 37 44 91 45 85 46
REMARK SMILES IDX 87 47 38 48 90 49 84 50 83 51 39 53 71 54 51 55 70 56 52 57
REMARK SMILES IDX 55 58 69 59 88 60 53 61 54 62 68 64 89 65 56 66 40 67 41 68
REMARK SMILES IDX 49 69 42 70 43 71 47 72 50 73 44 74 45 75 48 76 46 77 72 78
REMARK SMILES IDX 73 79 81 80 74 81 75 82 79 83 82 84 76 85 77 86 80 87 78 88
REMARK SMILES IDX 57 89 58 90 66 91 59 92 60 93 64 94 67 95 61 96 62 97 65 98
REMARK SMILES IDX 63 99
REMARK H PARENT 23 6 11 13 28 33 87 52 55 63
REMARK Flexibility Score: inf
ROOT
ATOM      1  C   UNL A   1      31.681  30.616  26.111  1.00  0.00     0.023 C 
ENDROOT
BRANCH   1   2
ATOM      2  C   UNL A   1      33.070  30.028  26.354  1.00  0.00     0.116 C 
BRANCH   2   3
ATOM      3  N   UNL A   1      33.701  29.441  25.183  1.00  0.00    -0.351 N 
ATOM      4  C   UNL A   1      33.525  28.183  24.659  1.00  0.00     0.280 C 
ATOM      5  O   UNL A   1      33.985  27.975  23.534  1.00  0.00    -0.268 OA
ATOM      6  H   UNL A   1      34.337  30.020  24.704  1.00  0.00     0.163 HD
BRANCH   4   7
ATOM      7  C   UNL A   1      32.845  27.066  25.480  1.00  0.00     0.294 C 
ATOM      8  N   UNL A   1      33.004  24.607  26.138  1.00  0.00    -0.296 N 
ATOM      9  C   UNL A   1      31.552  24.536  26.105  1.00  0.00     0.184 C 
ATOM     10  C   UNL A   1      33.680  25.754  25.499  1.00  0.00     0.198 C 
ATOM     11  C   UNL A   1      30.830  25.885  26.059  1.00  0.00     0.285 C 
ATOM     12  N   UNL A   1      31.409  26.876  25.146  1.00  0.00    -0.318 N 
ATOM     13  H   UNL A   1      30.979  27.787  25.306  1.00  0.00     0.349 HD
BRANCH   8  14
ATOM     14  C   UNL A   1      33.651  23.400  26.358  1.00  0.00     0.410 C 
ATOM     15  O   UNL A   1      33.207  22.557  27.137  1.00  0.00    -0.224 OA
BRANCH  14  16
ATOM     16  O   UNL A   1      34.837  23.295  25.711  1.00  0.00    -0.444 OA
BRANCH  16  17
ATOM     17  C   UNL A   1      34.945  22.429  24.542  1.00  0.00     0.106 C 
ATOM     18  C   UNL A   1      35.589  21.134  25.059  1.00  0.00     0.056 C 
ATOM     19  C   UNL A   1      35.865  23.071  23.500  1.00  0.00     0.056 C 
ATOM     20  C   UNL A   1      33.585  22.052  23.926  1.00  0.00     0.056 C 
ENDBRANCH  16  17
ENDBRANCH  14  16
ENDBRANCH   8  14
BRANCH  12  21
ATOM     21  C   UNL A   1      31.006  26.760  23.742  1.00  0.00     0.301 C 
BRANCH  21  22
ATOM     22  C   UNL A   1      30.151  27.816  23.105  1.00  0.00     0.025 A 
ATOM     23  C   UNL A   1      28.778  27.905  23.360  1.00  0.00     0.014 A 
ATOM     24  C   UNL A   1      30.714  28.805  22.301  1.00  0.00     0.122 A 
ATOM     25  C   UNL A   1      28.028  28.916  22.767  1.00  0.00     0.041 A 
ATOM     26  N   UNL A   1      30.016  29.811  21.731  1.00  0.00    -0.244 NA
ATOM     27  C   UNL A   1      28.691  29.831  21.970  1.00  0.00     0.129 A 
ATOM     28  Cl  UNL A   1      27.846  31.118  21.217  1.00  0.00    -0.062 Cl
ENDBRANCH  21  22
ENDBRANCH  12  21
ENDBRANCH   4   7
ENDBRANCH   2   3
ENDBRANCH   1   2
BRANCH   1  29
ATOM     29  C   UNL A   1      31.430  32.042  26.614  1.00  0.00     0.023 C 
BRANCH  29  30
ATOM     30  C   UNL A   1      32.603  32.769  27.266  1.00  0.00     0.116 C 
BRANCH  30  31
ATOM     31  N   UNL A   1      32.312  34.142  27.646  1.00  0.00    -0.352 N 
ATOM     32  C   UNL A   1      32.938  34.978  28.542  1.00  0.00     0.251 C 
ATOM     33  H   UNL A   1      31.539  34.539  27.184  1.00  0.00     0.163 HD
ATOM     34  O   UNL A   1      32.467  36.091  28.760  1.00  0.00    -0.269 OA
BRANCH  32  35
ATOM     35  C   UNL A   1      34.140  34.538  29.288  1.00  0.00     0.039 A 
ATOM     36  C   UNL A   1      33.975  34.039  30.584  1.00  0.00     0.014 A 
ATOM     37  C   UNL A   1      35.421  34.615  28.735  1.00  0.00     0.014 A 
ATOM     38  C   UNL A   1      35.073  33.523  31.281  1.00  0.00     0.010 A 
ATOM     39  C   UNL A   1      36.500  34.031  29.398  1.00  0.00     0.010 A 
ATOM     40  C   UNL A   1      36.335  33.464  30.672  1.00  0.00    -0.014 A 
BRANCH  40  41
ATOM     41  C   UNL A   1      37.483  32.787  31.333  1.00  0.00     0.031 A 
ATOM     42  C   UNL A   1      38.173  31.628  30.671  1.00  0.00     0.074 A 
ATOM     43  C   UNL A   1      37.858  33.168  32.571  1.00  0.00     0.049 A 
ATOM     44  N   UNL A   1      39.124  30.854  31.131  1.00  0.00    -0.248 NA
ATOM     45  C   UNL A   1      37.714  31.272  29.319  1.00  0.00     0.031 C 
ATOM     46  C   UNL A   1      37.245  34.248  33.346  1.00  0.00     0.029 A 
ATOM     47  N   UNL A   1      38.838  32.682  33.402  1.00  0.00    -0.354 N 
ATOM     48  C   UNL A   1      39.366  29.914  30.138  1.00  0.00     0.074 A 
ATOM     49  C   UNL A   1      38.429  30.184  29.068  1.00  0.00     0.031 C 
ATOM     50  C   UNL A   1      37.875  34.355  34.527  1.00  0.00     0.029 A 
ATOM     51  C   UNL A   1      38.908  33.330  34.612  1.00  0.00     0.049 A 
ATOM     52  H   UNL A   1      39.433  31.938  33.154  1.00  0.00     0.167 HD
ATOM     53  C   UNL A   1      40.296  28.931  30.110  1.00  0.00     0.037 A 
ATOM     54  C   UNL A   1      39.712  33.117  35.672  1.00  0.00     0.037 A 
ATOM     55  C   UNL A   1      41.247  28.678  31.160  1.00  0.00     0.049 A 
ATOM     56  C   UNL A   1      40.735  32.016  35.616  1.00  0.00     0.074 A 
ATOM     57  C   UNL A   1      42.262  27.737  31.199  1.00  0.00     0.029 A 
ATOM     58  N   UNL A   1      41.302  29.373  32.359  1.00  0.00    -0.354 N 
ATOM     59  N   UNL A   1      40.989  31.172  34.647  1.00  0.00    -0.248 NA
ATOM     60  C   UNL A   1      41.586  31.841  36.801  1.00  0.00     0.031 C 
ATOM     61  C   UNL A   1      42.909  27.840  32.435  1.00  0.00     0.029 A 
ATOM     62  C   UNL A   1      42.325  28.871  33.150  1.00  0.00     0.049 A 
ATOM     63  H   UNL A   1      40.703  30.112  32.613  1.00  0.00     0.167 HD
ATOM     64  C   UNL A   1      42.045  30.388  35.090  1.00  0.00     0.074 A 
ATOM     65  C   UNL A   1      42.392  30.864  36.413  1.00  0.00     0.031 C 
ATOM     66  C   UNL A   1      42.668  29.365  34.459  1.00  0.00     0.037 A 
BRANCH  53  67
ATOM     67  C   UNL A   1      40.338  28.055  28.892  1.00  0.00     0.064 A 
ATOM     68  C   UNL A   1      41.085  28.412  27.759  1.00  0.00     0.173 A 
ATOM     69  C   UNL A   1      39.658  26.828  28.869  1.00  0.00     0.173 A 
ATOM     70  F   UNL A   1      41.746  29.579  27.726  1.00  0.00    -0.203 F 
ATOM     71  C   UNL A   1      41.123  27.588  26.637  1.00  0.00     0.198 A 
ATOM     72  C   UNL A   1      39.722  25.993  27.757  1.00  0.00     0.198 A 
ATOM     73  F   UNL A   1      38.936  26.436  29.930  1.00  0.00    -0.203 F 
ATOM     74  F   UNL A   1      41.805  27.972  25.549  1.00  0.00    -0.200 F 
ATOM     75  C   UNL A   1      40.448  26.376  26.639  1.00  0.00     0.200 A 
ATOM     76  F   UNL A   1      39.079  24.817  27.766  1.00  0.00    -0.200 F 
ATOM     77  F   UNL A   1      40.492  25.582  25.561  1.00  0.00    -0.200 F 
ENDBRANCH  53  67
BRANCH  54  78
ATOM     78  C   UNL A   1      39.600  33.984  36.874  1.00  0.00     0.064 A 
ATOM     79  C   UNL A   1      38.813  33.593  37.967  1.00  0.00     0.173 A 
ATOM     80  C   UNL A   1      40.261  35.217  36.953  1.00  0.00     0.173 A 
ATOM     81  F   UNL A   1      38.144  32.431  37.928  1.00  0.00    -0.203 F 
ATOM     82  C   UNL A   1      38.675  34.412  39.084  1.00  0.00     0.198 A 
ATOM     83  C   UNL A   1      40.142  36.024  38.083  1.00  0.00     0.198 A 
ATOM     84  F   UNL A   1      41.028  35.635  35.936  1.00  0.00    -0.203 F 
ATOM     85  F   UNL A   1      37.880  34.034  40.096  1.00  0.00    -0.200 F 
ATOM     86  C   UNL A   1      39.343  35.626  39.144  1.00  0.00     0.200 A 
ATOM     87  F   UNL A   1      40.800  37.191  38.141  1.00  0.00    -0.200 F 
ATOM     88  F   UNL A   1      39.212  36.413  40.219  1.00  0.00    -0.200 F 
ENDBRANCH  54  78
BRANCH  66  89
ATOM     89  C   UNL A   1      43.819  28.716  35.171  1.00  0.00     0.064 A 
ATOM     90  C   UNL A   1      43.642  27.577  35.970  1.00  0.00     0.173 A 
ATOM     91  C   UNL A   1      45.120  29.219  35.021  1.00  0.00     0.173 A 
ATOM     92  F   UNL A   1      42.415  27.069  36.158  1.00  0.00    -0.203 F 
ATOM     93  C   UNL A   1      44.723  26.978  36.612  1.00  0.00     0.198 A 
ATOM     94  C   UNL A   1      46.202  28.603  35.642  1.00  0.00     0.198 A 
ATOM     95  F   UNL A   1      45.342  30.305  34.264  1.00  0.00    -0.203 F 
ATOM     96  F   UNL A   1      44.524  25.918  37.405  1.00  0.00    -0.200 F 
ATOM     97  C   UNL A   1      46.002  27.488  36.442  1.00  0.00     0.200 A 
ATOM     98  F   UNL A   1      47.439  29.090  35.470  1.00  0.00    -0.200 F 
ATOM     99  F   UNL A   1      47.042  26.907  37.056  1.00  0.00    -0.200 F 
ENDBRANCH  66  89
ENDBRANCH  40  41
ENDBRANCH  32  35
ENDBRANCH  30  31
ENDBRANCH  29  30
ENDBRANCH   1  29
TORSDOF 16
ENDMDL
MODEL 3
REMARK VINA RESULT:     -12.9      0.561      7.135
REMARK SMILES CC(C)(C)OC(=O)N1CC[N@H+](Cc2ccc(Cl)nc2)[C@H](C(=O)NCCCCNC(=O)c2ccc(-c3c4nc(c(-c5c(F)c(F)c(F)c(F)c5F)c5ccc([nH]5)c(-c5c(F)c(F)c(F)c(F)c5F)c5nc(c(-c6c(F)c(F)c(F)c(F)c6F)c6ccc3[nH]6)C=C5)C=C4)cc2)C1
REMARK SMILES IDX 25 1 24 2 23 3 21 4 22 5 20 7 8 8 9 9 94 10 10 11 11 12 6 14
REMARK SMILES IDX 7 15 5 16 2 17 1 18 3 19 4 20 12 21 13 22 14 23 19 24 15 25
REMARK SMILES IDX 18 26 16 27 17 28 26 29 27 30 28 31 29 32 30 34 31 35 32 36
REMARK SMILES IDX 93 37 33 38 92 39 34 40 35 41 36 42 86 43 37 44 91 45 85 46
REMARK SMILES IDX 87 47 38 48 90 49 84 50 83 51 39 53 71 54 51 55 70 56 52 57
REMARK SMILES IDX 55 58 69 59 88 60 53 61 54 62 68 64 89 65 56 66 40 67 41 68
REMARK SMILES IDX 49 69 42 70 43 71 47 72 50 73 44 74 45 75 48 76 46 77 72 78
REMARK SMILES IDX 73 79 81 80 74 81 75 82 79 83 82 84 76 85 77 86 80 87 78 88
REMARK SMILES IDX 57 89 58 90 66 91 59 92 60 93 64 94 67 95 61 96 62 97 65 98
REMARK SMILES IDX 63 99
REMARK H PARENT 23 6 11 13 28 33 87 52 55 63
REMARK Flexibility Score: inf
ROOT
ATOM      1  C   UNL A   1      31.544  30.800  25.986  1.00  0.00     0.023 C 
ENDROOT
BRANCH   1   2
ATOM      2  C   UNL A   1      32.838  30.075  26.355  1.00  0.00     0.116 C 
BRANCH   2   3
ATOM      3  N   UNL A   1      33.573  29.521  25.230  1.00  0.00    -0.351 N 
ATOM      4  C   UNL A   1      33.494  28.256  24.698  1.00  0.00     0.280 C 
ATOM      5  O   UNL A   1      34.037  28.072  23.606  1.00  0.00    -0.268 OA
ATOM      6  H   UNL A   1      34.211  30.131  24.792  1.00  0.00     0.163 HD
BRANCH   4   7
ATOM      7  C   UNL A   1      32.816  27.107  25.475  1.00  0.00     0.294 C 
ATOM      8  N   UNL A   1      33.005  24.635  26.074  1.00  0.00    -0.296 N 
ATOM      9  C   UNL A   1      31.556  24.539  26.006  1.00  0.00     0.184 C 
ATOM     10  C   UNL A   1      33.675  25.809  25.480  1.00  0.00     0.198 C 
ATOM     11  C   UNL A   1      30.811  25.876  25.977  1.00  0.00     0.285 C 
ATOM     12  N   UNL A   1      31.392  26.900  25.103  1.00  0.00    -0.318 N 
ATOM     13  H   UNL A   1      30.942  27.799  25.276  1.00  0.00     0.349 HD
BRANCH   8  14
ATOM     14  C   UNL A   1      33.669  23.434  26.279  1.00  0.00     0.410 C 
ATOM     15  O   UNL A   1      33.253  22.588  27.069  1.00  0.00    -0.224 OA
BRANCH  14  16
ATOM     16  O   UNL A   1      34.839  23.339  25.601  1.00  0.00    -0.444 OA
BRANCH  16  17
ATOM     17  C   UNL A   1      34.951  22.407  24.485  1.00  0.00     0.106 C 
ATOM     18  C   UNL A   1      35.849  23.113  23.459  1.00  0.00     0.056 C 
ATOM     19  C   UNL A   1      33.571  22.164  23.867  1.00  0.00     0.056 C 
ATOM     20  C   UNL A   1      35.635  21.078  24.857  1.00  0.00     0.056 C 
ENDBRANCH  16  17
ENDBRANCH  14  16
ENDBRANCH   8  14
BRANCH  12  21
ATOM     21  C   UNL A   1      31.023  26.813  23.688  1.00  0.00     0.301 C 
BRANCH  21  22
ATOM     22  C   UNL A   1      30.153  27.863  23.061  1.00  0.00     0.025 A 
ATOM     23  C   UNL A   1      28.781  27.938  23.326  1.00  0.00     0.014 A 
ATOM     24  C   UNL A   1      30.701  28.861  22.258  1.00  0.00     0.122 A 
ATOM     25  C   UNL A   1      28.017  28.944  22.742  1.00  0.00     0.041 A 
ATOM     26  N   UNL A   1      29.990  29.863  21.696  1.00  0.00    -0.244 NA
ATOM     27  C   UNL A   1      28.666  29.868  21.944  1.00  0.00     0.129 A 
ATOM     28  Cl  UNL A   1      27.803  31.150  21.203  1.00  0.00    -0.062 Cl
ENDBRANCH  21  22
ENDBRANCH  12  21
ENDBRANCH   4   7
ENDBRANCH   2   3
ENDBRANCH   1   2
BRANCH   1  29
ATOM     29  C   UNL A   1      31.353  32.213  26.545  1.00  0.00     0.023 C 
BRANCH  29  30
ATOM     30  C   UNL A   1      32.560  32.870  27.210  1.00  0.00     0.116 C 
BRANCH  30  31
ATOM     31  N   UNL A   1      32.317  34.230  27.666  1.00  0.00    -0.352 N 
ATOM     32  C   UNL A   1      32.961  34.986  28.618  1.00  0.00     0.251 C 
ATOM     33  H   UNL A   1      31.567  34.684  27.219  1.00  0.00     0.163 HD
ATOM     34  O   UNL A   1      32.532  36.102  28.895  1.00  0.00    -0.269 OA
BRANCH  32  35
ATOM     35  C   UNL A   1      34.135  34.455  29.352  1.00  0.00     0.039 A 
ATOM     36  C   UNL A   1      33.922  33.829  30.584  1.00  0.00     0.014 A 
ATOM     37  C   UNL A   1      35.433  34.571  28.850  1.00  0.00     0.014 A 
ATOM     38  C   UNL A   1      34.991  33.228  31.258  1.00  0.00     0.010 A 
ATOM     39  C   UNL A   1      36.484  33.907  29.483  1.00  0.00     0.010 A 
ATOM     40  C   UNL A   1      36.272  33.214  30.686  1.00  0.00    -0.014 A 
BRANCH  40  41
ATOM     41  C   UNL A   1      37.390  32.457  31.310  1.00  0.00     0.031 A 
ATOM     42  C   UNL A   1      37.902  32.831  32.672  1.00  0.00     0.074 A 
ATOM     43  C   UNL A   1      38.000  31.476  30.614  1.00  0.00     0.049 A 
ATOM     44  N   UNL A   1      38.924  32.352  33.336  1.00  0.00    -0.248 NA
ATOM     45  C   UNL A   1      37.184  33.907  33.374  1.00  0.00     0.031 C 
ATOM     46  C   UNL A   1      37.633  31.042  29.265  1.00  0.00     0.029 A 
ATOM     47  N   UNL A   1      39.066  30.673  30.940  1.00  0.00    -0.354 N 
ATOM     48  C   UNL A   1      38.983  33.076  34.520  1.00  0.00     0.074 A 
ATOM     49  C   UNL A   1      37.922  34.058  34.465  1.00  0.00     0.031 C 
ATOM     50  C   UNL A   1      38.445  30.041  28.888  1.00  0.00     0.029 A 
ATOM     51  C   UNL A   1      39.413  29.787  29.949  1.00  0.00     0.049 A 
ATOM     52  H   UNL A   1      39.537  30.729  31.803  1.00  0.00     0.167 HD
ATOM     53  C   UNL A   1      39.829  32.921  35.566  1.00  0.00     0.037 A 
ATOM     54  C   UNL A   1      40.405  28.877  29.899  1.00  0.00     0.037 A 
ATOM     55  C   UNL A   1      40.867  31.927  35.635  1.00  0.00     0.049 A 
ATOM     56  C   UNL A   1      41.333  28.728  31.074  1.00  0.00     0.074 A 
ATOM     57  C   UNL A   1      41.741  31.660  36.676  1.00  0.00     0.029 A 
ATOM     58  N   UNL A   1      41.172  31.032  34.620  1.00  0.00    -0.354 N 
ATOM     59  N   UNL A   1      41.340  29.381  32.210  1.00  0.00    -0.248 NA
ATOM     60  C   UNL A   1      42.388  27.712  30.959  1.00  0.00     0.031 C 
ATOM     61  C   UNL A   1      42.595  30.626  36.278  1.00  0.00     0.029 A 
ATOM     62  C   UNL A   1      42.229  30.221  35.006  1.00  0.00     0.049 A 
ATOM     63  H   UNL A   1      40.707  30.979  33.754  1.00  0.00     0.167 HD
ATOM     64  C   UNL A   1      42.376  28.837  32.955  1.00  0.00     0.074 A 
ATOM     65  C   UNL A   1      42.969  27.791  32.148  1.00  0.00     0.031 C 
ATOM     66  C   UNL A   1      42.799  29.175  34.197  1.00  0.00     0.037 A 
BRANCH  53  67
ATOM     67  C   UNL A   1      39.660  33.849  36.733  1.00  0.00     0.064 A 
ATOM     68  C   UNL A   1      38.869  33.498  37.838  1.00  0.00     0.173 A 
ATOM     69  C   UNL A   1      40.324  35.084  36.768  1.00  0.00     0.173 A 
ATOM     70  F   UNL A   1      38.205  32.332  37.851  1.00  0.00    -0.203 F 
ATOM     71  C   UNL A   1      38.725  34.363  38.920  1.00  0.00     0.198 A 
ATOM     72  C   UNL A   1      40.201  35.934  37.864  1.00  0.00     0.198 A 
ATOM     73  F   UNL A   1      41.099  35.464  35.740  1.00  0.00    -0.203 F 
ATOM     74  F   UNL A   1      37.927  34.027  39.943  1.00  0.00    -0.200 F 
ATOM     75  C   UNL A   1      39.396  35.577  38.935  1.00  0.00     0.200 A 
ATOM     76  F   UNL A   1      40.860  37.101  37.882  1.00  0.00    -0.200 F 
ATOM     77  F   UNL A   1      39.261  36.405  39.980  1.00  0.00    -0.200 F 
ENDBRANCH  53  67
BRANCH  54  78
ATOM     78  C   UNL A   1      40.560  28.012  28.700  1.00  0.00     0.064 A 
ATOM     79  C   UNL A   1      41.344  28.428  27.615  1.00  0.00     0.173 A 
ATOM     80  C   UNL A   1      39.923  26.767  28.607  1.00  0.00     0.173 A 
ATOM     81  F   UNL A   1      41.954  29.622  27.649  1.00  0.00    -0.203 F 
ATOM     82  C   UNL A   1      41.468  27.641  26.473  1.00  0.00     0.198 A 
ATOM     83  C   UNL A   1      40.070  25.969  27.474  1.00  0.00     0.198 A 
ATOM     84  F   UNL A   1      39.164  26.322  29.619  1.00  0.00    -0.203 F 
ATOM     85  F   UNL A   1      42.188  28.083  25.432  1.00  0.00    -0.200 F 
ATOM     86  C   UNL A   1      40.835  26.409  26.405  1.00  0.00     0.200 A 
ATOM     87  F   UNL A   1      39.466  24.774  27.417  1.00  0.00    -0.200 F 
ATOM     88  F   UNL A   1      40.957  25.651  25.307  1.00  0.00    -0.200 F 
ENDBRANCH  54  78
BRANCH  66  89
ATOM     89  C   UNL A   1      43.931  28.379  34.779  1.00  0.00     0.064 A 
ATOM     90  C   UNL A   1      45.266  28.787  34.636  1.00  0.00     0.173 A 
ATOM     91  C   UNL A   1      43.673  27.216  35.518  1.00  0.00     0.173 A 
ATOM     92  F   UNL A   1      45.564  29.885  33.924  1.00  0.00    -0.203 F 
ATOM     93  C   UNL A   1      46.303  28.046  35.195  1.00  0.00     0.198 A 
ATOM     94  C   UNL A   1      44.711  26.491  36.098  1.00  0.00     0.198 A 
ATOM     95  F   UNL A   1      42.413  26.786  35.685  1.00  0.00    -0.203 F 
ATOM     96  F   UNL A   1      47.573  28.430  35.011  1.00  0.00    -0.200 F 
ATOM     97  C   UNL A   1      46.024  26.903  35.931  1.00  0.00     0.200 A 
ATOM     98  F   UNL A   1      44.440  25.393  36.816  1.00  0.00    -0.200 F 
ATOM     99  F   UNL A   1      47.024  26.194  36.472  1.00  0.00    -0.200 F 
ENDBRANCH  66  89
ENDBRANCH  40  41
ENDBRANCH  32  35
ENDBRANCH  30  31
ENDBRANCH  29  30
ENDBRANCH   1  29
TORSDOF 16
ENDMDL
