MODEL 1
REMARK VINA RESULT:     -12.2      0.000      0.000
REMARK SMILES O=C(NCCCCNC(=O)[C@H]1CC[C@@H]([NH+]2CCCC2)CC1)c1ccc(-c2c3nc(c(-c4c(F)c(F)c(F)c(F)c4F)c4ccc([nH]4)c(-c4c(F)c(F)c(F)c(F)c4F)c4nc(c(-c5c(F)c(F)c(F)c(F)c5F)c5ccc2[nH]5)C=C4)C=C3)cc1
REMARK SMILES IDX 5 1 4 2 3 3 1 4 2 5 22 7 23 8 84 9 24 10 83 11 25 12 26 13
REMARK SMILES IDX 27 14 77 15 28 16 82 17 76 18 78 19 29 20 81 21 75 22 74 23
REMARK SMILES IDX 30 25 62 26 42 27 61 28 43 29 46 30 60 31 79 32 44 33 45 34
REMARK SMILES IDX 59 36 80 37 47 38 31 39 32 40 40 41 33 42 34 43 38 44 41 45
REMARK SMILES IDX 35 46 36 47 39 48 37 49 63 50 64 51 72 52 65 53 66 54 70 55
REMARK SMILES IDX 73 56 67 57 68 58 71 59 69 60 48 61 49 62 57 63 50 64 51 65
REMARK SMILES IDX 55 66 58 67 52 68 53 69 56 70 54 71 6 72 7 73 8 74 9 75
REMARK SMILES IDX 10 77 11 78 12 79 21 80 13 81 20 82 14 83 15 84 16 85 19 86
REMARK SMILES IDX 17 88 18 89
REMARK H PARENT 3 6 78 24 46 35 8 76 15 87
REMARK Flexibility Score: inf
ROOT
ATOM      1  C   UNL A   1      31.784  31.811  26.784  1.00  0.00     0.023 C 
ENDROOT
BRANCH   1   2
ATOM      2  C   UNL A   1      32.884  32.727  27.308  1.00  0.00     0.116 C 
BRANCH   2   3
ATOM      3  N   UNL A   1      32.434  34.071  27.641  1.00  0.00    -0.352 N 
ATOM      4  O   UNL A   1      32.446  36.000  28.830  1.00  0.00    -0.269 OA
ATOM      5  C   UNL A   1      32.960  34.926  28.588  1.00  0.00     0.251 C 
ATOM      6  H   UNL A   1      31.662  34.409  27.131  1.00  0.00     0.163 HD
BRANCH   5   7
ATOM      7  C   UNL A   1      34.150  34.474  29.340  1.00  0.00     0.039 A 
ATOM      8  C   UNL A   1      35.422  34.623  28.784  1.00  0.00     0.014 A 
ATOM      9  C   UNL A   1      33.979  33.822  30.564  1.00  0.00     0.014 A 
ATOM     10  C   UNL A   1      36.500  33.977  29.370  1.00  0.00     0.010 A 
ATOM     11  C   UNL A   1      35.082  33.247  31.197  1.00  0.00     0.010 A 
ATOM     12  C   UNL A   1      36.344  33.285  30.583  1.00  0.00    -0.014 A 
BRANCH  12  13
ATOM     13  C   UNL A   1      37.537  32.650  31.196  1.00  0.00     0.031 A 
ATOM     14  C   UNL A   1      37.992  33.013  32.581  1.00  0.00     0.074 A 
ATOM     15  C   UNL A   1      38.163  31.678  30.505  1.00  0.00     0.049 A 
ATOM     16  N   UNL A   1      38.972  32.502  33.284  1.00  0.00    -0.248 NA
ATOM     17  C   UNL A   1      37.262  34.089  33.268  1.00  0.00     0.031 C 
ATOM     18  C   UNL A   1      37.814  31.259  29.146  1.00  0.00     0.029 A 
ATOM     19  N   UNL A   1      39.194  30.847  30.857  1.00  0.00    -0.354 N 
ATOM     20  C   UNL A   1      38.987  33.201  34.484  1.00  0.00     0.074 A 
ATOM     21  C   UNL A   1      37.932  34.189  34.408  1.00  0.00     0.031 C 
ATOM     22  C   UNL A   1      38.574  30.210  28.802  1.00  0.00     0.029 A 
ATOM     23  C   UNL A   1      39.501  29.921  29.891  1.00  0.00     0.049 A 
ATOM     24  H   UNL A   1      39.668  30.908  31.718  1.00  0.00     0.167 HD
ATOM     25  C   UNL A   1      39.804  33.025  35.551  1.00  0.00     0.037 A 
ATOM     26  C   UNL A   1      40.428  28.949  29.879  1.00  0.00     0.037 A 
ATOM     27  C   UNL A   1      40.843  32.029  35.624  1.00  0.00     0.049 A 
ATOM     28  C   UNL A   1      41.303  28.765  31.084  1.00  0.00     0.074 A 
ATOM     29  C   UNL A   1      41.726  31.774  36.660  1.00  0.00     0.029 A 
ATOM     30  N   UNL A   1      41.135  31.118  34.619  1.00  0.00    -0.354 N 
ATOM     31  N   UNL A   1      41.303  29.433  32.212  1.00  0.00    -0.248 NA
ATOM     32  C   UNL A   1      42.306  27.696  31.015  1.00  0.00     0.031 C 
ATOM     33  C   UNL A   1      42.568  30.726  36.271  1.00  0.00     0.029 A 
ATOM     34  C   UNL A   1      42.187  30.302  35.009  1.00  0.00     0.049 A 
ATOM     35  H   UNL A   1      40.663  31.058  33.757  1.00  0.00     0.167 HD
ATOM     36  C   UNL A   1      42.307  28.870  32.986  1.00  0.00     0.074 A 
ATOM     37  C   UNL A   1      42.868  27.780  32.213  1.00  0.00     0.031 C 
ATOM     38  C   UNL A   1      42.735  29.232  34.219  1.00  0.00     0.037 A 
BRANCH  25  39
ATOM     39  C   UNL A   1      39.617  33.933  36.731  1.00  0.00     0.064 A 
ATOM     40  C   UNL A   1      38.841  33.551  37.835  1.00  0.00     0.173 A 
ATOM     41  C   UNL A   1      40.271  35.173  36.787  1.00  0.00     0.173 A 
ATOM     42  F   UNL A   1      38.185  32.381  37.827  1.00  0.00    -0.203 F 
ATOM     43  C   UNL A   1      38.717  34.382  38.946  1.00  0.00     0.198 A 
ATOM     44  C   UNL A   1      40.163  35.992  37.908  1.00  0.00     0.198 A 
ATOM     45  F   UNL A   1      41.029  35.584  35.759  1.00  0.00    -0.203 F 
ATOM     46  F   UNL A   1      37.947  34.009  39.977  1.00  0.00    -0.200 F 
ATOM     47  C   UNL A   1      39.384  35.598  38.985  1.00  0.00     0.200 A 
ATOM     48  F   UNL A   1      40.817  37.161  37.948  1.00  0.00    -0.200 F 
ATOM     49  F   UNL A   1      39.274  36.391  40.060  1.00  0.00    -0.200 F 
ENDBRANCH  25  39
BRANCH  26  50
ATOM     50  C   UNL A   1      40.568  28.084  28.682  1.00  0.00     0.064 A 
ATOM     51  C   UNL A   1      39.886  26.863  28.586  1.00  0.00     0.173 A 
ATOM     52  C   UNL A   1      41.364  28.476  27.596  1.00  0.00     0.173 A 
ATOM     53  F   UNL A   1      39.127  26.439  29.607  1.00  0.00    -0.203 F 
ATOM     54  C   UNL A   1      40.006  26.063  27.453  1.00  0.00     0.198 A 
ATOM     55  C   UNL A   1      41.459  27.690  26.452  1.00  0.00     0.198 A 
ATOM     56  F   UNL A   1      42.028  29.641  27.637  1.00  0.00    -0.203 F 
ATOM     57  F   UNL A   1      39.372  24.884  27.399  1.00  0.00    -0.200 F 
ATOM     58  C   UNL A   1      40.785  26.480  26.383  1.00  0.00     0.200 A 
ATOM     59  F   UNL A   1      42.197  28.107  25.413  1.00  0.00    -0.200 F 
ATOM     60  F   UNL A   1      40.888  25.714  25.288  1.00  0.00    -0.200 F 
ENDBRANCH  26  50
BRANCH  38  61
ATOM     61  C   UNL A   1      43.867  28.437  34.797  1.00  0.00     0.064 A 
ATOM     62  C   UNL A   1      45.200  28.835  34.621  1.00  0.00     0.173 A 
ATOM     63  C   UNL A   1      43.616  27.271  35.534  1.00  0.00     0.173 A 
ATOM     64  F   UNL A   1      45.488  29.933  33.907  1.00  0.00    -0.203 F 
ATOM     65  C   UNL A   1      46.246  28.076  35.139  1.00  0.00     0.198 A 
ATOM     66  C   UNL A   1      44.663  26.528  36.071  1.00  0.00     0.198 A 
ATOM     67  F   UNL A   1      42.357  26.853  35.731  1.00  0.00    -0.203 F 
ATOM     68  F   UNL A   1      47.515  28.446  34.915  1.00  0.00    -0.200 F 
ATOM     69  C   UNL A   1      45.977  26.926  35.866  1.00  0.00     0.200 A 
ATOM     70  F   UNL A   1      44.403  25.419  36.779  1.00  0.00    -0.200 F 
ATOM     71  F   UNL A   1      46.984  26.192  36.359  1.00  0.00    -0.200 F 
ENDBRANCH  38  61
ENDBRANCH  12  13
ENDBRANCH   5   7
ENDBRANCH   2   3
ENDBRANCH   1   2
BRANCH   1  72
ATOM     72  C   UNL A   1      32.181  30.341  26.656  1.00  0.00     0.023 C 
BRANCH  72  73
ATOM     73  C   UNL A   1      31.755  29.701  25.336  1.00  0.00     0.116 C 
BRANCH  73  74
ATOM     74  N   UNL A   1      32.856  29.608  24.401  1.00  0.00    -0.356 N 
ATOM     75  C   UNL A   1      33.599  28.579  23.924  1.00  0.00     0.223 C 
ATOM     76  H   UNL A   1      33.123  30.481  24.031  1.00  0.00     0.163 HD
ATOM     77  O   UNL A   1      34.540  28.901  23.187  1.00  0.00    -0.275 OA
BRANCH  75  78
ATOM     78  C   UNL A   1      33.289  27.086  24.121  1.00  0.00     0.079 C 
ATOM     79  C   UNL A   1      33.558  26.137  22.946  1.00  0.00     0.019 C 
ATOM     80  C   UNL A   1      33.838  26.649  25.490  1.00  0.00     0.019 C 
ATOM     81  C   UNL A   1      33.575  24.650  23.297  1.00  0.00     0.066 C 
ATOM     82  C   UNL A   1      33.742  25.148  25.741  1.00  0.00     0.066 C 
ATOM     83  C   UNL A   1      34.288  24.265  24.609  1.00  0.00     0.184 C 
BRANCH  83  84
ATOM     84  N   UNL A   1      35.751  24.107  24.485  1.00  0.00    -0.333 N 
ATOM     85  C   UNL A   1      36.163  23.069  23.531  1.00  0.00     0.262 C 
ATOM     86  C   UNL A   1      36.546  23.902  25.689  1.00  0.00     0.262 C 
ATOM     87  H   UNL A   1      35.961  25.048  24.155  1.00  0.00     0.348 HD
ATOM     88  C   UNL A   1      36.638  21.899  24.371  1.00  0.00     0.067 C 
ATOM     89  C   UNL A   1      37.278  22.572  25.564  1.00  0.00     0.067 C 
ENDBRANCH  83  84
ENDBRANCH  75  78
ENDBRANCH  73  74
ENDBRANCH  72  73
ENDBRANCH   1  72
TORSDOF 12
ENDMDL
MODEL 2
REMARK VINA RESULT:     -12.1      0.186      2.016
REMARK SMILES O=C(NCCCCNC(=O)[C@H]1CC[C@@H]([NH+]2CCCC2)CC1)c1ccc(-c2c3nc(c(-c4c(F)c(F)c(F)c(F)c4F)c4ccc([nH]4)c(-c4c(F)c(F)c(F)c(F)c4F)c4nc(c(-c5c(F)c(F)c(F)c(F)c5F)c5ccc2[nH]5)C=C4)C=C3)cc1
REMARK SMILES IDX 5 1 4 2 3 3 1 4 2 5 22 7 23 8 84 9 24 10 83 11 25 12 26 13
REMARK SMILES IDX 27 14 77 15 28 16 82 17 76 18 78 19 29 20 81 21 75 22 74 23
REMARK SMILES IDX 30 25 62 26 42 27 61 28 43 29 46 30 60 31 79 32 44 33 45 34
REMARK SMILES IDX 59 36 80 37 47 38 31 39 32 40 40 41 33 42 34 43 38 44 41 45
REMARK SMILES IDX 35 46 36 47 39 48 37 49 63 50 64 51 72 52 65 53 66 54 70 55
REMARK SMILES IDX 73 56 67 57 68 58 71 59 69 60 48 61 49 62 57 63 50 64 51 65
REMARK SMILES IDX 55 66 58 67 52 68 53 69 56 70 54 71 6 72 7 73 8 74 9 75
REMARK SMILES IDX 10 77 11 78 12 79 21 80 13 81 20 82 14 83 15 84 16 85 19 86
REMARK SMILES IDX 17 88 18 89
REMARK H PARENT 3 6 78 24 46 35 8 76 15 87
REMARK Flexibility Score: inf
ROOT
ATOM      1  C   UNL A   1      31.775  31.756  26.879  1.00  0.00     0.023 C 
ENDROOT
BRANCH   1   2
ATOM      2  C   UNL A   1      32.898  32.709  27.271  1.00  0.00     0.116 C 
BRANCH   2   3
ATOM      3  N   UNL A   1      32.448  34.045  27.634  1.00  0.00    -0.352 N 
ATOM      4  O   UNL A   1      32.466  35.950  28.861  1.00  0.00    -0.269 OA
ATOM      5  C   UNL A   1      32.980  34.882  28.594  1.00  0.00     0.251 C 
ATOM      6  H   UNL A   1      31.672  34.392  27.136  1.00  0.00     0.163 HD
BRANCH   5   7
ATOM      7  C   UNL A   1      34.177  34.417  29.328  1.00  0.00     0.039 A 
ATOM      8  C   UNL A   1      35.446  34.609  28.780  1.00  0.00     0.014 A 
ATOM      9  C   UNL A   1      34.015  33.710  30.522  1.00  0.00     0.014 A 
ATOM     10  C   UNL A   1      36.534  33.957  29.341  1.00  0.00     0.010 A 
ATOM     11  C   UNL A   1      35.127  33.126  31.132  1.00  0.00     0.010 A 
ATOM     12  C   UNL A   1      36.388  33.210  30.522  1.00  0.00    -0.014 A 
BRANCH  12  13
ATOM     13  C   UNL A   1      37.590  32.569  31.110  1.00  0.00     0.031 A 
ATOM     14  C   UNL A   1      38.069  32.919  32.489  1.00  0.00     0.074 A 
ATOM     15  C   UNL A   1      38.203  31.602  30.400  1.00  0.00     0.049 A 
ATOM     16  N   UNL A   1      39.061  32.401  33.171  1.00  0.00    -0.248 NA
ATOM     17  C   UNL A   1      37.353  33.991  33.197  1.00  0.00     0.031 C 
ATOM     18  C   UNL A   1      37.830  31.194  29.044  1.00  0.00     0.029 A 
ATOM     19  N   UNL A   1      39.238  30.766  30.727  1.00  0.00    -0.354 N 
ATOM     20  C   UNL A   1      39.098  33.090  34.376  1.00  0.00     0.074 A 
ATOM     21  C   UNL A   1      38.043  34.081  34.327  1.00  0.00     0.031 C 
ATOM     22  C   UNL A   1      38.582  30.147  28.678  1.00  0.00     0.029 A 
ATOM     23  C   UNL A   1      39.527  29.847  29.748  1.00  0.00     0.049 A 
ATOM     24  H   UNL A   1      39.728  30.819  31.580  1.00  0.00     0.167 HD
ATOM     25  C   UNL A   1      39.933  32.904  35.427  1.00  0.00     0.037 A 
ATOM     26  C   UNL A   1      40.453  28.874  29.713  1.00  0.00     0.037 A 
ATOM     27  C   UNL A   1      40.971  31.907  35.474  1.00  0.00     0.049 A 
ATOM     28  C   UNL A   1      41.347  28.679  30.901  1.00  0.00     0.074 A 
ATOM     29  C   UNL A   1      41.872  31.642  36.493  1.00  0.00     0.029 A 
ATOM     30  N   UNL A   1      41.244  31.003  34.457  1.00  0.00    -0.354 N 
ATOM     31  N   UNL A   1      41.368  29.338  32.034  1.00  0.00    -0.248 NA
ATOM     32  C   UNL A   1      42.348  27.609  30.805  1.00  0.00     0.031 C 
ATOM     33  C   UNL A   1      42.705  30.596  36.081  1.00  0.00     0.029 A 
ATOM     34  C   UNL A   1      42.301  30.183  34.823  1.00  0.00     0.049 A 
ATOM     35  H   UNL A   1      40.758  30.951  33.603  1.00  0.00     0.167 HD
ATOM     36  C   UNL A   1      42.384  28.767  32.785  1.00  0.00     0.074 A 
ATOM     37  C   UNL A   1      42.930  27.683  31.994  1.00  0.00     0.031 C 
ATOM     38  C   UNL A   1      42.835  29.119  34.014  1.00  0.00     0.037 A 
BRANCH  25  39
ATOM     39  C   UNL A   1      39.767  33.803  36.618  1.00  0.00     0.064 A 
ATOM     40  C   UNL A   1      40.383  35.062  36.678  1.00  0.00     0.173 A 
ATOM     41  C   UNL A   1      38.933  33.429  37.683  1.00  0.00     0.173 A 
ATOM     42  F   UNL A   1      41.200  35.462  35.692  1.00  0.00    -0.203 F 
ATOM     43  C   UNL A   1      40.181  35.908  37.766  1.00  0.00     0.198 A 
ATOM     44  C   UNL A   1      38.715  34.286  38.759  1.00  0.00     0.198 A 
ATOM     45  F   UNL A   1      38.318  32.238  37.673  1.00  0.00    -0.203 F 
ATOM     46  F   UNL A   1      40.802  37.094  37.816  1.00  0.00    -0.200 F 
ATOM     47  C   UNL A   1      39.341  35.523  38.802  1.00  0.00     0.200 A 
ATOM     48  F   UNL A   1      37.895  33.917  39.752  1.00  0.00    -0.200 F 
ATOM     49  F   UNL A   1      39.137  36.343  39.841  1.00  0.00    -0.200 F 
ENDBRANCH  25  39
BRANCH  26  50
ATOM     50  C   UNL A   1      40.570  28.019  28.506  1.00  0.00     0.064 A 
ATOM     51  C   UNL A   1      41.358  28.409  27.415  1.00  0.00     0.173 A 
ATOM     52  C   UNL A   1      39.919  26.778  28.434  1.00  0.00     0.173 A 
ATOM     53  F   UNL A   1      41.985  29.595  27.433  1.00  0.00    -0.203 F 
ATOM     54  C   UNL A   1      41.480  27.596  26.292  1.00  0.00     0.198 A 
ATOM     55  C   UNL A   1      40.067  25.952  27.323  1.00  0.00     0.198 A 
ATOM     56  F   UNL A   1      39.162  26.356  29.457  1.00  0.00    -0.203 F 
ATOM     57  F   UNL A   1      42.211  28.006  25.246  1.00  0.00    -0.200 F 
ATOM     58  C   UNL A   1      40.842  26.364  26.250  1.00  0.00     0.200 A 
ATOM     59  F   UNL A   1      39.464  24.756  27.296  1.00  0.00    -0.200 F 
ATOM     60  F   UNL A   1      40.971  25.577  25.173  1.00  0.00    -0.200 F 
ENDBRANCH  26  50
BRANCH  38  61
ATOM     61  C   UNL A   1      43.974  28.317  34.566  1.00  0.00     0.064 A 
ATOM     62  C   UNL A   1      43.750  27.142  35.300  1.00  0.00     0.173 A 
ATOM     63  C   UNL A   1      45.299  28.722  34.356  1.00  0.00     0.173 A 
ATOM     64  F   UNL A   1      42.498  26.726  35.540  1.00  0.00    -0.203 F 
ATOM     65  C   UNL A   1      44.813  26.418  35.831  1.00  0.00     0.198 A 
ATOM     66  C   UNL A   1      46.361  27.982  34.867  1.00  0.00     0.198 A 
ATOM     67  F   UNL A   1      45.563  29.836  33.658  1.00  0.00    -0.203 F 
ATOM     68  F   UNL A   1      44.575  25.327  36.572  1.00  0.00    -0.200 F 
ATOM     69  C   UNL A   1      46.117  26.836  35.611  1.00  0.00     0.200 A 
ATOM     70  F   UNL A   1      47.622  28.383  34.651  1.00  0.00    -0.200 F 
ATOM     71  F   UNL A   1      47.140  26.141  36.128  1.00  0.00    -0.200 F 
ENDBRANCH  38  61
ENDBRANCH  12  13
ENDBRANCH   5   7
ENDBRANCH   2   3
ENDBRANCH   1   2
BRANCH   1  72
ATOM     72  C   UNL A   1      32.210  30.308  26.659  1.00  0.00     0.023 C 
BRANCH  72  73
ATOM     73  C   UNL A   1      31.765  29.729  25.317  1.00  0.00     0.116 C 
BRANCH  73  74
ATOM     74  N   UNL A   1      32.867  29.621  24.384  1.00  0.00    -0.356 N 
ATOM     75  C   UNL A   1      33.607  28.583  23.921  1.00  0.00     0.223 C 
ATOM     76  H   UNL A   1      33.136  30.487  24.001  1.00  0.00     0.163 HD
ATOM     77  O   UNL A   1      34.550  28.893  23.181  1.00  0.00    -0.275 OA
BRANCH  75  78
ATOM     78  C   UNL A   1      33.295  27.094  24.140  1.00  0.00     0.079 C 
ATOM     79  C   UNL A   1      33.551  26.130  22.975  1.00  0.00     0.019 C 
ATOM     80  C   UNL A   1      33.854  26.673  25.510  1.00  0.00     0.019 C 
ATOM     81  C   UNL A   1      33.566  24.647  23.343  1.00  0.00     0.066 C 
ATOM     82  C   UNL A   1      33.755  25.175  25.780  1.00  0.00     0.066 C 
ATOM     83  C   UNL A   1      34.288  24.276  24.655  1.00  0.00     0.184 C 
BRANCH  83  84
ATOM     84  N   UNL A   1      35.749  24.112  24.520  1.00  0.00    -0.333 N 
ATOM     85  C   UNL A   1      36.150  23.098  23.536  1.00  0.00     0.262 C 
ATOM     86  C   UNL A   1      36.548  23.866  25.715  1.00  0.00     0.262 C 
ATOM     87  H   UNL A   1      35.965  25.060  24.216  1.00  0.00     0.348 HD
ATOM     88  C   UNL A   1      36.621  21.901  24.340  1.00  0.00     0.067 C 
ATOM     89  C   UNL A   1      37.270  22.536  25.549  1.00  0.00     0.067 C 
ENDBRANCH  83  84
ENDBRANCH  75  78
ENDBRANCH  73  74
ENDBRANCH  72  73
ENDBRANCH   1  72
TORSDOF 12
ENDMDL
MODEL 3
REMARK VINA RESULT:     -12.1      1.814      2.479
REMARK SMILES O=C(NCCCCNC(=O)[C@H]1CC[C@@H]([NH+]2CCCC2)CC1)c1ccc(-c2c3nc(c(-c4c(F)c(F)c(F)c(F)c4F)c4ccc([nH]4)c(-c4c(F)c(F)c(F)c(F)c4F)c4nc(c(-c5c(F)c(F)c(F)c(F)c5F)c5ccc2[nH]5)C=C4)C=C3)cc1
REMARK SMILES IDX 5 1 4 2 3 3 1 4 2 5 22 7 23 8 84 9 24 10 83 11 25 12 26 13
REMARK SMILES IDX 27 14 77 15 28 16 82 17 76 18 78 19 29 20 81 21 75 22 74 23
REMARK SMILES IDX 30 25 62 26 42 27 61 28 43 29 46 30 60 31 79 32 44 33 45 34
REMARK SMILES IDX 59 36 80 37 47 38 31 39 32 40 40 41 33 42 34 43 38 44 41 45
REMARK SMILES IDX 35 46 36 47 39 48 37 49 63 50 64 51 72 52 65 53 66 54 70 55
REMARK SMILES IDX 73 56 67 57 68 58 71 59 69 60 48 61 49 62 57 63 50 64 51 65
REMARK SMILES IDX 55 66 58 67 52 68 53 69 56 70 54 71 6 72 7 73 8 74 9 75
REMARK SMILES IDX 10 77 11 78 12 79 21 80 13 81 20 82 14 83 15 84 16 85 19 86
REMARK SMILES IDX 17 88 18 89
REMARK H PARENT 3 6 78 24 46 35 8 76 15 87
REMARK Flexibility Score: inf
ROOT
ATOM      1  C   UNL A   1      32.923  29.262  24.456  1.00  0.00     0.023 C 
ENDROOT
BRANCH   1   2
ATOM      2  C   UNL A   1      33.105  29.533  25.944  1.00  0.00     0.116 C 
BRANCH   2   3
ATOM      3  N   UNL A   1      32.650  30.847  26.373  1.00  0.00    -0.352 N 
ATOM      4  O   UNL A   1      32.754  32.754  27.592  1.00  0.00    -0.269 OA
ATOM      5  C   UNL A   1      33.274  31.711  27.251  1.00  0.00     0.251 C 
ATOM      6  H   UNL A   1      31.796  31.156  25.992  1.00  0.00     0.163 HD
BRANCH   5   7
ATOM      7  C   UNL A   1      34.584  31.305  27.804  1.00  0.00     0.039 A 
ATOM      8  C   UNL A   1      34.778  29.993  28.239  1.00  0.00     0.014 A 
ATOM      9  C   UNL A   1      35.584  32.266  27.967  1.00  0.00     0.014 A 
ATOM     10  C   UNL A   1      35.908  29.683  28.981  1.00  0.00     0.010 A 
ATOM     11  C   UNL A   1      36.760  31.928  28.640  1.00  0.00     0.010 A 
ATOM     12  C   UNL A   1      36.912  30.645  29.189  1.00  0.00    -0.014 A 
BRANCH  12  13
ATOM     13  C   UNL A   1      38.124  30.253  29.949  1.00  0.00     0.031 A 
ATOM     14  C   UNL A   1      38.331  30.691  31.371  1.00  0.00     0.074 A 
ATOM     15  C   UNL A   1      39.006  29.426  29.355  1.00  0.00     0.049 A 
ATOM     16  N   UNL A   1      39.302  30.378  32.194  1.00  0.00    -0.248 NA
ATOM     17  C   UNL A   1      37.330  31.599  31.947  1.00  0.00     0.031 C 
ATOM     18  C   UNL A   1      38.909  28.953  27.972  1.00  0.00     0.029 A 
ATOM     19  N   UNL A   1      40.129  28.811  29.841  1.00  0.00    -0.354 N 
ATOM     20  C   UNL A   1      39.038  31.061  33.374  1.00  0.00     0.074 A 
ATOM     21  C   UNL A   1      37.827  31.823  33.156  1.00  0.00     0.031 C 
ATOM     22  C   UNL A   1      39.894  28.075  27.739  1.00  0.00     0.029 A 
ATOM     23  C   UNL A   1      40.723  27.967  28.935  1.00  0.00     0.049 A 
ATOM     24  H   UNL A   1      40.477  28.959  30.750  1.00  0.00     0.167 HD
ATOM     25  C   UNL A   1      39.740  31.042  34.533  1.00  0.00     0.037 A 
ATOM     26  C   UNL A   1      41.818  27.196  29.050  1.00  0.00     0.037 A 
ATOM     27  C   UNL A   1      40.937  30.269  34.746  1.00  0.00     0.049 A 
ATOM     28  C   UNL A   1      42.561  27.181  30.353  1.00  0.00     0.074 A 
ATOM     29  C   UNL A   1      41.723  30.187  35.883  1.00  0.00     0.029 A 
ATOM     30  N   UNL A   1      41.518  29.437  33.799  1.00  0.00    -0.354 N 
ATOM     31  N   UNL A   1      42.297  27.831  31.460  1.00  0.00    -0.248 NA
ATOM     32  C   UNL A   1      43.755  26.329  30.421  1.00  0.00     0.031 C 
ATOM     33  C   UNL A   1      42.794  29.326  35.615  1.00  0.00     0.029 A 
ATOM     34  C   UNL A   1      42.655  28.842  34.325  1.00  0.00     0.049 A 
ATOM     35  H   UNL A   1      41.173  29.291  32.889  1.00  0.00     0.167 HD
ATOM     36  C   UNL A   1      43.292  27.471  32.357  1.00  0.00     0.074 A 
ATOM     37  C   UNL A   1      44.143  26.516  31.676  1.00  0.00     0.031 C 
ATOM     38  C   UNL A   1      43.492  27.904  33.625  1.00  0.00     0.037 A 
BRANCH  25  39
ATOM     39  C   UNL A   1      39.240  31.891  35.666  1.00  0.00     0.064 A 
ATOM     40  C   UNL A   1      38.337  31.390  36.614  1.00  0.00     0.173 A 
ATOM     41  C   UNL A   1      39.718  33.199  35.842  1.00  0.00     0.173 A 
ATOM     42  F   UNL A   1      37.841  30.150  36.485  1.00  0.00    -0.203 F 
ATOM     43  C   UNL A   1      37.920  32.170  37.690  1.00  0.00     0.198 A 
ATOM     44  C   UNL A   1      39.317  33.969  36.930  1.00  0.00     0.198 A 
ATOM     45  F   UNL A   1      40.587  33.724  34.965  1.00  0.00    -0.203 F 
ATOM     46  F   UNL A   1      37.034  31.681  38.568  1.00  0.00    -0.200 F 
ATOM     47  C   UNL A   1      38.416  33.456  37.852  1.00  0.00     0.200 A 
ATOM     48  F   UNL A   1      39.806  35.206  37.091  1.00  0.00    -0.200 F 
ATOM     49  F   UNL A   1      38.024  34.202  38.894  1.00  0.00    -0.200 F 
ENDBRANCH  25  39
BRANCH  26  50
ATOM     50  C   UNL A   1      42.265  26.381  27.894  1.00  0.00     0.064 A 
ATOM     51  C   UNL A   1      41.732  25.107  27.656  1.00  0.00     0.173 A 
ATOM     52  C   UNL A   1      43.213  26.875  26.986  1.00  0.00     0.173 A 
ATOM     53  F   UNL A   1      40.835  24.587  28.507  1.00  0.00    -0.203 F 
ATOM     54  C   UNL A   1      42.141  24.352  26.559  1.00  0.00     0.198 A 
ATOM     55  C   UNL A   1      43.598  26.132  25.873  1.00  0.00     0.198 A 
ATOM     56  F   UNL A   1      43.744  28.093  27.165  1.00  0.00    -0.203 F 
ATOM     57  F   UNL A   1      41.644  23.122  26.373  1.00  0.00    -0.200 F 
ATOM     58  C   UNL A   1      43.067  24.869  25.664  1.00  0.00     0.200 A 
ATOM     59  F   UNL A   1      44.478  26.643  25.001  1.00  0.00    -0.200 F 
ATOM     60  F   UNL A   1      43.450  24.146  24.602  1.00  0.00    -0.200 F 
ENDBRANCH  26  50
BRANCH  38  61
ATOM     61  C   UNL A   1      44.680  27.342  34.347  1.00  0.00     0.064 A 
ATOM     62  C   UNL A   1      45.924  27.988  34.311  1.00  0.00     0.173 A 
ATOM     63  C   UNL A   1      44.572  26.153  35.081  1.00  0.00     0.173 A 
ATOM     64  F   UNL A   1      46.079  29.119  33.606  1.00  0.00    -0.203 F 
ATOM     65  C   UNL A   1      47.029  27.445  34.962  1.00  0.00     0.198 A 
ATOM     66  C   UNL A   1      45.672  25.627  35.751  1.00  0.00     0.198 A 
ATOM     67  F   UNL A   1      43.401  25.502  35.146  1.00  0.00    -0.203 F 
ATOM     68  F   UNL A   1      48.221  28.051  34.873  1.00  0.00    -0.200 F 
ATOM     69  C   UNL A   1      46.901  26.268  35.684  1.00  0.00     0.200 A 
ATOM     70  F   UNL A   1      45.548  24.492  36.453  1.00  0.00    -0.200 F 
ATOM     71  F   UNL A   1      47.966  25.744  36.306  1.00  0.00    -0.200 F 
ENDBRANCH  38  61
ENDBRANCH  12  13
ENDBRANCH   5   7
ENDBRANCH   2   3
ENDBRANCH   1   2
BRANCH   1  72
ATOM     72  C   UNL A   1      31.474  29.067  24.013  1.00  0.00     0.023 C 
BRANCH  72  73
ATOM     73  C   UNL A   1      31.162  27.649  23.535  1.00  0.00     0.116 C 
BRANCH  73  74
ATOM     74  N   UNL A   1      32.070  27.219  22.493  1.00  0.00    -0.356 N 
ATOM     75  C   UNL A   1      32.977  26.216  22.393  1.00  0.00     0.223 C 
ATOM     76  H   UNL A   1      32.018  27.774  21.682  1.00  0.00     0.163 HD
ATOM     77  O   UNL A   1      33.653  26.214  21.355  1.00  0.00    -0.275 OA
BRANCH  75  78
ATOM     78  C   UNL A   1      33.133  25.048  23.381  1.00  0.00     0.079 C 
ATOM     79  C   UNL A   1      33.627  23.705  22.831  1.00  0.00     0.019 C 
ATOM     80  C   UNL A   1      33.837  25.569  24.646  1.00  0.00     0.019 C 
ATOM     81  C   UNL A   1      34.098  22.701  23.882  1.00  0.00     0.066 C 
ATOM     82  C   UNL A   1      34.200  24.473  25.643  1.00  0.00     0.066 C 
ATOM     83  C   UNL A   1      34.941  23.269  25.042  1.00  0.00     0.184 C 
BRANCH  83  84
ATOM     84  N   UNL A   1      36.379  23.411  24.738  1.00  0.00    -0.333 N 
ATOM     85  C   UNL A   1      36.949  22.278  23.997  1.00  0.00     0.262 C 
ATOM     86  C   UNL A   1      37.307  23.703  25.823  1.00  0.00     0.262 C 
ATOM     87  H   UNL A   1      36.316  24.257  24.173  1.00  0.00     0.348 HD
ATOM     88  C   UNL A   1      37.777  21.499  25.001  1.00  0.00     0.067 C 
ATOM     89  C   UNL A   1      38.334  22.581  25.897  1.00  0.00     0.067 C 
ENDBRANCH  83  84
ENDBRANCH  75  78
ENDBRANCH  73  74
ENDBRANCH  72  73
ENDBRANCH   1  72
TORSDOF 12
ENDMDL
