MODEL 1
REMARK VINA RESULT:     -12.0      0.000      0.000
REMARK SMILES O=C(/C=C\c1ccc([N+](=O)[O-])cc1)NCCCCNC(=O)c1ccc(-c2c3nc(c(-c4c(F)c(F)c(F)c(F)c4F)c4ccc([nH]4)c(-c4c(F)c(F)c(F)c(F)c4F)c4nc(c(-c5c(F)c(F)c(F)c(F)c5F)c5ccc2[nH]5)C=C4)C=C3)cc1
REMARK SMILES IDX 16 1 15 2 14 3 1 4 2 5 3 7 4 8 5 9 6 10 13 11 7 12 12 13
REMARK SMILES IDX 8 14 9 15 10 16 11 17 17 18 18 19 19 20 20 21 21 23 22 24
REMARK SMILES IDX 23 25 84 26 24 27 83 28 25 29 26 30 27 31 77 32 28 33 82 34
REMARK SMILES IDX 76 35 78 36 29 37 81 38 75 39 74 40 30 42 62 43 42 44 61 45
REMARK SMILES IDX 43 46 46 47 60 48 79 49 44 50 45 51 59 53 80 54 47 55 31 56
REMARK SMILES IDX 32 57 40 58 33 59 34 60 38 61 41 62 35 63 36 64 39 65 37 66
REMARK SMILES IDX 63 67 64 68 72 69 65 70 66 71 70 72 73 73 67 74 68 75 71 76
REMARK SMILES IDX 69 77 48 78 49 79 57 80 50 81 51 82 55 83 58 84 52 85 53 86
REMARK SMILES IDX 56 87 54 88
REMARK H PARENT 14 6 19 22 78 41 46 52
REMARK Flexibility Score: inf
ROOT
ATOM      1  C   UNL A   1      31.389  30.972  25.978  1.00  0.00     0.023 C 
ENDROOT
BRANCH   1   2
ATOM      2  C   UNL A   1      32.042  29.670  26.445  1.00  0.00     0.116 C 
BRANCH   2   3
ATOM      3  N   UNL A   1      31.859  28.560  25.528  1.00  0.00    -0.353 N 
ATOM      4  O   UNL A   1      30.851  27.166  27.045  1.00  0.00    -0.270 OA
ATOM      5  C   UNL A   1      31.248  27.394  25.909  1.00  0.00     0.243 C 
ATOM      6  H   UNL A   1      32.184  28.647  24.603  1.00  0.00     0.163 HD
BRANCH   5   7
ATOM      7  C   UNL A   1      30.959  26.412  24.828  1.00  0.00     0.072 C 
ATOM      8  C   UNL A   1      30.299  26.546  23.666  1.00  0.00     0.014 C 
BRANCH   8   9
ATOM      9  C   UNL A   1      29.687  27.756  23.118  1.00  0.00    -0.025 A 
ATOM     10  C   UNL A   1      28.320  27.985  23.313  1.00  0.00     0.015 A 
ATOM     11  C   UNL A   1      30.448  28.678  22.390  1.00  0.00     0.015 A 
ATOM     12  C   UNL A   1      27.724  29.156  22.834  1.00  0.00     0.086 A 
ATOM     13  C   UNL A   1      29.860  29.849  21.901  1.00  0.00     0.086 A 
ATOM     14  C   UNL A   1      28.503  30.093  22.144  1.00  0.00     0.269 A 
BRANCH  14  15
ATOM     15  N   UNL A   1      27.905  31.360  21.713  1.00  0.00     0.062 N 
ATOM     16  O   UNL A   1      27.653  31.494  20.508  1.00  0.00    -0.258 OA
ATOM     17  O   UNL A   1      27.649  32.199  22.589  1.00  0.00    -0.258 OA
ENDBRANCH  14  15
ENDBRANCH   8   9
ENDBRANCH   5   7
ENDBRANCH   2   3
ENDBRANCH   1   2
BRANCH   1  18
ATOM     18  C   UNL A   1      31.385  32.116  26.995  1.00  0.00     0.023 C 
BRANCH  18  19
ATOM     19  C   UNL A   1      32.658  32.953  27.080  1.00  0.00     0.116 C 
BRANCH  19  20
ATOM     20  N   UNL A   1      32.415  34.292  27.585  1.00  0.00    -0.352 N 
ATOM     21  C   UNL A   1      33.007  34.954  28.637  1.00  0.00     0.251 C 
ATOM     22  H   UNL A   1      31.725  34.803  27.105  1.00  0.00     0.163 HD
ATOM     23  O   UNL A   1      32.545  36.028  29.010  1.00  0.00    -0.269 OA
BRANCH  21  24
ATOM     24  C   UNL A   1      34.181  34.383  29.341  1.00  0.00     0.039 A 
ATOM     25  C   UNL A   1      33.967  33.656  30.518  1.00  0.00     0.014 A 
ATOM     26  C   UNL A   1      35.487  34.595  28.892  1.00  0.00     0.014 A 
ATOM     27  C   UNL A   1      35.049  33.096  31.207  1.00  0.00     0.010 A 
ATOM     28  C   UNL A   1      36.562  33.990  29.551  1.00  0.00     0.010 A 
ATOM     29  C   UNL A   1      36.357  33.230  30.712  1.00  0.00    -0.014 A 
BRANCH  29  30
ATOM     30  C   UNL A   1      37.508  32.575  31.397  1.00  0.00     0.031 A 
ATOM     31  C   UNL A   1      38.238  31.428  30.751  1.00  0.00     0.074 A 
ATOM     32  C   UNL A   1      37.878  32.980  32.628  1.00  0.00     0.049 A 
ATOM     33  N   UNL A   1      39.225  30.702  31.217  1.00  0.00    -0.248 NA
ATOM     34  C   UNL A   1      37.787  31.030  29.409  1.00  0.00     0.031 C 
ATOM     35  C   UNL A   1      37.232  34.045  33.396  1.00  0.00     0.029 A 
ATOM     36  N   UNL A   1      38.882  32.536  33.456  1.00  0.00    -0.354 N 
ATOM     37  C   UNL A   1      39.497  29.755  30.239  1.00  0.00     0.074 A 
ATOM     38  C   UNL A   1      38.546  29.970  29.170  1.00  0.00     0.031 C 
ATOM     39  C   UNL A   1      37.866  34.187  34.571  1.00  0.00     0.029 A 
ATOM     40  C   UNL A   1      38.938  33.198  34.659  1.00  0.00     0.049 A 
ATOM     41  H   UNL A   1      39.502  31.813  33.211  1.00  0.00     0.167 HD
ATOM     42  C   UNL A   1      40.463  28.804  30.221  1.00  0.00     0.037 A 
ATOM     43  C   UNL A   1      39.750  33.024  35.719  1.00  0.00     0.037 A 
ATOM     44  C   UNL A   1      41.431  28.599  31.269  1.00  0.00     0.049 A 
ATOM     45  C   UNL A   1      40.817  31.963  35.675  1.00  0.00     0.074 A 
ATOM     46  C   UNL A   1      42.479  27.696  31.311  1.00  0.00     0.029 A 
ATOM     47  N   UNL A   1      41.467  29.306  32.461  1.00  0.00    -0.354 N 
ATOM     48  N   UNL A   1      41.102  31.115  34.718  1.00  0.00    -0.248 NA
ATOM     49  C   UNL A   1      41.679  31.839  36.859  1.00  0.00     0.031 C 
ATOM     50  C   UNL A   1      43.127  27.829  32.544  1.00  0.00     0.029 A 
ATOM     51  C   UNL A   1      42.510  28.847  33.252  1.00  0.00     0.049 A 
ATOM     52  H   UNL A   1      40.845  30.028  32.710  1.00  0.00     0.167 HD
ATOM     53  C   UNL A   1      42.186  30.376  35.172  1.00  0.00     0.074 A 
ATOM     54  C   UNL A   1      42.519  30.885  36.485  1.00  0.00     0.031 C 
ATOM     55  C   UNL A   1      42.843  29.364  34.554  1.00  0.00     0.037 A 
BRANCH  42  56
ATOM     56  C   UNL A   1      40.529  27.906  29.021  1.00  0.00     0.064 A 
ATOM     57  C   UNL A   1      39.759  26.736  28.937  1.00  0.00     0.173 A 
ATOM     58  C   UNL A   1      41.336  28.241  27.923  1.00  0.00     0.173 A 
ATOM     59  F   UNL A   1      38.978  26.367  29.963  1.00  0.00    -0.203 F 
ATOM     60  C   UNL A   1      39.818  25.919  27.810  1.00  0.00     0.198 A 
ATOM     61  C   UNL A   1      41.370  27.437  26.787  1.00  0.00     0.198 A 
ATOM     62  F   UNL A   1      42.085  29.354  27.946  1.00  0.00    -0.203 F 
ATOM     63  F   UNL A   1      39.109  24.783  27.771  1.00  0.00    -0.200 F 
ATOM     64  C   UNL A   1      40.617  26.273  26.734  1.00  0.00     0.200 A 
ATOM     65  F   UNL A   1      42.131  27.788  25.741  1.00  0.00    -0.200 F 
ATOM     66  F   UNL A   1      40.666  25.490  25.648  1.00  0.00    -0.200 F 
ENDBRANCH  42  56
BRANCH  43  67
ATOM     67  C   UNL A   1      39.600  33.890  36.916  1.00  0.00     0.064 A 
ATOM     68  C   UNL A   1      38.836  33.472  38.015  1.00  0.00     0.173 A 
ATOM     69  C   UNL A   1      40.206  35.153  36.984  1.00  0.00     0.173 A 
ATOM     70  F   UNL A   1      38.216  32.283  37.986  1.00  0.00    -0.203 F 
ATOM     71  C   UNL A   1      38.668  34.292  39.129  1.00  0.00     0.198 A 
ATOM     72  C   UNL A   1      40.060  35.961  38.110  1.00  0.00     0.198 A 
ATOM     73  F   UNL A   1      40.945  35.600  35.958  1.00  0.00    -0.203 F 
ATOM     74  F   UNL A   1      37.894  33.888  40.144  1.00  0.00    -0.200 F 
ATOM     75  C   UNL A   1      39.285  35.533  39.178  1.00  0.00     0.200 A 
ATOM     76  F   UNL A   1      40.665  37.155  38.157  1.00  0.00    -0.200 F 
ATOM     77  F   UNL A   1      39.124  36.321  40.249  1.00  0.00    -0.200 F 
ENDBRANCH  43  67
BRANCH  55  78
ATOM     78  C   UNL A   1      44.014  28.760  35.273  1.00  0.00     0.064 A 
ATOM     79  C   UNL A   1      45.318  29.242  35.090  1.00  0.00     0.173 A 
ATOM     80  C   UNL A   1      43.822  27.711  36.184  1.00  0.00     0.173 A 
ATOM     81  F   UNL A   1      45.556  30.233  34.218  1.00  0.00    -0.203 F 
ATOM     82  C   UNL A   1      46.391  28.681  35.779  1.00  0.00     0.198 A 
ATOM     83  C   UNL A   1      44.894  27.170  36.890  1.00  0.00     0.198 A 
ATOM     84  F   UNL A   1      42.594  27.216  36.400  1.00  0.00    -0.203 F 
ATOM     85  F   UNL A   1      47.634  29.129  35.557  1.00  0.00    -0.200 F 
ATOM     86  C   UNL A   1      46.177  27.651  36.682  1.00  0.00     0.200 A 
ATOM     87  F   UNL A   1      44.684  26.182  37.772  1.00  0.00    -0.200 F 
ATOM     88  F   UNL A   1      47.210  27.117  37.348  1.00  0.00    -0.200 F 
ENDBRANCH  55  78
ENDBRANCH  29  30
ENDBRANCH  21  24
ENDBRANCH  19  20
ENDBRANCH  18  19
ENDBRANCH   1  18
TORSDOF 13
ENDMDL
MODEL 2
REMARK VINA RESULT:     -11.9      0.092      2.010
REMARK SMILES O=C(/C=C\c1ccc([N+](=O)[O-])cc1)NCCCCNC(=O)c1ccc(-c2c3nc(c(-c4c(F)c(F)c(F)c(F)c4F)c4ccc([nH]4)c(-c4c(F)c(F)c(F)c(F)c4F)c4nc(c(-c5c(F)c(F)c(F)c(F)c5F)c5ccc2[nH]5)C=C4)C=C3)cc1
REMARK SMILES IDX 16 1 15 2 14 3 1 4 2 5 3 7 4 8 5 9 6 10 13 11 7 12 12 13
REMARK SMILES IDX 8 14 9 15 10 16 11 17 17 18 18 19 19 20 20 21 21 23 22 24
REMARK SMILES IDX 23 25 84 26 24 27 83 28 25 29 26 30 27 31 77 32 28 33 82 34
REMARK SMILES IDX 76 35 78 36 29 37 81 38 75 39 74 40 30 42 62 43 42 44 61 45
REMARK SMILES IDX 43 46 46 47 60 48 79 49 44 50 45 51 59 53 80 54 47 55 31 56
REMARK SMILES IDX 32 57 40 58 33 59 34 60 38 61 41 62 35 63 36 64 39 65 37 66
REMARK SMILES IDX 63 67 64 68 72 69 65 70 66 71 70 72 73 73 67 74 68 75 71 76
REMARK SMILES IDX 69 77 48 78 49 79 57 80 50 81 51 82 55 83 58 84 52 85 53 86
REMARK SMILES IDX 56 87 54 88
REMARK H PARENT 14 6 19 22 78 41 46 52
REMARK Flexibility Score: inf
ROOT
ATOM      1  C   UNL A   1      31.376  31.026  26.052  1.00  0.00     0.023 C 
ENDROOT
BRANCH   1   2
ATOM      2  C   UNL A   1      32.072  29.741  26.508  1.00  0.00     0.116 C 
BRANCH   2   3
ATOM      3  N   UNL A   1      31.908  28.628  25.593  1.00  0.00    -0.353 N 
ATOM      4  O   UNL A   1      30.889  27.232  27.100  1.00  0.00    -0.270 OA
ATOM      5  C   UNL A   1      31.299  27.460  25.968  1.00  0.00     0.243 C 
ATOM      6  H   UNL A   1      32.245  28.715  24.672  1.00  0.00     0.163 HD
BRANCH   5   7
ATOM      7  C   UNL A   1      31.031  26.473  24.886  1.00  0.00     0.072 C 
ATOM      8  C   UNL A   1      30.378  26.597  23.720  1.00  0.00     0.014 C 
BRANCH   8   9
ATOM      9  C   UNL A   1      29.754  27.798  23.166  1.00  0.00    -0.025 A 
ATOM     10  C   UNL A   1      28.380  28.004  23.342  1.00  0.00     0.015 A 
ATOM     11  C   UNL A   1      30.510  28.735  22.452  1.00  0.00     0.015 A 
ATOM     12  C   UNL A   1      27.772  29.166  22.857  1.00  0.00     0.086 A 
ATOM     13  C   UNL A   1      29.909  29.898  21.958  1.00  0.00     0.086 A 
ATOM     14  C   UNL A   1      28.545  30.118  22.181  1.00  0.00     0.269 A 
BRANCH  14  15
ATOM     15  N   UNL A   1      27.932  31.377  21.745  1.00  0.00     0.062 N 
ATOM     16  O   UNL A   1      27.627  31.481  20.550  1.00  0.00    -0.258 OA
ATOM     17  O   UNL A   1      27.717  32.237  22.610  1.00  0.00    -0.258 OA
ENDBRANCH  14  15
ENDBRANCH   8   9
ENDBRANCH   5   7
ENDBRANCH   2   3
ENDBRANCH   1   2
BRANCH   1  18
ATOM     18  C   UNL A   1      31.377  32.177  27.061  1.00  0.00     0.023 C 
BRANCH  18  19
ATOM     19  C   UNL A   1      32.642  33.031  27.114  1.00  0.00     0.116 C 
BRANCH  19  20
ATOM     20  N   UNL A   1      32.396  34.361  27.640  1.00  0.00    -0.352 N 
ATOM     21  C   UNL A   1      32.992  35.010  28.698  1.00  0.00     0.251 C 
ATOM     22  H   UNL A   1      31.701  34.876  27.172  1.00  0.00     0.163 HD
ATOM     23  O   UNL A   1      32.528  36.077  29.090  1.00  0.00    -0.269 OA
BRANCH  21  24
ATOM     24  C   UNL A   1      34.173  34.434  29.387  1.00  0.00     0.039 A 
ATOM     25  C   UNL A   1      33.985  33.802  30.622  1.00  0.00     0.014 A 
ATOM     26  C   UNL A   1      35.464  34.549  28.864  1.00  0.00     0.014 A 
ATOM     27  C   UNL A   1      35.073  33.240  31.299  1.00  0.00     0.010 A 
ATOM     28  C   UNL A   1      36.541  33.941  29.514  1.00  0.00     0.010 A 
ATOM     29  C   UNL A   1      36.360  33.274  30.736  1.00  0.00    -0.014 A 
BRANCH  29  30
ATOM     30  C   UNL A   1      37.513  32.615  31.412  1.00  0.00     0.031 A 
ATOM     31  C   UNL A   1      38.236  31.468  30.758  1.00  0.00     0.074 A 
ATOM     32  C   UNL A   1      37.890  33.014  32.643  1.00  0.00     0.049 A 
ATOM     33  N   UNL A   1      39.224  30.737  31.217  1.00  0.00    -0.248 NA
ATOM     34  C   UNL A   1      37.776  31.076  29.417  1.00  0.00     0.031 C 
ATOM     35  C   UNL A   1      37.251  34.078  33.418  1.00  0.00     0.029 A 
ATOM     36  N   UNL A   1      38.897  32.565  33.464  1.00  0.00    -0.354 N 
ATOM     37  C   UNL A   1      39.487  29.793  30.234  1.00  0.00     0.074 A 
ATOM     38  C   UNL A   1      38.531  30.015  29.171  1.00  0.00     0.031 C 
ATOM     39  C   UNL A   1      37.892  34.214  34.590  1.00  0.00     0.029 A 
ATOM     40  C   UNL A   1      38.962  33.222  34.668  1.00  0.00     0.049 A 
ATOM     41  H   UNL A   1      39.514  31.840  33.213  1.00  0.00     0.167 HD
ATOM     42  C   UNL A   1      40.451  28.839  30.208  1.00  0.00     0.037 A 
ATOM     43  C   UNL A   1      39.779  33.042  35.724  1.00  0.00     0.037 A 
ATOM     44  C   UNL A   1      41.424  28.628  31.250  1.00  0.00     0.049 A 
ATOM     45  C   UNL A   1      40.842  31.978  35.670  1.00  0.00     0.074 A 
ATOM     46  C   UNL A   1      42.469  27.722  31.283  1.00  0.00     0.029 A 
ATOM     47  N   UNL A   1      41.468  29.331  32.444  1.00  0.00    -0.354 N 
ATOM     48  N   UNL A   1      41.120  31.133  34.709  1.00  0.00    -0.248 NA
ATOM     49  C   UNL A   1      41.710  31.848  36.850  1.00  0.00     0.031 C 
ATOM     50  C   UNL A   1      43.124  27.849  32.513  1.00  0.00     0.029 A 
ATOM     51  C   UNL A   1      42.514  28.866  33.228  1.00  0.00     0.049 A 
ATOM     52  H   UNL A   1      40.849  30.053  32.699  1.00  0.00     0.167 HD
ATOM     53  C   UNL A   1      42.204  30.389  35.155  1.00  0.00     0.074 A 
ATOM     54  C   UNL A   1      42.546  30.893  36.468  1.00  0.00     0.031 C 
ATOM     55  C   UNL A   1      42.855  29.378  34.530  1.00  0.00     0.037 A 
BRANCH  42  56
ATOM     56  C   UNL A   1      40.508  27.945  29.004  1.00  0.00     0.064 A 
ATOM     57  C   UNL A   1      41.332  28.243  27.908  1.00  0.00     0.173 A 
ATOM     58  C   UNL A   1      39.767  26.754  28.964  1.00  0.00     0.173 A 
ATOM     59  F   UNL A   1      42.054  29.373  27.893  1.00  0.00    -0.203 F 
ATOM     60  C   UNL A   1      41.388  27.396  26.803  1.00  0.00     0.198 A 
ATOM     61  C   UNL A   1      39.848  25.896  27.870  1.00  0.00     0.198 A 
ATOM     62  F   UNL A   1      38.972  26.416  29.990  1.00  0.00    -0.203 F 
ATOM     63  F   UNL A   1      42.146  27.724  25.748  1.00  0.00    -0.200 F 
ATOM     64  C   UNL A   1      40.652  26.221  26.788  1.00  0.00     0.200 A 
ATOM     65  F   UNL A   1      39.148  24.753  27.864  1.00  0.00    -0.200 F 
ATOM     66  F   UNL A   1      40.713  25.404  25.728  1.00  0.00    -0.200 F 
ENDBRANCH  42  56
BRANCH  43  67
ATOM     67  C   UNL A   1      39.637  33.905  36.925  1.00  0.00     0.064 A 
ATOM     68  C   UNL A   1      40.271  35.154  36.992  1.00  0.00     0.173 A 
ATOM     69  C   UNL A   1      38.877  33.497  38.031  1.00  0.00     0.173 A 
ATOM     70  F   UNL A   1      41.030  35.574  35.969  1.00  0.00    -0.203 F 
ATOM     71  C   UNL A   1      40.166  35.954  38.127  1.00  0.00     0.198 A 
ATOM     72  C   UNL A   1      38.750  34.312  39.154  1.00  0.00     0.198 A 
ATOM     73  F   UNL A   1      38.253  32.311  38.017  1.00  0.00    -0.203 F 
ATOM     74  F   UNL A   1      40.821  37.122  38.183  1.00  0.00    -0.200 F 
ATOM     75  C   UNL A   1      39.400  35.536  39.204  1.00  0.00     0.200 A 
ATOM     76  F   UNL A   1      38.002  33.908  40.190  1.00  0.00    -0.200 F 
ATOM     77  F   UNL A   1      39.298  36.306  40.296  1.00  0.00    -0.200 F 
ENDBRANCH  43  67
BRANCH  55  78
ATOM     78  C   UNL A   1      44.028  28.768  35.241  1.00  0.00     0.064 A 
ATOM     79  C   UNL A   1      43.873  27.690  36.125  1.00  0.00     0.173 A 
ATOM     80  C   UNL A   1      45.327  29.242  35.004  1.00  0.00     0.173 A 
ATOM     81  F   UNL A   1      42.650  27.210  36.397  1.00  0.00    -0.203 F 
ATOM     82  C   UNL A   1      44.974  27.124  36.763  1.00  0.00     0.198 A 
ATOM     83  C   UNL A   1      46.428  28.656  35.624  1.00  0.00     0.198 A 
ATOM     84  F   UNL A   1      45.530  30.267  34.163  1.00  0.00    -0.203 F 
ATOM     85  F   UNL A   1      44.798  26.124  37.637  1.00  0.00    -0.200 F 
ATOM     86  C   UNL A   1      46.250  27.603  36.506  1.00  0.00     0.200 A 
ATOM     87  F   UNL A   1      47.662  29.112  35.365  1.00  0.00    -0.200 F 
ATOM     88  F   UNL A   1      47.309  27.053  37.116  1.00  0.00    -0.200 F 
ENDBRANCH  55  78
ENDBRANCH  29  30
ENDBRANCH  21  24
ENDBRANCH  19  20
ENDBRANCH  18  19
ENDBRANCH   1  18
TORSDOF 13
ENDMDL
MODEL 3
REMARK VINA RESULT:     -11.9      6.819     11.839
REMARK SMILES O=C(/C=C\c1ccc([N+](=O)[O-])cc1)NCCCCNC(=O)c1ccc(-c2c3nc(c(-c4c(F)c(F)c(F)c(F)c4F)c4ccc([nH]4)c(-c4c(F)c(F)c(F)c(F)c4F)c4nc(c(-c5c(F)c(F)c(F)c(F)c5F)c5ccc2[nH]5)C=C4)C=C3)cc1
REMARK SMILES IDX 16 1 15 2 14 3 1 4 2 5 3 7 4 8 5 9 6 10 13 11 7 12 12 13
REMARK SMILES IDX 8 14 9 15 10 16 11 17 17 18 18 19 19 20 20 21 21 23 22 24
REMARK SMILES IDX 23 25 84 26 24 27 83 28 25 29 26 30 27 31 77 32 28 33 82 34
REMARK SMILES IDX 76 35 78 36 29 37 81 38 75 39 74 40 30 42 62 43 42 44 61 45
REMARK SMILES IDX 43 46 46 47 60 48 79 49 44 50 45 51 59 53 80 54 47 55 31 56
REMARK SMILES IDX 32 57 40 58 33 59 34 60 38 61 41 62 35 63 36 64 39 65 37 66
REMARK SMILES IDX 63 67 64 68 72 69 65 70 66 71 70 72 73 73 67 74 68 75 71 76
REMARK SMILES IDX 69 77 48 78 49 79 57 80 50 81 51 82 55 83 58 84 52 85 53 86
REMARK SMILES IDX 56 87 54 88
REMARK H PARENT 14 6 19 22 78 41 46 52
REMARK Flexibility Score: inf
ROOT
ATOM      1  C   UNL A   1      37.454  20.771  24.628  1.00  0.00     0.023 C 
ENDROOT
BRANCH   1   2
ATOM      2  C   UNL A   1      37.461  21.902  25.658  1.00  0.00     0.116 C 
BRANCH   2   3
ATOM      3  N   UNL A   1      36.163  22.166  26.249  1.00  0.00    -0.353 N 
ATOM      4  O   UNL A   1      35.668  23.977  24.932  1.00  0.00    -0.270 OA
ATOM      5  C   UNL A   1      35.356  23.183  25.812  1.00  0.00     0.243 C 
ATOM      6  H   UNL A   1      35.852  21.596  26.990  1.00  0.00     0.163 HD
BRANCH   5   7
ATOM      7  C   UNL A   1      33.979  23.229  26.376  1.00  0.00     0.072 C 
ATOM      8  C   UNL A   1      32.916  22.435  26.175  1.00  0.00     0.014 C 
BRANCH   8   9
ATOM      9  C   UNL A   1      32.835  21.243  25.331  1.00  0.00    -0.025 A 
ATOM     10  C   UNL A   1      32.264  21.339  24.056  1.00  0.00     0.015 A 
ATOM     11  C   UNL A   1      33.306  20.006  25.788  1.00  0.00     0.015 A 
ATOM     12  C   UNL A   1      32.215  20.222  23.217  1.00  0.00     0.086 A 
ATOM     13  C   UNL A   1      33.256  18.881  24.958  1.00  0.00     0.086 A 
ATOM     14  C   UNL A   1      32.728  18.999  23.667  1.00  0.00     0.269 A 
BRANCH  14  15
ATOM     15  N   UNL A   1      32.758  17.845  22.763  1.00  0.00     0.062 N 
ATOM     16  O   UNL A   1      32.254  17.985  21.641  1.00  0.00    -0.258 OA
ATOM     17  O   UNL A   1      33.324  16.819  23.164  1.00  0.00    -0.258 OA
ENDBRANCH  14  15
ENDBRANCH   8   9
ENDBRANCH   5   7
ENDBRANCH   2   3
ENDBRANCH   1   2
BRANCH   1  18
ATOM     18  C   UNL A   1      38.326  19.559  24.964  1.00  0.00     0.023 C 
BRANCH  18  19
ATOM     19  C   UNL A   1      39.350  19.749  26.080  1.00  0.00     0.116 C 
BRANCH  19  20
ATOM     20  N   UNL A   1      40.482  18.848  25.961  1.00  0.00    -0.352 N 
ATOM     21  C   UNL A   1      41.830  19.123  25.991  1.00  0.00     0.251 C 
ATOM     22  H   UNL A   1      40.251  17.899  25.842  1.00  0.00     0.163 HD
ATOM     23  O   UNL A   1      42.633  18.239  25.708  1.00  0.00    -0.269 OA
BRANCH  21  24
ATOM     24  C   UNL A   1      42.330  20.476  26.340  1.00  0.00     0.039 A 
ATOM     25  C   UNL A   1      42.813  21.296  25.313  1.00  0.00     0.014 A 
ATOM     26  C   UNL A   1      42.379  20.928  27.661  1.00  0.00     0.014 A 
ATOM     27  C   UNL A   1      43.286  22.581  25.601  1.00  0.00     0.010 A 
ATOM     28  C   UNL A   1      42.802  22.231  27.941  1.00  0.00     0.010 A 
ATOM     29  C   UNL A   1      43.256  23.075  26.916  1.00  0.00    -0.014 A 
BRANCH  29  30
ATOM     30  C   UNL A   1      43.689  24.468  27.224  1.00  0.00     0.031 A 
ATOM     31  C   UNL A   1      42.706  25.483  27.744  1.00  0.00     0.074 A 
ATOM     32  C   UNL A   1      44.963  24.844  26.994  1.00  0.00     0.049 A 
ATOM     33  N   UNL A   1      42.888  26.753  28.016  1.00  0.00    -0.248 NA
ATOM     34  C   UNL A   1      41.331  25.014  27.972  1.00  0.00     0.031 C 
ATOM     35  C   UNL A   1      46.010  23.983  26.446  1.00  0.00     0.029 A 
ATOM     36  N   UNL A   1      45.591  26.052  27.183  1.00  0.00    -0.354 N 
ATOM     37  C   UNL A   1      41.651  27.235  28.426  1.00  0.00     0.074 A 
ATOM     38  C   UNL A   1      40.718  26.134  28.329  1.00  0.00     0.031 C 
ATOM     39  C   UNL A   1      47.155  24.681  26.362  1.00  0.00     0.029 A 
ATOM     40  C   UNL A   1      46.914  26.050  26.812  1.00  0.00     0.049 A 
ATOM     41  H   UNL A   1      45.136  26.844  27.549  1.00  0.00     0.167 HD
ATOM     42  C   UNL A   1      41.326  28.476  28.862  1.00  0.00     0.037 A 
ATOM     43  C   UNL A   1      47.830  27.038  26.820  1.00  0.00     0.037 A 
ATOM     44  C   UNL A   1      42.254  29.572  28.987  1.00  0.00     0.049 A 
ATOM     45  C   UNL A   1      47.444  28.407  27.311  1.00  0.00     0.074 A 
ATOM     46  C   UNL A   1      42.023  30.847  29.472  1.00  0.00     0.029 A 
ATOM     47  N   UNL A   1      43.590  29.521  28.622  1.00  0.00    -0.354 N 
ATOM     48  N   UNL A   1      46.286  28.833  27.753  1.00  0.00    -0.248 NA
ATOM     49  C   UNL A   1      48.497  29.434  27.309  1.00  0.00     0.031 C 
ATOM     50  C   UNL A   1      43.209  31.581  29.366  1.00  0.00     0.029 A 
ATOM     51  C   UNL A   1      44.191  30.749  28.856  1.00  0.00     0.049 A 
ATOM     52  H   UNL A   1      44.046  28.730  28.251  1.00  0.00     0.167 HD
ATOM     53  C   UNL A   1      46.476  30.163  28.103  1.00  0.00     0.074 A 
ATOM     54  C   UNL A   1      47.864  30.472  27.837  1.00  0.00     0.031 C 
ATOM     55  C   UNL A   1      45.576  31.048  28.598  1.00  0.00     0.037 A 
BRANCH  42  56
ATOM     56  C   UNL A   1      39.896  28.722  29.247  1.00  0.00     0.064 A 
ATOM     57  C   UNL A   1      39.444  28.520  30.560  1.00  0.00     0.173 A 
ATOM     58  C   UNL A   1      38.977  29.209  28.304  1.00  0.00     0.173 A 
ATOM     59  F   UNL A   1      40.281  28.047  31.496  1.00  0.00    -0.203 F 
ATOM     60  C   UNL A   1      38.118  28.767  30.907  1.00  0.00     0.198 A 
ATOM     61  C   UNL A   1      37.660  29.482  28.663  1.00  0.00     0.198 A 
ATOM     62  F   UNL A   1      39.359  29.431  27.038  1.00  0.00    -0.203 F 
ATOM     63  F   UNL A   1      37.698  28.521  32.156  1.00  0.00    -0.200 F 
ATOM     64  C   UNL A   1      37.229  29.254  29.961  1.00  0.00     0.200 A 
ATOM     65  F   UNL A   1      36.806  29.968  27.751  1.00  0.00    -0.200 F 
ATOM     66  F   UNL A   1      35.956  29.498  30.300  1.00  0.00    -0.200 F 
ENDBRANCH  42  56
BRANCH  43  67
ATOM     67  C   UNL A   1      49.216  26.766  26.361  1.00  0.00     0.064 A 
ATOM     68  C   UNL A   1      50.185  26.281  27.251  1.00  0.00     0.173 A 
ATOM     69  C   UNL A   1      49.603  26.993  25.033  1.00  0.00     0.173 A 
ATOM     70  F   UNL A   1      49.869  26.074  28.538  1.00  0.00    -0.203 F 
ATOM     71  C   UNL A   1      51.494  26.051  26.833  1.00  0.00     0.198 A 
ATOM     72  C   UNL A   1      50.905  26.736  24.610  1.00  0.00     0.198 A 
ATOM     73  F   UNL A   1      48.713  27.458  24.143  1.00  0.00    -0.203 F 
ATOM     74  F   UNL A   1      52.412  25.634  27.715  1.00  0.00    -0.200 F 
ATOM     75  C   UNL A   1      51.852  26.272  25.512  1.00  0.00     0.200 A 
ATOM     76  F   UNL A   1      51.245  26.943  23.330  1.00  0.00    -0.200 F 
ATOM     77  F   UNL A   1      53.111  26.051  25.110  1.00  0.00    -0.200 F 
ENDBRANCH  43  67
BRANCH  55  78
ATOM     78  C   UNL A   1      46.070  32.428  28.919  1.00  0.00     0.064 A 
ATOM     79  C   UNL A   1      46.015  33.467  27.978  1.00  0.00     0.173 A 
ATOM     80  C   UNL A   1      46.567  32.724  30.197  1.00  0.00     0.173 A 
ATOM     81  F   UNL A   1      45.562  33.231  26.738  1.00  0.00    -0.203 F 
ATOM     82  C   UNL A   1      46.462  34.746  28.299  1.00  0.00     0.198 A 
ATOM     83  C   UNL A   1      46.988  34.012  30.522  1.00  0.00     0.198 A 
ATOM     84  F   UNL A   1      46.636  31.768  31.135  1.00  0.00    -0.203 F 
ATOM     85  F   UNL A   1      46.440  35.713  27.371  1.00  0.00    -0.200 F 
ATOM     86  C   UNL A   1      46.940  35.019  29.571  1.00  0.00     0.200 A 
ATOM     87  F   UNL A   1      47.440  34.276  31.756  1.00  0.00    -0.200 F 
ATOM     88  F   UNL A   1      47.363  36.253  29.880  1.00  0.00    -0.200 F 
ENDBRANCH  55  78
ENDBRANCH  29  30
ENDBRANCH  21  24
ENDBRANCH  19  20
ENDBRANCH  18  19
ENDBRANCH   1  18
TORSDOF 13
ENDMDL
