MODEL 1
REMARK VINA RESULT:     -13.3      0.000      0.000
REMARK SMILES Cc1ccc(Nc2nc(C(=O)NCCCCNC(=O)c3ccc(-c4c5nc(c(-c6c(F)c(F)c(F)c(F)c6F)c6ccc([nH]6)c(-c6c(F)c(F)c(F)c(F)c6F)c6nc(c(-c7c(F)c(F)c(F)c(F)c7F)c7ccc4[nH]7)C=C6)C=C5)cc3)cs2)cc1
REMARK SMILES IDX 14 1 13 2 12 3 10 4 11 5 9 7 7 8 8 9 84 10 83 11 6 12 5 14
REMARK SMILES IDX 1 15 2 16 3 17 86 18 4 19 85 20 15 21 16 22 17 23 18 24
REMARK SMILES IDX 19 26 20 27 21 28 82 29 22 30 81 31 23 32 24 33 25 34 75 35
REMARK SMILES IDX 26 36 80 37 74 38 76 39 27 40 79 41 73 42 72 43 28 45 60 46
REMARK SMILES IDX 40 47 59 48 41 49 44 50 58 51 77 52 42 53 43 54 57 56 78 57
REMARK SMILES IDX 45 58 29 59 30 60 38 61 31 62 32 63 36 64 39 65 33 66 34 67
REMARK SMILES IDX 37 68 35 69 61 70 62 71 70 72 63 73 64 74 68 75 71 76 65 77
REMARK SMILES IDX 66 78 69 79 67 80 46 81 47 82 55 83 48 84 49 85 53 86 56 87
REMARK SMILES IDX 50 88 51 89 54 90 52 91
REMARK H PARENT 12 6 6 13 17 25 76 44 44 55
REMARK Flexibility Score: inf
ROOT
ATOM      1  C   UNL A   1      31.807  30.434  25.907  1.00  0.00     0.023 C 
ENDROOT
BRANCH   1   2
ATOM      2  C   UNL A   1      32.114  29.363  24.850  1.00  0.00     0.116 C 
BRANCH   2   3
ATOM      3  N   UNL A   1      31.357  29.546  23.620  1.00  0.00    -0.351 N 
ATOM      4  C   UNL A   1      30.847  28.626  22.731  1.00  0.00     0.270 C 
ATOM      5  O   UNL A   1      30.279  29.060  21.728  1.00  0.00    -0.267 OA
ATOM      6  H   UNL A   1      31.178  30.485  23.385  1.00  0.00     0.163 HD
BRANCH   4   7
ATOM      7  C   UNL A   1      30.999  27.184  22.962  1.00  0.00     0.141 A 
ATOM      8  C   UNL A   1      32.012  25.189  22.903  1.00  0.00     0.187 A 
ATOM      9  N   UNL A   1      32.133  26.463  22.611  1.00  0.00    -0.215 NA
ATOM     10  S   UNL A   1      30.490  24.766  23.594  1.00  0.00    -0.104 S 
ATOM     11  C   UNL A   1      30.029  26.414  23.582  1.00  0.00     0.102 A 
BRANCH   8  12
ATOM     12  N   UNL A   1      32.947  24.238  22.687  1.00  0.00    -0.332 N 
ATOM     13  H   UNL A   1      32.800  23.643  21.917  1.00  0.00     0.169 HD
BRANCH  12  14
ATOM     14  C   UNL A   1      34.109  24.009  23.450  1.00  0.00     0.040 A 
ATOM     15  C   UNL A   1      37.711  23.638  25.822  1.00  0.00     0.044 C 
ATOM     16  C   UNL A   1      36.452  23.735  25.014  1.00  0.00    -0.051 A 
ATOM     17  C   UNL A   1      36.387  23.190  23.729  1.00  0.00     0.005 A 
ATOM     18  C   UNL A   1      35.311  24.338  25.546  1.00  0.00     0.005 A 
ATOM     19  C   UNL A   1      35.224  23.317  22.962  1.00  0.00     0.026 A 
ATOM     20  C   UNL A   1      34.154  24.476  24.770  1.00  0.00     0.026 A 
ENDBRANCH  12  14
ENDBRANCH   8  12
ENDBRANCH   4   7
ENDBRANCH   2   3
ENDBRANCH   1   2
BRANCH   1  21
ATOM     21  C   UNL A   1      32.507  30.230  27.257  1.00  0.00     0.023 C 
BRANCH  21  22
ATOM     22  C   UNL A   1      34.023  30.388  27.219  1.00  0.00     0.116 C 
BRANCH  22  23
ATOM     23  N   UNL A   1      34.588  31.316  28.189  1.00  0.00    -0.352 N 
ATOM     24  C   UNL A   1      35.673  31.157  29.045  1.00  0.00     0.251 C 
ATOM     25  H   UNL A   1      34.132  32.186  28.250  1.00  0.00     0.163 HD
ATOM     26  O   UNL A   1      35.928  32.013  29.870  1.00  0.00    -0.269 OA
BRANCH  24  27
ATOM     27  C   UNL A   1      36.601  30.004  28.864  1.00  0.00     0.039 A 
ATOM     28  C   UNL A   1      36.816  29.146  29.952  1.00  0.00     0.014 A 
ATOM     29  C   UNL A   1      37.383  29.875  27.723  1.00  0.00     0.014 A 
ATOM     30  C   UNL A   1      37.965  28.354  29.988  1.00  0.00     0.010 A 
ATOM     31  C   UNL A   1      38.581  29.193  27.807  1.00  0.00     0.010 A 
ATOM     32  C   UNL A   1      38.903  28.480  28.964  1.00  0.00    -0.014 A 
BRANCH  32  33
ATOM     33  C   UNL A   1      40.289  28.040  29.073  1.00  0.00     0.031 A 
ATOM     34  C   UNL A   1      40.740  26.752  28.503  1.00  0.00     0.074 A 
ATOM     35  C   UNL A   1      41.213  28.893  29.572  1.00  0.00     0.049 A 
ATOM     36  N   UNL A   1      41.785  26.116  28.919  1.00  0.00    -0.248 NA
ATOM     37  C   UNL A   1      40.043  26.063  27.421  1.00  0.00     0.031 C 
ATOM     38  C   UNL A   1      42.665  28.796  29.439  1.00  0.00     0.029 A 
ATOM     39  N   UNL A   1      41.017  29.959  30.466  1.00  0.00    -0.354 N 
ATOM     40  C   UNL A   1      42.056  25.124  28.009  1.00  0.00     0.074 A 
ATOM     41  C   UNL A   1      40.907  25.084  27.133  1.00  0.00     0.031 C 
ATOM     42  C   UNL A   1      43.242  29.529  30.402  1.00  0.00     0.029 A 
ATOM     43  C   UNL A   1      42.180  30.000  31.270  1.00  0.00     0.049 A 
ATOM     44  H   UNL A   1      40.235  30.554  30.521  1.00  0.00     0.167 HD
ATOM     45  C   UNL A   1      43.285  24.536  27.991  1.00  0.00     0.037 A 
ATOM     46  C   UNL A   1      42.136  29.810  32.620  1.00  0.00     0.037 A 
ATOM     47  C   UNL A   1      44.176  25.108  28.991  1.00  0.00     0.049 A 
ATOM     48  C   UNL A   1      43.022  28.695  33.112  1.00  0.00     0.074 A 
ATOM     49  C   UNL A   1      45.154  26.086  28.907  1.00  0.00     0.029 A 
ATOM     50  N   UNL A   1      43.923  24.916  30.343  1.00  0.00    -0.354 N 
ATOM     51  N   UNL A   1      43.409  27.702  32.364  1.00  0.00    -0.248 NA
ATOM     52  C   UNL A   1      43.518  28.594  34.481  1.00  0.00     0.031 C 
ATOM     53  C   UNL A   1      45.501  26.477  30.219  1.00  0.00     0.029 A 
ATOM     54  C   UNL A   1      44.733  25.739  31.100  1.00  0.00     0.049 A 
ATOM     55  H   UNL A   1      43.263  24.284  30.709  1.00  0.00     0.167 HD
ATOM     56  C   UNL A   1      44.179  26.843  33.109  1.00  0.00     0.074 A 
ATOM     57  C   UNL A   1      44.224  27.450  34.425  1.00  0.00     0.031 C 
ATOM     58  C   UNL A   1      44.705  25.710  32.553  1.00  0.00     0.037 A 
BRANCH  45  59
ATOM     59  C   UNL A   1      43.756  23.660  26.858  1.00  0.00     0.064 A 
ATOM     60  C   UNL A   1      43.345  22.314  26.748  1.00  0.00     0.173 A 
ATOM     61  C   UNL A   1      44.648  24.096  25.862  1.00  0.00     0.173 A 
ATOM     62  F   UNL A   1      42.432  21.786  27.572  1.00  0.00    -0.203 F 
ATOM     63  C   UNL A   1      43.873  21.446  25.790  1.00  0.00     0.198 A 
ATOM     64  C   UNL A   1      45.213  23.216  24.933  1.00  0.00     0.198 A 
ATOM     65  F   UNL A   1      44.979  25.391  25.754  1.00  0.00    -0.203 F 
ATOM     66  F   UNL A   1      43.456  20.173  25.745  1.00  0.00    -0.200 F 
ATOM     67  C   UNL A   1      44.834  21.888  24.905  1.00  0.00     0.200 A 
ATOM     68  F   UNL A   1      46.136  23.663  24.070  1.00  0.00    -0.200 F 
ATOM     69  F   UNL A   1      45.379  21.043  24.020  1.00  0.00    -0.200 F 
ENDBRANCH  45  59
BRANCH  46  70
ATOM     70  C   UNL A   1      40.834  30.189  33.222  1.00  0.00     0.064 A 
ATOM     71  C   UNL A   1      40.568  31.557  33.409  1.00  0.00     0.173 A 
ATOM     72  C   UNL A   1      39.749  29.307  33.235  1.00  0.00     0.173 A 
ATOM     73  F   UNL A   1      41.581  32.437  33.388  1.00  0.00    -0.203 F 
ATOM     74  C   UNL A   1      39.265  32.039  33.489  1.00  0.00     0.198 A 
ATOM     75  C   UNL A   1      38.442  29.792  33.325  1.00  0.00     0.198 A 
ATOM     76  F   UNL A   1      39.938  27.995  33.042  1.00  0.00    -0.203 F 
ATOM     77  F   UNL A   1      39.041  33.359  33.557  1.00  0.00    -0.200 F 
ATOM     78  C   UNL A   1      38.201  31.156  33.417  1.00  0.00     0.200 A 
ATOM     79  F   UNL A   1      37.409  28.943  33.223  1.00  0.00    -0.200 F 
ATOM     80  F   UNL A   1      36.943  31.620  33.393  1.00  0.00    -0.200 F 
ENDBRANCH  46  70
BRANCH  58  81
ATOM     81  C   UNL A   1      45.351  24.540  33.264  1.00  0.00     0.064 A 
ATOM     82  C   UNL A   1      46.649  24.551  33.799  1.00  0.00     0.173 A 
ATOM     83  C   UNL A   1      44.593  23.375  33.560  1.00  0.00     0.173 A 
ATOM     84  F   UNL A   1      47.439  25.628  33.700  1.00  0.00    -0.203 F 
ATOM     85  C   UNL A   1      47.167  23.468  34.518  1.00  0.00     0.198 A 
ATOM     86  C   UNL A   1      45.092  22.322  34.327  1.00  0.00     0.198 A 
ATOM     87  F   UNL A   1      43.327  23.230  33.143  1.00  0.00    -0.203 F 
ATOM     88  F   UNL A   1      48.427  23.519  34.972  1.00  0.00    -0.200 F 
ATOM     89  C   UNL A   1      46.386  22.362  34.793  1.00  0.00     0.200 A 
ATOM     90  F   UNL A   1      44.299  21.284  34.626  1.00  0.00    -0.200 F 
ATOM     91  F   UNL A   1      46.871  21.350  35.525  1.00  0.00    -0.200 F 
ENDBRANCH  58  81
ENDBRANCH  32  33
ENDBRANCH  24  27
ENDBRANCH  22  23
ENDBRANCH  21  22
ENDBRANCH   1  21
TORSDOF 13
ENDMDL
MODEL 2
REMARK VINA RESULT:     -13.2      0.284      1.721
REMARK SMILES Cc1ccc(Nc2nc(C(=O)NCCCCNC(=O)c3ccc(-c4c5nc(c(-c6c(F)c(F)c(F)c(F)c6F)c6ccc([nH]6)c(-c6c(F)c(F)c(F)c(F)c6F)c6nc(c(-c7c(F)c(F)c(F)c(F)c7F)c7ccc4[nH]7)C=C6)C=C5)cc3)cs2)cc1
REMARK SMILES IDX 14 1 13 2 12 3 10 4 11 5 9 7 7 8 8 9 84 10 83 11 6 12 5 14
REMARK SMILES IDX 1 15 2 16 3 17 86 18 4 19 85 20 15 21 16 22 17 23 18 24
REMARK SMILES IDX 19 26 20 27 21 28 82 29 22 30 81 31 23 32 24 33 25 34 75 35
REMARK SMILES IDX 26 36 80 37 74 38 76 39 27 40 79 41 73 42 72 43 28 45 60 46
REMARK SMILES IDX 40 47 59 48 41 49 44 50 58 51 77 52 42 53 43 54 57 56 78 57
REMARK SMILES IDX 45 58 29 59 30 60 38 61 31 62 32 63 36 64 39 65 33 66 34 67
REMARK SMILES IDX 37 68 35 69 61 70 62 71 70 72 63 73 64 74 68 75 71 76 65 77
REMARK SMILES IDX 66 78 69 79 67 80 46 81 47 82 55 83 48 84 49 85 53 86 56 87
REMARK SMILES IDX 50 88 51 89 54 90 52 91
REMARK H PARENT 12 6 6 13 17 25 76 44 44 55
REMARK Flexibility Score: inf
ROOT
ATOM      1  C   UNL A   1      31.789  30.446  25.902  1.00  0.00     0.023 C 
ENDROOT
BRANCH   1   2
ATOM      2  C   UNL A   1      32.146  29.342  24.896  1.00  0.00     0.116 C 
BRANCH   2   3
ATOM      3  N   UNL A   1      31.316  29.371  23.701  1.00  0.00    -0.351 N 
ATOM      4  C   UNL A   1      30.826  28.348  22.920  1.00  0.00     0.270 C 
ATOM      5  O   UNL A   1      30.177  28.659  21.920  1.00  0.00    -0.267 OA
ATOM      6  H   UNL A   1      31.061  30.273  23.402  1.00  0.00     0.163 HD
BRANCH   4   7
ATOM      7  C   UNL A   1      31.088  26.943  23.257  1.00  0.00     0.141 A 
ATOM      8  C   UNL A   1      32.211  25.008  23.266  1.00  0.00     0.187 A 
ATOM      9  N   UNL A   1      32.224  26.254  22.854  1.00  0.00    -0.215 NA
ATOM     10  S   UNL A   1      30.794  24.571  24.144  1.00  0.00    -0.104 S 
ATOM     11  C   UNL A   1      30.233  26.184  24.038  1.00  0.00     0.102 A 
BRANCH   8  12
ATOM     12  N   UNL A   1      33.178  24.092  23.037  1.00  0.00    -0.332 N 
ATOM     13  H   UNL A   1      33.028  23.471  22.288  1.00  0.00     0.169 HD
BRANCH  12  14
ATOM     14  C   UNL A   1      34.377  23.932  23.759  1.00  0.00     0.040 A 
ATOM     15  C   UNL A   1      38.024  23.110  25.941  1.00  0.00     0.044 C 
ATOM     16  C   UNL A   1      36.775  23.426  25.175  1.00  0.00    -0.051 A 
ATOM     17  C   UNL A   1      35.729  24.129  25.777  1.00  0.00     0.005 A 
ATOM     18  C   UNL A   1      36.651  23.057  23.834  1.00  0.00     0.005 A 
ATOM     19  C   UNL A   1      34.548  24.388  25.073  1.00  0.00     0.026 A 
ATOM     20  C   UNL A   1      35.463  23.305  23.137  1.00  0.00     0.026 A 
ENDBRANCH  12  14
ENDBRANCH   8  12
ENDBRANCH   4   7
ENDBRANCH   2   3
ENDBRANCH   1   2
BRANCH   1  21
ATOM     21  C   UNL A   1      32.499  30.341  27.257  1.00  0.00     0.023 C 
BRANCH  21  22
ATOM     22  C   UNL A   1      34.019  30.441  27.190  1.00  0.00     0.116 C 
BRANCH  22  23
ATOM     23  N   UNL A   1      34.630  31.426  28.073  1.00  0.00    -0.352 N 
ATOM     24  C   UNL A   1      35.750  31.313  28.890  1.00  0.00     0.251 C 
ATOM     25  H   UNL A   1      34.182  32.301  28.096  1.00  0.00     0.163 HD
ATOM     26  O   UNL A   1      36.044  32.219  29.647  1.00  0.00    -0.269 OA
BRANCH  24  27
ATOM     27  C   UNL A   1      36.663  30.144  28.745  1.00  0.00     0.039 A 
ATOM     28  C   UNL A   1      36.817  29.280  29.839  1.00  0.00     0.014 A 
ATOM     29  C   UNL A   1      37.490  30.003  27.637  1.00  0.00     0.014 A 
ATOM     30  C   UNL A   1      37.949  28.467  29.921  1.00  0.00     0.010 A 
ATOM     31  C   UNL A   1      38.670  29.298  27.769  1.00  0.00     0.010 A 
ATOM     32  C   UNL A   1      38.931  28.578  28.937  1.00  0.00    -0.014 A 
BRANCH  32  33
ATOM     33  C   UNL A   1      40.303  28.112  29.103  1.00  0.00     0.031 A 
ATOM     34  C   UNL A   1      40.753  26.816  28.551  1.00  0.00     0.074 A 
ATOM     35  C   UNL A   1      41.221  28.948  29.639  1.00  0.00     0.049 A 
ATOM     36  N   UNL A   1      41.768  26.161  29.010  1.00  0.00    -0.248 NA
ATOM     37  C   UNL A   1      40.088  26.139  27.443  1.00  0.00     0.031 C 
ATOM     38  C   UNL A   1      42.675  28.824  29.565  1.00  0.00     0.029 A 
ATOM     39  N   UNL A   1      41.009  30.019  30.523  1.00  0.00    -0.354 N 
ATOM     40  C   UNL A   1      42.058  25.164  28.112  1.00  0.00     0.074 A 
ATOM     41  C   UNL A   1      40.944  25.144  27.190  1.00  0.00     0.031 C 
ATOM     42  C   UNL A   1      43.226  29.548  30.551  1.00  0.00     0.029 A 
ATOM     43  C   UNL A   1      42.139  30.039  31.375  1.00  0.00     0.049 A 
ATOM     44  H   UNL A   1      40.236  30.629  30.547  1.00  0.00     0.167 HD
ATOM     45  C   UNL A   1      43.275  24.553  28.144  1.00  0.00     0.037 A 
ATOM     46  C   UNL A   1      42.036  29.851  32.721  1.00  0.00     0.037 A 
ATOM     47  C   UNL A   1      44.135  25.109  29.179  1.00  0.00     0.049 A 
ATOM     48  C   UNL A   1      42.880  28.721  33.250  1.00  0.00     0.074 A 
ATOM     49  C   UNL A   1      45.133  26.068  29.136  1.00  0.00     0.029 A 
ATOM     50  N   UNL A   1      43.824  24.923  30.521  1.00  0.00    -0.354 N 
ATOM     51  N   UNL A   1      43.280  27.720  32.519  1.00  0.00    -0.248 NA
ATOM     52  C   UNL A   1      43.319  28.612  34.638  1.00  0.00     0.031 C 
ATOM     53  C   UNL A   1      45.434  26.455  30.460  1.00  0.00     0.029 A 
ATOM     54  C   UNL A   1      44.617  25.732  31.310  1.00  0.00     0.049 A 
ATOM     55  H   UNL A   1      43.137  24.304  30.859  1.00  0.00     0.167 HD
ATOM     56  C   UNL A   1      44.002  26.847  33.294  1.00  0.00     0.074 A 
ATOM     57  C   UNL A   1      44.004  27.455  34.610  1.00  0.00     0.031 C 
ATOM     58  C   UNL A   1      44.529  25.704  32.760  1.00  0.00     0.037 A 
BRANCH  45  59
ATOM     59  C   UNL A   1      43.775  23.667  27.031  1.00  0.00     0.064 A 
ATOM     60  C   UNL A   1      44.663  24.152  26.046  1.00  0.00     0.173 A 
ATOM     61  C   UNL A   1      43.380  22.327  26.872  1.00  0.00     0.173 A 
ATOM     62  F   UNL A   1      45.193  25.378  26.117  1.00  0.00    -0.203 F 
ATOM     63  C   UNL A   1      45.031  23.394  24.933  1.00  0.00     0.198 A 
ATOM     64  C   UNL A   1      43.709  21.585  25.733  1.00  0.00     0.198 A 
ATOM     65  F   UNL A   1      42.679  21.698  27.828  1.00  0.00    -0.203 F 
ATOM     66  F   UNL A   1      45.865  23.914  24.021  1.00  0.00    -0.200 F 
ATOM     67  C   UNL A   1      44.525  22.123  24.758  1.00  0.00     0.200 A 
ATOM     68  F   UNL A   1      43.220  20.345  25.584  1.00  0.00    -0.200 F 
ATOM     69  F   UNL A   1      44.836  21.415  23.664  1.00  0.00    -0.200 F 
ENDBRANCH  45  59
BRANCH  46  70
ATOM     70  C   UNL A   1      40.718  30.255  33.270  1.00  0.00     0.064 A 
ATOM     71  C   UNL A   1      40.471  31.628  33.450  1.00  0.00     0.173 A 
ATOM     72  C   UNL A   1      39.616  29.395  33.235  1.00  0.00     0.173 A 
ATOM     73  F   UNL A   1      41.502  32.487  33.475  1.00  0.00    -0.203 F 
ATOM     74  C   UNL A   1      39.176  32.135  33.477  1.00  0.00     0.198 A 
ATOM     75  C   UNL A   1      38.316  29.906  33.272  1.00  0.00     0.198 A 
ATOM     76  F   UNL A   1      39.787  28.079  33.046  1.00  0.00    -0.203 F 
ATOM     77  F   UNL A   1      38.976  33.459  33.540  1.00  0.00    -0.200 F 
ATOM     78  C   UNL A   1      38.099  31.274  33.357  1.00  0.00     0.200 A 
ATOM     79  F   UNL A   1      37.272  29.078  33.124  1.00  0.00    -0.200 F 
ATOM     80  F   UNL A   1      36.852  31.763  33.283  1.00  0.00    -0.200 F 
ENDBRANCH  46  70
BRANCH  58  81
ATOM     81  C   UNL A   1      45.124  24.523  33.497  1.00  0.00     0.064 A 
ATOM     82  C   UNL A   1      44.432  23.337  33.791  1.00  0.00     0.173 A 
ATOM     83  C   UNL A   1      46.509  24.502  33.815  1.00  0.00     0.173 A 
ATOM     84  F   UNL A   1      43.151  23.169  33.442  1.00  0.00    -0.203 F 
ATOM     85  C   UNL A   1      45.056  22.244  34.403  1.00  0.00     0.198 A 
ATOM     86  C   UNL A   1      47.140  23.390  34.373  1.00  0.00     0.198 A 
ATOM     87  F   UNL A   1      47.309  25.549  33.567  1.00  0.00    -0.203 F 
ATOM     88  F   UNL A   1      44.336  21.152  34.696  1.00  0.00    -0.200 F 
ATOM     89  C   UNL A   1      46.409  22.265  34.682  1.00  0.00     0.200 A 
ATOM     90  F   UNL A   1      48.464  23.412  34.584  1.00  0.00    -0.200 F 
ATOM     91  F   UNL A   1      47.010  21.197  35.222  1.00  0.00    -0.200 F 
ENDBRANCH  58  81
ENDBRANCH  32  33
ENDBRANCH  24  27
ENDBRANCH  22  23
ENDBRANCH  21  22
ENDBRANCH   1  21
TORSDOF 13
ENDMDL
MODEL 3
REMARK VINA RESULT:     -13.2      4.142     10.217
REMARK SMILES Cc1ccc(Nc2nc(C(=O)NCCCCNC(=O)c3ccc(-c4c5nc(c(-c6c(F)c(F)c(F)c(F)c6F)c6ccc([nH]6)c(-c6c(F)c(F)c(F)c(F)c6F)c6nc(c(-c7c(F)c(F)c(F)c(F)c7F)c7ccc4[nH]7)C=C6)C=C5)cc3)cs2)cc1
REMARK SMILES IDX 14 1 13 2 12 3 10 4 11 5 9 7 7 8 8 9 84 10 83 11 6 12 5 14
REMARK SMILES IDX 1 15 2 16 3 17 86 18 4 19 85 20 15 21 16 22 17 23 18 24
REMARK SMILES IDX 19 26 20 27 21 28 82 29 22 30 81 31 23 32 24 33 25 34 75 35
REMARK SMILES IDX 26 36 80 37 74 38 76 39 27 40 79 41 73 42 72 43 28 45 60 46
REMARK SMILES IDX 40 47 59 48 41 49 44 50 58 51 77 52 42 53 43 54 57 56 78 57
REMARK SMILES IDX 45 58 29 59 30 60 38 61 31 62 32 63 36 64 39 65 33 66 34 67
REMARK SMILES IDX 37 68 35 69 61 70 62 71 70 72 63 73 64 74 68 75 71 76 65 77
REMARK SMILES IDX 66 78 69 79 67 80 46 81 47 82 55 83 48 84 49 85 53 86 56 87
REMARK SMILES IDX 50 88 51 89 54 90 52 91
REMARK H PARENT 12 6 6 13 17 25 76 44 44 55
REMARK Flexibility Score: inf
ROOT
ATOM      1  C   UNL A   1      36.362  21.471  24.742  1.00  0.00     0.023 C 
ENDROOT
BRANCH   1   2
ATOM      2  C   UNL A   1      35.349  21.428  25.895  1.00  0.00     0.116 C 
BRANCH   2   3
ATOM      3  N   UNL A   1      34.312  20.425  25.703  1.00  0.00    -0.351 N 
ATOM      4  C   UNL A   1      32.985  20.556  25.358  1.00  0.00     0.270 C 
ATOM      5  O   UNL A   1      32.307  19.528  25.309  1.00  0.00    -0.267 OA
ATOM      6  H   UNL A   1      34.609  19.497  25.841  1.00  0.00     0.163 HD
BRANCH   4   7
ATOM      7  C   UNL A   1      32.399  21.874  25.082  1.00  0.00     0.141 A 
ATOM      8  C   UNL A   1      31.585  23.902  25.563  1.00  0.00     0.187 A 
ATOM      9  N   UNL A   1      32.125  22.816  26.065  1.00  0.00    -0.215 NA
ATOM     10  S   UNL A   1      31.337  23.844  23.859  1.00  0.00    -0.104 S 
ATOM     11  C   UNL A   1      32.094  22.310  23.803  1.00  0.00     0.102 A 
BRANCH   8  12
ATOM     12  N   UNL A   1      31.213  24.994  26.267  1.00  0.00    -0.332 N 
ATOM     13  H   UNL A   1      30.322  24.967  26.684  1.00  0.00     0.169 HD
BRANCH  12  14
ATOM     14  C   UNL A   1      31.967  26.168  26.463  1.00  0.00     0.040 A 
ATOM     15  C   UNL A   1      34.064  29.932  26.873  1.00  0.00     0.044 C 
ATOM     16  C   UNL A   1      33.350  28.620  26.764  1.00  0.00    -0.051 A 
ATOM     17  C   UNL A   1      33.996  27.499  26.237  1.00  0.00     0.005 A 
ATOM     18  C   UNL A   1      32.038  28.484  27.222  1.00  0.00     0.005 A 
ATOM     19  C   UNL A   1      33.315  26.285  26.099  1.00  0.00     0.026 A 
ATOM     20  C   UNL A   1      31.355  27.272  27.070  1.00  0.00     0.026 A 
ENDBRANCH  12  14
ENDBRANCH   8  12
ENDBRANCH   4   7
ENDBRANCH   2   3
ENDBRANCH   1   2
BRANCH   1  21
ATOM     21  C   UNL A   1      37.832  21.359  25.168  1.00  0.00     0.023 C 
BRANCH  21  22
ATOM     22  C   UNL A   1      38.387  22.591  25.873  1.00  0.00     0.116 C 
BRANCH  22  23
ATOM     23  N   UNL A   1      39.811  22.560  26.178  1.00  0.00    -0.352 N 
ATOM     24  C   UNL A   1      40.669  23.597  26.527  1.00  0.00     0.251 C 
ATOM     25  H   UNL A   1      40.230  21.670  26.128  1.00  0.00     0.163 HD
ATOM     26  O   UNL A   1      41.862  23.390  26.637  1.00  0.00    -0.269 OA
BRANCH  24  27
ATOM     27  C   UNL A   1      40.113  24.931  26.896  1.00  0.00     0.039 A 
ATOM     28  C   UNL A   1      40.540  26.053  26.172  1.00  0.00     0.014 A 
ATOM     29  C   UNL A   1      39.342  25.104  28.039  1.00  0.00     0.014 A 
ATOM     30  C   UNL A   1      40.415  27.325  26.734  1.00  0.00     0.010 A 
ATOM     31  C   UNL A   1      39.328  26.339  28.655  1.00  0.00     0.010 A 
ATOM     32  C   UNL A   1      39.919  27.441  28.032  1.00  0.00    -0.014 A 
BRANCH  32  33
ATOM     33  C   UNL A   1      40.109  28.619  28.872  1.00  0.00     0.031 A 
ATOM     34  C   UNL A   1      39.041  29.627  29.046  1.00  0.00     0.074 A 
ATOM     35  C   UNL A   1      41.227  28.715  29.626  1.00  0.00     0.049 A 
ATOM     36  N   UNL A   1      39.267  30.852  29.390  1.00  0.00    -0.248 NA
ATOM     37  C   UNL A   1      37.625  29.344  28.833  1.00  0.00     0.031 C 
ATOM     38  C   UNL A   1      41.445  29.597  30.771  1.00  0.00     0.029 A 
ATOM     39  N   UNL A   1      42.484  28.131  29.395  1.00  0.00    -0.354 N 
ATOM     40  C   UNL A   1      38.060  31.420  29.715  1.00  0.00     0.074 A 
ATOM     41  C   UNL A   1      37.061  30.468  29.286  1.00  0.00     0.031 C 
ATOM     42  C   UNL A   1      42.764  29.736  30.971  1.00  0.00     0.029 A 
ATOM     43  C   UNL A   1      43.432  29.065  29.872  1.00  0.00     0.049 A 
ATOM     44  H   UNL A   1      42.667  27.254  28.987  1.00  0.00     0.167 HD
ATOM     45  C   UNL A   1      38.025  32.568  30.448  1.00  0.00     0.037 A 
ATOM     46  C   UNL A   1      44.355  29.645  29.053  1.00  0.00     0.037 A 
ATOM     47  C   UNL A   1      39.361  33.024  30.808  1.00  0.00     0.049 A 
ATOM     48  C   UNL A   1      44.323  31.151  29.059  1.00  0.00     0.074 A 
ATOM     49  C   UNL A   1      40.115  32.859  31.959  1.00  0.00     0.029 A 
ATOM     50  N   UNL A   1      40.232  33.482  29.827  1.00  0.00    -0.354 N 
ATOM     51  N   UNL A   1      43.271  31.846  29.387  1.00  0.00    -0.248 NA
ATOM     52  C   UNL A   1      45.454  31.991  28.676  1.00  0.00     0.031 C 
ATOM     53  C   UNL A   1      41.446  33.232  31.673  1.00  0.00     0.029 A 
ATOM     54  C   UNL A   1      41.503  33.621  30.347  1.00  0.00     0.049 A 
ATOM     55  H   UNL A   1      39.978  33.679  28.897  1.00  0.00     0.167 HD
ATOM     56  C   UNL A   1      43.551  33.184  29.265  1.00  0.00     0.074 A 
ATOM     57  C   UNL A   1      44.932  33.223  28.824  1.00  0.00     0.031 C 
ATOM     58  C   UNL A   1      42.604  34.129  29.545  1.00  0.00     0.037 A 
BRANCH  45  59
ATOM     59  C   UNL A   1      36.765  33.094  31.086  1.00  0.00     0.064 A 
ATOM     60  C   UNL A   1      35.817  33.833  30.345  1.00  0.00     0.173 A 
ATOM     61  C   UNL A   1      36.457  32.921  32.447  1.00  0.00     0.173 A 
ATOM     62  F   UNL A   1      35.932  34.001  29.023  1.00  0.00    -0.203 F 
ATOM     63  C   UNL A   1      34.713  34.444  30.942  1.00  0.00     0.198 A 
ATOM     64  C   UNL A   1      35.379  33.574  33.054  1.00  0.00     0.198 A 
ATOM     65  F   UNL A   1      37.184  32.100  33.218  1.00  0.00    -0.203 F 
ATOM     66  F   UNL A   1      33.855  35.147  30.190  1.00  0.00    -0.200 F 
ATOM     67  C   UNL A   1      34.514  34.345  32.303  1.00  0.00     0.200 A 
ATOM     68  F   UNL A   1      35.191  33.457  34.376  1.00  0.00    -0.200 F 
ATOM     69  F   UNL A   1      33.485  34.976  32.884  1.00  0.00    -0.200 F 
ENDBRANCH  45  59
BRANCH  46  70
ATOM     70  C   UNL A   1      44.703  28.808  27.879  1.00  0.00     0.064 A 
ATOM     71  C   UNL A   1      45.581  27.727  28.076  1.00  0.00     0.173 A 
ATOM     72  C   UNL A   1      43.914  28.803  26.724  1.00  0.00     0.173 A 
ATOM     73  F   UNL A   1      46.344  27.688  29.179  1.00  0.00    -0.203 F 
ATOM     74  C   UNL A   1      45.587  26.631  27.218  1.00  0.00     0.198 A 
ATOM     75  C   UNL A   1      43.929  27.706  25.859  1.00  0.00     0.198 A 
ATOM     76  F   UNL A   1      43.044  29.795  26.492  1.00  0.00    -0.203 F 
ATOM     77  F   UNL A   1      46.357  25.569  27.494  1.00  0.00    -0.200 F 
ATOM     78  C   UNL A   1      44.738  26.610  26.125  1.00  0.00     0.200 A 
ATOM     79  F   UNL A   1      43.085  27.668  24.818  1.00  0.00    -0.200 F 
ATOM     80  F   UNL A   1      44.667  25.517  25.351  1.00  0.00    -0.200 F 
ENDBRANCH  46  70
BRANCH  58  81
ATOM     81  C   UNL A   1      42.646  35.610  29.232  1.00  0.00     0.064 A 
ATOM     82  C   UNL A   1      43.400  36.554  29.947  1.00  0.00     0.173 A 
ATOM     83  C   UNL A   1      42.012  36.112  28.064  1.00  0.00     0.173 A 
ATOM     84  F   UNL A   1      44.144  36.201  31.003  1.00  0.00    -0.203 F 
ATOM     85  C   UNL A   1      43.466  37.898  29.564  1.00  0.00     0.198 A 
ATOM     86  C   UNL A   1      42.127  37.440  27.652  1.00  0.00     0.198 A 
ATOM     87  F   UNL A   1      41.281  35.325  27.261  1.00  0.00    -0.203 F 
ATOM     88  F   UNL A   1      44.169  38.763  30.308  1.00  0.00    -0.200 F 
ATOM     89  C   UNL A   1      42.843  38.337  28.412  1.00  0.00     0.200 A 
ATOM     90  F   UNL A   1      41.559  37.831  26.503  1.00  0.00    -0.200 F 
ATOM     91  F   UNL A   1      42.951  39.615  28.023  1.00  0.00    -0.200 F 
ENDBRANCH  58  81
ENDBRANCH  32  33
ENDBRANCH  24  27
ENDBRANCH  22  23
ENDBRANCH  21  22
ENDBRANCH   1  21
TORSDOF 13
ENDMDL
