MODEL 1
REMARK VINA RESULT:     -14.0      0.000      0.000
REMARK SMILES N#Cc1ccccc1C[C@@H](NC(=O)OCC1c2ccccc2-c2ccccc21)C(=O)NCCCCNC(=O)c1ccc(-c2c3nc(c(-c4c(F)c(F)c(F)c(F)c4F)c4ccc([nH]4)c(-c4c(F)c(F)c(F)c(F)c4F)c4nc(c(-c5c(F)c(F)c(F)c(F)c5F)c5ccc2[nH]5)C=C4)C=C3)cc1
REMARK SMILES IDX 32 1 31 2 29 3 30 4 10 6 9 7 8 8 3 9 4 10 5 11 7 12 6 13
REMARK SMILES IDX 2 14 1 15 11 16 12 17 13 19 14 20 15 21 16 22 17 23 28 24
REMARK SMILES IDX 18 25 22 26 23 27 27 28 19 29 21 30 24 31 26 32 20 33 25 34
REMARK SMILES IDX 33 35 34 36 35 37 36 38 37 39 38 41 39 42 40 43 101 44 41 45
REMARK SMILES IDX 100 46 42 47 43 48 44 49 94 50 45 51 99 52 93 53 95 54 46 55
REMARK SMILES IDX 98 56 92 57 91 58 47 60 79 61 59 62 78 63 60 64 63 65 77 66
REMARK SMILES IDX 96 67 61 68 62 69 76 71 97 72 64 73 48 74 49 75 57 76 50 77
REMARK SMILES IDX 51 78 55 79 58 80 52 81 53 82 56 83 54 84 80 85 81 86 89 87
REMARK SMILES IDX 82 88 83 89 87 90 90 91 84 92 85 93 88 94 86 95 65 96 66 97
REMARK SMILES IDX 74 98 67 99 68 100 72 101 75 102 69 103 70 104 73 105 71 106
REMARK H PARENT 31 5 11 18 36 40 95 59 63 70
REMARK Flexibility Score: inf
ROOT
ATOM      1  C   UNL A   1      32.145  29.515  27.160  1.00  0.00     0.116 C 
ENDROOT
BRANCH   1   2
ATOM      2  N   UNL A   1      33.124  28.545  26.692  1.00  0.00    -0.354 N 
ATOM      3  C   UNL A   1      32.926  27.321  26.109  1.00  0.00     0.243 C 
ATOM      4  O   UNL A   1      33.911  26.697  25.708  1.00  0.00    -0.273 OA
ATOM      5  H   UNL A   1      34.066  28.807  26.811  1.00  0.00     0.163 HD
BRANCH   3   6
ATOM      6  C   UNL A   1      31.503  26.730  26.015  1.00  0.00     0.179 C 
BRANCH   6   7
ATOM      7  C   UNL A   1      31.192  26.484  24.506  1.00  0.00     0.072 C 
BRANCH   7   8
ATOM      8  C   UNL A   1      30.319  27.493  23.782  1.00  0.00    -0.028 A 
ATOM      9  C   UNL A   1      30.865  28.589  23.085  1.00  0.00     0.055 A 
ATOM     10  C   UNL A   1      30.021  29.503  22.436  1.00  0.00     0.020 A 
ATOM     11  C   UNL A   1      28.638  29.328  22.454  1.00  0.00     0.001 A 
ATOM     12  C   UNL A   1      28.928  27.285  23.695  1.00  0.00     0.005 A 
ATOM     13  C   UNL A   1      28.093  28.209  23.069  1.00  0.00     0.000 A 
BRANCH   9  14
ATOM     14  C   UNL A   1      32.286  28.770  22.946  1.00  0.00     0.099 C 
ATOM     15  N   UNL A   1      33.433  28.912  22.872  1.00  0.00    -0.192 NA
ENDBRANCH   9  14
ENDBRANCH   7   8
ENDBRANCH   6   7
BRANCH   6  16
ATOM     16  N   UNL A   1      31.264  25.572  26.881  1.00  0.00    -0.309 N 
ATOM     17  C   UNL A   1      31.161  24.263  26.529  1.00  0.00     0.407 C 
ATOM     18  H   UNL A   1      31.165  25.767  27.842  1.00  0.00     0.167 HD
ATOM     19  O   UNL A   1      30.332  23.539  27.060  1.00  0.00    -0.225 OA
BRANCH  17  20
ATOM     20  O   UNL A   1      32.075  23.886  25.603  1.00  0.00    -0.449 OA
BRANCH  20  21
ATOM     21  C   UNL A   1      32.770  22.649  25.847  1.00  0.00     0.248 C 
BRANCH  21  22
ATOM     22  C   UNL A   1      33.559  22.183  24.610  1.00  0.00     0.088 C 
ATOM     23  C   UNL A   1      35.057  22.420  24.775  1.00  0.00    -0.029 A 
ATOM     24  C   UNL A   1      33.507  20.661  24.500  1.00  0.00    -0.029 A 
ATOM     25  C   UNL A   1      35.738  23.627  24.809  1.00  0.00     0.005 A 
ATOM     26  C   UNL A   1      35.723  21.195  24.974  1.00  0.00    -0.014 A 
ATOM     27  C   UNL A   1      34.789  20.116  24.740  1.00  0.00    -0.014 A 
ATOM     28  C   UNL A   1      32.419  19.851  24.209  1.00  0.00     0.005 A 
ATOM     29  C   UNL A   1      37.071  23.618  25.212  1.00  0.00     0.000 A 
ATOM     30  C   UNL A   1      37.055  21.183  25.351  1.00  0.00     0.009 A 
ATOM     31  C   UNL A   1      34.994  18.749  24.669  1.00  0.00     0.009 A 
ATOM     32  C   UNL A   1      32.629  18.472  24.143  1.00  0.00     0.000 A 
ATOM     33  C   UNL A   1      37.719  22.407  25.502  1.00  0.00     0.001 A 
ATOM     34  C   UNL A   1      33.904  17.926  24.365  1.00  0.00     0.001 A 
ENDBRANCH  21  22
ENDBRANCH  20  21
ENDBRANCH  17  20
ENDBRANCH   6  16
ENDBRANCH   3   6
ENDBRANCH   1   2
BRANCH   1  35
ATOM     35  C   UNL A   1      31.934  30.626  26.147  1.00  0.00     0.023 C 
BRANCH  35  36
ATOM     36  C   UNL A   1      31.553  31.950  26.800  1.00  0.00     0.023 C 
BRANCH  36  37
ATOM     37  C   UNL A   1      32.725  32.698  27.422  1.00  0.00     0.116 C 
BRANCH  37  38
ATOM     38  N   UNL A   1      32.438  34.110  27.636  1.00  0.00    -0.352 N 
ATOM     39  C   UNL A   1      32.981  34.956  28.571  1.00  0.00     0.251 C 
ATOM     40  H   UNL A   1      31.769  34.508  27.033  1.00  0.00     0.163 HD
ATOM     41  O   UNL A   1      32.504  36.066  28.772  1.00  0.00    -0.269 OA
BRANCH  39  42
ATOM     42  C   UNL A   1      34.138  34.487  29.356  1.00  0.00     0.039 A 
ATOM     43  C   UNL A   1      33.921  33.898  30.601  1.00  0.00     0.014 A 
ATOM     44  C   UNL A   1      35.427  34.572  28.821  1.00  0.00     0.014 A 
ATOM     45  C   UNL A   1      34.996  33.329  31.283  1.00  0.00     0.010 A 
ATOM     46  C   UNL A   1      36.476  33.918  29.455  1.00  0.00     0.010 A 
ATOM     47  C   UNL A   1      36.273  33.295  30.696  1.00  0.00    -0.014 A 
BRANCH  47  48
ATOM     48  C   UNL A   1      37.409  32.617  31.370  1.00  0.00     0.031 A 
ATOM     49  C   UNL A   1      38.083  31.446  30.712  1.00  0.00     0.074 A 
ATOM     50  C   UNL A   1      37.800  33.027  32.592  1.00  0.00     0.049 A 
ATOM     51  N   UNL A   1      39.059  30.696  31.157  1.00  0.00    -0.248 NA
ATOM     52  C   UNL A   1      37.577  31.046  29.389  1.00  0.00     0.031 C 
ATOM     53  C   UNL A   1      37.196  34.122  33.352  1.00  0.00     0.029 A 
ATOM     54  N   UNL A   1      38.799  32.565  33.414  1.00  0.00    -0.354 N 
ATOM     55  C   UNL A   1      39.278  29.739  30.175  1.00  0.00     0.074 A 
ATOM     56  C   UNL A   1      38.288  29.957  29.143  1.00  0.00     0.031 C 
ATOM     57  C   UNL A   1      37.857  34.271  34.510  1.00  0.00     0.029 A 
ATOM     58  C   UNL A   1      38.897  33.250  34.600  1.00  0.00     0.049 A 
ATOM     59  H   UNL A   1      39.388  31.814  33.176  1.00  0.00     0.167 HD
ATOM     60  C   UNL A   1      40.235  28.784  30.124  1.00  0.00     0.037 A 
ATOM     61  C   UNL A   1      39.725  33.069  35.646  1.00  0.00     0.037 A 
ATOM     62  C   UNL A   1      41.223  28.577  31.151  1.00  0.00     0.049 A 
ATOM     63  C   UNL A   1      40.751  31.969  35.583  1.00  0.00     0.074 A 
ATOM     64  C   UNL A   1      42.263  27.665  31.174  1.00  0.00     0.029 A 
ATOM     65  N   UNL A   1      41.285  29.285  32.342  1.00  0.00    -0.354 N 
ATOM     66  N   UNL A   1      40.996  31.116  34.617  1.00  0.00    -0.248 NA
ATOM     67  C   UNL A   1      41.622  31.810  36.756  1.00  0.00     0.031 C 
ATOM     68  C   UNL A   1      42.911  27.773  32.409  1.00  0.00     0.029 A 
ATOM     69  C   UNL A   1      42.325  28.806  33.123  1.00  0.00     0.049 A 
ATOM     70  H   UNL A   1      40.679  30.019  32.596  1.00  0.00     0.167 HD
ATOM     71  C   UNL A   1      42.068  30.346  35.050  1.00  0.00     0.074 A 
ATOM     72  C   UNL A   1      42.438  30.844  36.358  1.00  0.00     0.031 C 
ATOM     73  C   UNL A   1      42.689  29.317  34.421  1.00  0.00     0.037 A 
BRANCH  60  74
ATOM     74  C   UNL A   1      40.259  27.885  28.920  1.00  0.00     0.064 A 
ATOM     75  C   UNL A   1      40.995  28.210  27.769  1.00  0.00     0.173 A 
ATOM     76  C   UNL A   1      39.566  26.665  28.929  1.00  0.00     0.173 A 
ATOM     77  F   UNL A   1      41.668  29.368  27.702  1.00  0.00    -0.203 F 
ATOM     78  C   UNL A   1      41.008  27.364  26.663  1.00  0.00     0.198 A 
ATOM     79  C   UNL A   1      39.613  25.804  27.836  1.00  0.00     0.198 A 
ATOM     80  F   UNL A   1      38.850  26.301  30.003  1.00  0.00    -0.203 F 
ATOM     81  F   UNL A   1      41.671  27.725  25.555  1.00  0.00    -0.200 F 
ATOM     82  C   UNL A   1      40.325  26.159  26.700  1.00  0.00     0.200 A 
ATOM     83  F   UNL A   1      38.966  24.631  27.880  1.00  0.00    -0.200 F 
ATOM     84  F   UNL A   1      40.347  25.341  25.639  1.00  0.00    -0.200 F 
ENDBRANCH  60  74
BRANCH  61  85
ATOM     85  C   UNL A   1      39.628  33.952  36.840  1.00  0.00     0.064 A 
ATOM     86  C   UNL A   1      38.855  33.584  37.951  1.00  0.00     0.173 A 
ATOM     87  C   UNL A   1      40.284  35.191  36.889  1.00  0.00     0.173 A 
ATOM     88  F   UNL A   1      38.191  32.418  37.947  1.00  0.00    -0.203 F 
ATOM     89  C   UNL A   1      38.715  34.433  39.047  1.00  0.00     0.198 A 
ATOM     90  C   UNL A   1      40.174  36.023  38.001  1.00  0.00     0.198 A 
ATOM     91  F   UNL A   1      41.043  35.591  35.857  1.00  0.00    -0.203 F 
ATOM     92  F   UNL A   1      37.919  34.082  40.066  1.00  0.00    -0.200 F 
ATOM     93  C   UNL A   1      39.379  35.650  39.073  1.00  0.00     0.200 A 
ATOM     94  F   UNL A   1      40.833  37.189  38.030  1.00  0.00    -0.200 F 
ATOM     95  F   UNL A   1      39.244  36.466  40.127  1.00  0.00    -0.200 F 
ENDBRANCH  61  85
BRANCH  73  96
ATOM     96  C   UNL A   1      43.865  28.690  35.117  1.00  0.00     0.064 A 
ATOM     97  C   UNL A   1      45.175  29.156  34.931  1.00  0.00     0.173 A 
ATOM     98  C   UNL A   1      43.670  27.627  36.014  1.00  0.00     0.173 A 
ATOM     99  F   UNL A   1      45.419  30.160  34.076  1.00  0.00    -0.203 F 
ATOM    100  C   UNL A   1      46.247  28.561  35.589  1.00  0.00     0.198 A 
ATOM    101  C   UNL A   1      44.739  27.061  36.702  1.00  0.00     0.198 A 
ATOM    102  F   UNL A   1      42.437  27.147  36.238  1.00  0.00    -0.203 F 
ATOM    103  F   UNL A   1      47.496  28.983  35.348  1.00  0.00    -0.200 F 
ATOM    104  C   UNL A   1      46.028  27.520  36.480  1.00  0.00     0.200 A 
ATOM    105  F   UNL A   1      44.523  26.070  37.578  1.00  0.00    -0.200 F 
ATOM    106  F   UNL A   1      47.061  26.956  37.120  1.00  0.00    -0.200 F 
ENDBRANCH  73  96
ENDBRANCH  47  48
ENDBRANCH  39  42
ENDBRANCH  37  38
ENDBRANCH  36  37
ENDBRANCH  35  36
ENDBRANCH   1  35
TORSDOF 18
ENDMDL
MODEL 2
REMARK VINA RESULT:     -13.6      5.273      9.812
REMARK SMILES N#Cc1ccccc1C[C@@H](NC(=O)OCC1c2ccccc2-c2ccccc21)C(=O)NCCCCNC(=O)c1ccc(-c2c3nc(c(-c4c(F)c(F)c(F)c(F)c4F)c4ccc([nH]4)c(-c4c(F)c(F)c(F)c(F)c4F)c4nc(c(-c5c(F)c(F)c(F)c(F)c5F)c5ccc2[nH]5)C=C4)C=C3)cc1
REMARK SMILES IDX 32 1 31 2 29 3 30 4 10 6 9 7 8 8 3 9 4 10 5 11 7 12 6 13
REMARK SMILES IDX 2 14 1 15 11 16 12 17 13 19 14 20 15 21 16 22 17 23 28 24
REMARK SMILES IDX 18 25 22 26 23 27 27 28 19 29 21 30 24 31 26 32 20 33 25 34
REMARK SMILES IDX 33 35 34 36 35 37 36 38 37 39 38 41 39 42 40 43 101 44 41 45
REMARK SMILES IDX 100 46 42 47 43 48 44 49 94 50 45 51 99 52 93 53 95 54 46 55
REMARK SMILES IDX 98 56 92 57 91 58 47 60 79 61 59 62 78 63 60 64 63 65 77 66
REMARK SMILES IDX 96 67 61 68 62 69 76 71 97 72 64 73 48 74 49 75 57 76 50 77
REMARK SMILES IDX 51 78 55 79 58 80 52 81 53 82 56 83 54 84 80 85 81 86 89 87
REMARK SMILES IDX 82 88 83 89 87 90 90 91 84 92 85 93 88 94 86 95 65 96 66 97
REMARK SMILES IDX 74 98 67 99 68 100 72 101 75 102 69 103 70 104 73 105 71 106
REMARK H PARENT 31 5 11 18 36 40 95 59 63 70
REMARK Flexibility Score: inf
ROOT
ATOM      1  C   UNL A   1      35.837  20.785  25.156  1.00  0.00     0.116 C 
ENDROOT
BRANCH   1   2
ATOM      2  N   UNL A   1      35.508  21.489  26.386  1.00  0.00    -0.354 N 
ATOM      3  C   UNL A   1      34.280  21.784  26.919  1.00  0.00     0.243 C 
ATOM      4  O   UNL A   1      34.235  22.320  28.028  1.00  0.00    -0.273 OA
ATOM      5  H   UNL A   1      36.279  21.799  26.913  1.00  0.00     0.163 HD
BRANCH   3   6
ATOM      6  C   UNL A   1      32.996  21.494  26.111  1.00  0.00     0.179 C 
BRANCH   6   7
ATOM      7  C   UNL A   1      32.939  19.956  25.850  1.00  0.00     0.072 C 
BRANCH   7   8
ATOM      8  C   UNL A   1      32.706  19.481  24.427  1.00  0.00    -0.028 A 
ATOM      9  C   UNL A   1      32.792  18.120  24.071  1.00  0.00     0.055 A 
ATOM     10  C   UNL A   1      32.576  17.725  22.742  1.00  0.00     0.020 A 
ATOM     11  C   UNL A   1      32.254  18.665  21.765  1.00  0.00     0.001 A 
ATOM     12  C   UNL A   1      32.278  20.393  23.442  1.00  0.00     0.005 A 
ATOM     13  C   UNL A   1      32.088  19.997  22.119  1.00  0.00     0.000 A 
BRANCH   9  14
ATOM     14  C   UNL A   1      33.022  17.091  25.050  1.00  0.00     0.099 C 
ATOM     15  N   UNL A   1      33.169  16.257  25.839  1.00  0.00    -0.192 NA
ENDBRANCH   9  14
ENDBRANCH   7   8
ENDBRANCH   6   7
BRANCH   6  16
ATOM     16  N   UNL A   1      31.772  22.059  26.685  1.00  0.00    -0.309 N 
ATOM     17  C   UNL A   1      31.108  23.185  26.313  1.00  0.00     0.407 C 
ATOM     18  H   UNL A   1      31.380  21.558  27.438  1.00  0.00     0.167 HD
ATOM     19  O   UNL A   1      30.624  23.928  27.154  1.00  0.00    -0.225 OA
BRANCH  17  20
ATOM     20  O   UNL A   1      31.024  23.335  24.970  1.00  0.00    -0.449 OA
BRANCH  20  21
ATOM     21  C   UNL A   1      30.422  24.553  24.493  1.00  0.00     0.248 C 
BRANCH  21  22
ATOM     22  C   UNL A   1      31.462  25.496  23.859  1.00  0.00     0.088 C 
ATOM     23  C   UNL A   1      31.914  26.575  24.837  1.00  0.00    -0.029 A 
ATOM     24  C   UNL A   1      32.768  24.744  23.616  1.00  0.00    -0.029 A 
ATOM     25  C   UNL A   1      31.185  27.643  25.337  1.00  0.00     0.005 A 
ATOM     26  C   UNL A   1      33.229  26.317  25.270  1.00  0.00    -0.014 A 
ATOM     27  C   UNL A   1      33.776  25.239  24.475  1.00  0.00    -0.014 A 
ATOM     28  C   UNL A   1      33.025  23.724  22.712  1.00  0.00     0.005 A 
ATOM     29  C   UNL A   1      31.720  28.362  26.403  1.00  0.00     0.000 A 
ATOM     30  C   UNL A   1      33.772  27.047  26.314  1.00  0.00     0.009 A 
ATOM     31  C   UNL A   1      35.060  24.725  24.419  1.00  0.00     0.009 A 
ATOM     32  C   UNL A   1      34.321  23.206  22.660  1.00  0.00     0.000 A 
ATOM     33  C   UNL A   1      32.995  28.051  26.902  1.00  0.00     0.001 A 
ATOM     34  C   UNL A   1      35.330  23.705  23.501  1.00  0.00     0.001 A 
ENDBRANCH  21  22
ENDBRANCH  20  21
ENDBRANCH  17  20
ENDBRANCH   6  16
ENDBRANCH   3   6
ENDBRANCH   1   2
BRANCH   1  35
ATOM     35  C   UNL A   1      37.277  21.032  24.742  1.00  0.00     0.023 C 
BRANCH  35  36
ATOM     36  C   UNL A   1      38.190  19.856  25.069  1.00  0.00     0.023 C 
BRANCH  36  37
ATOM     37  C   UNL A   1      39.399  20.223  25.921  1.00  0.00     0.116 C 
BRANCH  37  38
ATOM     38  N   UNL A   1      40.388  19.156  25.981  1.00  0.00    -0.352 N 
ATOM     39  C   UNL A   1      41.747  19.263  26.141  1.00  0.00     0.251 C 
ATOM     40  H   UNL A   1      40.036  18.240  25.894  1.00  0.00     0.163 HD
ATOM     41  O   UNL A   1      42.482  18.298  25.971  1.00  0.00    -0.269 OA
BRANCH  39  42
ATOM     42  C   UNL A   1      42.311  20.579  26.493  1.00  0.00     0.039 A 
ATOM     43  C   UNL A   1      42.729  21.435  25.474  1.00  0.00     0.014 A 
ATOM     44  C   UNL A   1      42.358  20.986  27.830  1.00  0.00     0.014 A 
ATOM     45  C   UNL A   1      43.133  22.730  25.795  1.00  0.00     0.010 A 
ATOM     46  C   UNL A   1      42.664  22.306  28.135  1.00  0.00     0.010 A 
ATOM     47  C   UNL A   1      43.062  23.190  27.121  1.00  0.00    -0.014 A 
BRANCH  47  48
ATOM     48  C   UNL A   1      43.404  24.593  27.466  1.00  0.00     0.031 A 
ATOM     49  C   UNL A   1      44.842  25.029  27.503  1.00  0.00     0.074 A 
ATOM     50  C   UNL A   1      42.424  25.458  27.791  1.00  0.00     0.049 A 
ATOM     51  N   UNL A   1      45.345  26.194  27.823  1.00  0.00    -0.248 NA
ATOM     52  C   UNL A   1      45.852  24.015  27.160  1.00  0.00     0.031 C 
ATOM     53  C   UNL A   1      40.996  25.142  27.835  1.00  0.00     0.029 A 
ATOM     54  N   UNL A   1      42.482  26.782  28.152  1.00  0.00    -0.354 N 
ATOM     55  C   UNL A   1      46.723  26.050  27.724  1.00  0.00     0.074 A 
ATOM     56  C   UNL A   1      46.981  24.668  27.385  1.00  0.00     0.031 C 
ATOM     57  C   UNL A   1      40.311  26.248  28.166  1.00  0.00     0.029 A 
ATOM     58  C   UNL A   1      41.252  27.337  28.410  1.00  0.00     0.049 A 
ATOM     59  H   UNL A   1      43.325  27.285  28.220  1.00  0.00     0.167 HD
ATOM     60  C   UNL A   1      47.684  26.991  27.875  1.00  0.00     0.037 A 
ATOM     61  C   UNL A   1      40.922  28.580  28.807  1.00  0.00     0.037 A 
ATOM     62  C   UNL A   1      47.420  28.367  28.205  1.00  0.00     0.049 A 
ATOM     63  C   UNL A   1      42.015  29.596  29.011  1.00  0.00     0.074 A 
ATOM     64  C   UNL A   1      48.320  29.409  28.337  1.00  0.00     0.029 A 
ATOM     65  N   UNL A   1      46.162  28.890  28.468  1.00  0.00    -0.354 N 
ATOM     66  N   UNL A   1      43.310  29.467  28.845  1.00  0.00    -0.248 NA
ATOM     67  C   UNL A   1      41.600  30.934  29.455  1.00  0.00     0.031 C 
ATOM     68  C   UNL A   1      47.617  30.545  28.748  1.00  0.00     0.029 A 
ATOM     69  C   UNL A   1      46.268  30.233  28.795  1.00  0.00     0.049 A 
ATOM     70  H   UNL A   1      45.319  28.382  28.428  1.00  0.00     0.167 HD
ATOM     71  C   UNL A   1      43.857  30.712  29.127  1.00  0.00     0.074 A 
ATOM     72  C   UNL A   1      42.752  31.587  29.458  1.00  0.00     0.031 C 
ATOM     73  C   UNL A   1      45.158  31.096  29.115  1.00  0.00     0.037 A 
BRANCH  60  74
ATOM     74  C   UNL A   1      49.112  26.563  27.688  1.00  0.00     0.064 A 
ATOM     75  C   UNL A   1      49.953  26.293  28.780  1.00  0.00     0.173 A 
ATOM     76  C   UNL A   1      49.639  26.385  26.400  1.00  0.00     0.173 A 
ATOM     77  F   UNL A   1      49.505  26.457  30.034  1.00  0.00    -0.203 F 
ATOM     78  C   UNL A   1      51.273  25.895  28.589  1.00  0.00     0.198 A 
ATOM     79  C   UNL A   1      50.949  25.950  26.212  1.00  0.00     0.198 A 
ATOM     80  F   UNL A   1      48.881  26.624  25.319  1.00  0.00    -0.203 F 
ATOM     81  F   UNL A   1      52.072  25.701  29.648  1.00  0.00    -0.200 F 
ATOM     82  C   UNL A   1      51.767  25.715  27.306  1.00  0.00     0.200 A 
ATOM     83  F   UNL A   1      51.419  25.760  24.972  1.00  0.00    -0.200 F 
ATOM     84  F   UNL A   1      53.035  25.322  27.124  1.00  0.00    -0.200 F 
ENDBRANCH  60  74
BRANCH  61  85
ATOM     85  C   UNL A   1      39.496  28.942  29.030  1.00  0.00     0.064 A 
ATOM     86  C   UNL A   1      38.911  28.826  30.300  1.00  0.00     0.173 A 
ATOM     87  C   UNL A   1      38.681  29.386  27.979  1.00  0.00     0.173 A 
ATOM     88  F   UNL A   1      39.642  28.388  31.336  1.00  0.00    -0.203 F 
ATOM     89  C   UNL A   1      37.562  29.109  30.501  1.00  0.00     0.198 A 
ATOM     90  C   UNL A   1      37.341  29.704  28.188  1.00  0.00     0.198 A 
ATOM     91  F   UNL A   1      39.189  29.521  26.745  1.00  0.00    -0.203 F 
ATOM     92  F   UNL A   1      37.015  28.929  31.712  1.00  0.00    -0.200 F 
ATOM     93  C   UNL A   1      36.779  29.553  29.447  1.00  0.00     0.200 A 
ATOM     94  F   UNL A   1      36.593  30.150  27.171  1.00  0.00    -0.200 F 
ATOM     95  F   UNL A   1      35.481  29.824  29.641  1.00  0.00    -0.200 F 
ENDBRANCH  61  85
BRANCH  73  96
ATOM     96  C   UNL A   1      45.457  32.536  29.423  1.00  0.00     0.064 A 
ATOM     97  C   UNL A   1      45.459  33.525  28.428  1.00  0.00     0.173 A 
ATOM     98  C   UNL A   1      45.709  32.938  30.745  1.00  0.00     0.173 A 
ATOM     99  F   UNL A   1      45.237  33.195  27.147  1.00  0.00    -0.203 F 
ATOM    100  C   UNL A   1      45.736  34.854  28.739  1.00  0.00     0.198 A 
ATOM    101  C   UNL A   1      45.945  34.274  31.059  1.00  0.00     0.198 A 
ATOM    102  F   UNL A   1      45.710  32.036  31.739  1.00  0.00    -0.203 F 
ATOM    103  F   UNL A   1      45.793  35.770  27.763  1.00  0.00    -0.200 F 
ATOM    104  C   UNL A   1      45.970  35.228  30.054  1.00  0.00     0.200 A 
ATOM    105  F   UNL A   1      46.149  34.636  32.332  1.00  0.00    -0.200 F 
ATOM    106  F   UNL A   1      46.226  36.510  30.352  1.00  0.00    -0.200 F 
ENDBRANCH  73  96
ENDBRANCH  47  48
ENDBRANCH  39  42
ENDBRANCH  37  38
ENDBRANCH  36  37
ENDBRANCH  35  36
ENDBRANCH   1  35
TORSDOF 18
ENDMDL
MODEL 3
REMARK VINA RESULT:     -13.5      5.182     10.851
REMARK SMILES N#Cc1ccccc1C[C@@H](NC(=O)OCC1c2ccccc2-c2ccccc21)C(=O)NCCCCNC(=O)c1ccc(-c2c3nc(c(-c4c(F)c(F)c(F)c(F)c4F)c4ccc([nH]4)c(-c4c(F)c(F)c(F)c(F)c4F)c4nc(c(-c5c(F)c(F)c(F)c(F)c5F)c5ccc2[nH]5)C=C4)C=C3)cc1
REMARK SMILES IDX 32 1 31 2 29 3 30 4 10 6 9 7 8 8 3 9 4 10 5 11 7 12 6 13
REMARK SMILES IDX 2 14 1 15 11 16 12 17 13 19 14 20 15 21 16 22 17 23 28 24
REMARK SMILES IDX 18 25 22 26 23 27 27 28 19 29 21 30 24 31 26 32 20 33 25 34
REMARK SMILES IDX 33 35 34 36 35 37 36 38 37 39 38 41 39 42 40 43 101 44 41 45
REMARK SMILES IDX 100 46 42 47 43 48 44 49 94 50 45 51 99 52 93 53 95 54 46 55
REMARK SMILES IDX 98 56 92 57 91 58 47 60 79 61 59 62 78 63 60 64 63 65 77 66
REMARK SMILES IDX 96 67 61 68 62 69 76 71 97 72 64 73 48 74 49 75 57 76 50 77
REMARK SMILES IDX 51 78 55 79 58 80 52 81 53 82 56 83 54 84 80 85 81 86 89 87
REMARK SMILES IDX 82 88 83 89 87 90 90 91 84 92 85 93 88 94 86 95 65 96 66 97
REMARK SMILES IDX 74 98 67 99 68 100 72 101 75 102 69 103 70 104 73 105 71 106
REMARK H PARENT 31 5 11 18 36 40 95 59 63 70
REMARK Flexibility Score: inf
ROOT
ATOM      1  C   UNL A   1      37.240  22.459  24.840  1.00  0.00     0.116 C 
ENDROOT
BRANCH   1   2
ATOM      2  N   UNL A   1      36.356  23.406  25.503  1.00  0.00    -0.354 N 
ATOM      3  C   UNL A   1      35.081  23.786  25.171  1.00  0.00     0.243 C 
ATOM      4  O   UNL A   1      34.481  24.549  25.931  1.00  0.00    -0.273 OA
ATOM      5  H   UNL A   1      36.728  23.838  26.305  1.00  0.00     0.163 HD
BRANCH   3   6
ATOM      6  C   UNL A   1      34.450  23.304  23.847  1.00  0.00     0.179 C 
BRANCH   6   7
ATOM      7  C   UNL A   1      33.042  22.719  24.181  1.00  0.00     0.072 C 
BRANCH   7   8
ATOM      8  C   UNL A   1      32.885  21.209  24.212  1.00  0.00    -0.028 A 
ATOM      9  C   UNL A   1      33.134  20.456  25.376  1.00  0.00     0.055 A 
ATOM     10  C   UNL A   1      32.984  19.061  25.359  1.00  0.00     0.020 A 
ATOM     11  C   UNL A   1      32.568  18.406  24.202  1.00  0.00     0.001 A 
ATOM     12  C   UNL A   1      32.367  20.533  23.090  1.00  0.00     0.005 A 
ATOM     13  C   UNL A   1      32.243  19.145  23.072  1.00  0.00     0.000 A 
BRANCH   9  14
ATOM     14  C   UNL A   1      33.469  21.081  26.629  1.00  0.00     0.099 C 
ATOM     15  N   UNL A   1      33.711  21.565  27.653  1.00  0.00    -0.192 NA
ENDBRANCH   9  14
ENDBRANCH   7   8
ENDBRANCH   6   7
BRANCH   6  16
ATOM     16  N   UNL A   1      34.455  24.298  22.770  1.00  0.00    -0.309 N 
ATOM     17  C   UNL A   1      33.426  25.070  22.331  1.00  0.00     0.407 C 
ATOM     18  H   UNL A   1      35.315  24.424  22.305  1.00  0.00     0.167 HD
ATOM     19  O   UNL A   1      33.274  25.282  21.137  1.00  0.00    -0.225 OA
BRANCH  17  20
ATOM     20  O   UNL A   1      32.670  25.574  23.336  1.00  0.00    -0.449 OA
BRANCH  20  21
ATOM     21  C   UNL A   1      32.373  26.981  23.276  1.00  0.00     0.248 C 
BRANCH  21  22
ATOM     22  C   UNL A   1      31.326  27.390  24.329  1.00  0.00     0.088 C 
ATOM     23  C   UNL A   1      31.954  28.183  25.470  1.00  0.00    -0.029 A 
ATOM     24  C   UNL A   1      30.366  28.420  23.740  1.00  0.00    -0.029 A 
ATOM     25  C   UNL A   1      32.830  27.738  26.448  1.00  0.00     0.005 A 
ATOM     26  C   UNL A   1      31.581  29.538  25.381  1.00  0.00    -0.014 A 
ATOM     27  C   UNL A   1      30.558  29.672  24.367  1.00  0.00    -0.014 A 
ATOM     28  C   UNL A   1      29.414  28.247  22.746  1.00  0.00     0.005 A 
ATOM     29  C   UNL A   1      33.466  28.688  27.243  1.00  0.00     0.000 A 
ATOM     30  C   UNL A   1      32.195  30.482  26.187  1.00  0.00     0.009 A 
ATOM     31  C   UNL A   1      29.780  30.760  24.013  1.00  0.00     0.009 A 
ATOM     32  C   UNL A   1      28.632  29.348  22.389  1.00  0.00     0.000 A 
ATOM     33  C   UNL A   1      33.168  30.052  27.098  1.00  0.00     0.001 A 
ATOM     34  C   UNL A   1      28.809  30.591  23.020  1.00  0.00     0.001 A 
ENDBRANCH  21  22
ENDBRANCH  20  21
ENDBRANCH  17  20
ENDBRANCH   6  16
ENDBRANCH   3   6
ENDBRANCH   1   2
BRANCH   1  35
ATOM     35  C   UNL A   1      36.905  21.027  25.220  1.00  0.00     0.023 C 
BRANCH  35  36
ATOM     36  C   UNL A   1      38.066  20.069  24.977  1.00  0.00     0.023 C 
BRANCH  36  37
ATOM     37  C   UNL A   1      39.330  20.412  25.755  1.00  0.00     0.116 C 
BRANCH  37  38
ATOM     38  N   UNL A   1      40.230  19.275  25.890  1.00  0.00    -0.352 N 
ATOM     39  C   UNL A   1      41.582  19.284  26.125  1.00  0.00     0.251 C 
ATOM     40  H   UNL A   1      39.815  18.386  25.802  1.00  0.00     0.163 HD
ATOM     41  O   UNL A   1      42.250  18.262  26.017  1.00  0.00    -0.269 OA
BRANCH  39  42
ATOM     42  C   UNL A   1      42.225  20.562  26.484  1.00  0.00     0.039 A 
ATOM     43  C   UNL A   1      42.729  21.376  25.471  1.00  0.00     0.014 A 
ATOM     44  C   UNL A   1      42.262  20.977  27.819  1.00  0.00     0.014 A 
ATOM     45  C   UNL A   1      43.212  22.645  25.794  1.00  0.00     0.010 A 
ATOM     46  C   UNL A   1      42.649  22.275  28.122  1.00  0.00     0.010 A 
ATOM     47  C   UNL A   1      43.135  23.121  27.113  1.00  0.00    -0.014 A 
BRANCH  47  48
ATOM     48  C   UNL A   1      43.563  24.500  27.457  1.00  0.00     0.031 A 
ATOM     49  C   UNL A   1      42.538  25.536  27.825  1.00  0.00     0.074 A 
ATOM     50  C   UNL A   1      44.868  24.830  27.392  1.00  0.00     0.049 A 
ATOM     51  N   UNL A   1      42.708  26.802  28.113  1.00  0.00    -0.248 NA
ATOM     52  C   UNL A   1      41.133  25.101  27.846  1.00  0.00     0.031 C 
ATOM     53  C   UNL A   1      45.951  23.924  27.005  1.00  0.00     0.029 A 
ATOM     54  N   UNL A   1      45.505  26.019  27.646  1.00  0.00    -0.354 N 
ATOM     55  C   UNL A   1      41.437  27.310  28.344  1.00  0.00     0.074 A 
ATOM     56  C   UNL A   1      40.499  26.237  28.094  1.00  0.00     0.031 C 
ATOM     57  C   UNL A   1      47.119  24.580  27.082  1.00  0.00     0.029 A 
ATOM     58  C   UNL A   1      46.866  25.963  27.471  1.00  0.00     0.049 A 
ATOM     59  H   UNL A   1      45.031  26.835  27.926  1.00  0.00     0.167 HD
ATOM     60  C   UNL A   1      41.083  28.550  28.756  1.00  0.00     0.037 A 
ATOM     61  C   UNL A   1      47.802  26.922  27.600  1.00  0.00     0.037 A 
ATOM     62  C   UNL A   1      42.021  29.612  29.011  1.00  0.00     0.049 A 
ATOM     63  C   UNL A   1      47.377  28.306  28.015  1.00  0.00     0.074 A 
ATOM     64  C   UNL A   1      41.770  30.891  29.474  1.00  0.00     0.029 A 
ATOM     65  N   UNL A   1      43.392  29.520  28.814  1.00  0.00    -0.354 N 
ATOM     66  N   UNL A   1      46.179  28.756  28.301  1.00  0.00    -0.248 NA
ATOM     67  C   UNL A   1      48.438  29.317  28.131  1.00  0.00     0.031 C 
ATOM     68  C   UNL A   1      42.978  31.596  29.489  1.00  0.00     0.029 A 
ATOM     69  C   UNL A   1      43.994  30.733  29.113  1.00  0.00     0.049 A 
ATOM     70  H   UNL A   1      43.867  28.714  28.507  1.00  0.00     0.167 HD
ATOM     71  C   UNL A   1      46.346  30.087  28.663  1.00  0.00     0.074 A 
ATOM     72  C   UNL A   1      47.764  30.366  28.579  1.00  0.00     0.031 C 
ATOM     73  C   UNL A   1      45.410  30.996  29.033  1.00  0.00     0.037 A 
BRANCH  60  74
ATOM     74  C   UNL A   1      39.620  28.829  28.952  1.00  0.00     0.064 A 
ATOM     75  C   UNL A   1      38.996  28.661  30.198  1.00  0.00     0.173 A 
ATOM     76  C   UNL A   1      38.838  29.305  27.889  1.00  0.00     0.173 A 
ATOM     77  F   UNL A   1      39.693  28.199  31.247  1.00  0.00    -0.203 F 
ATOM     78  C   UNL A   1      37.639  28.926  30.363  1.00  0.00     0.198 A 
ATOM     79  C   UNL A   1      37.490  29.606  28.067  1.00  0.00     0.198 A 
ATOM     80  F   UNL A   1      39.383  29.489  26.677  1.00  0.00    -0.203 F 
ATOM     81  F   UNL A   1      37.053  28.702  31.548  1.00  0.00    -0.200 F 
ATOM     82  C   UNL A   1      36.889  29.407  29.300  1.00  0.00     0.200 A 
ATOM     83  F   UNL A   1      36.771  30.087  27.043  1.00  0.00    -0.200 F 
ATOM     84  F   UNL A   1      35.586  29.672  29.463  1.00  0.00    -0.200 F 
ENDBRANCH  60  74
BRANCH  61  85
ATOM     85  C   UNL A   1      49.234  26.612  27.343  1.00  0.00     0.064 A 
ATOM     86  C   UNL A   1      49.753  26.617  26.040  1.00  0.00     0.173 A 
ATOM     87  C   UNL A   1      50.108  26.278  28.388  1.00  0.00     0.173 A 
ATOM     88  F   UNL A   1      48.955  26.910  25.003  1.00  0.00    -0.203 F 
ATOM     89  C   UNL A   1      51.079  26.270  25.790  1.00  0.00     0.198 A 
ATOM     90  C   UNL A   1      51.444  25.967  28.141  1.00  0.00     0.198 A 
ATOM     91  F   UNL A   1      49.667  26.263  29.655  1.00  0.00    -0.203 F 
ATOM     92  F   UNL A   1      51.531  26.223  24.529  1.00  0.00    -0.200 F 
ATOM     93  C   UNL A   1      51.925  25.951  26.841  1.00  0.00     0.200 A 
ATOM     94  F   UNL A   1      52.262  25.678  29.162  1.00  0.00    -0.200 F 
ATOM     95  F   UNL A   1      53.200  25.617  26.601  1.00  0.00    -0.200 F 
ENDBRANCH  61  85
BRANCH  73  96
ATOM     96  C   UNL A   1      45.890  32.367  29.419  1.00  0.00     0.064 A 
ATOM     97  C   UNL A   1      45.976  33.414  28.489  1.00  0.00     0.173 A 
ATOM     98  C   UNL A   1      46.235  32.646  30.751  1.00  0.00     0.173 A 
ATOM     99  F   UNL A   1      45.671  33.200  27.200  1.00  0.00    -0.203 F 
ATOM    100  C   UNL A   1      46.421  34.677  28.871  1.00  0.00     0.198 A 
ATOM    101  C   UNL A   1      46.640  33.919  31.138  1.00  0.00     0.198 A 
ATOM    102  F   UNL A   1      46.163  31.684  31.685  1.00  0.00    -0.203 F 
ATOM    103  F   UNL A   1      46.553  35.644  27.953  1.00  0.00    -0.200 F 
ATOM    104  C   UNL A   1      46.744  34.931  30.195  1.00  0.00     0.200 A 
ATOM    105  F   UNL A   1      46.932  34.168  32.422  1.00  0.00    -0.200 F 
ATOM    106  F   UNL A   1      47.163  36.150  30.563  1.00  0.00    -0.200 F 
ENDBRANCH  73  96
ENDBRANCH  47  48
ENDBRANCH  39  42
ENDBRANCH  37  38
ENDBRANCH  36  37
ENDBRANCH  35  36
ENDBRANCH   1  35
TORSDOF 18
ENDMDL
