MODEL 1
REMARK VINA RESULT:     -12.6      0.000      0.000
REMARK SMILES O=C(COc1nc(NCc2cccc(Cl)c2)nc2c1CCC2)NCCCCNC(=O)c1ccc(-c2c3nc(c(-c4c(F)c(F)c(F)c(F)c4F)c4ccc([nH]4)c(-c4c(F)c(F)c(F)c(F)c4F)c4nc(c(-c5c(F)c(F)c(F)c(F)c5F)c5ccc2[nH]5)C=C4)C=C3)cc1
REMARK SMILES IDX 24 1 23 2 1 3 2 4 3 6 4 7 5 8 6 9 19 10 7 11 18 12 20 13
REMARK SMILES IDX 17 14 22 15 21 16 8 17 9 19 10 20 11 21 16 22 12 23 14 24
REMARK SMILES IDX 13 25 15 26 25 27 26 28 27 29 28 30 29 31 30 33 31 34 32 35
REMARK SMILES IDX 93 36 33 37 92 38 34 39 35 40 36 41 86 42 37 43 91 44 85 45
REMARK SMILES IDX 87 46 38 47 90 48 84 49 83 50 39 52 71 53 51 54 70 55 52 56
REMARK SMILES IDX 55 57 69 58 88 59 53 60 54 61 68 63 89 64 56 65 40 66 41 67
REMARK SMILES IDX 49 68 42 69 43 70 47 71 50 72 44 73 45 74 48 75 46 76 72 77
REMARK SMILES IDX 73 78 81 79 74 80 75 81 79 82 82 83 76 84 77 85 80 86 78 87
REMARK SMILES IDX 57 88 58 89 66 90 59 91 60 92 64 93 67 94 61 95 62 96 65 97
REMARK SMILES IDX 63 98
REMARK H PARENT 23 5 8 18 28 32 87 51 55 62
REMARK Flexibility Score: inf
ROOT
ATOM      1  C   UNL A   1      32.916  30.171  26.160  1.00  0.00     0.116 C 
ENDROOT
BRANCH   1   2
ATOM      2  N   UNL A   1      33.204  29.553  24.885  1.00  0.00    -0.353 N 
ATOM      3  O   UNL A   1      33.743  27.493  25.747  1.00  0.00    -0.271 OA
ATOM      4  C   UNL A   1      33.516  28.213  24.777  1.00  0.00     0.258 C 
ATOM      5  H   UNL A   1      33.177  30.104  24.069  1.00  0.00     0.163 HD
BRANCH   4   6
ATOM      6  C   UNL A   1      33.641  27.690  23.335  1.00  0.00     0.331 C 
BRANCH   6   7
ATOM      7  O   UNL A   1      32.630  28.000  22.383  1.00  0.00    -0.467 OA
BRANCH   7   8
ATOM      8  C   UNL A   1      31.393  27.564  22.794  1.00  0.00     0.222 A 
ATOM      9  N   UNL A   1      31.320  26.379  23.420  1.00  0.00    -0.177 NA
ATOM     10  C   UNL A   1      30.318  28.388  22.669  1.00  0.00     0.036 A 
ATOM     11  C   UNL A   1      30.124  25.998  23.902  1.00  0.00     0.226 A 
ATOM     12  C   UNL A   1      29.141  27.911  23.190  1.00  0.00     0.053 A 
ATOM     13  C   UNL A   1      30.136  29.702  22.003  1.00  0.00     0.043 C 
ATOM     14  N   UNL A   1      29.007  26.733  23.806  1.00  0.00    -0.218 NA
ATOM     15  C   UNL A   1      28.009  28.862  22.928  1.00  0.00     0.057 C 
ATOM     16  C   UNL A   1      28.783  30.144  22.589  1.00  0.00     0.011 C 
BRANCH  11  17
ATOM     17  N   UNL A   1      30.098  24.777  24.508  1.00  0.00    -0.350 N 
ATOM     18  H   UNL A   1      29.414  24.127  24.224  1.00  0.00     0.164 HD
BRANCH  17  19
ATOM     19  C   UNL A   1      31.022  24.393  25.539  1.00  0.00     0.152 C 
BRANCH  19  20
ATOM     20  C   UNL A   1      31.877  23.221  25.108  1.00  0.00    -0.027 A 
ATOM     21  C   UNL A   1      31.485  21.894  25.351  1.00  0.00     0.005 A 
ATOM     22  C   UNL A   1      33.137  23.455  24.534  1.00  0.00     0.026 A 
ATOM     23  C   UNL A   1      32.316  20.827  25.001  1.00  0.00     0.002 A 
ATOM     24  C   UNL A   1      33.965  22.385  24.193  1.00  0.00     0.041 A 
ATOM     25  C   UNL A   1      33.560  21.073  24.421  1.00  0.00     0.020 A 
ATOM     26  Cl  UNL A   1      35.510  22.691  23.498  1.00  0.00    -0.084 Cl
ENDBRANCH  19  20
ENDBRANCH  17  19
ENDBRANCH  11  17
ENDBRANCH   7   8
ENDBRANCH   6   7
ENDBRANCH   4   6
ENDBRANCH   1   2
BRANCH   1  27
ATOM     27  C   UNL A   1      31.494  30.717  26.258  1.00  0.00     0.023 C 
BRANCH  27  28
ATOM     28  C   UNL A   1      31.392  32.224  26.504  1.00  0.00     0.023 C 
BRANCH  28  29
ATOM     29  C   UNL A   1      32.563  32.854  27.251  1.00  0.00     0.116 C 
BRANCH  29  30
ATOM     30  N   UNL A   1      32.326  34.238  27.631  1.00  0.00    -0.352 N 
ATOM     31  C   UNL A   1      32.948  35.004  28.588  1.00  0.00     0.251 C 
ATOM     32  H   UNL A   1      31.613  34.694  27.129  1.00  0.00     0.163 HD
ATOM     33  O   UNL A   1      32.529  36.129  28.845  1.00  0.00    -0.269 OA
BRANCH  31  34
ATOM     34  C   UNL A   1      34.106  34.468  29.339  1.00  0.00     0.039 A 
ATOM     35  C   UNL A   1      33.877  33.853  30.574  1.00  0.00     0.014 A 
ATOM     36  C   UNL A   1      35.407  34.571  28.840  1.00  0.00     0.014 A 
ATOM     37  C   UNL A   1      34.941  33.278  31.271  1.00  0.00     0.010 A 
ATOM     38  C   UNL A   1      36.456  33.937  29.502  1.00  0.00     0.010 A 
ATOM     39  C   UNL A   1      36.234  33.283  30.724  1.00  0.00    -0.014 A 
BRANCH  39  40
ATOM     40  C   UNL A   1      37.363  32.608  31.415  1.00  0.00     0.031 A 
ATOM     41  C   UNL A   1      38.080  31.466  30.756  1.00  0.00     0.074 A 
ATOM     42  C   UNL A   1      37.712  32.996  32.657  1.00  0.00     0.049 A 
ATOM     43  N   UNL A   1      39.053  30.721  31.218  1.00  0.00    -0.248 NA
ATOM     44  C   UNL A   1      37.632  31.095  29.405  1.00  0.00     0.031 C 
ATOM     45  C   UNL A   1      37.074  34.072  33.416  1.00  0.00     0.029 A 
ATOM     46  N   UNL A   1      38.691  32.529  33.500  1.00  0.00    -0.354 N 
ATOM     47  C   UNL A   1      39.329  29.798  30.220  1.00  0.00     0.074 A 
ATOM     48  C   UNL A   1      38.385  30.035  29.151  1.00  0.00     0.031 C 
ATOM     49  C   UNL A   1      37.697  34.204  34.598  1.00  0.00     0.029 A 
ATOM     50  C   UNL A   1      38.753  33.200  34.697  1.00  0.00     0.049 A 
ATOM     51  H   UNL A   1      39.291  31.784  33.268  1.00  0.00     0.167 HD
ATOM     52  C   UNL A   1      40.303  28.858  30.186  1.00  0.00     0.037 A 
ATOM     53  C   UNL A   1      39.569  33.025  35.754  1.00  0.00     0.037 A 
ATOM     54  C   UNL A   1      41.253  28.634  31.243  1.00  0.00     0.049 A 
ATOM     55  C   UNL A   1      40.620  31.950  35.707  1.00  0.00     0.074 A 
ATOM     56  C   UNL A   1      42.301  27.731  31.282  1.00  0.00     0.029 A 
ATOM     57  N   UNL A   1      41.273  29.322  32.447  1.00  0.00    -0.354 N 
ATOM     58  N   UNL A   1      40.901  31.113  34.740  1.00  0.00    -0.248 NA
ATOM     59  C   UNL A   1      41.464  31.794  36.899  1.00  0.00     0.031 C 
ATOM     60  C   UNL A   1      42.928  27.842  32.527  1.00  0.00     0.029 A 
ATOM     61  C   UNL A   1      42.300  28.847  33.247  1.00  0.00     0.049 A 
ATOM     62  H   UNL A   1      40.649  30.041  32.697  1.00  0.00     0.167 HD
ATOM     63  C   UNL A   1      41.965  30.345  35.193  1.00  0.00     0.074 A 
ATOM     64  C   UNL A   1      42.289  30.827  36.520  1.00  0.00     0.031 C 
ATOM     65  C   UNL A   1      42.612  29.334  34.566  1.00  0.00     0.037 A 
BRANCH  52  66
ATOM     66  C   UNL A   1      40.398  28.004  28.955  1.00  0.00     0.064 A 
ATOM     67  C   UNL A   1      41.208  28.373  27.871  1.00  0.00     0.173 A 
ATOM     68  C   UNL A   1      39.710  26.783  28.876  1.00  0.00     0.173 A 
ATOM     69  F   UNL A   1      41.876  29.535  27.893  1.00  0.00    -0.203 F 
ATOM     70  C   UNL A   1      41.307  27.563  26.743  1.00  0.00     0.198 A 
ATOM     71  C   UNL A   1      39.835  25.963  27.758  1.00  0.00     0.198 A 
ATOM     72  F   UNL A   1      38.926  26.380  29.887  1.00  0.00    -0.203 F 
ATOM     73  F   UNL A   1      42.052  27.958  25.701  1.00  0.00    -0.200 F 
ATOM     74  C   UNL A   1      40.626  26.356  26.691  1.00  0.00     0.200 A 
ATOM     75  F   UNL A   1      39.187  24.790  27.713  1.00  0.00    -0.200 F 
ATOM     76  F   UNL A   1      40.730  25.574  25.607  1.00  0.00    -0.200 F 
ENDBRANCH  52  66
BRANCH  53  77
ATOM     77  C   UNL A   1      39.446  33.923  36.931  1.00  0.00     0.064 A 
ATOM     78  C   UNL A   1      38.702  33.533  38.053  1.00  0.00     0.173 A 
ATOM     79  C   UNL A   1      40.087  35.170  36.974  1.00  0.00     0.173 A 
ATOM     80  F   UNL A   1      38.054  32.358  38.050  1.00  0.00    -0.203 F 
ATOM     81  C   UNL A   1      38.602  34.355  39.173  1.00  0.00     0.198 A 
ATOM     82  C   UNL A   1      40.006  35.981  38.103  1.00  0.00     0.198 A 
ATOM     83  F   UNL A   1      40.812  35.589  35.926  1.00  0.00    -0.203 F 
ATOM     84  F   UNL A   1      37.863  33.969  40.221  1.00  0.00    -0.200 F 
ATOM     85  C   UNL A   1      39.261  35.575  39.200  1.00  0.00     0.200 A 
ATOM     86  F   UNL A   1      40.655  37.153  38.132  1.00  0.00    -0.200 F 
ATOM     87  F   UNL A   1      39.176  36.360  40.283  1.00  0.00    -0.200 F 
ENDBRANCH  53  77
BRANCH  65  88
ATOM     88  C   UNL A   1      43.749  28.678  35.294  1.00  0.00     0.064 A 
ATOM     89  C   UNL A   1      45.064  29.147  35.168  1.00  0.00     0.173 A 
ATOM     90  C   UNL A   1      43.508  27.620  36.184  1.00  0.00     0.173 A 
ATOM     91  F   UNL A   1      45.347  30.147  34.320  1.00  0.00    -0.203 F 
ATOM     92  C   UNL A   1      46.100  28.575  35.902  1.00  0.00     0.198 A 
ATOM     93  C   UNL A   1      44.542  27.068  36.935  1.00  0.00     0.198 A 
ATOM     94  F   UNL A   1      42.266  27.140  36.345  1.00  0.00    -0.203 F 
ATOM     95  F   UNL A   1      47.355  29.019  35.745  1.00  0.00    -0.200 F 
ATOM     96  C   UNL A   1      45.836  27.543  36.792  1.00  0.00     0.200 A 
ATOM     97  F   UNL A   1      44.283  26.083  37.806  1.00  0.00    -0.200 F 
ATOM     98  F   UNL A   1      46.832  27.006  37.510  1.00  0.00    -0.200 F 
ENDBRANCH  65  88
ENDBRANCH  39  40
ENDBRANCH  31  34
ENDBRANCH  29  30
ENDBRANCH  28  29
ENDBRANCH  27  28
ENDBRANCH   1  27
TORSDOF 16
ENDMDL
MODEL 2
REMARK VINA RESULT:     -12.5      1.740      7.511
REMARK SMILES O=C(COc1nc(NCc2cccc(Cl)c2)nc2c1CCC2)NCCCCNC(=O)c1ccc(-c2c3nc(c(-c4c(F)c(F)c(F)c(F)c4F)c4ccc([nH]4)c(-c4c(F)c(F)c(F)c(F)c4F)c4nc(c(-c5c(F)c(F)c(F)c(F)c5F)c5ccc2[nH]5)C=C4)C=C3)cc1
REMARK SMILES IDX 24 1 23 2 1 3 2 4 3 6 4 7 5 8 6 9 19 10 7 11 18 12 20 13
REMARK SMILES IDX 17 14 22 15 21 16 8 17 9 19 10 20 11 21 16 22 12 23 14 24
REMARK SMILES IDX 13 25 15 26 25 27 26 28 27 29 28 30 29 31 30 33 31 34 32 35
REMARK SMILES IDX 93 36 33 37 92 38 34 39 35 40 36 41 86 42 37 43 91 44 85 45
REMARK SMILES IDX 87 46 38 47 90 48 84 49 83 50 39 52 71 53 51 54 70 55 52 56
REMARK SMILES IDX 55 57 69 58 88 59 53 60 54 61 68 63 89 64 56 65 40 66 41 67
REMARK SMILES IDX 49 68 42 69 43 70 47 71 50 72 44 73 45 74 48 75 46 76 72 77
REMARK SMILES IDX 73 78 81 79 74 80 75 81 79 82 82 83 76 84 77 85 80 86 78 87
REMARK SMILES IDX 57 88 58 89 66 90 59 91 60 92 64 93 67 94 61 95 62 96 65 97
REMARK SMILES IDX 63 98
REMARK H PARENT 23 5 8 18 28 32 87 51 55 62
REMARK Flexibility Score: inf
ROOT
ATOM      1  C   UNL A   1      34.212  31.993  28.355  1.00  0.00     0.116 C 
ENDROOT
BRANCH   1   2
ATOM      2  N   UNL A   1      33.705  31.423  27.127  1.00  0.00    -0.353 N 
ATOM      3  O   UNL A   1      34.262  29.254  27.636  1.00  0.00    -0.271 OA
ATOM      4  C   UNL A   1      33.694  30.061  26.904  1.00  0.00     0.258 C 
ATOM      5  H   UNL A   1      33.357  32.024  26.429  1.00  0.00     0.163 HD
BRANCH   4   6
ATOM      6  C   UNL A   1      32.980  29.620  25.615  1.00  0.00     0.331 C 
BRANCH   6   7
ATOM      7  O   UNL A   1      31.661  30.081  25.347  1.00  0.00    -0.467 OA
BRANCH   7   8
ATOM      8  C   UNL A   1      31.137  29.501  24.216  1.00  0.00     0.222 A 
ATOM      9  N   UNL A   1      31.721  28.384  23.756  1.00  0.00    -0.177 NA
ATOM     10  C   UNL A   1      29.989  29.996  23.681  1.00  0.00     0.036 A 
ATOM     11  C   UNL A   1      31.152  27.767  22.705  1.00  0.00     0.226 A 
ATOM     12  C   UNL A   1      29.486  29.300  22.611  1.00  0.00     0.053 A 
ATOM     13  C   UNL A   1      29.186  31.208  23.980  1.00  0.00     0.043 C 
ATOM     14  N   UNL A   1      30.034  28.193  22.100  1.00  0.00    -0.218 NA
ATOM     15  C   UNL A   1      28.266  29.975  22.051  1.00  0.00     0.057 C 
ATOM     16  C   UNL A   1      27.884  30.893  23.222  1.00  0.00     0.011 C 
BRANCH  11  17
ATOM     17  N   UNL A   1      31.796  26.651  22.261  1.00  0.00    -0.350 N 
ATOM     18  H   UNL A   1      32.398  26.734  21.486  1.00  0.00     0.164 HD
BRANCH  17  19
ATOM     19  C   UNL A   1      31.638  25.360  22.870  1.00  0.00     0.152 C 
BRANCH  19  20
ATOM     20  C   UNL A   1      32.846  24.990  23.705  1.00  0.00    -0.027 A 
ATOM     21  C   UNL A   1      33.013  25.473  25.014  1.00  0.00     0.005 A 
ATOM     22  C   UNL A   1      33.874  24.222  23.136  1.00  0.00     0.026 A 
ATOM     23  C   UNL A   1      34.163  25.170  25.747  1.00  0.00     0.002 A 
ATOM     24  C   UNL A   1      35.024  23.929  23.871  1.00  0.00     0.041 A 
ATOM     25  C   UNL A   1      35.171  24.397  25.174  1.00  0.00     0.020 A 
ATOM     26  Cl  UNL A   1      36.278  22.994  23.154  1.00  0.00    -0.084 Cl
ENDBRANCH  19  20
ENDBRANCH  17  19
ENDBRANCH  11  17
ENDBRANCH   7   8
ENDBRANCH   6   7
ENDBRANCH   4   6
ENDBRANCH   1   2
BRANCH   1  27
ATOM     27  C   UNL A   1      34.391  33.507  28.288  1.00  0.00     0.023 C 
BRANCH  27  28
ATOM     28  C   UNL A   1      33.151  34.325  28.656  1.00  0.00     0.023 C 
BRANCH  28  29
ATOM     29  C   UNL A   1      33.418  35.712  29.230  1.00  0.00     0.116 C 
BRANCH  29  30
ATOM     30  N   UNL A   1      32.548  36.051  30.345  1.00  0.00    -0.352 N 
ATOM     31  C   UNL A   1      32.677  35.753  31.681  1.00  0.00     0.251 C 
ATOM     32  H   UNL A   1      31.748  36.573  30.109  1.00  0.00     0.163 HD
ATOM     33  O   UNL A   1      31.774  36.031  32.465  1.00  0.00    -0.269 OA
BRANCH  31  34
ATOM     34  C   UNL A   1      33.889  35.066  32.180  1.00  0.00     0.039 A 
ATOM     35  C   UNL A   1      33.766  33.763  32.674  1.00  0.00     0.014 A 
ATOM     36  C   UNL A   1      35.138  35.694  32.170  1.00  0.00     0.014 A 
ATOM     37  C   UNL A   1      34.903  33.066  33.087  1.00  0.00     0.010 A 
ATOM     38  C   UNL A   1      36.279  34.974  32.516  1.00  0.00     0.010 A 
ATOM     39  C   UNL A   1      36.174  33.652  32.977  1.00  0.00    -0.014 A 
BRANCH  39  40
ATOM     40  C   UNL A   1      37.401  32.898  33.339  1.00  0.00     0.031 A 
ATOM     41  C   UNL A   1      38.114  33.185  34.629  1.00  0.00     0.074 A 
ATOM     42  C   UNL A   1      37.900  31.985  32.483  1.00  0.00     0.049 A 
ATOM     43  N   UNL A   1      39.224  32.668  35.095  1.00  0.00    -0.248 NA
ATOM     44  C   UNL A   1      37.513  34.203  35.503  1.00  0.00     0.031 C 
ATOM     45  C   UNL A   1      37.317  31.637  31.187  1.00  0.00     0.029 A 
ATOM     46  N   UNL A   1      39.010  31.182  32.575  1.00  0.00    -0.354 N 
ATOM     47  C   UNL A   1      39.452  33.297  36.310  1.00  0.00     0.074 A 
ATOM     48  C   UNL A   1      38.401  34.276  36.484  1.00  0.00     0.031 C 
ATOM     49  C   UNL A   1      38.056  30.670  30.618  1.00  0.00     0.029 A 
ATOM     50  C   UNL A   1      39.184  30.355  31.492  1.00  0.00     0.049 A 
ATOM     51  H   UNL A   1      39.624  31.197  33.344  1.00  0.00     0.167 HD
ATOM     52  C   UNL A   1      40.433  33.060  37.213  1.00  0.00     0.037 A 
ATOM     53  C   UNL A   1      40.144  29.447  31.231  1.00  0.00     0.037 A 
ATOM     54  C   UNL A   1      41.467  32.074  37.047  1.00  0.00     0.049 A 
ATOM     55  C   UNL A   1      41.244  29.226  32.234  1.00  0.00     0.074 A 
ATOM     56  C   UNL A   1      42.481  31.734  37.925  1.00  0.00     0.029 A 
ATOM     57  N   UNL A   1      41.620  31.269  35.928  1.00  0.00    -0.354 N 
ATOM     58  N   UNL A   1      41.424  29.796  33.400  1.00  0.00    -0.248 NA
ATOM     59  C   UNL A   1      42.273  28.238  31.883  1.00  0.00     0.031 C 
ATOM     60  C   UNL A   1      43.273  30.753  37.320  1.00  0.00     0.029 A 
ATOM     61  C   UNL A   1      42.726  30.449  36.083  1.00  0.00     0.049 A 
ATOM     62  H   UNL A   1      41.031  31.280  35.140  1.00  0.00     0.167 HD
ATOM     63  C   UNL A   1      42.571  29.224  33.933  1.00  0.00     0.074 A 
ATOM     64  C   UNL A   1      43.038  28.251  32.967  1.00  0.00     0.031 C 
ATOM     65  C   UNL A   1      43.181  29.484  35.114  1.00  0.00     0.037 A 
BRANCH  52  66
ATOM     66  C   UNL A   1      40.426  33.874  38.474  1.00  0.00     0.064 A 
ATOM     67  C   UNL A   1      41.178  35.054  38.586  1.00  0.00     0.173 A 
ATOM     68  C   UNL A   1      39.626  33.499  39.564  1.00  0.00     0.173 A 
ATOM     69  F   UNL A   1      41.967  35.449  37.576  1.00  0.00    -0.203 F 
ATOM     70  C   UNL A   1      41.148  35.814  39.751  1.00  0.00     0.198 A 
ATOM     71  C   UNL A   1      39.576  34.278  40.717  1.00  0.00     0.198 A 
ATOM     72  F   UNL A   1      38.883  32.383  39.507  1.00  0.00    -0.203 F 
ATOM     73  F   UNL A   1      41.908  36.913  39.852  1.00  0.00    -0.200 F 
ATOM     74  C   UNL A   1      40.341  35.430  40.812  1.00  0.00     0.200 A 
ATOM     75  F   UNL A   1      38.787  33.913  41.737  1.00  0.00    -0.200 F 
ATOM     76  F   UNL A   1      40.307  36.168  41.931  1.00  0.00    -0.200 F 
ENDBRANCH  52  66
BRANCH  53  77
ATOM     77  C   UNL A   1      40.078  28.651  29.980  1.00  0.00     0.064 A 
ATOM     78  C   UNL A   1      40.680  29.118  28.803  1.00  0.00     0.173 A 
ATOM     79  C   UNL A   1      39.444  27.400  29.937  1.00  0.00     0.173 A 
ATOM     80  F   UNL A   1      41.280  30.317  28.789  1.00  0.00    -0.203 F 
ATOM     81  C   UNL A   1      40.648  28.366  27.630  1.00  0.00     0.198 A 
ATOM     82  C   UNL A   1      39.434  26.639  28.771  1.00  0.00     0.198 A 
ATOM     83  F   UNL A   1      38.856  26.908  31.038  1.00  0.00    -0.203 F 
ATOM     84  F   UNL A   1      41.207  28.848  26.513  1.00  0.00    -0.200 F 
ATOM     85  C   UNL A   1      40.033  27.123  27.618  1.00  0.00     0.200 A 
ATOM     86  F   UNL A   1      38.850  25.433  28.766  1.00  0.00    -0.200 F 
ATOM     87  F   UNL A   1      40.014  26.394  26.493  1.00  0.00    -0.200 F 
ENDBRANCH  53  77
BRANCH  65  88
ATOM     88  C   UNL A   1      44.417  28.701  35.447  1.00  0.00     0.064 A 
ATOM     89  C   UNL A   1      44.344  27.469  36.114  1.00  0.00     0.173 A 
ATOM     90  C   UNL A   1      45.678  29.148  35.025  1.00  0.00     0.173 A 
ATOM     91  F   UNL A   1      43.163  27.006  36.548  1.00  0.00    -0.203 F 
ATOM     92  C   UNL A   1      45.491  26.718  36.355  1.00  0.00     0.198 A 
ATOM     93  C   UNL A   1      46.819  28.382  35.245  1.00  0.00     0.198 A 
ATOM     94  F   UNL A   1      45.800  30.316  34.377  1.00  0.00    -0.203 F 
ATOM     95  F   UNL A   1      45.403  25.558  37.020  1.00  0.00    -0.200 F 
ATOM     96  C   UNL A   1      46.726  27.170  35.912  1.00  0.00     0.200 A 
ATOM     97  F   UNL A   1      48.009  28.813  34.803  1.00  0.00    -0.200 F 
ATOM     98  F   UNL A   1      47.826  26.437  36.130  1.00  0.00    -0.200 F 
ENDBRANCH  65  88
ENDBRANCH  39  40
ENDBRANCH  31  34
ENDBRANCH  29  30
ENDBRANCH  28  29
ENDBRANCH  27  28
ENDBRANCH   1  27
TORSDOF 16
ENDMDL
MODEL 3
REMARK VINA RESULT:     -12.4      1.062      7.231
REMARK SMILES O=C(COc1nc(NCc2cccc(Cl)c2)nc2c1CCC2)NCCCCNC(=O)c1ccc(-c2c3nc(c(-c4c(F)c(F)c(F)c(F)c4F)c4ccc([nH]4)c(-c4c(F)c(F)c(F)c(F)c4F)c4nc(c(-c5c(F)c(F)c(F)c(F)c5F)c5ccc2[nH]5)C=C4)C=C3)cc1
REMARK SMILES IDX 24 1 23 2 1 3 2 4 3 6 4 7 5 8 6 9 19 10 7 11 18 12 20 13
REMARK SMILES IDX 17 14 22 15 21 16 8 17 9 19 10 20 11 21 16 22 12 23 14 24
REMARK SMILES IDX 13 25 15 26 25 27 26 28 27 29 28 30 29 31 30 33 31 34 32 35
REMARK SMILES IDX 93 36 33 37 92 38 34 39 35 40 36 41 86 42 37 43 91 44 85 45
REMARK SMILES IDX 87 46 38 47 90 48 84 49 83 50 39 52 71 53 51 54 70 55 52 56
REMARK SMILES IDX 55 57 69 58 88 59 53 60 54 61 68 63 89 64 56 65 40 66 41 67
REMARK SMILES IDX 49 68 42 69 43 70 47 71 50 72 44 73 45 74 48 75 46 76 72 77
REMARK SMILES IDX 73 78 81 79 74 80 75 81 79 82 82 83 76 84 77 85 80 86 78 87
REMARK SMILES IDX 57 88 58 89 66 90 59 91 60 92 64 93 67 94 61 95 62 96 65 97
REMARK SMILES IDX 63 98
REMARK H PARENT 23 5 8 18 28 32 87 51 55 62
REMARK Flexibility Score: inf
ROOT
ATOM      1  C   UNL A   1      33.101  30.178  26.344  1.00  0.00     0.116 C 
ENDROOT
BRANCH   1   2
ATOM      2  N   UNL A   1      33.083  29.785  24.953  1.00  0.00    -0.353 N 
ATOM      3  O   UNL A   1      33.636  27.588  25.329  1.00  0.00    -0.271 OA
ATOM      4  C   UNL A   1      33.270  28.475  24.561  1.00  0.00     0.258 C 
ATOM      5  H   UNL A   1      32.931  30.472  24.264  1.00  0.00     0.163 HD
BRANCH   4   6
ATOM      6  C   UNL A   1      33.066  28.211  23.059  1.00  0.00     0.331 C 
BRANCH   6   7
ATOM      7  O   UNL A   1      31.989  28.839  22.374  1.00  0.00    -0.467 OA
BRANCH   7   8
ATOM      8  C   UNL A   1      30.779  28.274  22.700  1.00  0.00     0.222 A 
ATOM      9  N   UNL A   1      30.774  27.003  23.132  1.00  0.00    -0.177 NA
ATOM     10  C   UNL A   1      29.658  29.045  22.697  1.00  0.00     0.036 A 
ATOM     11  C   UNL A   1      29.603  26.483  23.538  1.00  0.00     0.226 A 
ATOM     12  C   UNL A   1      28.511  28.426  23.126  1.00  0.00     0.053 A 
ATOM     13  C   UNL A   1      29.401  30.435  22.243  1.00  0.00     0.043 C 
ATOM     14  N   UNL A   1      28.445  27.160  23.549  1.00  0.00    -0.218 NA
ATOM     15  C   UNL A   1      27.325  29.340  23.006  1.00  0.00     0.057 C 
ATOM     16  C   UNL A   1      28.025  30.701  22.879  1.00  0.00     0.011 C 
BRANCH  11  17
ATOM     17  N   UNL A   1      29.647  25.183  23.944  1.00  0.00    -0.350 N 
ATOM     18  H   UNL A   1      28.958  24.864  24.571  1.00  0.00     0.164 HD
BRANCH  17  19
ATOM     19  C   UNL A   1      30.653  24.258  23.501  1.00  0.00     0.152 C 
BRANCH  19  20
ATOM     20  C   UNL A   1      31.581  23.865  24.631  1.00  0.00    -0.027 A 
ATOM     21  C   UNL A   1      31.096  23.289  25.817  1.00  0.00     0.005 A 
ATOM     22  C   UNL A   1      32.950  24.164  24.541  1.00  0.00     0.026 A 
ATOM     23  C   UNL A   1      31.961  22.990  26.873  1.00  0.00     0.002 A 
ATOM     24  C   UNL A   1      33.807  23.869  25.601  1.00  0.00     0.041 A 
ATOM     25  C   UNL A   1      33.319  23.281  26.765  1.00  0.00     0.020 A 
ATOM     26  Cl  UNL A   1      35.481  24.252  25.476  1.00  0.00    -0.084 Cl
ENDBRANCH  19  20
ENDBRANCH  17  19
ENDBRANCH  11  17
ENDBRANCH   7   8
ENDBRANCH   6   7
ENDBRANCH   4   6
ENDBRANCH   1   2
BRANCH   1  27
ATOM     27  C   UNL A   1      31.727  30.574  26.878  1.00  0.00     0.023 C 
BRANCH  27  28
ATOM     28  C   UNL A   1      31.444  32.078  26.891  1.00  0.00     0.023 C 
BRANCH  28  29
ATOM     29  C   UNL A   1      32.670  32.983  26.848  1.00  0.00     0.116 C 
BRANCH  29  30
ATOM     30  N   UNL A   1      32.512  34.203  27.625  1.00  0.00    -0.352 N 
ATOM     31  C   UNL A   1      33.192  34.626  28.742  1.00  0.00     0.251 C 
ATOM     32  H   UNL A   1      31.814  34.818  27.302  1.00  0.00     0.163 HD
ATOM     33  O   UNL A   1      32.837  35.643  29.331  1.00  0.00    -0.269 OA
BRANCH  31  34
ATOM     34  C   UNL A   1      34.335  33.843  29.264  1.00  0.00     0.039 A 
ATOM     35  C   UNL A   1      35.632  34.275  28.974  1.00  0.00     0.014 A 
ATOM     36  C   UNL A   1      34.137  32.690  30.029  1.00  0.00     0.014 A 
ATOM     37  C   UNL A   1      36.727  33.596  29.511  1.00  0.00     0.010 A 
ATOM     38  C   UNL A   1      35.227  32.055  30.621  1.00  0.00     0.010 A 
ATOM     39  C   UNL A   1      36.533  32.502  30.369  1.00  0.00    -0.014 A 
BRANCH  39  40
ATOM     40  C   UNL A   1      37.683  31.816  31.011  1.00  0.00     0.031 A 
ATOM     41  C   UNL A   1      38.079  32.157  32.418  1.00  0.00     0.074 A 
ATOM     42  C   UNL A   1      38.400  30.917  30.309  1.00  0.00     0.049 A 
ATOM     43  N   UNL A   1      39.080  31.703  33.130  1.00  0.00    -0.248 NA
ATOM     44  C   UNL A   1      37.253  33.155  33.114  1.00  0.00     0.031 C 
ATOM     45  C   UNL A   1      38.136  30.522  28.925  1.00  0.00     0.029 A 
ATOM     46  N   UNL A   1      39.499  30.173  30.663  1.00  0.00    -0.354 N 
ATOM     47  C   UNL A   1      39.005  32.360  34.349  1.00  0.00     0.074 A 
ATOM     48  C   UNL A   1      37.898  33.287  34.263  1.00  0.00     0.031 C 
ATOM     49  C   UNL A   1      39.026  29.586  28.558  1.00  0.00     0.029 A 
ATOM     50  C   UNL A   1      39.946  29.341  29.666  1.00  0.00     0.049 A 
ATOM     51  H   UNL A   1      39.926  30.230  31.548  1.00  0.00     0.167 HD
ATOM     52  C   UNL A   1      39.771  32.186  35.452  1.00  0.00     0.037 A 
ATOM     53  C   UNL A   1      40.981  28.479  29.646  1.00  0.00     0.037 A 
ATOM     54  C   UNL A   1      40.861  31.251  35.543  1.00  0.00     0.049 A 
ATOM     55  C   UNL A   1      41.840  28.328  30.871  1.00  0.00     0.074 A 
ATOM     56  C   UNL A   1      41.671  30.975  36.631  1.00  0.00     0.029 A 
ATOM     57  N   UNL A   1      41.295  30.439  34.505  1.00  0.00    -0.354 N 
ATOM     58  N   UNL A   1      41.732  28.922  32.034  1.00  0.00    -0.248 NA
ATOM     59  C   UNL A   1      42.966  27.389  30.781  1.00  0.00     0.031 C 
ATOM     60  C   UNL A   1      42.621  30.027  36.239  1.00  0.00     0.029 A 
ATOM     61  C   UNL A   1      42.376  29.678  34.921  1.00  0.00     0.049 A 
ATOM     62  H   UNL A   1      40.895  30.409  33.607  1.00  0.00     0.167 HD
ATOM     63  C   UNL A   1      42.758  28.417  32.820  1.00  0.00     0.074 A 
ATOM     64  C   UNL A   1      43.471  27.455  32.006  1.00  0.00     0.031 C 
ATOM     65  C   UNL A   1      43.078  28.724  34.100  1.00  0.00     0.037 A 
BRANCH  52  66
ATOM     66  C   UNL A   1      39.448  33.016  36.660  1.00  0.00     0.064 A 
ATOM     67  C   UNL A   1      38.489  32.602  37.596  1.00  0.00     0.173 A 
ATOM     68  C   UNL A   1      40.134  34.215  36.909  1.00  0.00     0.173 A 
ATOM     69  F   UNL A   1      37.798  31.469  37.397  1.00  0.00    -0.203 F 
ATOM     70  C   UNL A   1      38.211  33.368  38.724  1.00  0.00     0.198 A 
ATOM     71  C   UNL A   1      39.874  34.964  38.054  1.00  0.00     0.198 A 
ATOM     72  F   UNL A   1      41.064  34.654  36.048  1.00  0.00    -0.203 F 
ATOM     73  F   UNL A   1      37.260  32.974  39.582  1.00  0.00    -0.200 F 
ATOM     74  C   UNL A   1      38.909  34.544  38.956  1.00  0.00     0.200 A 
ATOM     75  F   UNL A   1      40.558  36.094  38.283  1.00  0.00    -0.200 F 
ATOM     76  F   UNL A   1      38.647  35.276  40.047  1.00  0.00    -0.200 F 
ENDBRANCH  52  66
BRANCH  53  77
ATOM     77  C   UNL A   1      41.231  27.663  28.431  1.00  0.00     0.064 A 
ATOM     78  C   UNL A   1      40.551  26.453  28.231  1.00  0.00     0.173 A 
ATOM     79  C   UNL A   1      42.125  28.082  27.434  1.00  0.00     0.173 A 
ATOM     80  F   UNL A   1      39.702  26.001  29.166  1.00  0.00    -0.203 F 
ATOM     81  C   UNL A   1      40.756  25.692  27.083  1.00  0.00     0.198 A 
ATOM     82  C   UNL A   1      42.312  27.332  26.276  1.00  0.00     0.198 A 
ATOM     83  F   UNL A   1      42.798  29.232  27.578  1.00  0.00    -0.203 F 
ATOM     84  F   UNL A   1      40.114  24.527  26.929  1.00  0.00    -0.200 F 
ATOM     85  C   UNL A   1      41.630  26.137  26.102  1.00  0.00     0.200 A 
ATOM     86  F   UNL A   1      43.146  27.771  25.324  1.00  0.00    -0.200 F 
ATOM     87  F   UNL A   1      41.817  25.412  24.990  1.00  0.00    -0.200 F 
ENDBRANCH  53  77
BRANCH  65  88
ATOM     88  C   UNL A   1      44.245  28.009  34.716  1.00  0.00     0.064 A 
ATOM     89  C   UNL A   1      45.529  28.573  34.717  1.00  0.00     0.173 A 
ATOM     90  C   UNL A   1      44.062  26.787  35.380  1.00  0.00     0.173 A 
ATOM     91  F   UNL A   1      45.757  29.734  34.085  1.00  0.00    -0.203 F 
ATOM     92  C   UNL A   1      46.590  27.934  35.353  1.00  0.00     0.198 A 
ATOM     93  C   UNL A   1      45.119  26.163  36.036  1.00  0.00     0.198 A 
ATOM     94  F   UNL A   1      42.851  26.209  35.413  1.00  0.00    -0.203 F 
ATOM     95  F   UNL A   1      47.816  28.475  35.316  1.00  0.00    -0.200 F 
ATOM     96  C   UNL A   1      46.382  26.735  36.020  1.00  0.00     0.200 A 
ATOM     97  F   UNL A   1      44.913  25.013  36.693  1.00  0.00    -0.200 F 
ATOM     98  F   UNL A   1      47.401  26.130  36.646  1.00  0.00    -0.200 F 
ENDBRANCH  65  88
ENDBRANCH  39  40
ENDBRANCH  31  34
ENDBRANCH  29  30
ENDBRANCH  28  29
ENDBRANCH  27  28
ENDBRANCH   1  27
TORSDOF 16
ENDMDL
