MODEL 1
REMARK VINA RESULT:     -10.8      0.000      0.000
REMARK SMILES CCCc1ccccc1OCC(=O)NCCCCNC(=O)c1ccc(-c2c3nc(c(-c4c(F)c(F)c(F)c(F)c4F)c4ccc([nH]4)c(-c4c(F)c(F)c(F)c(F)c4F)c4nc(c(-c5c(F)c(F)c(F)c(F)c5F)c5ccc2[nH]5)C=C4)C=C3)cc1
REMARK SMILES IDX 15 1 14 2 12 3 13 4 11 6 10 7 9 8 4 9 5 10 6 11 8 12 7 13
REMARK SMILES IDX 3 14 2 15 1 16 16 17 17 18 18 19 19 20 20 21 21 23 22 24
REMARK SMILES IDX 23 25 84 26 24 27 83 28 25 29 26 30 27 31 77 32 28 33 82 34
REMARK SMILES IDX 76 35 78 36 29 37 81 38 75 39 74 40 30 42 62 43 42 44 61 45
REMARK SMILES IDX 43 46 46 47 60 48 79 49 44 50 45 51 59 53 80 54 47 55 31 56
REMARK SMILES IDX 32 57 40 58 33 59 34 60 38 61 41 62 35 63 36 64 39 65 37 66
REMARK SMILES IDX 63 67 64 68 72 69 65 70 66 71 70 72 73 73 67 74 68 75 71 76
REMARK SMILES IDX 69 77 48 78 49 79 57 80 50 81 51 82 55 83 58 84 52 85 53 86
REMARK SMILES IDX 56 87 54 88
REMARK H PARENT 14 5 19 22 78 41 46 52
REMARK Flexibility Score: inf
ROOT
ATOM      1  C   UNL A   1      37.086  22.231  24.592  1.00  0.00     0.116 C 
ENDROOT
BRANCH   1   2
ATOM      2  N   UNL A   1      36.224  22.611  23.492  1.00  0.00    -0.353 N 
ATOM      3  C   UNL A   1      34.955  23.105  23.537  1.00  0.00     0.257 C 
ATOM      4  O   UNL A   1      34.445  23.475  22.476  1.00  0.00    -0.271 OA
ATOM      5  H   UNL A   1      36.605  22.495  22.592  1.00  0.00     0.163 HD
BRANCH   3   6
ATOM      6  C   UNL A   1      34.239  23.275  24.888  1.00  0.00     0.329 C 
BRANCH   6   7
ATOM      7  O   UNL A   1      34.023  24.538  25.479  1.00  0.00    -0.483 OA
BRANCH   7   8
ATOM      8  C   UNL A   1      32.789  25.117  25.547  1.00  0.00     0.123 A 
ATOM      9  C   UNL A   1      32.411  26.459  25.364  1.00  0.00    -0.006 A 
ATOM     10  C   UNL A   1      31.039  26.773  25.514  1.00  0.00     0.007 A 
ATOM     11  C   UNL A   1      30.087  25.822  25.886  1.00  0.00     0.001 A 
ATOM     12  C   UNL A   1      31.821  24.175  25.955  1.00  0.00     0.047 A 
ATOM     13  C   UNL A   1      30.483  24.520  26.129  1.00  0.00     0.004 A 
BRANCH   9  14
ATOM     14  C   UNL A   1      33.380  27.619  25.218  1.00  0.00     0.039 C 
BRANCH  14  15
ATOM     15  C   UNL A   1      34.090  28.107  26.493  1.00  0.00     0.001 C 
ATOM     16  C   UNL A   1      33.463  29.370  27.072  1.00  0.00     0.004 C 
ENDBRANCH  14  15
ENDBRANCH   9  14
ENDBRANCH   7   8
ENDBRANCH   6   7
ENDBRANCH   3   6
ENDBRANCH   1   2
BRANCH   1  17
ATOM     17  C   UNL A   1      36.910  20.769  24.988  1.00  0.00     0.023 C 
BRANCH  17  18
ATOM     18  C   UNL A   1      38.160  19.895  24.854  1.00  0.00     0.023 C 
BRANCH  18  19
ATOM     19  C   UNL A   1      39.269  20.160  25.867  1.00  0.00     0.116 C 
BRANCH  19  20
ATOM     20  N   UNL A   1      40.262  19.099  25.918  1.00  0.00    -0.352 N 
ATOM     21  C   UNL A   1      41.620  19.177  26.118  1.00  0.00     0.251 C 
ATOM     22  H   UNL A   1      39.909  18.188  25.790  1.00  0.00     0.163 HD
ATOM     23  O   UNL A   1      42.316  18.176  26.009  1.00  0.00    -0.269 OA
BRANCH  21  24
ATOM     24  C   UNL A   1      42.248  20.481  26.426  1.00  0.00     0.039 A 
ATOM     25  C   UNL A   1      42.792  21.226  25.377  1.00  0.00     0.014 A 
ATOM     26  C   UNL A   1      42.293  20.975  27.733  1.00  0.00     0.014 A 
ATOM     27  C   UNL A   1      43.306  22.500  25.625  1.00  0.00     0.010 A 
ATOM     28  C   UNL A   1      42.737  22.274  27.967  1.00  0.00     0.010 A 
ATOM     29  C   UNL A   1      43.240  23.054  26.914  1.00  0.00    -0.014 A 
BRANCH  29  30
ATOM     30  C   UNL A   1      43.661  24.456  27.169  1.00  0.00     0.031 A 
ATOM     31  C   UNL A   1      42.664  25.481  27.632  1.00  0.00     0.074 A 
ATOM     32  C   UNL A   1      44.935  24.821  26.919  1.00  0.00     0.049 A 
ATOM     33  N   UNL A   1      42.832  26.762  27.847  1.00  0.00    -0.248 NA
ATOM     34  C   UNL A   1      41.289  25.011  27.858  1.00  0.00     0.031 C 
ATOM     35  C   UNL A   1      45.986  23.931  26.423  1.00  0.00     0.029 A 
ATOM     36  N   UNL A   1      45.561  26.038  27.037  1.00  0.00    -0.354 N 
ATOM     37  C   UNL A   1      41.588  27.249  28.223  1.00  0.00     0.074 A 
ATOM     38  C   UNL A   1      40.662  26.140  28.155  1.00  0.00     0.031 C 
ATOM     39  C   UNL A   1      47.129  24.623  26.303  1.00  0.00     0.029 A 
ATOM     40  C   UNL A   1      46.884  26.015  26.670  1.00  0.00     0.049 A 
ATOM     41  H   UNL A   1      45.103  26.849  27.355  1.00  0.00     0.167 HD
ATOM     42  C   UNL A   1      41.253  28.504  28.609  1.00  0.00     0.037 A 
ATOM     43  C   UNL A   1      47.795  27.005  26.623  1.00  0.00     0.037 A 
ATOM     44  C   UNL A   1      42.182  29.601  28.692  1.00  0.00     0.049 A 
ATOM     45  C   UNL A   1      47.389  28.396  27.035  1.00  0.00     0.074 A 
ATOM     46  C   UNL A   1      41.954  30.892  29.136  1.00  0.00     0.029 A 
ATOM     47  N   UNL A   1      43.516  29.540  28.313  1.00  0.00    -0.354 N 
ATOM     48  N   UNL A   1      46.229  28.827  27.464  1.00  0.00    -0.248 NA
ATOM     49  C   UNL A   1      48.424  29.436  26.958  1.00  0.00     0.031 C 
ATOM     50  C   UNL A   1      43.133  31.628  28.970  1.00  0.00     0.029 A 
ATOM     51  C   UNL A   1      44.113  30.780  28.481  1.00  0.00     0.049 A 
ATOM     52  H   UNL A   1      43.971  28.735  27.975  1.00  0.00     0.167 HD
ATOM     53  C   UNL A   1      46.400  30.178  27.735  1.00  0.00     0.074 A 
ATOM     54  C   UNL A   1      47.782  30.491  27.439  1.00  0.00     0.031 C 
ATOM     55  C   UNL A   1      45.492  31.078  28.186  1.00  0.00     0.037 A 
BRANCH  42  56
ATOM     56  C   UNL A   1      39.818  28.764  28.969  1.00  0.00     0.064 A 
ATOM     57  C   UNL A   1      39.345  28.597  30.279  1.00  0.00     0.173 A 
ATOM     58  C   UNL A   1      38.916  29.232  28.002  1.00  0.00     0.173 A 
ATOM     59  F   UNL A   1      40.163  28.145  31.241  1.00  0.00    -0.203 F 
ATOM     60  C   UNL A   1      38.016  28.862  30.601  1.00  0.00     0.198 A 
ATOM     61  C   UNL A   1      37.596  29.526  28.334  1.00  0.00     0.198 A 
ATOM     62  F   UNL A   1      39.317  29.416  26.734  1.00  0.00    -0.203 F 
ATOM     63  F   UNL A   1      37.575  28.648  31.848  1.00  0.00    -0.200 F 
ATOM     64  C   UNL A   1      37.145  29.333  29.630  1.00  0.00     0.200 A 
ATOM     65  F   UNL A   1      36.760  29.997  27.398  1.00  0.00    -0.200 F 
ATOM     66  F   UNL A   1      35.869  29.597  29.944  1.00  0.00    -0.200 F 
ENDBRANCH  42  56
BRANCH  43  67
ATOM     67  C   UNL A   1      49.187  26.719  26.183  1.00  0.00     0.064 A 
ATOM     68  C   UNL A   1      49.567  26.887  24.844  1.00  0.00     0.173 A 
ATOM     69  C   UNL A   1      50.160  26.263  27.084  1.00  0.00     0.173 A 
ATOM     70  F   UNL A   1      48.666  27.301  23.940  1.00  0.00    -0.203 F 
ATOM     71  C   UNL A   1      50.859  26.586  24.418  1.00  0.00     0.198 A 
ATOM     72  C   UNL A   1      51.461  25.992  26.664  1.00  0.00     0.198 A 
ATOM     73  F   UNL A   1      49.852  26.090  28.377  1.00  0.00    -0.203 F 
ATOM     74  F   UNL A   1      51.179  26.704  23.123  1.00  0.00    -0.200 F 
ATOM     75  C   UNL A   1      51.806  26.144  25.329  1.00  0.00     0.200 A 
ATOM     76  F   UNL A   1      52.378  25.582  27.550  1.00  0.00    -0.200 F 
ATOM     77  F   UNL A   1      53.050  25.857  24.920  1.00  0.00    -0.200 F 
ENDBRANCH  43  67
BRANCH  55  78
ATOM     78  C   UNL A   1      45.971  32.482  28.421  1.00  0.00     0.064 A 
ATOM     79  C   UNL A   1      46.551  32.871  29.638  1.00  0.00     0.173 A 
ATOM     80  C   UNL A   1      45.883  33.443  27.401  1.00  0.00     0.173 A 
ATOM     81  F   UNL A   1      46.645  31.996  30.650  1.00  0.00    -0.203 F 
ATOM     82  C   UNL A   1      46.999  34.175  29.833  1.00  0.00     0.198 A 
ATOM     83  C   UNL A   1      46.362  34.736  27.587  1.00  0.00     0.198 A 
ATOM     84  F   UNL A   1      45.342  33.122  26.215  1.00  0.00    -0.203 F 
ATOM     85  F   UNL A   1      47.502  34.538  31.021  1.00  0.00    -0.200 F 
ATOM     86  C   UNL A   1      46.913  35.104  28.806  1.00  0.00     0.200 A 
ATOM     87  F   UNL A   1      46.293  35.627  26.588  1.00  0.00    -0.200 F 
ATOM     88  F   UNL A   1      47.352  36.355  28.993  1.00  0.00    -0.200 F 
ENDBRANCH  55  78
ENDBRANCH  29  30
ENDBRANCH  21  24
ENDBRANCH  19  20
ENDBRANCH  18  19
ENDBRANCH  17  18
ENDBRANCH   1  17
TORSDOF 15
ENDMDL
MODEL 2
REMARK VINA RESULT:     -10.7      5.893     11.408
REMARK SMILES CCCc1ccccc1OCC(=O)NCCCCNC(=O)c1ccc(-c2c3nc(c(-c4c(F)c(F)c(F)c(F)c4F)c4ccc([nH]4)c(-c4c(F)c(F)c(F)c(F)c4F)c4nc(c(-c5c(F)c(F)c(F)c(F)c5F)c5ccc2[nH]5)C=C4)C=C3)cc1
REMARK SMILES IDX 15 1 14 2 12 3 13 4 11 6 10 7 9 8 4 9 5 10 6 11 8 12 7 13
REMARK SMILES IDX 3 14 2 15 1 16 16 17 17 18 18 19 19 20 20 21 21 23 22 24
REMARK SMILES IDX 23 25 84 26 24 27 83 28 25 29 26 30 27 31 77 32 28 33 82 34
REMARK SMILES IDX 76 35 78 36 29 37 81 38 75 39 74 40 30 42 62 43 42 44 61 45
REMARK SMILES IDX 43 46 46 47 60 48 79 49 44 50 45 51 59 53 80 54 47 55 31 56
REMARK SMILES IDX 32 57 40 58 33 59 34 60 38 61 41 62 35 63 36 64 39 65 37 66
REMARK SMILES IDX 63 67 64 68 72 69 65 70 66 71 70 72 73 73 67 74 68 75 71 76
REMARK SMILES IDX 69 77 48 78 49 79 57 80 50 81 51 82 55 83 58 84 52 85 53 86
REMARK SMILES IDX 56 87 54 88
REMARK H PARENT 14 5 19 22 78 41 46 52
REMARK Flexibility Score: inf
ROOT
ATOM      1  C   UNL A   1      32.328  29.299  26.989  1.00  0.00     0.116 C 
ENDROOT
BRANCH   1   2
ATOM      2  N   UNL A   1      31.417  28.174  26.953  1.00  0.00    -0.353 N 
ATOM      3  C   UNL A   1      31.658  26.896  26.547  1.00  0.00     0.257 C 
ATOM      4  O   UNL A   1      30.765  26.063  26.712  1.00  0.00    -0.271 OA
ATOM      5  H   UNL A   1      30.501  28.358  27.262  1.00  0.00     0.163 HD
BRANCH   3   6
ATOM      6  C   UNL A   1      33.040  26.510  25.991  1.00  0.00     0.329 C 
BRANCH   6   7
ATOM      7  O   UNL A   1      33.610  25.235  26.193  1.00  0.00    -0.483 OA
BRANCH   7   8
ATOM      8  C   UNL A   1      34.259  24.555  25.203  1.00  0.00     0.123 A 
ATOM      9  C   UNL A   1      33.750  23.963  24.033  1.00  0.00    -0.006 A 
ATOM     10  C   UNL A   1      34.673  23.302  23.187  1.00  0.00     0.007 A 
ATOM     11  C   UNL A   1      36.026  23.175  23.505  1.00  0.00     0.001 A 
ATOM     12  C   UNL A   1      35.622  24.389  25.527  1.00  0.00     0.047 A 
ATOM     13  C   UNL A   1      36.500  23.703  24.692  1.00  0.00     0.004 A 
BRANCH   9  14
ATOM     14  C   UNL A   1      32.275  23.808  23.712  1.00  0.00     0.039 C 
BRANCH  14  15
ATOM     15  C   UNL A   1      31.575  24.993  23.023  1.00  0.00     0.001 C 
ATOM     16  C   UNL A   1      30.141  25.191  23.501  1.00  0.00     0.004 C 
ENDBRANCH  14  15
ENDBRANCH   9  14
ENDBRANCH   7   8
ENDBRANCH   6   7
ENDBRANCH   3   6
ENDBRANCH   1   2
BRANCH   1  17
ATOM     17  C   UNL A   1      31.855  30.456  26.114  1.00  0.00     0.023 C 
BRANCH  17  18
ATOM     18  C   UNL A   1      31.565  31.765  26.853  1.00  0.00     0.023 C 
BRANCH  18  19
ATOM     19  C   UNL A   1      32.785  32.590  27.250  1.00  0.00     0.116 C 
BRANCH  19  20
ATOM     20  N   UNL A   1      32.458  33.966  27.589  1.00  0.00    -0.352 N 
ATOM     21  C   UNL A   1      33.020  34.793  28.533  1.00  0.00     0.251 C 
ATOM     22  H   UNL A   1      31.726  34.364  27.066  1.00  0.00     0.163 HD
ATOM     23  O   UNL A   1      32.528  35.891  28.758  1.00  0.00    -0.269 OA
BRANCH  21  24
ATOM     24  C   UNL A   1      34.197  34.340  29.307  1.00  0.00     0.039 A 
ATOM     25  C   UNL A   1      33.987  33.726  30.545  1.00  0.00     0.014 A 
ATOM     26  C   UNL A   1      35.495  34.505  28.819  1.00  0.00     0.014 A 
ATOM     27  C   UNL A   1      35.071  33.205  31.253  1.00  0.00     0.010 A 
ATOM     28  C   UNL A   1      36.567  33.920  29.489  1.00  0.00     0.010 A 
ATOM     29  C   UNL A   1      36.365  33.255  30.709  1.00  0.00    -0.014 A 
BRANCH  29  30
ATOM     30  C   UNL A   1      37.508  32.591  31.387  1.00  0.00     0.031 A 
ATOM     31  C   UNL A   1      38.210  31.430  30.739  1.00  0.00     0.074 A 
ATOM     32  C   UNL A   1      37.874  32.996  32.619  1.00  0.00     0.049 A 
ATOM     33  N   UNL A   1      39.184  30.688  31.203  1.00  0.00    -0.248 NA
ATOM     34  C   UNL A   1      37.737  31.032  29.405  1.00  0.00     0.031 C 
ATOM     35  C   UNL A   1      37.243  34.080  33.374  1.00  0.00     0.029 A 
ATOM     36  N   UNL A   1      38.857  32.537  33.461  1.00  0.00    -0.354 N 
ATOM     37  C   UNL A   1      39.432  29.734  30.226  1.00  0.00     0.074 A 
ATOM     38  C   UNL A   1      38.472  29.956  29.166  1.00  0.00     0.031 C 
ATOM     39  C   UNL A   1      37.869  34.219  34.552  1.00  0.00     0.029 A 
ATOM     40  C   UNL A   1      38.915  33.207  34.659  1.00  0.00     0.049 A 
ATOM     41  H   UNL A   1      39.463  31.796  33.227  1.00  0.00     0.167 HD
ATOM     42  C   UNL A   1      40.387  28.773  30.205  1.00  0.00     0.037 A 
ATOM     43  C   UNL A   1      39.713  33.020  35.727  1.00  0.00     0.037 A 
ATOM     44  C   UNL A   1      41.352  28.567  31.254  1.00  0.00     0.049 A 
ATOM     45  C   UNL A   1      40.750  31.929  35.687  1.00  0.00     0.074 A 
ATOM     46  C   UNL A   1      42.400  27.665  31.296  1.00  0.00     0.029 A 
ATOM     47  N   UNL A   1      41.380  29.267  32.452  1.00  0.00    -0.354 N 
ATOM     48  N   UNL A   1      41.027  31.085  34.724  1.00  0.00    -0.248 NA
ATOM     49  C   UNL A   1      41.588  31.768  36.883  1.00  0.00     0.031 C 
ATOM     50  C   UNL A   1      43.026  27.777  32.542  1.00  0.00     0.029 A 
ATOM     51  C   UNL A   1      42.408  28.792  33.253  1.00  0.00     0.049 A 
ATOM     52  H   UNL A   1      40.763  29.993  32.697  1.00  0.00     0.167 HD
ATOM     53  C   UNL A   1      42.086  30.314  35.184  1.00  0.00     0.074 A 
ATOM     54  C   UNL A   1      42.415  30.803  36.507  1.00  0.00     0.031 C 
ATOM     55  C   UNL A   1      42.727  29.291  34.567  1.00  0.00     0.037 A 
BRANCH  42  56
ATOM     56  C   UNL A   1      40.437  27.864  29.010  1.00  0.00     0.064 A 
ATOM     57  C   UNL A   1      39.670  26.691  28.943  1.00  0.00     0.173 A 
ATOM     58  C   UNL A   1      41.227  28.194  27.898  1.00  0.00     0.173 A 
ATOM     59  F   UNL A   1      38.903  26.325  29.980  1.00  0.00    -0.203 F 
ATOM     60  C   UNL A   1      39.713  25.869  27.819  1.00  0.00     0.198 A 
ATOM     61  C   UNL A   1      41.244  27.386  26.765  1.00  0.00     0.198 A 
ATOM     62  F   UNL A   1      41.976  29.308  27.906  1.00  0.00    -0.203 F 
ATOM     63  F   UNL A   1      39.009  24.729  27.798  1.00  0.00    -0.200 F 
ATOM     64  C   UNL A   1      40.493  26.221  26.728  1.00  0.00     0.200 A 
ATOM     65  F   UNL A   1      41.986  27.737  25.705  1.00  0.00    -0.200 F 
ATOM     66  F   UNL A   1      40.526  25.434  25.644  1.00  0.00    -0.200 F 
ENDBRANCH  42  56
BRANCH  43  67
ATOM     67  C   UNL A   1      39.576  33.893  36.924  1.00  0.00     0.064 A 
ATOM     68  C   UNL A   1      38.803  33.492  38.022  1.00  0.00     0.173 A 
ATOM     69  C   UNL A   1      40.202  35.147  36.990  1.00  0.00     0.173 A 
ATOM     70  F   UNL A   1      38.168  32.311  37.998  1.00  0.00    -0.203 F 
ATOM     71  C   UNL A   1      38.641  34.322  39.130  1.00  0.00     0.198 A 
ATOM     72  C   UNL A   1      40.065  35.962  38.112  1.00  0.00     0.198 A 
ATOM     73  F   UNL A   1      40.956  35.577  35.968  1.00  0.00    -0.203 F 
ATOM     74  F   UNL A   1      37.853  33.935  40.143  1.00  0.00    -0.200 F 
ATOM     75  C   UNL A   1      39.276  35.553  39.177  1.00  0.00     0.200 A 
ATOM     76  F   UNL A   1      40.694  37.144  38.160  1.00  0.00    -0.200 F 
ATOM     77  F   UNL A   1      39.122  36.349  40.244  1.00  0.00    -0.200 F 
ENDBRANCH  43  67
BRANCH  55  78
ATOM     78  C   UNL A   1      43.872  28.652  35.300  1.00  0.00     0.064 A 
ATOM     79  C   UNL A   1      45.185  29.129  35.179  1.00  0.00     0.173 A 
ATOM     80  C   UNL A   1      43.645  27.569  36.166  1.00  0.00     0.173 A 
ATOM     81  F   UNL A   1      45.458  30.151  34.353  1.00  0.00    -0.203 F 
ATOM     82  C   UNL A   1      46.232  28.530  35.875  1.00  0.00     0.198 A 
ATOM     83  C   UNL A   1      44.688  26.995  36.886  1.00  0.00     0.198 A 
ATOM     84  F   UNL A   1      42.407  27.078  36.323  1.00  0.00    -0.203 F 
ATOM     85  F   UNL A   1      47.486  28.970  35.703  1.00  0.00    -0.200 F 
ATOM     86  C   UNL A   1      45.982  27.470  36.734  1.00  0.00     0.200 A 
ATOM     87  F   UNL A   1      44.442  25.981  37.727  1.00  0.00    -0.200 F 
ATOM     88  F   UNL A   1      46.989  26.901  37.409  1.00  0.00    -0.200 F 
ENDBRANCH  55  78
ENDBRANCH  29  30
ENDBRANCH  21  24
ENDBRANCH  19  20
ENDBRANCH  18  19
ENDBRANCH  17  18
ENDBRANCH   1  17
TORSDOF 15
ENDMDL
MODEL 3
REMARK VINA RESULT:     -10.7      0.326      2.040
REMARK SMILES CCCc1ccccc1OCC(=O)NCCCCNC(=O)c1ccc(-c2c3nc(c(-c4c(F)c(F)c(F)c(F)c4F)c4ccc([nH]4)c(-c4c(F)c(F)c(F)c(F)c4F)c4nc(c(-c5c(F)c(F)c(F)c(F)c5F)c5ccc2[nH]5)C=C4)C=C3)cc1
REMARK SMILES IDX 15 1 14 2 12 3 13 4 11 6 10 7 9 8 4 9 5 10 6 11 8 12 7 13
REMARK SMILES IDX 3 14 2 15 1 16 16 17 17 18 18 19 19 20 20 21 21 23 22 24
REMARK SMILES IDX 23 25 84 26 24 27 83 28 25 29 26 30 27 31 77 32 28 33 82 34
REMARK SMILES IDX 76 35 78 36 29 37 81 38 75 39 74 40 30 42 62 43 42 44 61 45
REMARK SMILES IDX 43 46 46 47 60 48 79 49 44 50 45 51 59 53 80 54 47 55 31 56
REMARK SMILES IDX 32 57 40 58 33 59 34 60 38 61 41 62 35 63 36 64 39 65 37 66
REMARK SMILES IDX 63 67 64 68 72 69 65 70 66 71 70 72 73 73 67 74 68 75 71 76
REMARK SMILES IDX 69 77 48 78 49 79 57 80 50 81 51 82 55 83 58 84 52 85 53 86
REMARK SMILES IDX 56 87 54 88
REMARK H PARENT 14 5 19 22 78 41 46 52
REMARK Flexibility Score: inf
ROOT
ATOM      1  C   UNL A   1      37.126  22.369  24.579  1.00  0.00     0.116 C 
ENDROOT
BRANCH   1   2
ATOM      2  N   UNL A   1      36.262  22.675  23.459  1.00  0.00    -0.353 N 
ATOM      3  C   UNL A   1      35.029  23.254  23.469  1.00  0.00     0.257 C 
ATOM      4  O   UNL A   1      34.515  23.532  22.383  1.00  0.00    -0.271 OA
ATOM      5  H   UNL A   1      36.612  22.432  22.572  1.00  0.00     0.163 HD
BRANCH   3   6
ATOM      6  C   UNL A   1      34.360  23.625  24.804  1.00  0.00     0.329 C 
BRANCH   6   7
ATOM      7  O   UNL A   1      34.173  24.962  25.213  1.00  0.00    -0.483 OA
BRANCH   7   8
ATOM      8  C   UNL A   1      32.953  25.576  25.185  1.00  0.00     0.123 A 
ATOM      9  C   UNL A   1      32.597  26.891  25.537  1.00  0.00    -0.006 A 
ATOM     10  C   UNL A   1      31.232  27.246  25.417  1.00  0.00     0.007 A 
ATOM     11  C   UNL A   1      30.250  26.335  25.026  1.00  0.00     0.001 A 
ATOM     12  C   UNL A   1      31.944  24.659  24.824  1.00  0.00     0.047 A 
ATOM     13  C   UNL A   1      30.604  25.028  24.748  1.00  0.00     0.004 A 
BRANCH   9  14
ATOM     14  C   UNL A   1      33.520  27.884  26.219  1.00  0.00     0.039 C 
BRANCH  14  15
ATOM     15  C   UNL A   1      32.886  28.850  27.237  1.00  0.00     0.001 C 
ATOM     16  C   UNL A   1      33.550  30.222  27.242  1.00  0.00     0.004 C 
ENDBRANCH  14  15
ENDBRANCH   9  14
ENDBRANCH   7   8
ENDBRANCH   6   7
ENDBRANCH   3   6
ENDBRANCH   1   2
BRANCH   1  17
ATOM     17  C   UNL A   1      36.916  20.952  25.104  1.00  0.00     0.023 C 
BRANCH  17  18
ATOM     18  C   UNL A   1      38.123  20.018  24.980  1.00  0.00     0.023 C 
BRANCH  18  19
ATOM     19  C   UNL A   1      39.235  20.227  26.002  1.00  0.00     0.116 C 
BRANCH  19  20
ATOM     20  N   UNL A   1      40.228  19.165  25.991  1.00  0.00    -0.352 N 
ATOM     21  C   UNL A   1      41.594  19.240  26.129  1.00  0.00     0.251 C 
ATOM     22  H   UNL A   1      39.869  18.257  25.865  1.00  0.00     0.163 HD
ATOM     23  O   UNL A   1      42.283  18.241  25.973  1.00  0.00    -0.269 OA
BRANCH  21  24
ATOM     24  C   UNL A   1      42.237  20.539  26.429  1.00  0.00     0.039 A 
ATOM     25  C   UNL A   1      42.743  21.295  25.368  1.00  0.00     0.014 A 
ATOM     26  C   UNL A   1      42.333  21.018  27.738  1.00  0.00     0.014 A 
ATOM     27  C   UNL A   1      43.269  22.565  25.610  1.00  0.00     0.010 A 
ATOM     28  C   UNL A   1      42.788  22.314  27.970  1.00  0.00     0.010 A 
ATOM     29  C   UNL A   1      43.253  23.105  26.907  1.00  0.00    -0.014 A 
BRANCH  29  30
ATOM     30  C   UNL A   1      43.688  24.502  27.162  1.00  0.00     0.031 A 
ATOM     31  C   UNL A   1      42.700  25.537  27.624  1.00  0.00     0.074 A 
ATOM     32  C   UNL A   1      44.964  24.855  26.912  1.00  0.00     0.049 A 
ATOM     33  N   UNL A   1      42.880  26.816  27.840  1.00  0.00    -0.248 NA
ATOM     34  C   UNL A   1      41.321  25.080  27.851  1.00  0.00     0.031 C 
ATOM     35  C   UNL A   1      46.008  23.956  26.416  1.00  0.00     0.029 A 
ATOM     36  N   UNL A   1      45.602  26.066  27.030  1.00  0.00    -0.354 N 
ATOM     37  C   UNL A   1      41.640  27.315  28.215  1.00  0.00     0.074 A 
ATOM     38  C   UNL A   1      40.704  26.214  28.147  1.00  0.00     0.031 C 
ATOM     39  C   UNL A   1      47.157  24.637  26.297  1.00  0.00     0.029 A 
ATOM     40  C   UNL A   1      46.925  26.031  26.664  1.00  0.00     0.049 A 
ATOM     41  H   UNL A   1      45.151  26.882  27.348  1.00  0.00     0.167 HD
ATOM     42  C   UNL A   1      41.317  28.573  28.600  1.00  0.00     0.037 A 
ATOM     43  C   UNL A   1      47.845  27.013  26.617  1.00  0.00     0.037 A 
ATOM     44  C   UNL A   1      42.256  29.662  28.683  1.00  0.00     0.049 A 
ATOM     45  C   UNL A   1      47.452  28.408  27.028  1.00  0.00     0.074 A 
ATOM     46  C   UNL A   1      42.040  30.955  29.127  1.00  0.00     0.029 A 
ATOM     47  N   UNL A   1      43.589  29.588  28.305  1.00  0.00    -0.354 N 
ATOM     48  N   UNL A   1      46.296  28.849  27.457  1.00  0.00    -0.248 NA
ATOM     49  C   UNL A   1      48.496  29.438  26.951  1.00  0.00     0.031 C 
ATOM     50  C   UNL A   1      43.225  31.680  28.961  1.00  0.00     0.029 A 
ATOM     51  C   UNL A   1      44.198  30.822  28.473  1.00  0.00     0.049 A 
ATOM     52  H   UNL A   1      44.037  28.779  27.967  1.00  0.00     0.167 HD
ATOM     53  C   UNL A   1      46.479  30.198  27.727  1.00  0.00     0.074 A 
ATOM     54  C   UNL A   1      47.865  30.499  27.432  1.00  0.00     0.031 C 
ATOM     55  C   UNL A   1      45.580  31.107  28.178  1.00  0.00     0.037 A 
BRANCH  42  56
ATOM     56  C   UNL A   1      39.884  28.847  28.961  1.00  0.00     0.064 A 
ATOM     57  C   UNL A   1      38.945  29.248  27.999  1.00  0.00     0.173 A 
ATOM     58  C   UNL A   1      39.434  28.660  30.277  1.00  0.00     0.173 A 
ATOM     59  F   UNL A   1      39.324  29.448  26.727  1.00  0.00    -0.203 F 
ATOM     60  C   UNL A   1      37.617  29.479  28.346  1.00  0.00     0.198 A 
ATOM     61  C   UNL A   1      38.099  28.861  30.614  1.00  0.00     0.198 A 
ATOM     62  F   UNL A   1      40.289  28.271  31.236  1.00  0.00    -0.203 F 
ATOM     63  F   UNL A   1      36.749  29.909  27.419  1.00  0.00    -0.200 F 
ATOM     64  C   UNL A   1      37.193  29.277  29.651  1.00  0.00     0.200 A 
ATOM     65  F   UNL A   1      37.688  28.650  31.872  1.00  0.00    -0.200 F 
ATOM     66  F   UNL A   1      35.911  29.490  29.981  1.00  0.00    -0.200 F 
ENDBRANCH  42  56
BRANCH  43  67
ATOM     67  C   UNL A   1      49.234  26.714  26.177  1.00  0.00     0.064 A 
ATOM     68  C   UNL A   1      50.189  26.234  27.084  1.00  0.00     0.173 A 
ATOM     69  C   UNL A   1      49.640  26.910  24.849  1.00  0.00     0.173 A 
ATOM     70  F   UNL A   1      49.856  26.050  28.370  1.00  0.00    -0.203 F 
ATOM     71  C   UNL A   1      51.501  25.987  26.686  1.00  0.00     0.198 A 
ATOM     72  C   UNL A   1      50.944  26.633  24.444  1.00  0.00     0.198 A 
ATOM     73  F   UNL A   1      48.765  27.364  23.938  1.00  0.00    -0.203 F 
ATOM     74  F   UNL A   1      52.406  25.580  27.587  1.00  0.00    -0.200 F 
ATOM     75  C   UNL A   1      51.876  26.181  25.366  1.00  0.00     0.200 A 
ATOM     76  F   UNL A   1      51.298  26.806  23.163  1.00  0.00    -0.200 F 
ATOM     77  F   UNL A   1      53.138  25.940  24.983  1.00  0.00    -0.200 F 
ENDBRANCH  43  67
BRANCH  55  78
ATOM     78  C   UNL A   1      46.072  32.507  28.412  1.00  0.00     0.064 A 
ATOM     79  C   UNL A   1      45.999  33.492  27.416  1.00  0.00     0.173 A 
ATOM     80  C   UNL A   1      46.590  32.878  29.664  1.00  0.00     0.173 A 
ATOM     81  F   UNL A   1      45.527  33.186  26.198  1.00  0.00    -0.203 F 
ATOM     82  C   UNL A   1      46.451  34.787  27.655  1.00  0.00     0.198 A 
ATOM     83  C   UNL A   1      47.009  34.182  29.910  1.00  0.00     0.198 A 
ATOM     84  F   UNL A   1      46.676  31.977  30.654  1.00  0.00    -0.203 F 
ATOM     85  F   UNL A   1      46.420  35.697  26.671  1.00  0.00    -0.200 F 
ATOM     86  C   UNL A   1      46.947  35.134  28.903  1.00  0.00     0.200 A 
ATOM     87  F   UNL A   1      47.473  34.519  31.121  1.00  0.00    -0.200 F 
ATOM     88  F   UNL A   1      47.373  36.382  29.133  1.00  0.00    -0.200 F 
ENDBRANCH  55  78
ENDBRANCH  29  30
ENDBRANCH  21  24
ENDBRANCH  19  20
ENDBRANCH  18  19
ENDBRANCH  17  18
ENDBRANCH   1  17
TORSDOF 15
ENDMDL
