MODEL 1
REMARK VINA RESULT:     -13.0      0.000      0.000
REMARK SMILES CC[C@@H](Oc1ccccc1/C=C1/SC(Nc2ccc(F)cc2)=[NH+]C1=O)C(=O)NCCCCNC(=O)c1ccc(-c2c3nc(c(-c4c(F)c(F)c(F)c(F)c4F)c4ccc([nH]4)c(-c4c(F)c(F)c(F)c(F)c4F)c4nc(c(-c5c(F)c(F)c(F)c(F)c5F)c5ccc2[nH]5)C=C4)C=C3)cc1
REMARK SMILES IDX 29 1 28 2 26 3 27 4 3 6 2 7 1 8 4 9 5 10 6 11 10 12 7 13
REMARK SMILES IDX 9 14 8 15 11 16 12 17 13 18 24 19 14 20 23 21 25 22 15 23
REMARK SMILES IDX 16 26 17 27 22 28 18 29 21 30 19 31 20 32 30 33 31 34 32 35
REMARK SMILES IDX 33 36 34 37 35 39 36 40 37 41 98 42 38 43 97 44 39 45 40 46
REMARK SMILES IDX 41 47 91 48 42 49 96 50 90 51 92 52 43 53 95 54 89 55 88 56
REMARK SMILES IDX 44 58 76 59 56 60 75 61 57 62 60 63 74 64 93 65 58 66 59 67
REMARK SMILES IDX 73 69 94 70 61 71 45 72 46 73 54 74 47 75 48 76 52 77 55 78
REMARK SMILES IDX 49 79 50 80 53 81 51 82 77 83 78 84 86 85 79 86 80 87 84 88
REMARK SMILES IDX 87 89 81 90 82 91 85 92 83 93 62 94 63 95 71 96 64 97 65 98
REMARK SMILES IDX 69 99 72 100 66 101 67 102 70 103 68 104
REMARK H PARENT 28 5 23 24 15 25 33 38 92 57 60 68
REMARK Flexibility Score: inf
ROOT
ATOM      1  C   UNL A   1      31.557  29.939  25.306  1.00  0.00     0.116 C 
ENDROOT
BRANCH   1   2
ATOM      2  N   UNL A   1      31.331  29.096  26.463  1.00  0.00    -0.353 N 
ATOM      3  C   UNL A   1      31.972  27.961  26.874  1.00  0.00     0.261 C 
ATOM      4  O   UNL A   1      31.650  27.506  27.979  1.00  0.00    -0.271 OA
ATOM      5  H   UNL A   1      30.596  29.387  27.049  1.00  0.00     0.163 HD
BRANCH   3   6
ATOM      6  C   UNL A   1      32.953  27.178  25.968  1.00  0.00     0.261 C 
BRANCH   6   7
ATOM      7  C   UNL A   1      34.355  27.757  26.229  1.00  0.00     0.052 C 
ATOM      8  C   UNL A   1      34.354  28.885  27.252  1.00  0.00     0.008 C 
ENDBRANCH   6   7
BRANCH   6   9
ATOM      9  O   UNL A   1      32.943  25.779  26.250  1.00  0.00    -0.480 OA
BRANCH   9  10
ATOM     10  C   UNL A   1      33.467  24.950  25.299  1.00  0.00     0.127 A 
ATOM     11  C   UNL A   1      34.830  24.651  25.329  1.00  0.00     0.047 A 
ATOM     12  C   UNL A   1      32.667  24.544  24.212  1.00  0.00     0.018 A 
ATOM     13  C   UNL A   1      35.394  23.898  24.298  1.00  0.00     0.004 A 
ATOM     14  C   UNL A   1      33.242  23.774  23.196  1.00  0.00     0.012 A 
ATOM     15  C   UNL A   1      34.601  23.456  23.238  1.00  0.00     0.001 A 
BRANCH  12  16
ATOM     16  C   UNL A   1      31.226  24.822  24.165  1.00  0.00     0.036 C 
ATOM     17  C   UNL A   1      30.642  25.901  23.628  1.00  0.00     0.110 C 
ATOM     18  S   UNL A   1      28.996  26.321  23.953  1.00  0.00     0.006 SA
ATOM     19  C   UNL A   1      31.262  26.974  22.794  1.00  0.00     0.346 C 
ATOM     20  C   UNL A   1      29.270  27.890  23.227  1.00  0.00     0.322 C 
ATOM     21  N   UNL A   1      30.415  28.049  22.651  1.00  0.00    -0.199 N 
ATOM     22  O   UNL A   1      32.380  26.916  22.307  1.00  0.00    -0.240 OA
ATOM     23  N   UNL A   1      28.284  28.816  23.407  1.00  0.00    -0.235 N 
ATOM     24  H   UNL A   1      30.658  28.864  22.156  1.00  0.00     0.316 HD
ATOM     25  H   UNL A   1      27.606  28.621  24.093  1.00  0.00     0.313 HD
BRANCH  23  26
ATOM     26  C   UNL A   1      28.147  30.023  22.703  1.00  0.00     0.125 A 
ATOM     27  C   UNL A   1      28.123  31.244  23.397  1.00  0.00     0.055 A 
ATOM     28  C   UNL A   1      28.099  30.050  21.303  1.00  0.00     0.055 A 
ATOM     29  C   UNL A   1      28.000  32.452  22.705  1.00  0.00     0.043 A 
ATOM     30  C   UNL A   1      27.952  31.252  20.612  1.00  0.00     0.043 A 
ATOM     31  C   UNL A   1      27.888  32.441  21.321  1.00  0.00     0.123 A 
ATOM     32  F   UNL A   1      27.735  33.597  20.661  1.00  0.00    -0.207 F 
ENDBRANCH  23  26
ENDBRANCH  12  16
ENDBRANCH   9  10
ENDBRANCH   6   9
ENDBRANCH   3   6
ENDBRANCH   1   2
BRANCH   1  33
ATOM     33  C   UNL A   1      31.085  31.368  25.527  1.00  0.00     0.023 C 
BRANCH  33  34
ATOM     34  C   UNL A   1      31.364  31.942  26.905  1.00  0.00     0.023 C 
BRANCH  34  35
ATOM     35  C   UNL A   1      32.529  32.923  26.974  1.00  0.00     0.116 C 
BRANCH  35  36
ATOM     36  N   UNL A   1      32.268  34.189  27.651  1.00  0.00    -0.352 N 
ATOM     37  C   UNL A   1      33.047  34.834  28.589  1.00  0.00     0.251 C 
ATOM     38  H   UNL A   1      31.428  34.641  27.405  1.00  0.00     0.163 HD
ATOM     39  O   UNL A   1      32.747  35.942  29.018  1.00  0.00    -0.269 OA
BRANCH  37  40
ATOM     40  C   UNL A   1      34.227  34.135  29.135  1.00  0.00     0.039 A 
ATOM     41  C   UNL A   1      35.499  34.554  28.739  1.00  0.00     0.014 A 
ATOM     42  C   UNL A   1      34.079  33.144  30.106  1.00  0.00     0.014 A 
ATOM     43  C   UNL A   1      36.625  34.074  29.403  1.00  0.00     0.010 A 
ATOM     44  C   UNL A   1      35.189  32.725  30.822  1.00  0.00     0.010 A 
ATOM     45  C   UNL A   1      36.469  33.187  30.474  1.00  0.00    -0.014 A 
BRANCH  45  46
ATOM     46  C   UNL A   1      37.636  32.613  31.172  1.00  0.00     0.031 A 
ATOM     47  C   UNL A   1      38.374  31.495  30.499  1.00  0.00     0.074 A 
ATOM     48  C   UNL A   1      37.976  33.038  32.402  1.00  0.00     0.049 A 
ATOM     49  N   UNL A   1      39.323  30.729  30.963  1.00  0.00    -0.248 NA
ATOM     50  C   UNL A   1      37.955  31.176  29.123  1.00  0.00     0.031 C 
ATOM     51  C   UNL A   1      37.319  34.117  33.141  1.00  0.00     0.029 A 
ATOM     52  N   UNL A   1      38.955  32.595  33.255  1.00  0.00    -0.354 N 
ATOM     53  C   UNL A   1      39.598  29.826  29.946  1.00  0.00     0.074 A 
ATOM     54  C   UNL A   1      38.678  30.100  28.865  1.00  0.00     0.031 C 
ATOM     55  C   UNL A   1      37.917  34.254  34.338  1.00  0.00     0.029 A 
ATOM     56  C   UNL A   1      38.966  33.247  34.464  1.00  0.00     0.049 A 
ATOM     57  H   UNL A   1      39.589  31.879  33.024  1.00  0.00     0.167 HD
ATOM     58  C   UNL A   1      40.550  28.868  29.911  1.00  0.00     0.037 A 
ATOM     59  C   UNL A   1      39.732  33.033  35.552  1.00  0.00     0.037 A 
ATOM     60  C   UNL A   1      41.468  28.624  30.991  1.00  0.00     0.049 A 
ATOM     61  C   UNL A   1      40.767  31.937  35.500  1.00  0.00     0.074 A 
ATOM     62  C   UNL A   1      42.495  27.702  31.058  1.00  0.00     0.029 A 
ATOM     63  N   UNL A   1      41.464  29.314  32.195  1.00  0.00    -0.354 N 
ATOM     64  N   UNL A   1      41.049  31.108  34.523  1.00  0.00    -0.248 NA
ATOM     65  C   UNL A   1      41.593  31.749  36.700  1.00  0.00     0.031 C 
ATOM     66  C   UNL A   1      43.077  27.796  32.325  1.00  0.00     0.029 A 
ATOM     67  C   UNL A   1      42.457  28.822  33.023  1.00  0.00     0.049 A 
ATOM     68  H   UNL A   1      40.845  30.045  32.426  1.00  0.00     0.167 HD
ATOM     69  C   UNL A   1      42.103  30.326  34.975  1.00  0.00     0.074 A 
ATOM     70  C   UNL A   1      42.419  30.789  36.310  1.00  0.00     0.031 C 
ATOM     71  C   UNL A   1      42.754  29.315  34.345  1.00  0.00     0.037 A 
BRANCH  58  72
ATOM     72  C   UNL A   1      40.624  28.013  28.681  1.00  0.00     0.064 A 
ATOM     73  C   UNL A   1      41.390  28.386  27.565  1.00  0.00     0.173 A 
ATOM     74  C   UNL A   1      39.917  26.803  28.616  1.00  0.00     0.173 A 
ATOM     75  F   UNL A   1      42.067  29.545  27.566  1.00  0.00    -0.203 F 
ATOM     76  C   UNL A   1      41.417  27.598  26.418  1.00  0.00     0.198 A 
ATOM     77  C   UNL A   1      39.976  26.000  27.480  1.00  0.00     0.198 A 
ATOM     78  F   UNL A   1      39.167  26.401  29.652  1.00  0.00    -0.203 F 
ATOM     79  F   UNL A   1      42.104  28.006  25.342  1.00  0.00    -0.200 F 
ATOM     80  C   UNL A   1      40.717  26.401  26.380  1.00  0.00     0.200 A 
ATOM     81  F   UNL A   1      39.307  24.839  27.449  1.00  0.00    -0.200 F 
ATOM     82  F   UNL A   1      40.747  25.641  25.277  1.00  0.00    -0.200 F 
ENDBRANCH  58  72
BRANCH  59  83
ATOM     83  C   UNL A   1      39.559  33.868  36.772  1.00  0.00     0.064 A 
ATOM     84  C   UNL A   1      38.799  33.414  37.858  1.00  0.00     0.173 A 
ATOM     85  C   UNL A   1      40.132  35.146  36.870  1.00  0.00     0.173 A 
ATOM     86  F   UNL A   1      38.212  32.209  37.807  1.00  0.00    -0.203 F 
ATOM     87  C   UNL A   1      38.597  34.211  38.984  1.00  0.00     0.198 A 
ATOM     88  C   UNL A   1      39.957  35.929  38.010  1.00  0.00     0.198 A 
ATOM     89  F   UNL A   1      40.871  35.631  35.863  1.00  0.00    -0.203 F 
ATOM     90  F   UNL A   1      37.822  33.770  39.985  1.00  0.00    -0.200 F 
ATOM     91  C   UNL A   1      39.181  35.466  39.062  1.00  0.00     0.200 A 
ATOM     92  F   UNL A   1      40.535  37.136  38.087  1.00  0.00    -0.200 F 
ATOM     93  F   UNL A   1      38.988  36.232  40.144  1.00  0.00    -0.200 F 
ENDBRANCH  59  83
BRANCH  71  94
ATOM     94  C   UNL A   1      43.900  28.676  35.075  1.00  0.00     0.064 A 
ATOM     95  C   UNL A   1      43.713  27.583  35.933  1.00  0.00     0.173 A 
ATOM     96  C   UNL A   1      45.211  29.133  34.867  1.00  0.00     0.173 A 
ATOM     97  F   UNL A   1      42.479  27.115  36.174  1.00  0.00    -0.203 F 
ATOM     98  C   UNL A   1      44.794  26.990  36.581  1.00  0.00     0.198 A 
ATOM     99  C   UNL A   1      46.292  28.515  35.487  1.00  0.00     0.198 A 
ATOM    100  F   UNL A   1      45.445  30.169  34.047  1.00  0.00    -0.203 F 
ATOM    101  F   UNL A   1      44.588  25.982  37.438  1.00  0.00    -0.200 F 
ATOM    102  C   UNL A   1      46.082  27.451  36.350  1.00  0.00     0.200 A 
ATOM    103  F   UNL A   1      47.537  28.949  35.248  1.00  0.00    -0.200 F 
ATOM    104  F   UNL A   1      47.122  26.871  36.966  1.00  0.00    -0.200 F 
ENDBRANCH  71  94
ENDBRANCH  45  46
ENDBRANCH  37  40
ENDBRANCH  35  36
ENDBRANCH  34  35
ENDBRANCH  33  34
ENDBRANCH   1  33
TORSDOF 16
ENDMDL
MODEL 2
REMARK VINA RESULT:     -12.8      2.372      8.481
REMARK SMILES CC[C@@H](Oc1ccccc1/C=C1/SC(Nc2ccc(F)cc2)=[NH+]C1=O)C(=O)NCCCCNC(=O)c1ccc(-c2c3nc(c(-c4c(F)c(F)c(F)c(F)c4F)c4ccc([nH]4)c(-c4c(F)c(F)c(F)c(F)c4F)c4nc(c(-c5c(F)c(F)c(F)c(F)c5F)c5ccc2[nH]5)C=C4)C=C3)cc1
REMARK SMILES IDX 29 1 28 2 26 3 27 4 3 6 2 7 1 8 4 9 5 10 6 11 10 12 7 13
REMARK SMILES IDX 9 14 8 15 11 16 12 17 13 18 24 19 14 20 23 21 25 22 15 23
REMARK SMILES IDX 16 26 17 27 22 28 18 29 21 30 19 31 20 32 30 33 31 34 32 35
REMARK SMILES IDX 33 36 34 37 35 39 36 40 37 41 98 42 38 43 97 44 39 45 40 46
REMARK SMILES IDX 41 47 91 48 42 49 96 50 90 51 92 52 43 53 95 54 89 55 88 56
REMARK SMILES IDX 44 58 76 59 56 60 75 61 57 62 60 63 74 64 93 65 58 66 59 67
REMARK SMILES IDX 73 69 94 70 61 71 45 72 46 73 54 74 47 75 48 76 52 77 55 78
REMARK SMILES IDX 49 79 50 80 53 81 51 82 77 83 78 84 86 85 79 86 80 87 84 88
REMARK SMILES IDX 87 89 81 90 82 91 85 92 83 93 62 94 63 95 71 96 64 97 65 98
REMARK SMILES IDX 69 99 72 100 66 101 67 102 70 103 68 104
REMARK H PARENT 28 5 23 24 15 25 33 38 92 57 60 68
REMARK Flexibility Score: inf
ROOT
ATOM      1  C   UNL A   1      31.395  30.707  26.070  1.00  0.00     0.116 C 
ENDROOT
BRANCH   1   2
ATOM      2  N   UNL A   1      32.586  29.980  26.458  1.00  0.00    -0.353 N 
ATOM      3  C   UNL A   1      33.393  29.145  25.736  1.00  0.00     0.261 C 
ATOM      4  O   UNL A   1      34.426  28.751  26.289  1.00  0.00    -0.271 OA
ATOM      5  H   UNL A   1      32.861  30.107  27.395  1.00  0.00     0.163 HD
BRANCH   3   6
ATOM      6  C   UNL A   1      32.992  28.588  24.349  1.00  0.00     0.261 C 
BRANCH   6   7
ATOM      7  C   UNL A   1      34.257  28.632  23.472  1.00  0.00     0.052 C 
ATOM      8  C   UNL A   1      34.014  28.144  22.050  1.00  0.00     0.008 C 
ENDBRANCH   6   7
BRANCH   6   9
ATOM      9  O   UNL A   1      32.502  27.250  24.429  1.00  0.00    -0.480 OA
BRANCH   9  10
ATOM     10  C   UNL A   1      31.177  27.057  24.161  1.00  0.00     0.127 A 
ATOM     11  C   UNL A   1      30.522  27.928  23.288  1.00  0.00     0.047 A 
ATOM     12  C   UNL A   1      30.452  26.092  24.888  1.00  0.00     0.018 A 
ATOM     13  C   UNL A   1      29.145  27.807  23.097  1.00  0.00     0.004 A 
ATOM     14  C   UNL A   1      29.076  25.969  24.671  1.00  0.00     0.012 A 
ATOM     15  C   UNL A   1      28.426  26.827  23.782  1.00  0.00     0.001 A 
BRANCH  12  16
ATOM     16  C   UNL A   1      31.117  25.145  25.793  1.00  0.00     0.036 C 
ATOM     17  C   UNL A   1      31.685  23.983  25.449  1.00  0.00     0.110 C 
ATOM     18  S   UNL A   1      32.097  22.773  26.614  1.00  0.00     0.006 SA
ATOM     19  C   UNL A   1      31.955  23.450  24.080  1.00  0.00     0.346 C 
ATOM     20  C   UNL A   1      32.355  21.631  25.314  1.00  0.00     0.322 C 
ATOM     21  N   UNL A   1      32.301  22.119  24.120  1.00  0.00    -0.199 N 
ATOM     22  O   UNL A   1      31.870  24.104  23.052  1.00  0.00    -0.240 OA
ATOM     23  N   UNL A   1      32.508  20.325  25.681  1.00  0.00    -0.235 N 
ATOM     24  H   UNL A   1      32.491  21.588  23.312  1.00  0.00     0.316 HD
ATOM     25  H   UNL A   1      32.255  20.086  26.602  1.00  0.00     0.313 HD
BRANCH  23  26
ATOM     26  C   UNL A   1      32.994  19.290  24.866  1.00  0.00     0.125 A 
ATOM     27  C   UNL A   1      32.186  18.758  23.849  1.00  0.00     0.055 A 
ATOM     28  C   UNL A   1      34.304  18.810  24.998  1.00  0.00     0.055 A 
ATOM     29  C   UNL A   1      32.663  17.735  23.023  1.00  0.00     0.043 A 
ATOM     30  C   UNL A   1      34.774  17.774  24.193  1.00  0.00     0.043 A 
ATOM     31  C   UNL A   1      33.944  17.236  23.222  1.00  0.00     0.123 A 
ATOM     32  F   UNL A   1      34.388  16.232  22.455  1.00  0.00    -0.207 F 
ENDBRANCH  23  26
ENDBRANCH  12  16
ENDBRANCH   9  10
ENDBRANCH   6   9
ENDBRANCH   3   6
ENDBRANCH   1   2
BRANCH   1  33
ATOM     33  C   UNL A   1      31.407  32.147  26.561  1.00  0.00     0.023 C 
BRANCH  33  34
ATOM     34  C   UNL A   1      32.461  32.472  27.605  1.00  0.00     0.023 C 
BRANCH  34  35
ATOM     35  C   UNL A   1      33.137  33.828  27.443  1.00  0.00     0.116 C 
BRANCH  35  36
ATOM     36  N   UNL A   1      32.582  34.925  28.229  1.00  0.00    -0.352 N 
ATOM     37  C   UNL A   1      33.072  35.474  29.396  1.00  0.00     0.251 C 
ATOM     38  H   UNL A   1      31.752  35.325  27.881  1.00  0.00     0.163 HD
ATOM     39  O   UNL A   1      32.548  36.455  29.911  1.00  0.00    -0.269 OA
BRANCH  37  40
ATOM     40  C   UNL A   1      34.208  34.815  30.070  1.00  0.00     0.039 A 
ATOM     41  C   UNL A   1      33.962  34.069  31.226  1.00  0.00     0.014 A 
ATOM     42  C   UNL A   1      35.484  34.848  29.508  1.00  0.00     0.014 A 
ATOM     43  C   UNL A   1      34.962  33.254  31.750  1.00  0.00     0.010 A 
ATOM     44  C   UNL A   1      36.456  33.979  29.978  1.00  0.00     0.010 A 
ATOM     45  C   UNL A   1      36.200  33.177  31.102  1.00  0.00    -0.014 A 
BRANCH  45  46
ATOM     46  C   UNL A   1      37.305  32.368  31.652  1.00  0.00     0.031 A 
ATOM     47  C   UNL A   1      37.836  32.734  33.006  1.00  0.00     0.074 A 
ATOM     48  C   UNL A   1      37.858  31.380  30.926  1.00  0.00     0.049 A 
ATOM     49  N   UNL A   1      38.887  32.285  33.635  1.00  0.00    -0.248 NA
ATOM     50  C   UNL A   1      37.094  33.780  33.732  1.00  0.00     0.031 C 
ATOM     51  C   UNL A   1      37.416  30.950  29.599  1.00  0.00     0.029 A 
ATOM     52  N   UNL A   1      38.931  30.569  31.201  1.00  0.00    -0.354 N 
ATOM     53  C   UNL A   1      38.944  33.008  34.819  1.00  0.00     0.074 A 
ATOM     54  C   UNL A   1      37.861  33.964  34.794  1.00  0.00     0.031 C 
ATOM     55  C   UNL A   1      38.209  29.950  29.176  1.00  0.00     0.029 A 
ATOM     56  C   UNL A   1      39.238  29.701  30.182  1.00  0.00     0.049 A 
ATOM     57  H   UNL A   1      39.432  30.606  32.047  1.00  0.00     0.167 HD
ATOM     58  C   UNL A   1      39.814  32.868  35.844  1.00  0.00     0.037 A 
ATOM     59  C   UNL A   1      40.253  28.820  30.076  1.00  0.00     0.037 A 
ATOM     60  C   UNL A   1      40.875  31.898  35.856  1.00  0.00     0.049 A 
ATOM     61  C   UNL A   1      41.228  28.705  31.221  1.00  0.00     0.074 A 
ATOM     62  C   UNL A   1      41.799  31.642  36.851  1.00  0.00     0.029 A 
ATOM     63  N   UNL A   1      41.148  31.022  34.815  1.00  0.00    -0.354 N 
ATOM     64  N   UNL A   1      41.258  29.365  32.355  1.00  0.00    -0.248 NA
ATOM     65  C   UNL A   1      42.309  27.720  31.073  1.00  0.00     0.031 C 
ATOM     66  C   UNL A   1      42.666  30.648  36.390  1.00  0.00     0.029 A 
ATOM     67  C   UNL A   1      42.243  30.238  35.134  1.00  0.00     0.049 A 
ATOM     68  H   UNL A   1      40.639  30.966  33.974  1.00  0.00     0.167 HD
ATOM     69  C   UNL A   1      42.335  28.854  33.068  1.00  0.00     0.074 A 
ATOM     70  C   UNL A   1      42.923  27.819  32.243  1.00  0.00     0.031 C 
ATOM     71  C   UNL A   1      42.797  29.205  34.294  1.00  0.00     0.037 A 
BRANCH  58  72
ATOM     72  C   UNL A   1      39.658  33.797  37.011  1.00  0.00     0.064 A 
ATOM     73  C   UNL A   1      40.274  35.058  37.041  1.00  0.00     0.173 A 
ATOM     74  C   UNL A   1      38.882  33.419  38.117  1.00  0.00     0.173 A 
ATOM     75  F   UNL A   1      41.046  35.458  36.020  1.00  0.00    -0.203 F 
ATOM     76  C   UNL A   1      40.147  35.891  38.150  1.00  0.00     0.198 A 
ATOM     77  C   UNL A   1      38.728  34.270  39.208  1.00  0.00     0.198 A 
ATOM     78  F   UNL A   1      38.275  32.224  38.142  1.00  0.00    -0.203 F 
ATOM     79  F   UNL A   1      40.796  37.063  38.183  1.00  0.00    -0.200 F 
ATOM     80  C   UNL A   1      39.368  35.500  39.228  1.00  0.00     0.200 A 
ATOM     81  F   UNL A   1      37.967  33.895  40.245  1.00  0.00    -0.200 F 
ATOM     82  F   UNL A   1      39.243  36.305  40.293  1.00  0.00    -0.200 F 
ENDBRANCH  58  72
BRANCH  59  83
ATOM     83  C   UNL A   1      40.396  27.979  28.857  1.00  0.00     0.064 A 
ATOM     84  C   UNL A   1      41.157  28.414  27.763  1.00  0.00     0.173 A 
ATOM     85  C   UNL A   1      39.761  26.732  28.751  1.00  0.00     0.173 A 
ATOM     86  F   UNL A   1      41.767  29.608  27.805  1.00  0.00    -0.203 F 
ATOM     87  C   UNL A   1      41.257  27.649  26.602  1.00  0.00     0.198 A 
ATOM     88  C   UNL A   1      39.889  25.953  27.602  1.00  0.00     0.198 A 
ATOM     89  F   UNL A   1      39.024  26.263  29.767  1.00  0.00    -0.203 F 
ATOM     90  F   UNL A   1      41.948  28.115  25.552  1.00  0.00    -0.200 F 
ATOM     91  C   UNL A   1      40.628  26.416  26.524  1.00  0.00     0.200 A 
ATOM     92  F   UNL A   1      39.291  24.755  27.536  1.00  0.00    -0.200 F 
ATOM     93  F   UNL A   1      40.726  25.680  25.409  1.00  0.00    -0.200 F 
ENDBRANCH  59  83
BRANCH  71  94
ATOM     94  C   UNL A   1      43.967  28.434  34.835  1.00  0.00     0.064 A 
ATOM     95  C   UNL A   1      45.285  28.884  34.679  1.00  0.00     0.173 A 
ATOM     96  C   UNL A   1      43.756  27.254  35.566  1.00  0.00     0.173 A 
ATOM     97  F   UNL A   1      45.541  30.000  33.980  1.00  0.00    -0.203 F 
ATOM     98  C   UNL A   1      46.353  28.166  35.210  1.00  0.00     0.198 A 
ATOM     99  C   UNL A   1      44.822  26.559  36.126  1.00  0.00     0.198 A 
ATOM    100  F   UNL A   1      42.512  26.787  35.752  1.00  0.00    -0.203 F 
ATOM    101  F   UNL A   1      47.608  28.585  35.005  1.00  0.00    -0.200 F 
ATOM    102  C   UNL A   1      46.119  27.009  35.941  1.00  0.00     0.200 A 
ATOM    103  F   UNL A   1      44.593  25.453  36.847  1.00  0.00    -0.200 F 
ATOM    104  F   UNL A   1      47.148  26.325  36.461  1.00  0.00    -0.200 F 
ENDBRANCH  71  94
ENDBRANCH  45  46
ENDBRANCH  37  40
ENDBRANCH  35  36
ENDBRANCH  34  35
ENDBRANCH  33  34
ENDBRANCH   1  33
TORSDOF 16
ENDMDL
MODEL 3
REMARK VINA RESULT:     -12.7      5.526     10.614
REMARK SMILES CC[C@@H](Oc1ccccc1/C=C1/SC(Nc2ccc(F)cc2)=[NH+]C1=O)C(=O)NCCCCNC(=O)c1ccc(-c2c3nc(c(-c4c(F)c(F)c(F)c(F)c4F)c4ccc([nH]4)c(-c4c(F)c(F)c(F)c(F)c4F)c4nc(c(-c5c(F)c(F)c(F)c(F)c5F)c5ccc2[nH]5)C=C4)C=C3)cc1
REMARK SMILES IDX 29 1 28 2 26 3 27 4 3 6 2 7 1 8 4 9 5 10 6 11 10 12 7 13
REMARK SMILES IDX 9 14 8 15 11 16 12 17 13 18 24 19 14 20 23 21 25 22 15 23
REMARK SMILES IDX 16 26 17 27 22 28 18 29 21 30 19 31 20 32 30 33 31 34 32 35
REMARK SMILES IDX 33 36 34 37 35 39 36 40 37 41 98 42 38 43 97 44 39 45 40 46
REMARK SMILES IDX 41 47 91 48 42 49 96 50 90 51 92 52 43 53 95 54 89 55 88 56
REMARK SMILES IDX 44 58 76 59 56 60 75 61 57 62 60 63 74 64 93 65 58 66 59 67
REMARK SMILES IDX 73 69 94 70 61 71 45 72 46 73 54 74 47 75 48 76 52 77 55 78
REMARK SMILES IDX 49 79 50 80 53 81 51 82 77 83 78 84 86 85 79 86 80 87 84 88
REMARK SMILES IDX 87 89 81 90 82 91 85 92 83 93 62 94 63 95 71 96 64 97 65 98
REMARK SMILES IDX 69 99 72 100 66 101 67 102 70 103 68 104
REMARK H PARENT 28 5 23 24 15 25 33 38 92 57 60 68
REMARK Flexibility Score: inf
ROOT
ATOM      1  C   UNL A   1      36.010  20.290  24.990  1.00  0.00     0.116 C 
ENDROOT
BRANCH   1   2
ATOM      2  N   UNL A   1      36.283  21.412  24.115  1.00  0.00    -0.353 N 
ATOM      3  C   UNL A   1      36.732  22.671  24.400  1.00  0.00     0.261 C 
ATOM      4  O   UNL A   1      36.998  23.399  23.436  1.00  0.00    -0.271 OA
ATOM      5  H   UNL A   1      36.120  21.240  23.159  1.00  0.00     0.163 HD
BRANCH   3   6
ATOM      6  C   UNL A   1      36.779  23.239  25.838  1.00  0.00     0.261 C 
BRANCH   6   7
ATOM      7  C   UNL A   1      38.061  24.085  25.939  1.00  0.00     0.052 C 
ATOM      8  C   UNL A   1      39.246  23.309  26.500  1.00  0.00     0.008 C 
ENDBRANCH   6   7
BRANCH   6   9
ATOM      9  O   UNL A   1      35.639  24.044  26.136  1.00  0.00    -0.480 OA
BRANCH   9  10
ATOM     10  C   UNL A   1      34.486  23.392  26.467  1.00  0.00     0.127 A 
ATOM     11  C   UNL A   1      34.463  22.578  27.601  1.00  0.00     0.047 A 
ATOM     12  C   UNL A   1      33.393  23.414  25.578  1.00  0.00     0.018 A 
ATOM     13  C   UNL A   1      33.327  21.820  27.884  1.00  0.00     0.004 A 
ATOM     14  C   UNL A   1      32.252  22.665  25.885  1.00  0.00     0.012 A 
ATOM     15  C   UNL A   1      32.222  21.868  27.032  1.00  0.00     0.001 A 
BRANCH  12  16
ATOM     16  C   UNL A   1      33.378  24.279  24.391  1.00  0.00     0.036 C 
ATOM     17  C   UNL A   1      32.643  25.385  24.224  1.00  0.00     0.110 C 
ATOM     18  S   UNL A   1      32.405  26.113  22.674  1.00  0.00     0.006 SA
ATOM     19  C   UNL A   1      31.818  26.114  25.234  1.00  0.00     0.346 C 
ATOM     20  C   UNL A   1      31.139  27.111  23.354  1.00  0.00     0.322 C 
ATOM     21  N   UNL A   1      30.998  27.042  24.635  1.00  0.00    -0.199 N 
ATOM     22  O   UNL A   1      31.854  25.909  26.437  1.00  0.00    -0.240 OA
ATOM     23  N   UNL A   1      30.373  27.804  22.460  1.00  0.00    -0.235 N 
ATOM     24  H   UNL A   1      30.362  27.602  25.137  1.00  0.00     0.316 HD
ATOM     25  H   UNL A   1      30.438  27.538  21.515  1.00  0.00     0.313 HD
BRANCH  23  26
ATOM     26  C   UNL A   1      29.501  28.861  22.766  1.00  0.00     0.125 A 
ATOM     27  C   UNL A   1      28.116  28.640  22.810  1.00  0.00     0.055 A 
ATOM     28  C   UNL A   1      29.985  30.134  23.097  1.00  0.00     0.055 A 
ATOM     29  C   UNL A   1      27.239  29.682  23.125  1.00  0.00     0.043 A 
ATOM     30  C   UNL A   1      29.112  31.181  23.387  1.00  0.00     0.043 A 
ATOM     31  C   UNL A   1      27.746  30.949  23.384  1.00  0.00     0.123 A 
ATOM     32  F   UNL A   1      26.904  31.956  23.651  1.00  0.00    -0.207 F 
ENDBRANCH  23  26
ENDBRANCH  12  16
ENDBRANCH   9  10
ENDBRANCH   6   9
ENDBRANCH   3   6
ENDBRANCH   1   2
BRANCH   1  33
ATOM     33  C   UNL A   1      37.136  19.267  24.994  1.00  0.00     0.023 C 
BRANCH  33  34
ATOM     34  C   UNL A   1      38.538  19.839  24.878  1.00  0.00     0.023 C 
BRANCH  34  35
ATOM     35  C   UNL A   1      39.423  19.639  26.102  1.00  0.00     0.116 C 
BRANCH  35  36
ATOM     36  N   UNL A   1      40.625  18.836  25.907  1.00  0.00    -0.352 N 
ATOM     37  C   UNL A   1      41.940  19.200  26.112  1.00  0.00     0.251 C 
ATOM     38  H   UNL A   1      40.479  17.916  25.588  1.00  0.00     0.163 HD
ATOM     39  O   UNL A   1      42.854  18.394  25.988  1.00  0.00    -0.269 OA
BRANCH  37  40
ATOM     40  C   UNL A   1      42.247  20.611  26.418  1.00  0.00     0.039 A 
ATOM     41  C   UNL A   1      42.406  20.990  27.753  1.00  0.00     0.014 A 
ATOM     42  C   UNL A   1      42.477  21.526  25.391  1.00  0.00     0.014 A 
ATOM     43  C   UNL A   1      42.918  22.248  28.060  1.00  0.00     0.010 A 
ATOM     44  C   UNL A   1      43.060  22.748  25.688  1.00  0.00     0.010 A 
ATOM     45  C   UNL A   1      43.283  23.116  27.025  1.00  0.00    -0.014 A 
BRANCH  45  46
ATOM     46  C   UNL A   1      43.780  24.478  27.305  1.00  0.00     0.031 A 
ATOM     47  C   UNL A   1      42.803  25.484  27.833  1.00  0.00     0.074 A 
ATOM     48  C   UNL A   1      45.052  24.814  27.025  1.00  0.00     0.049 A 
ATOM     49  N   UNL A   1      42.949  26.769  28.012  1.00  0.00    -0.248 NA
ATOM     50  C   UNL A   1      41.464  24.973  28.174  1.00  0.00     0.031 C 
ATOM     51  C   UNL A   1      46.076  23.908  26.505  1.00  0.00     0.029 A 
ATOM     52  N   UNL A   1      45.692  26.024  27.123  1.00  0.00    -0.354 N 
ATOM     53  C   UNL A   1      41.716  27.220  28.463  1.00  0.00     0.074 A 
ATOM     54  C   UNL A   1      40.819  26.087  28.475  1.00  0.00     0.031 C 
ATOM     55  C   UNL A   1      47.220  24.594  26.334  1.00  0.00     0.029 A 
ATOM     56  C   UNL A   1      46.995  25.992  26.690  1.00  0.00     0.049 A 
ATOM     57  H   UNL A   1      45.260  26.836  27.471  1.00  0.00     0.167 HD
ATOM     58  C   UNL A   1      41.373  28.468  28.853  1.00  0.00     0.037 A 
ATOM     59  C   UNL A   1      47.892  26.992  26.579  1.00  0.00     0.037 A 
ATOM     60  C   UNL A   1      42.286  29.578  28.851  1.00  0.00     0.049 A 
ATOM     61  C   UNL A   1      47.475  28.382  26.992  1.00  0.00     0.074 A 
ATOM     62  C   UNL A   1      42.062  30.881  29.253  1.00  0.00     0.029 A 
ATOM     63  N   UNL A   1      43.605  29.508  28.422  1.00  0.00    -0.354 N 
ATOM     64  N   UNL A   1      46.319  28.798  27.453  1.00  0.00    -0.248 NA
ATOM     65  C   UNL A   1      48.488  29.439  26.873  1.00  0.00     0.031 C 
ATOM     66  C   UNL A   1      43.229  31.613  29.016  1.00  0.00     0.029 A 
ATOM     67  C   UNL A   1      44.201  30.752  28.528  1.00  0.00     0.049 A 
ATOM     68  H   UNL A   1      44.049  28.694  28.091  1.00  0.00     0.167 HD
ATOM     69  C   UNL A   1      46.475  30.154  27.711  1.00  0.00     0.074 A 
ATOM     70  C   UNL A   1      47.842  30.486  27.367  1.00  0.00     0.031 C 
ATOM     71  C   UNL A   1      45.571  31.047  28.188  1.00  0.00     0.037 A 
BRANCH  58  72
ATOM     72  C   UNL A   1      39.955  28.688  29.290  1.00  0.00     0.064 A 
ATOM     73  C   UNL A   1      38.959  29.101  28.391  1.00  0.00     0.173 A 
ATOM     74  C   UNL A   1      39.587  28.484  30.628  1.00  0.00     0.173 A 
ATOM     75  F   UNL A   1      39.263  29.332  27.105  1.00  0.00    -0.203 F 
ATOM     76  C   UNL A   1      37.656  29.335  28.823  1.00  0.00     0.198 A 
ATOM     77  C   UNL A   1      38.275  28.684  31.048  1.00  0.00     0.198 A 
ATOM     78  F   UNL A   1      40.499  28.093  31.530  1.00  0.00    -0.203 F 
ATOM     79  F   UNL A   1      36.738  29.790  27.960  1.00  0.00    -0.200 F 
ATOM     80  C   UNL A   1      37.314  29.118  30.149  1.00  0.00     0.200 A 
ATOM     81  F   UNL A   1      37.943  28.465  32.328  1.00  0.00    -0.200 F 
ATOM     82  F   UNL A   1      36.058  29.340  30.562  1.00  0.00    -0.200 F 
ENDBRANCH  58  72
BRANCH  59  83
ATOM     83  C   UNL A   1      49.262  26.722  26.067  1.00  0.00     0.064 A 
ATOM     84  C   UNL A   1      50.273  26.252  26.917  1.00  0.00     0.173 A 
ATOM     85  C   UNL A   1      49.598  26.947  24.723  1.00  0.00     0.173 A 
ATOM     86  F   UNL A   1      50.010  26.040  28.215  1.00  0.00    -0.203 F 
ATOM     87  C   UNL A   1      51.570  26.040  26.451  1.00  0.00     0.198 A 
ATOM     88  C   UNL A   1      50.887  26.705  24.251  1.00  0.00     0.198 A 
ATOM     89  F   UNL A   1      48.672  27.393  23.864  1.00  0.00    -0.203 F 
ATOM     90  F   UNL A   1      52.528  25.640  27.299  1.00  0.00    -0.200 F 
ATOM     91  C   UNL A   1      51.875  26.261  25.117  1.00  0.00     0.200 A 
ATOM     92  F   UNL A   1      51.174  26.906  22.957  1.00  0.00    -0.200 F 
ATOM     93  F   UNL A   1      53.121  26.056  24.669  1.00  0.00    -0.200 F 
ENDBRANCH  59  83
BRANCH  71  94
ATOM     94  C   UNL A   1      46.046  32.453  28.411  1.00  0.00     0.064 A 
ATOM     95  C   UNL A   1      46.666  32.844  29.607  1.00  0.00     0.173 A 
ATOM     96  C   UNL A   1      45.925  33.409  27.390  1.00  0.00     0.173 A 
ATOM     97  F   UNL A   1      46.796  31.972  30.618  1.00  0.00    -0.203 F 
ATOM     98  C   UNL A   1      47.121  34.149  29.783  1.00  0.00     0.198 A 
ATOM     99  C   UNL A   1      46.413  34.701  27.556  1.00  0.00     0.198 A 
ATOM    100  F   UNL A   1      45.349  33.082  26.223  1.00  0.00    -0.203 F 
ATOM    101  F   UNL A   1      47.663  34.515  30.951  1.00  0.00    -0.200 F 
ATOM    102  C   UNL A   1      47.003  35.072  28.754  1.00  0.00     0.200 A 
ATOM    103  F   UNL A   1      46.315  35.586  26.554  1.00  0.00    -0.200 F 
ATOM    104  F   UNL A   1      47.451  36.324  28.921  1.00  0.00    -0.200 F 
ENDBRANCH  71  94
ENDBRANCH  45  46
ENDBRANCH  37  40
ENDBRANCH  35  36
ENDBRANCH  34  35
ENDBRANCH  33  34
ENDBRANCH   1  33
TORSDOF 16
ENDMDL
