MODEL 1
REMARK VINA RESULT:     -13.0      0.000      0.000
REMARK SMILES Nc1ccc(C(=O)N2Cc3nc[nH]c3C[C@H]2C(=O)NCCCCNC(=O)c2ccc(-c3c4nc(c(-c5c(F)c(F)c(F)c(F)c5F)c5ccc([nH]5)c(-c5c(F)c(F)c(F)c(F)c5F)c5nc(c(-c6c(F)c(F)c(F)c(F)c6F)c6ccc3[nH]6)C=C5)C=C4)cc2)cc1
REMARK SMILES IDX 21 1 20 2 19 3 17 4 18 5 16 7 8 8 9 9 10 10 15 11 11 12
REMARK SMILES IDX 14 13 12 14 13 15 6 17 7 18 5 19 2 20 3 21 91 22 4 23 90 24
REMARK SMILES IDX 1 25 22 28 23 29 24 30 25 31 26 33 27 34 28 35 89 36 29 37
REMARK SMILES IDX 88 38 30 39 31 40 32 41 82 42 33 43 87 44 81 45 83 46 34 47
REMARK SMILES IDX 86 48 80 49 79 50 35 52 67 53 47 54 66 55 48 56 51 57 65 58
REMARK SMILES IDX 84 59 49 60 50 61 64 63 85 64 52 65 36 66 37 67 45 68 38 69
REMARK SMILES IDX 39 70 43 71 46 72 40 73 41 74 44 75 42 76 68 77 69 78 77 79
REMARK SMILES IDX 70 80 71 81 75 82 78 83 72 84 73 85 76 86 74 87 53 88 54 89
REMARK SMILES IDX 62 90 55 91 56 92 60 93 63 94 57 95 58 96 61 97 59 98
REMARK H PARENT 19 6 13 16 1 26 1 27 24 32 83 51 51 62
REMARK Flexibility Score: inf
ROOT
ATOM      1  C   UNL A   1      38.222  23.045  26.485  1.00  0.00     0.023 C 
ENDROOT
BRANCH   1   2
ATOM      2  C   UNL A   1      37.728  23.989  25.392  1.00  0.00     0.116 C 
BRANCH   2   3
ATOM      3  N   UNL A   1      37.087  23.347  24.264  1.00  0.00    -0.354 N 
ATOM      4  C   UNL A   1      35.787  22.997  24.053  1.00  0.00     0.243 C 
ATOM      5  O   UNL A   1      35.429  23.018  22.866  1.00  0.00    -0.273 OA
ATOM      6  H   UNL A   1      37.694  23.126  23.521  1.00  0.00     0.163 HD
BRANCH   4   7
ATOM      7  C   UNL A   1      34.735  22.659  25.149  1.00  0.00     0.181 C 
ATOM      8  N   UNL A   1      33.290  22.991  24.891  1.00  0.00    -0.320 N 
ATOM      9  C   UNL A   1      32.342  21.957  24.411  1.00  0.00     0.178 C 
ATOM     10  C   UNL A   1      32.912  20.590  24.476  1.00  0.00     0.081 A 
ATOM     11  C   UNL A   1      34.986  21.240  25.750  1.00  0.00     0.091 C 
ATOM     12  N   UNL A   1      32.438  19.519  23.764  1.00  0.00    -0.240 NA
ATOM     13  C   UNL A   1      34.095  20.265  25.090  1.00  0.00     0.042 A 
ATOM     14  C   UNL A   1      33.301  18.549  23.982  1.00  0.00     0.197 A 
ATOM     15  N   UNL A   1      34.313  18.946  24.818  1.00  0.00    -0.348 N 
ATOM     16  H   UNL A   1      35.052  18.389  25.155  1.00  0.00     0.167 HD
BRANCH   8  17
ATOM     17  C   UNL A   1      32.680  24.212  25.226  1.00  0.00     0.254 C 
ATOM     18  O   UNL A   1      31.683  24.260  25.948  1.00  0.00    -0.269 OA
BRANCH  17  19
ATOM     19  C   UNL A   1      33.158  25.514  24.691  1.00  0.00     0.040 A 
ATOM     20  C   UNL A   1      33.732  28.115  23.746  1.00  0.00     0.031 A 
ATOM     21  C   UNL A   1      33.700  27.848  25.116  1.00  0.00     0.026 A 
ATOM     22  C   UNL A   1      33.426  27.082  22.860  1.00  0.00     0.026 A 
ATOM     23  C   UNL A   1      33.431  26.556  25.588  1.00  0.00     0.016 A 
ATOM     24  C   UNL A   1      33.116  25.799  23.327  1.00  0.00     0.016 A 
BRANCH  20  25
ATOM     25  N   UNL A   1      33.902  29.407  23.278  1.00  0.00    -0.399 N 
ATOM     26  H   UNL A   1      33.624  29.640  22.363  1.00  0.00     0.156 HD
ATOM     27  H   UNL A   1      34.299  30.094  23.861  1.00  0.00     0.156 HD
ENDBRANCH  20  25
ENDBRANCH  17  19
ENDBRANCH   8  17
ENDBRANCH   4   7
ENDBRANCH   2   3
ENDBRANCH   1   2
BRANCH   1  28
ATOM     28  C   UNL A   1      39.158  21.919  26.021  1.00  0.00     0.023 C 
BRANCH  28  29
ATOM     29  C   UNL A   1      40.416  21.702  26.862  1.00  0.00     0.116 C 
BRANCH  29  30
ATOM     30  N   UNL A   1      41.672  21.962  26.160  1.00  0.00    -0.352 N 
ATOM     31  C   UNL A   1      42.216  23.206  25.861  1.00  0.00     0.251 C 
ATOM     32  H   UNL A   1      42.185  21.175  25.868  1.00  0.00     0.163 HD
ATOM     33  O   UNL A   1      42.999  23.374  24.949  1.00  0.00    -0.269 OA
BRANCH  31  34
ATOM     34  C   UNL A   1      41.815  24.334  26.721  1.00  0.00     0.039 A 
ATOM     35  C   UNL A   1      42.312  24.481  28.017  1.00  0.00     0.014 A 
ATOM     36  C   UNL A   1      41.013  25.309  26.137  1.00  0.00     0.014 A 
ATOM     37  C   UNL A   1      42.080  25.682  28.685  1.00  0.00     0.010 A 
ATOM     38  C   UNL A   1      40.912  26.540  26.738  1.00  0.00     0.010 A 
ATOM     39  C   UNL A   1      41.409  26.728  28.027  1.00  0.00    -0.014 A 
BRANCH  39  40
ATOM     40  C   UNL A   1      41.321  28.052  28.641  1.00  0.00     0.031 A 
ATOM     41  C   UNL A   1      42.389  29.025  28.257  1.00  0.00     0.074 A 
ATOM     42  C   UNL A   1      40.258  28.473  29.361  1.00  0.00     0.049 A 
ATOM     43  N   UNL A   1      43.275  29.565  29.028  1.00  0.00    -0.248 NA
ATOM     44  C   UNL A   1      42.544  29.381  26.838  1.00  0.00     0.031 C 
ATOM     45  C   UNL A   1      38.979  27.797  29.604  1.00  0.00     0.029 A 
ATOM     46  N   UNL A   1      40.073  29.680  29.961  1.00  0.00    -0.354 N 
ATOM     47  C   UNL A   1      44.006  30.449  28.237  1.00  0.00     0.074 A 
ATOM     48  C   UNL A   1      43.599  30.200  26.877  1.00  0.00     0.031 C 
ATOM     49  C   UNL A   1      38.079  28.686  30.078  1.00  0.00     0.029 A 
ATOM     50  C   UNL A   1      38.766  29.932  30.349  1.00  0.00     0.049 A 
ATOM     51  H   UNL A   1      40.805  30.321  30.106  1.00  0.00     0.167 HD
ATOM     52  C   UNL A   1      44.748  31.450  28.793  1.00  0.00     0.037 A 
ATOM     53  C   UNL A   1      38.276  31.094  30.847  1.00  0.00     0.037 A 
ATOM     54  C   UNL A   1      44.994  31.200  30.191  1.00  0.00     0.049 A 
ATOM     55  C   UNL A   1      39.427  31.860  31.386  1.00  0.00     0.074 A 
ATOM     56  C   UNL A   1      45.598  30.176  30.896  1.00  0.00     0.029 A 
ATOM     57  N   UNL A   1      44.260  31.893  31.123  1.00  0.00    -0.354 N 
ATOM     58  N   UNL A   1      40.117  31.489  32.430  1.00  0.00    -0.248 NA
ATOM     59  C   UNL A   1      40.100  32.786  30.488  1.00  0.00     0.031 C 
ATOM     60  C   UNL A   1      44.775  29.992  32.047  1.00  0.00     0.029 A 
ATOM     61  C   UNL A   1      43.774  30.963  32.007  1.00  0.00     0.049 A 
ATOM     62  H   UNL A   1      44.112  32.866  31.152  1.00  0.00     0.167 HD
ATOM     63  C   UNL A   1      41.433  31.771  32.099  1.00  0.00     0.074 A 
ATOM     64  C   UNL A   1      41.352  32.647  30.931  1.00  0.00     0.031 C 
ATOM     65  C   UNL A   1      42.469  31.049  32.617  1.00  0.00     0.037 A 
BRANCH  52  66
ATOM     66  C   UNL A   1      44.963  32.814  28.179  1.00  0.00     0.064 A 
ATOM     67  C   UNL A   1      46.275  33.239  27.881  1.00  0.00     0.173 A 
ATOM     68  C   UNL A   1      43.981  33.828  28.165  1.00  0.00     0.173 A 
ATOM     69  F   UNL A   1      47.292  32.364  27.873  1.00  0.00    -0.203 F 
ATOM     70  C   UNL A   1      46.592  34.586  27.683  1.00  0.00     0.198 A 
ATOM     71  C   UNL A   1      44.293  35.165  27.915  1.00  0.00     0.198 A 
ATOM     72  F   UNL A   1      42.709  33.592  28.503  1.00  0.00    -0.203 F 
ATOM     73  F   UNL A   1      47.872  34.955  27.541  1.00  0.00    -0.200 F 
ATOM     74  C   UNL A   1      45.601  35.549  27.711  1.00  0.00     0.200 A 
ATOM     75  F   UNL A   1      43.321  36.086  27.961  1.00  0.00    -0.200 F 
ATOM     76  F   UNL A   1      45.910  36.848  27.594  1.00  0.00    -0.200 F 
ENDBRANCH  52  66
BRANCH  53  77
ATOM     77  C   UNL A   1      36.940  31.689  30.619  1.00  0.00     0.064 A 
ATOM     78  C   UNL A   1      36.024  31.842  31.671  1.00  0.00     0.173 A 
ATOM     79  C   UNL A   1      36.639  32.372  29.422  1.00  0.00     0.173 A 
ATOM     80  F   UNL A   1      36.256  31.259  32.856  1.00  0.00    -0.203 F 
ATOM     81  C   UNL A   1      34.889  32.650  31.543  1.00  0.00     0.198 A 
ATOM     82  C   UNL A   1      35.503  33.173  29.294  1.00  0.00     0.198 A 
ATOM     83  F   UNL A   1      37.488  32.349  28.384  1.00  0.00    -0.203 F 
ATOM     84  F   UNL A   1      34.069  32.822  32.590  1.00  0.00    -0.200 F 
ATOM     85  C   UNL A   1      34.637  33.324  30.359  1.00  0.00     0.200 A 
ATOM     86  F   UNL A   1      35.290  33.844  28.153  1.00  0.00    -0.200 F 
ATOM     87  F   UNL A   1      33.585  34.148  30.258  1.00  0.00    -0.200 F 
ENDBRANCH  53  77
BRANCH  65  88
ATOM     88  C   UNL A   1      42.183  30.089  33.738  1.00  0.00     0.064 A 
ATOM     89  C   UNL A   1      41.766  28.759  33.553  1.00  0.00     0.173 A 
ATOM     90  C   UNL A   1      42.500  30.483  35.046  1.00  0.00     0.173 A 
ATOM     91  F   UNL A   1      41.543  28.267  32.329  1.00  0.00    -0.203 F 
ATOM     92  C   UNL A   1      41.632  27.882  34.630  1.00  0.00     0.198 A 
ATOM     93  C   UNL A   1      42.401  29.595  36.115  1.00  0.00     0.198 A 
ATOM     94  F   UNL A   1      42.958  31.722  35.282  1.00  0.00    -0.203 F 
ATOM     95  F   UNL A   1      41.223  26.622  34.423  1.00  0.00    -0.200 F 
ATOM     96  C   UNL A   1      41.957  28.300  35.908  1.00  0.00     0.200 A 
ATOM     97  F   UNL A   1      42.766  29.989  37.343  1.00  0.00    -0.200 F 
ATOM     98  F   UNL A   1      41.870  27.445  36.938  1.00  0.00    -0.200 F 
ENDBRANCH  65  88
ENDBRANCH  39  40
ENDBRANCH  31  34
ENDBRANCH  29  30
ENDBRANCH  28  29
ENDBRANCH   1  28
TORSDOF 14
ENDMDL
MODEL 2
REMARK VINA RESULT:     -12.9      2.359      3.073
REMARK SMILES Nc1ccc(C(=O)N2Cc3nc[nH]c3C[C@H]2C(=O)NCCCCNC(=O)c2ccc(-c3c4nc(c(-c5c(F)c(F)c(F)c(F)c5F)c5ccc([nH]5)c(-c5c(F)c(F)c(F)c(F)c5F)c5nc(c(-c6c(F)c(F)c(F)c(F)c6F)c6ccc3[nH]6)C=C5)C=C4)cc2)cc1
REMARK SMILES IDX 21 1 20 2 19 3 17 4 18 5 16 7 8 8 9 9 10 10 15 11 11 12
REMARK SMILES IDX 14 13 12 14 13 15 6 17 7 18 5 19 2 20 3 21 91 22 4 23 90 24
REMARK SMILES IDX 1 25 22 28 23 29 24 30 25 31 26 33 27 34 28 35 89 36 29 37
REMARK SMILES IDX 88 38 30 39 31 40 32 41 82 42 33 43 87 44 81 45 83 46 34 47
REMARK SMILES IDX 86 48 80 49 79 50 35 52 67 53 47 54 66 55 48 56 51 57 65 58
REMARK SMILES IDX 84 59 49 60 50 61 64 63 85 64 52 65 36 66 37 67 45 68 38 69
REMARK SMILES IDX 39 70 43 71 46 72 40 73 41 74 44 75 42 76 68 77 69 78 77 79
REMARK SMILES IDX 70 80 71 81 75 82 78 83 72 84 73 85 76 86 74 87 53 88 54 89
REMARK SMILES IDX 62 90 55 91 56 92 60 93 63 94 57 95 58 96 61 97 59 98
REMARK H PARENT 19 6 13 16 1 26 1 27 24 32 83 51 51 62
REMARK Flexibility Score: inf
ROOT
ATOM      1  C   UNL A   1      39.699  21.807  26.117  1.00  0.00     0.023 C 
ENDROOT
BRANCH   1   2
ATOM      2  C   UNL A   1      38.181  21.854  25.958  1.00  0.00     0.116 C 
BRANCH   2   3
ATOM      3  N   UNL A   1      37.705  21.898  24.591  1.00  0.00    -0.354 N 
ATOM      4  C   UNL A   1      36.578  22.443  24.053  1.00  0.00     0.243 C 
ATOM      5  O   UNL A   1      36.700  22.843  22.885  1.00  0.00    -0.273 OA
ATOM      6  H   UNL A   1      38.296  21.459  23.938  1.00  0.00     0.163 HD
BRANCH   4   7
ATOM      7  C   UNL A   1      35.223  22.667  24.786  1.00  0.00     0.181 C 
ATOM      8  N   UNL A   1      34.052  23.188  23.998  1.00  0.00    -0.320 N 
ATOM      9  C   UNL A   1      33.013  22.270  23.476  1.00  0.00     0.178 C 
ATOM     10  C   UNL A   1      33.134  20.900  24.029  1.00  0.00     0.081 A 
ATOM     11  C   UNL A   1      34.896  21.473  25.737  1.00  0.00     0.091 C 
ATOM     12  N   UNL A   1      32.583  19.783  23.458  1.00  0.00    -0.240 NA
ATOM     13  C   UNL A   1      33.973  20.544  25.056  1.00  0.00     0.042 A 
ATOM     14  C   UNL A   1      33.047  18.770  24.160  1.00  0.00     0.197 A 
ATOM     15  N   UNL A   1      33.872  19.188  25.172  1.00  0.00    -0.348 N 
ATOM     16  H   UNL A   1      34.308  18.622  25.850  1.00  0.00     0.167 HD
BRANCH   8  17
ATOM     17  C   UNL A   1      33.746  24.549  23.831  1.00  0.00     0.254 C 
ATOM     18  O   UNL A   1      33.981  25.140  22.774  1.00  0.00    -0.269 OA
BRANCH  17  19
ATOM     19  C   UNL A   1      33.176  25.379  24.924  1.00  0.00     0.040 A 
ATOM     20  C   UNL A   1      31.953  27.165  26.742  1.00  0.00     0.031 A 
ATOM     21  C   UNL A   1      31.196  26.195  26.080  1.00  0.00     0.026 A 
ATOM     22  C   UNL A   1      33.313  27.261  26.447  1.00  0.00     0.026 A 
ATOM     23  C   UNL A   1      31.802  25.298  25.190  1.00  0.00     0.016 A 
ATOM     24  C   UNL A   1      33.915  26.394  25.528  1.00  0.00     0.016 A 
BRANCH  20  25
ATOM     25  N   UNL A   1      31.344  28.113  27.547  1.00  0.00    -0.399 N 
ATOM     26  H   UNL A   1      31.816  28.949  27.765  1.00  0.00     0.156 HD
ATOM     27  H   UNL A   1      30.439  27.953  27.899  1.00  0.00     0.156 HD
ENDBRANCH  20  25
ENDBRANCH  17  19
ENDBRANCH   8  17
ENDBRANCH   4   7
ENDBRANCH   2   3
ENDBRANCH   1   2
BRANCH   1  28
ATOM     28  C   UNL A   1      40.353  20.437  25.880  1.00  0.00     0.023 C 
BRANCH  28  29
ATOM     29  C   UNL A   1      41.586  20.126  26.729  1.00  0.00     0.116 C 
BRANCH  29  30
ATOM     30  N   UNL A   1      42.747  19.664  25.970  1.00  0.00    -0.352 N 
ATOM     31  C   UNL A   1      43.610  20.444  25.210  1.00  0.00     0.251 C 
ATOM     32  H   UNL A   1      42.938  18.698  26.000  1.00  0.00     0.163 HD
ATOM     33  O   UNL A   1      44.269  19.991  24.298  1.00  0.00    -0.269 OA
BRANCH  31  34
ATOM     34  C   UNL A   1      43.713  21.870  25.571  1.00  0.00     0.039 A 
ATOM     35  C   UNL A   1      43.033  22.859  24.859  1.00  0.00     0.014 A 
ATOM     36  C   UNL A   1      44.426  22.171  26.728  1.00  0.00     0.014 A 
ATOM     37  C   UNL A   1      42.985  24.147  25.389  1.00  0.00     0.010 A 
ATOM     38  C   UNL A   1      44.254  23.399  27.318  1.00  0.00     0.010 A 
ATOM     39  C   UNL A   1      43.568  24.406  26.642  1.00  0.00    -0.014 A 
BRANCH  39  40
ATOM     40  C   UNL A   1      43.367  25.699  27.297  1.00  0.00     0.031 A 
ATOM     41  C   UNL A   1      44.314  26.787  26.905  1.00  0.00     0.074 A 
ATOM     42  C   UNL A   1      42.294  25.988  28.064  1.00  0.00     0.049 A 
ATOM     43  N   UNL A   1      45.168  27.396  27.660  1.00  0.00    -0.248 NA
ATOM     44  C   UNL A   1      44.379  27.192  25.493  1.00  0.00     0.031 C 
ATOM     45  C   UNL A   1      41.101  25.177  28.332  1.00  0.00     0.029 A 
ATOM     46  N   UNL A   1      42.007  27.154  28.706  1.00  0.00    -0.354 N 
ATOM     47  C   UNL A   1      45.774  28.371  26.870  1.00  0.00     0.074 A 
ATOM     48  C   UNL A   1      45.345  28.115  25.519  1.00  0.00     0.031 C 
ATOM     49  C   UNL A   1      40.132  25.955  28.862  1.00  0.00     0.029 A 
ATOM     50  C   UNL A   1      40.696  27.259  29.146  1.00  0.00     0.049 A 
ATOM     51  H   UNL A   1      42.674  27.864  28.844  1.00  0.00     0.167 HD
ATOM     52  C   UNL A   1      46.428  29.430  27.430  1.00  0.00     0.037 A 
ATOM     53  C   UNL A   1      40.108  28.350  29.693  1.00  0.00     0.037 A 
ATOM     54  C   UNL A   1      46.751  29.172  28.811  1.00  0.00     0.049 A 
ATOM     55  C   UNL A   1      41.194  29.218  30.214  1.00  0.00     0.074 A 
ATOM     56  C   UNL A   1      47.483  28.198  29.465  1.00  0.00     0.029 A 
ATOM     57  N   UNL A   1      45.984  29.761  29.787  1.00  0.00    -0.354 N 
ATOM     58  N   UNL A   1      41.956  28.894  31.223  1.00  0.00    -0.248 NA
ATOM     59  C   UNL A   1      41.734  30.232  29.321  1.00  0.00     0.031 C 
ATOM     60  C   UNL A   1      46.727  27.900  30.637  1.00  0.00     0.029 A 
ATOM     61  C   UNL A   1      45.630  28.763  30.660  1.00  0.00     0.049 A 
ATOM     62  H   UNL A   1      45.738  30.712  29.849  1.00  0.00     0.167 HD
ATOM     63  C   UNL A   1      43.223  29.321  30.855  1.00  0.00     0.074 A 
ATOM     64  C   UNL A   1      43.009  30.212  29.717  1.00  0.00     0.031 C 
ATOM     65  C   UNL A   1      44.346  28.697  31.316  1.00  0.00     0.037 A 
BRANCH  52  66
ATOM     66  C   UNL A   1      46.479  30.824  26.848  1.00  0.00     0.064 A 
ATOM     67  C   UNL A   1      47.705  31.522  26.834  1.00  0.00     0.173 A 
ATOM     68  C   UNL A   1      45.332  31.608  26.601  1.00  0.00     0.173 A 
ATOM     69  F   UNL A   1      48.860  30.881  27.065  1.00  0.00    -0.203 F 
ATOM     70  C   UNL A   1      47.766  32.910  26.681  1.00  0.00     0.198 A 
ATOM     71  C   UNL A   1      45.403  32.987  26.397  1.00  0.00     0.198 A 
ATOM     72  F   UNL A   1      44.096  31.102  26.660  1.00  0.00    -0.203 F 
ATOM     73  F   UNL A   1      48.939  33.543  26.812  1.00  0.00    -0.200 F 
ATOM     74  C   UNL A   1      46.613  33.643  26.473  1.00  0.00     0.200 A 
ATOM     75  F   UNL A   1      44.271  33.682  26.212  1.00  0.00    -0.200 F 
ATOM     76  F   UNL A   1      46.658  34.980  26.398  1.00  0.00    -0.200 F 
ENDBRANCH  52  66
BRANCH  53  77
ATOM     77  C   UNL A   1      38.711  28.809  29.528  1.00  0.00     0.064 A 
ATOM     78  C   UNL A   1      37.894  29.064  30.640  1.00  0.00     0.173 A 
ATOM     79  C   UNL A   1      38.235  29.271  28.283  1.00  0.00     0.173 A 
ATOM     80  F   UNL A   1      38.292  28.695  31.867  1.00  0.00    -0.203 F 
ATOM     81  C   UNL A   1      36.688  29.763  30.520  1.00  0.00     0.198 A 
ATOM     82  C   UNL A   1      37.029  29.961  28.163  1.00  0.00     0.198 A 
ATOM     83  F   UNL A   1      38.975  29.140  27.172  1.00  0.00    -0.203 F 
ATOM     84  F   UNL A   1      35.965  30.042  31.614  1.00  0.00    -0.200 F 
ATOM     85  C   UNL A   1      36.263  30.220  29.283  1.00  0.00     0.200 A 
ATOM     86  F   UNL A   1      36.647  30.426  26.965  1.00  0.00    -0.200 F 
ATOM     87  F   UNL A   1      35.140  30.944  29.177  1.00  0.00    -0.200 F 
ENDBRANCH  53  77
BRANCH  65  88
ATOM     88  C   UNL A   1      44.203  27.685  32.419  1.00  0.00     0.064 A 
ATOM     89  C   UNL A   1      44.072  26.300  32.208  1.00  0.00     0.173 A 
ATOM     90  C   UNL A   1      44.366  28.117  33.742  1.00  0.00     0.173 A 
ATOM     91  F   UNL A   1      44.016  25.790  30.973  1.00  0.00    -0.203 F 
ATOM     92  C   UNL A   1      44.063  25.401  33.274  1.00  0.00     0.198 A 
ATOM     93  C   UNL A   1      44.394  27.214  34.802  1.00  0.00     0.198 A 
ATOM     94  F   UNL A   1      44.553  29.420  34.005  1.00  0.00    -0.203 F 
ATOM     95  F   UNL A   1      43.926  24.086  33.042  1.00  0.00    -0.200 F 
ATOM     96  C   UNL A   1      44.231  25.858  34.569  1.00  0.00     0.200 A 
ATOM     97  F   UNL A   1      44.608  27.656  36.049  1.00  0.00    -0.200 F 
ATOM     98  F   UNL A   1      44.266  24.990  35.591  1.00  0.00    -0.200 F 
ENDBRANCH  65  88
ENDBRANCH  39  40
ENDBRANCH  31  34
ENDBRANCH  29  30
ENDBRANCH  28  29
ENDBRANCH   1  28
TORSDOF 14
ENDMDL
MODEL 3
REMARK VINA RESULT:     -12.8      3.381      8.811
REMARK SMILES Nc1ccc(C(=O)N2Cc3nc[nH]c3C[C@H]2C(=O)NCCCCNC(=O)c2ccc(-c3c4nc(c(-c5c(F)c(F)c(F)c(F)c5F)c5ccc([nH]5)c(-c5c(F)c(F)c(F)c(F)c5F)c5nc(c(-c6c(F)c(F)c(F)c(F)c6F)c6ccc3[nH]6)C=C5)C=C4)cc2)cc1
REMARK SMILES IDX 21 1 20 2 19 3 17 4 18 5 16 7 8 8 9 9 10 10 15 11 11 12
REMARK SMILES IDX 14 13 12 14 13 15 6 17 7 18 5 19 2 20 3 21 91 22 4 23 90 24
REMARK SMILES IDX 1 25 22 28 23 29 24 30 25 31 26 33 27 34 28 35 89 36 29 37
REMARK SMILES IDX 88 38 30 39 31 40 32 41 82 42 33 43 87 44 81 45 83 46 34 47
REMARK SMILES IDX 86 48 80 49 79 50 35 52 67 53 47 54 66 55 48 56 51 57 65 58
REMARK SMILES IDX 84 59 49 60 50 61 64 63 85 64 52 65 36 66 37 67 45 68 38 69
REMARK SMILES IDX 39 70 43 71 46 72 40 73 41 74 44 75 42 76 68 77 69 78 77 79
REMARK SMILES IDX 70 80 71 81 75 82 78 83 72 84 73 85 76 86 74 87 53 88 54 89
REMARK SMILES IDX 62 90 55 91 56 92 60 93 63 94 57 95 58 96 61 97 59 98
REMARK H PARENT 19 6 13 16 1 26 1 27 24 32 83 51 51 62
REMARK Flexibility Score: inf
ROOT
ATOM      1  C   UNL A   1      34.890  30.397  27.265  1.00  0.00     0.023 C 
ENDROOT
BRANCH   1   2
ATOM      2  C   UNL A   1      34.350  28.977  27.408  1.00  0.00     0.116 C 
BRANCH   2   3
ATOM      3  N   UNL A   1      32.914  28.875  27.566  1.00  0.00    -0.354 N 
ATOM      4  C   UNL A   1      32.039  27.900  27.190  1.00  0.00     0.243 C 
ATOM      5  O   UNL A   1      31.044  27.784  27.921  1.00  0.00    -0.273 OA
ATOM      6  H   UNL A   1      32.498  29.640  28.024  1.00  0.00     0.163 HD
BRANCH   4   7
ATOM      7  C   UNL A   1      32.220  26.908  26.004  1.00  0.00     0.181 C 
ATOM      8  N   UNL A   1      31.278  25.740  25.888  1.00  0.00    -0.320 N 
ATOM      9  C   UNL A   1      30.110  25.788  24.978  1.00  0.00     0.178 C 
ATOM     10  C   UNL A   1      30.149  26.954  24.063  1.00  0.00     0.081 A 
ATOM     11  C   UNL A   1      32.487  27.672  24.669  1.00  0.00     0.091 C 
ATOM     12  N   UNL A   1      29.058  27.460  23.407  1.00  0.00    -0.240 NA
ATOM     13  C   UNL A   1      31.224  27.794  23.915  1.00  0.00     0.042 A 
ATOM     14  C   UNL A   1      29.481  28.567  22.833  1.00  0.00     0.197 A 
ATOM     15  N   UNL A   1      30.810  28.794  23.084  1.00  0.00    -0.348 N 
ATOM     16  H   UNL A   1      31.358  29.534  22.734  1.00  0.00     0.167 HD
BRANCH   8  17
ATOM     17  C   UNL A   1      31.494  24.481  26.472  1.00  0.00     0.254 C 
ATOM     18  O   UNL A   1      30.663  23.964  27.221  1.00  0.00    -0.269 OA
BRANCH  17  19
ATOM     19  C   UNL A   1      32.754  23.716  26.275  1.00  0.00     0.040 A 
ATOM     20  C   UNL A   1      35.294  22.484  26.147  1.00  0.00     0.031 A 
ATOM     21  C   UNL A   1      34.426  22.214  27.206  1.00  0.00     0.026 A 
ATOM     22  C   UNL A   1      34.897  23.411  25.183  1.00  0.00     0.026 A 
ATOM     23  C   UNL A   1      33.159  22.811  27.265  1.00  0.00     0.016 A 
ATOM     24  C   UNL A   1      33.650  24.041  25.258  1.00  0.00     0.016 A 
BRANCH  20  25
ATOM     25  N   UNL A   1      36.581  21.972  26.134  1.00  0.00    -0.399 N 
ATOM     26  H   UNL A   1      37.352  22.578  26.209  1.00  0.00     0.156 HD
ATOM     27  H   UNL A   1      36.724  21.001  26.053  1.00  0.00     0.156 HD
ENDBRANCH  20  25
ENDBRANCH  17  19
ENDBRANCH   8  17
ENDBRANCH   4   7
ENDBRANCH   2   3
ENDBRANCH   1   2
BRANCH   1  28
ATOM     28  C   UNL A   1      34.002  31.510  27.843  1.00  0.00     0.023 C 
BRANCH  28  29
ATOM     29  C   UNL A   1      34.728  32.770  28.315  1.00  0.00     0.116 C 
BRANCH  29  30
ATOM     30  N   UNL A   1      34.691  32.990  29.760  1.00  0.00    -0.352 N 
ATOM     31  C   UNL A   1      35.349  32.246  30.733  1.00  0.00     0.251 C 
ATOM     32  H   UNL A   1      34.141  33.742  30.079  1.00  0.00     0.163 HD
ATOM     33  O   UNL A   1      34.971  32.196  31.885  1.00  0.00    -0.269 OA
BRANCH  31  34
ATOM     34  C   UNL A   1      36.562  31.521  30.311  1.00  0.00     0.039 A 
ATOM     35  C   UNL A   1      37.752  32.189  30.018  1.00  0.00     0.014 A 
ATOM     36  C   UNL A   1      36.498  30.131  30.336  1.00  0.00     0.014 A 
ATOM     37  C   UNL A   1      38.914  31.438  29.856  1.00  0.00     0.010 A 
ATOM     38  C   UNL A   1      37.666  29.409  30.321  1.00  0.00     0.010 A 
ATOM     39  C   UNL A   1      38.875  30.044  30.045  1.00  0.00    -0.014 A 
BRANCH  39  40
ATOM     40  C   UNL A   1      40.113  29.266  30.063  1.00  0.00     0.031 A 
ATOM     41  C   UNL A   1      40.729  29.045  31.407  1.00  0.00     0.074 A 
ATOM     42  C   UNL A   1      40.597  28.609  28.987  1.00  0.00     0.049 A 
ATOM     43  N   UNL A   1      41.881  29.459  31.822  1.00  0.00    -0.248 NA
ATOM     44  C   UNL A   1      39.943  28.352  32.439  1.00  0.00     0.031 C 
ATOM     45  C   UNL A   1      39.999  28.440  27.659  1.00  0.00     0.029 A 
ATOM     46  N   UNL A   1      41.726  27.853  28.900  1.00  0.00    -0.354 N 
ATOM     47  C   UNL A   1      42.046  28.954  33.110  1.00  0.00     0.074 A 
ATOM     48  C   UNL A   1      40.774  28.391  33.485  1.00  0.00     0.031 C 
ATOM     49  C   UNL A   1      40.635  27.450  26.996  1.00  0.00     0.029 A 
ATOM     50  C   UNL A   1      41.794  27.052  27.770  1.00  0.00     0.049 A 
ATOM     51  H   UNL A   1      42.434  27.872  29.583  1.00  0.00     0.167 HD
ATOM     52  C   UNL A   1      43.280  28.872  33.685  1.00  0.00     0.037 A 
ATOM     53  C   UNL A   1      42.731  26.113  27.496  1.00  0.00     0.037 A 
ATOM     54  C   UNL A   1      44.230  29.716  33.005  1.00  0.00     0.049 A 
ATOM     55  C   UNL A   1      43.926  26.433  28.316  1.00  0.00     0.074 A 
ATOM     56  C   UNL A   1      44.296  31.071  32.734  1.00  0.00     0.029 A 
ATOM     57  N   UNL A   1      45.132  29.134  32.147  1.00  0.00    -0.354 N 
ATOM     58  N   UNL A   1      44.666  27.491  28.132  1.00  0.00    -0.248 NA
ATOM     59  C   UNL A   1      44.022  25.823  29.634  1.00  0.00     0.031 C 
ATOM     60  C   UNL A   1      44.798  31.150  31.400  1.00  0.00     0.029 A 
ATOM     61  C   UNL A   1      45.076  29.850  30.978  1.00  0.00     0.049 A 
ATOM     62  H   UNL A   1      45.705  28.356  32.335  1.00  0.00     0.167 HD
ATOM     63  C   UNL A   1      44.971  27.933  29.410  1.00  0.00     0.074 A 
ATOM     64  C   UNL A   1      44.621  26.820  30.291  1.00  0.00     0.031 C 
ATOM     65  C   UNL A   1      45.207  29.252  29.670  1.00  0.00     0.037 A 
BRANCH  52  66
ATOM     66  C   UNL A   1      43.722  27.785  34.638  1.00  0.00     0.064 A 
ATOM     67  C   UNL A   1      44.315  28.143  35.867  1.00  0.00     0.173 A 
ATOM     68  C   UNL A   1      43.875  26.433  34.264  1.00  0.00     0.173 A 
ATOM     69  F   UNL A   1      44.241  29.403  36.322  1.00  0.00    -0.203 F 
ATOM     70  C   UNL A   1      45.082  27.242  36.611  1.00  0.00     0.198 A 
ATOM     71  C   UNL A   1      44.598  25.523  35.035  1.00  0.00     0.198 A 
ATOM     72  F   UNL A   1      43.436  25.966  33.090  1.00  0.00    -0.203 F 
ATOM     73  F   UNL A   1      45.738  27.666  37.699  1.00  0.00    -0.200 F 
ATOM     74  C   UNL A   1      45.232  25.935  36.188  1.00  0.00     0.200 A 
ATOM     75  F   UNL A   1      44.745  24.264  34.600  1.00  0.00    -0.200 F 
ATOM     76  F   UNL A   1      46.024  25.088  36.859  1.00  0.00    -0.200 F 
ENDBRANCH  52  66
BRANCH  53  77
ATOM     77  C   UNL A   1      42.545  24.818  26.803  1.00  0.00     0.064 A 
ATOM     78  C   UNL A   1      43.164  24.559  25.570  1.00  0.00     0.173 A 
ATOM     79  C   UNL A   1      41.982  23.708  27.466  1.00  0.00     0.173 A 
ATOM     80  F   UNL A   1      43.760  25.552  24.894  1.00  0.00    -0.203 F 
ATOM     81  C   UNL A   1      43.239  23.264  25.045  1.00  0.00     0.198 A 
ATOM     82  C   UNL A   1      42.051  22.419  26.938  1.00  0.00     0.198 A 
ATOM     83  F   UNL A   1      41.432  23.839  28.683  1.00  0.00    -0.203 F 
ATOM     84  F   UNL A   1      43.893  23.046  23.895  1.00  0.00    -0.200 F 
ATOM     85  C   UNL A   1      42.693  22.194  25.736  1.00  0.00     0.200 A 
ATOM     86  F   UNL A   1      41.547  21.389  27.633  1.00  0.00    -0.200 F 
ATOM     87  F   UNL A   1      42.820  20.946  25.264  1.00  0.00    -0.200 F 
ENDBRANCH  53  77
BRANCH  65  88
ATOM     88  C   UNL A   1      45.366  30.195  28.510  1.00  0.00     0.064 A 
ATOM     89  C   UNL A   1      44.302  30.884  27.900  1.00  0.00     0.173 A 
ATOM     90  C   UNL A   1      46.664  30.537  28.106  1.00  0.00     0.173 A 
ATOM     91  F   UNL A   1      43.038  30.697  28.296  1.00  0.00    -0.203 F 
ATOM     92  C   UNL A   1      44.528  31.835  26.905  1.00  0.00     0.198 A 
ATOM     93  C   UNL A   1      46.890  31.514  27.139  1.00  0.00     0.198 A 
ATOM     94  F   UNL A   1      47.724  29.957  28.690  1.00  0.00    -0.203 F 
ATOM     95  F   UNL A   1      43.493  32.469  26.334  1.00  0.00    -0.200 F 
ATOM     96  C   UNL A   1      45.822  32.154  26.532  1.00  0.00     0.200 A 
ATOM     97  F   UNL A   1      48.145  31.856  26.818  1.00  0.00    -0.200 F 
ATOM     98  F   UNL A   1      46.042  33.100  25.607  1.00  0.00    -0.200 F 
ENDBRANCH  65  88
ENDBRANCH  39  40
ENDBRANCH  31  34
ENDBRANCH  29  30
ENDBRANCH  28  29
ENDBRANCH   1  28
TORSDOF 14
ENDMDL
