MODEL 1
REMARK VINA RESULT:     -11.2      0.000      0.000
REMARK SMILES O=C(/C=C\N1CC[C@@H](O)C1)NCCCCNC(=O)c1ccc(-c2c3nc(c(-c4c(F)c(F)c(F)c(F)c4F)c4ccc([nH]4)c(-c4c(F)c(F)c(F)c(F)c4F)c4nc(c(-c5c(F)c(F)c(F)c(F)c5F)c5ccc2[nH]5)C=C4)C=C3)cc1
REMARK SMILES IDX 13 1 12 2 11 3 1 4 2 5 3 7 4 8 5 9 6 10 10 11 7 12 8 13 9 14
REMARK SMILES IDX 14 16 15 17 16 18 17 19 18 21 19 22 20 23 81 24 21 25 80 26
REMARK SMILES IDX 22 27 23 28 24 29 74 30 25 31 79 32 73 33 75 34 26 35 78 36
REMARK SMILES IDX 72 37 71 38 27 40 59 41 39 42 58 43 40 44 43 45 57 46 76 47
REMARK SMILES IDX 41 48 42 49 56 51 77 52 44 53 28 54 29 55 37 56 30 57 31 58
REMARK SMILES IDX 35 59 38 60 32 61 33 62 36 63 34 64 60 65 61 66 69 67 62 68
REMARK SMILES IDX 63 69 67 70 70 71 64 72 65 73 68 74 66 75 45 76 46 77 54 78
REMARK SMILES IDX 47 79 48 80 52 81 55 82 49 83 50 84 53 85 51 86
REMARK H PARENT 11 6 9 15 16 20 75 39 43 50
REMARK Flexibility Score: inf
ROOT
ATOM      1  C   UNL A   1      31.437  30.633  26.700  1.00  0.00     0.023 C 
ENDROOT
BRANCH   1   2
ATOM      2  C   UNL A   1      32.558  29.924  25.932  1.00  0.00     0.116 C 
BRANCH   2   3
ATOM      3  N   UNL A   1      32.282  29.703  24.526  1.00  0.00    -0.353 N 
ATOM      4  O   UNL A   1      30.989  27.828  24.776  1.00  0.00    -0.270 OA
ATOM      5  C   UNL A   1      31.497  28.679  24.063  1.00  0.00     0.245 C 
ATOM      6  H   UNL A   1      32.679  30.321  23.870  1.00  0.00     0.163 HD
BRANCH   5   7
ATOM      7  C   UNL A   1      31.162  28.723  22.610  1.00  0.00     0.088 C 
ATOM      8  C   UNL A   1      30.212  29.376  21.928  1.00  0.00     0.086 C 
BRANCH   8   9
ATOM      9  N   UNL A   1      29.272  30.319  22.279  1.00  0.00    -0.375 N 
ATOM     10  C   UNL A   1      28.452  30.262  23.501  1.00  0.00     0.119 C 
ATOM     11  C   UNL A   1      28.747  31.377  21.414  1.00  0.00     0.147 C 
ATOM     12  C   UNL A   1      27.652  31.578  23.500  1.00  0.00     0.055 C 
ATOM     13  C   UNL A   1      28.359  32.430  22.454  1.00  0.00     0.135 C 
BRANCH  13  14
ATOM     14  O   UNL A   1      29.529  33.005  23.052  1.00  0.00    -0.391 OA
ATOM     15  H   UNL A   1      29.749  33.835  22.601  1.00  0.00     0.211 HD
ENDBRANCH  13  14
ENDBRANCH   8   9
ENDBRANCH   5   7
ENDBRANCH   2   3
ENDBRANCH   1   2
BRANCH   1  16
ATOM     16  C   UNL A   1      31.362  32.160  26.592  1.00  0.00     0.023 C 
BRANCH  16  17
ATOM     17  C   UNL A   1      32.618  32.948  26.956  1.00  0.00     0.116 C 
BRANCH  17  18
ATOM     18  N   UNL A   1      32.347  34.204  27.626  1.00  0.00    -0.352 N 
ATOM     19  C   UNL A   1      33.015  34.796  28.673  1.00  0.00     0.251 C 
ATOM     20  H   UNL A   1      31.575  34.707  27.280  1.00  0.00     0.163 HD
ATOM     21  O   UNL A   1      32.580  35.845  29.145  1.00  0.00    -0.269 OA
BRANCH  19  22
ATOM     22  C   UNL A   1      34.222  34.177  29.286  1.00  0.00     0.039 A 
ATOM     23  C   UNL A   1      34.030  33.280  30.343  1.00  0.00     0.014 A 
ATOM     24  C   UNL A   1      35.526  34.487  28.885  1.00  0.00     0.014 A 
ATOM     25  C   UNL A   1      35.125  32.661  30.957  1.00  0.00     0.010 A 
ATOM     26  C   UNL A   1      36.619  33.825  29.461  1.00  0.00     0.010 A 
ATOM     27  C   UNL A   1      36.431  32.902  30.504  1.00  0.00    -0.014 A 
BRANCH  27  28
ATOM     28  C   UNL A   1      37.588  32.184  31.112  1.00  0.00     0.031 A 
ATOM     29  C   UNL A   1      38.071  32.521  32.498  1.00  0.00     0.074 A 
ATOM     30  C   UNL A   1      38.225  31.225  30.409  1.00  0.00     0.049 A 
ATOM     31  N   UNL A   1      39.061  31.998  33.182  1.00  0.00    -0.248 NA
ATOM     32  C   UNL A   1      37.357  33.594  33.203  1.00  0.00     0.031 C 
ATOM     33  C   UNL A   1      37.882  30.811  29.047  1.00  0.00     0.029 A 
ATOM     34  N   UNL A   1      39.291  30.423  30.740  1.00  0.00    -0.354 N 
ATOM     35  C   UNL A   1      39.089  32.679  34.393  1.00  0.00     0.074 A 
ATOM     36  C   UNL A   1      38.050  33.686  34.331  1.00  0.00     0.031 C 
ATOM     37  C   UNL A   1      38.704  29.820  28.668  1.00  0.00     0.029 A 
ATOM     38  C   UNL A   1      39.657  29.551  29.742  1.00  0.00     0.049 A 
ATOM     39  H   UNL A   1      39.750  30.469  31.609  1.00  0.00     0.167 HD
ATOM     40  C   UNL A   1      39.893  32.472  35.465  1.00  0.00     0.037 A 
ATOM     41  C   UNL A   1      40.651  28.641  29.690  1.00  0.00     0.037 A 
ATOM     42  C   UNL A   1      40.920  31.464  35.537  1.00  0.00     0.049 A 
ATOM     43  C   UNL A   1      41.552  28.456  30.883  1.00  0.00     0.074 A 
ATOM     44  C   UNL A   1      41.749  31.150  36.602  1.00  0.00     0.029 A 
ATOM     45  N   UNL A   1      41.269  30.610  34.500  1.00  0.00    -0.354 N 
ATOM     46  N   UNL A   1      41.524  29.061  32.044  1.00  0.00    -0.248 NA
ATOM     47  C   UNL A   1      42.619  27.453  30.757  1.00  0.00     0.031 C 
ATOM     48  C   UNL A   1      42.635  30.150  36.192  1.00  0.00     0.029 A 
ATOM     49  C   UNL A   1      42.320  29.793  34.891  1.00  0.00     0.049 A 
ATOM     50  H   UNL A   1      40.833  30.587  33.617  1.00  0.00     0.167 HD
ATOM     51  C   UNL A   1      42.544  28.494  32.796  1.00  0.00     0.074 A 
ATOM     52  C   UNL A   1      43.164  27.484  31.966  1.00  0.00     0.031 C 
ATOM     53  C   UNL A   1      42.931  28.785  34.063  1.00  0.00     0.037 A 
BRANCH  40  54
ATOM     54  C   UNL A   1      39.700  33.361  36.662  1.00  0.00     0.064 A 
ATOM     55  C   UNL A   1      40.383  34.581  36.792  1.00  0.00     0.173 A 
ATOM     56  C   UNL A   1      38.781  33.016  37.665  1.00  0.00     0.173 A 
ATOM     57  F   UNL A   1      41.275  34.957  35.864  1.00  0.00    -0.203 F 
ATOM     58  C   UNL A   1      40.176  35.405  37.896  1.00  0.00     0.198 A 
ATOM     59  C   UNL A   1      38.553  33.858  38.751  1.00  0.00     0.198 A 
ATOM     60  F   UNL A   1      38.093  31.868  37.586  1.00  0.00    -0.203 F 
ATOM     61  F   UNL A   1      40.875  36.541  38.022  1.00  0.00    -0.200 F 
ATOM     62  C   UNL A   1      39.257  35.047  38.870  1.00  0.00     0.200 A 
ATOM     63  F   UNL A   1      37.652  33.518  39.682  1.00  0.00    -0.200 F 
ATOM     64  F   UNL A   1      39.052  35.845  39.927  1.00  0.00    -0.200 F 
ENDBRANCH  40  54
BRANCH  41  65
ATOM     65  C   UNL A   1      40.844  27.822  28.464  1.00  0.00     0.064 A 
ATOM     66  C   UNL A   1      41.649  28.277  27.409  1.00  0.00     0.173 A 
ATOM     67  C   UNL A   1      40.215  26.577  28.314  1.00  0.00     0.173 A 
ATOM     68  F   UNL A   1      42.252  29.472  27.494  1.00  0.00    -0.203 F 
ATOM     69  C   UNL A   1      41.798  27.529  26.243  1.00  0.00     0.198 A 
ATOM     70  C   UNL A   1      40.391  25.816  27.160  1.00  0.00     0.198 A 
ATOM     71  F   UNL A   1      39.436  26.096  29.293  1.00  0.00    -0.203 F 
ATOM     72  F   UNL A   1      42.530  28.012  25.229  1.00  0.00    -0.200 F 
ATOM     73  C   UNL A   1      41.175  26.296  26.122  1.00  0.00     0.200 A 
ATOM     74  F   UNL A   1      39.798  24.619  27.054  1.00  0.00    -0.200 F 
ATOM     75  F   UNL A   1      41.321  25.576  25.001  1.00  0.00    -0.200 F 
ENDBRANCH  41  65
BRANCH  53  76
ATOM     76  C   UNL A   1      44.055  27.977  34.649  1.00  0.00     0.064 A 
ATOM     77  C   UNL A   1      45.390  28.403  34.574  1.00  0.00     0.173 A 
ATOM     78  C   UNL A   1      43.789  26.776  35.325  1.00  0.00     0.173 A 
ATOM     79  F   UNL A   1      45.702  29.536  33.926  1.00  0.00    -0.203 F 
ATOM     80  C   UNL A   1      46.418  27.644  35.131  1.00  0.00     0.198 A 
ATOM     81  C   UNL A   1      44.814  26.037  35.909  1.00  0.00     0.198 A 
ATOM     82  F   UNL A   1      42.531  26.325  35.432  1.00  0.00    -0.203 F 
ATOM     83  F   UNL A   1      47.689  28.046  35.001  1.00  0.00    -0.200 F 
ATOM     84  C   UNL A   1      46.128  26.467  35.803  1.00  0.00     0.200 A 
ATOM     85  F   UNL A   1      44.532  24.908  36.573  1.00  0.00    -0.200 F 
ATOM     86  F   UNL A   1      47.117  25.743  36.345  1.00  0.00    -0.200 F 
ENDBRANCH  53  76
ENDBRANCH  27  28
ENDBRANCH  19  22
ENDBRANCH  17  18
ENDBRANCH  16  17
ENDBRANCH   1  16
TORSDOF 13
ENDMDL
MODEL 2
REMARK VINA RESULT:     -11.2      5.529     11.231
REMARK SMILES O=C(/C=C\N1CC[C@@H](O)C1)NCCCCNC(=O)c1ccc(-c2c3nc(c(-c4c(F)c(F)c(F)c(F)c4F)c4ccc([nH]4)c(-c4c(F)c(F)c(F)c(F)c4F)c4nc(c(-c5c(F)c(F)c(F)c(F)c5F)c5ccc2[nH]5)C=C4)C=C3)cc1
REMARK SMILES IDX 13 1 12 2 11 3 1 4 2 5 3 7 4 8 5 9 6 10 10 11 7 12 8 13 9 14
REMARK SMILES IDX 14 16 15 17 16 18 17 19 18 21 19 22 20 23 81 24 21 25 80 26
REMARK SMILES IDX 22 27 23 28 24 29 74 30 25 31 79 32 73 33 75 34 26 35 78 36
REMARK SMILES IDX 72 37 71 38 27 40 59 41 39 42 58 43 40 44 43 45 57 46 76 47
REMARK SMILES IDX 41 48 42 49 56 51 77 52 44 53 28 54 29 55 37 56 30 57 31 58
REMARK SMILES IDX 35 59 38 60 32 61 33 62 36 63 34 64 60 65 61 66 69 67 62 68
REMARK SMILES IDX 63 69 67 70 70 71 64 72 65 73 68 74 66 75 45 76 46 77 54 78
REMARK SMILES IDX 47 79 48 80 52 81 55 82 49 83 50 84 53 85 51 86
REMARK H PARENT 11 6 9 15 16 20 75 39 43 50
REMARK Flexibility Score: inf
ROOT
ATOM      1  C   UNL A   1      41.787  19.369  26.135  1.00  0.00     0.023 C 
ENDROOT
BRANCH   1   2
ATOM      2  C   UNL A   1      43.084  18.581  25.921  1.00  0.00     0.116 C 
BRANCH   2   3
ATOM      3  N   UNL A   1      44.279  19.395  25.828  1.00  0.00    -0.353 N 
ATOM      4  O   UNL A   1      44.924  18.726  23.734  1.00  0.00    -0.270 OA
ATOM      5  C   UNL A   1      45.094  19.417  24.725  1.00  0.00     0.245 C 
ATOM      6  H   UNL A   1      44.518  19.963  26.597  1.00  0.00     0.163 HD
BRANCH   5   7
ATOM      7  C   UNL A   1      46.163  20.457  24.727  1.00  0.00     0.088 C 
ATOM      8  C   UNL A   1      46.121  21.785  24.900  1.00  0.00     0.086 C 
BRANCH   8   9
ATOM      9  N   UNL A   1      45.120  22.666  25.241  1.00  0.00    -0.375 N 
ATOM     10  C   UNL A   1      44.841  23.118  26.615  1.00  0.00     0.119 C 
ATOM     11  C   UNL A   1      44.023  23.102  24.376  1.00  0.00     0.147 C 
ATOM     12  C   UNL A   1      43.724  24.167  26.465  1.00  0.00     0.055 C 
ATOM     13  C   UNL A   1      43.716  24.477  24.973  1.00  0.00     0.135 C 
BRANCH  13  14
ATOM     14  O   UNL A   1      44.780  25.398  24.695  1.00  0.00    -0.391 OA
ATOM     15  H   UNL A   1      45.183  25.179  23.840  1.00  0.00     0.211 HD
ENDBRANCH  13  14
ENDBRANCH   8   9
ENDBRANCH   5   7
ENDBRANCH   2   3
ENDBRANCH   1   2
BRANCH   1  16
ATOM     16  C   UNL A   1      41.908  20.879  26.369  1.00  0.00     0.023 C 
BRANCH  16  17
ATOM     17  C   UNL A   1      40.784  21.557  27.147  1.00  0.00     0.116 C 
BRANCH  17  18
ATOM     18  N   UNL A   1      39.599  21.819  26.355  1.00  0.00    -0.352 N 
ATOM     19  C   UNL A   1      38.907  22.996  26.183  1.00  0.00     0.251 C 
ATOM     20  H   UNL A   1      39.238  21.043  25.869  1.00  0.00     0.163 HD
ATOM     21  O   UNL A   1      37.875  22.993  25.514  1.00  0.00    -0.269 OA
BRANCH  19  22
ATOM     22  C   UNL A   1      39.345  24.266  26.825  1.00  0.00     0.039 A 
ATOM     23  C   UNL A   1      38.936  24.507  28.142  1.00  0.00     0.014 A 
ATOM     24  C   UNL A   1      40.099  25.238  26.159  1.00  0.00     0.014 A 
ATOM     25  C   UNL A   1      39.320  25.680  28.802  1.00  0.00     0.010 A 
ATOM     26  C   UNL A   1      40.531  26.386  26.837  1.00  0.00     0.010 A 
ATOM     27  C   UNL A   1      40.147  26.620  28.168  1.00  0.00    -0.014 A 
BRANCH  27  28
ATOM     28  C   UNL A   1      40.614  27.832  28.901  1.00  0.00     0.031 A 
ATOM     29  C   UNL A   1      42.039  27.954  29.375  1.00  0.00     0.074 A 
ATOM     30  C   UNL A   1      39.748  28.833  29.159  1.00  0.00     0.049 A 
ATOM     31  N   UNL A   1      42.615  28.934  30.026  1.00  0.00    -0.248 NA
ATOM     32  C   UNL A   1      42.928  26.819  29.090  1.00  0.00     0.031 C 
ATOM     33  C   UNL A   1      38.333  28.841  28.783  1.00  0.00     0.029 A 
ATOM     34  N   UNL A   1      39.927  30.037  29.797  1.00  0.00    -0.354 N 
ATOM     35  C   UNL A   1      43.931  28.536  30.231  1.00  0.00     0.074 A 
ATOM     36  C   UNL A   1      44.053  27.202  29.679  1.00  0.00     0.031 C 
ATOM     37  C   UNL A   1      37.780  29.999  29.175  1.00  0.00     0.029 A 
ATOM     38  C   UNL A   1      38.787  30.803  29.864  1.00  0.00     0.049 A 
ATOM     39  H   UNL A   1      40.790  30.325  30.172  1.00  0.00     0.167 HD
ATOM     40  C   UNL A   1      44.948  29.223  30.807  1.00  0.00     0.037 A 
ATOM     41  C   UNL A   1      38.570  32.011  30.420  1.00  0.00     0.037 A 
ATOM     42  C   UNL A   1      44.834  30.554  31.347  1.00  0.00     0.049 A 
ATOM     43  C   UNL A   1      39.709  32.738  31.086  1.00  0.00     0.074 A 
ATOM     44  C   UNL A   1      45.824  31.347  31.905  1.00  0.00     0.029 A 
ATOM     45  N   UNL A   1      43.659  31.289  31.407  1.00  0.00    -0.354 N 
ATOM     46  N   UNL A   1      40.961  32.376  31.213  1.00  0.00    -0.248 NA
ATOM     47  C   UNL A   1      39.403  34.048  31.679  1.00  0.00     0.031 C 
ATOM     48  C   UNL A   1      45.239  32.533  32.355  1.00  0.00     0.029 A 
ATOM     49  C   UNL A   1      43.894  32.511  32.021  1.00  0.00     0.049 A 
ATOM     50  H   UNL A   1      42.787  30.988  31.064  1.00  0.00     0.167 HD
ATOM     51  C   UNL A   1      41.597  33.421  31.870  1.00  0.00     0.074 A 
ATOM     52  C   UNL A   1      40.596  34.440  32.101  1.00  0.00     0.031 C 
ATOM     53  C   UNL A   1      42.896  33.525  32.246  1.00  0.00     0.037 A 
BRANCH  40  54
ATOM     54  C   UNL A   1      46.287  28.545  30.892  1.00  0.00     0.064 A 
ATOM     55  C   UNL A   1      46.640  27.745  31.990  1.00  0.00     0.173 A 
ATOM     56  C   UNL A   1      47.207  28.652  29.838  1.00  0.00     0.173 A 
ATOM     57  F   UNL A   1      45.798  27.611  33.026  1.00  0.00    -0.203 F 
ATOM     58  C   UNL A   1      47.876  27.104  32.043  1.00  0.00     0.198 A 
ATOM     59  C   UNL A   1      48.429  27.984  29.880  1.00  0.00     0.198 A 
ATOM     60  F   UNL A   1      46.918  29.394  28.759  1.00  0.00    -0.203 F 
ATOM     61  F   UNL A   1      48.210  26.385  33.124  1.00  0.00    -0.200 F 
ATOM     62  C   UNL A   1      48.766  27.218  30.986  1.00  0.00     0.200 A 
ATOM     63  F   UNL A   1      49.280  28.081  28.850  1.00  0.00    -0.200 F 
ATOM     64  F   UNL A   1      49.950  26.594  31.034  1.00  0.00    -0.200 F 
ENDBRANCH  40  54
BRANCH  41  65
ATOM     65  C   UNL A   1      37.214  32.622  30.366  1.00  0.00     0.064 A 
ATOM     66  C   UNL A   1      36.282  32.406  31.392  1.00  0.00     0.173 A 
ATOM     67  C   UNL A   1      36.818  33.417  29.281  1.00  0.00     0.173 A 
ATOM     68  F   UNL A   1      36.605  31.633  32.439  1.00  0.00    -0.203 F 
ATOM     69  C   UNL A   1      34.998  32.944  31.322  1.00  0.00     0.198 A 
ATOM     70  C   UNL A   1      35.544  33.980  29.228  1.00  0.00     0.198 A 
ATOM     71  F   UNL A   1      37.671  33.655  28.275  1.00  0.00    -0.203 F 
ATOM     72  F   UNL A   1      34.110  32.677  32.290  1.00  0.00    -0.200 F 
ATOM     73  C   UNL A   1      34.633  33.736  30.244  1.00  0.00     0.200 A 
ATOM     74  F   UNL A   1      35.201  34.756  28.191  1.00  0.00    -0.200 F 
ATOM     75  F   UNL A   1      33.398  34.254  30.179  1.00  0.00    -0.200 F 
ENDBRANCH  41  65
BRANCH  53  76
ATOM     76  C   UNL A   1      43.325  34.801  32.915  1.00  0.00     0.064 A 
ATOM     77  C   UNL A   1      43.331  34.938  34.312  1.00  0.00     0.173 A 
ATOM     78  C   UNL A   1      43.769  35.891  32.149  1.00  0.00     0.173 A 
ATOM     79  F   UNL A   1      42.903  33.933  35.091  1.00  0.00    -0.203 F 
ATOM     80  C   UNL A   1      43.740  36.126  34.915  1.00  0.00     0.198 A 
ATOM     81  C   UNL A   1      44.208  37.064  32.756  1.00  0.00     0.198 A 
ATOM     82  F   UNL A   1      43.789  35.812  30.811  1.00  0.00    -0.203 F 
ATOM     83  F   UNL A   1      43.688  36.250  36.248  1.00  0.00    -0.200 F 
ATOM     84  C   UNL A   1      44.185  37.184  34.137  1.00  0.00     0.200 A 
ATOM     85  F   UNL A   1      44.652  38.081  32.004  1.00  0.00    -0.200 F 
ATOM     86  F   UNL A   1      44.585  38.323  34.719  1.00  0.00    -0.200 F 
ENDBRANCH  53  76
ENDBRANCH  27  28
ENDBRANCH  19  22
ENDBRANCH  17  18
ENDBRANCH  16  17
ENDBRANCH   1  16
TORSDOF 13
ENDMDL
MODEL 3
REMARK VINA RESULT:     -11.2      4.165      7.051
REMARK SMILES O=C(/C=C\N1CC[C@@H](O)C1)NCCCCNC(=O)c1ccc(-c2c3nc(c(-c4c(F)c(F)c(F)c(F)c4F)c4ccc([nH]4)c(-c4c(F)c(F)c(F)c(F)c4F)c4nc(c(-c5c(F)c(F)c(F)c(F)c5F)c5ccc2[nH]5)C=C4)C=C3)cc1
REMARK SMILES IDX 13 1 12 2 11 3 1 4 2 5 3 7 4 8 5 9 6 10 10 11 7 12 8 13 9 14
REMARK SMILES IDX 14 16 15 17 16 18 17 19 18 21 19 22 20 23 81 24 21 25 80 26
REMARK SMILES IDX 22 27 23 28 24 29 74 30 25 31 79 32 73 33 75 34 26 35 78 36
REMARK SMILES IDX 72 37 71 38 27 40 59 41 39 42 58 43 40 44 43 45 57 46 76 47
REMARK SMILES IDX 41 48 42 49 56 51 77 52 44 53 28 54 29 55 37 56 30 57 31 58
REMARK SMILES IDX 35 59 38 60 32 61 33 62 36 63 34 64 60 65 61 66 69 67 62 68
REMARK SMILES IDX 63 69 67 70 70 71 64 72 65 73 68 74 66 75 45 76 46 77 54 78
REMARK SMILES IDX 47 79 48 80 52 81 55 82 49 83 50 84 53 85 51 86
REMARK H PARENT 11 6 9 15 16 20 75 39 43 50
REMARK Flexibility Score: inf
ROOT
ATOM      1  C   UNL A   1      34.445  35.062  28.060  1.00  0.00     0.023 C 
ENDROOT
BRANCH   1   2
ATOM      2  C   UNL A   1      33.416  35.448  29.129  1.00  0.00     0.116 C 
BRANCH   2   3
ATOM      3  N   UNL A   1      33.982  35.781  30.421  1.00  0.00    -0.353 N 
ATOM      4  O   UNL A   1      32.078  36.651  31.354  1.00  0.00    -0.270 OA
ATOM      5  C   UNL A   1      33.255  36.339  31.442  1.00  0.00     0.245 C 
ATOM      6  H   UNL A   1      34.937  35.597  30.575  1.00  0.00     0.163 HD
BRANCH   5   7
ATOM      7  C   UNL A   1      33.948  36.430  32.759  1.00  0.00     0.088 C 
ATOM      8  C   UNL A   1      34.803  35.606  33.381  1.00  0.00     0.086 C 
BRANCH   8   9
ATOM      9  N   UNL A   1      35.439  34.443  33.010  1.00  0.00    -0.375 N 
ATOM     10  C   UNL A   1      36.722  34.389  32.290  1.00  0.00     0.119 C 
ATOM     11  C   UNL A   1      34.859  33.099  33.030  1.00  0.00     0.147 C 
ATOM     12  C   UNL A   1      37.067  32.891  32.212  1.00  0.00     0.055 C 
ATOM     13  C   UNL A   1      36.118  32.248  33.214  1.00  0.00     0.135 C 
BRANCH  13  14
ATOM     14  O   UNL A   1      36.659  32.424  34.530  1.00  0.00    -0.391 OA
ATOM     15  H   UNL A   1      36.915  33.351  34.655  1.00  0.00     0.211 HD
ENDBRANCH  13  14
ENDBRANCH   8   9
ENDBRANCH   5   7
ENDBRANCH   2   3
ENDBRANCH   1   2
BRANCH   1  16
ATOM     16  C   UNL A   1      35.295  33.813  28.316  1.00  0.00     0.023 C 
BRANCH  16  17
ATOM     17  C   UNL A   1      34.692  32.729  29.206  1.00  0.00     0.116 C 
BRANCH  17  18
ATOM     18  N   UNL A   1      34.039  31.664  28.471  1.00  0.00    -0.352 N 
ATOM     19  C   UNL A   1      34.535  30.442  28.080  1.00  0.00     0.251 C 
ATOM     20  H   UNL A   1      33.105  31.841  28.216  1.00  0.00     0.163 HD
ATOM     21  O   UNL A   1      33.831  29.700  27.397  1.00  0.00    -0.269 OA
BRANCH  19  22
ATOM     22  C   UNL A   1      35.919  30.012  28.417  1.00  0.00     0.039 A 
ATOM     23  C   UNL A   1      36.899  30.124  27.423  1.00  0.00     0.014 A 
ATOM     24  C   UNL A   1      36.268  29.462  29.656  1.00  0.00     0.014 A 
ATOM     25  C   UNL A   1      38.220  29.742  27.681  1.00  0.00     0.010 A 
ATOM     26  C   UNL A   1      37.602  29.131  29.932  1.00  0.00     0.010 A 
ATOM     27  C   UNL A   1      38.595  29.268  28.948  1.00  0.00    -0.014 A 
BRANCH  27  28
ATOM     28  C   UNL A   1      40.018  28.932  29.239  1.00  0.00     0.031 A 
ATOM     29  C   UNL A   1      40.888  29.864  30.041  1.00  0.00     0.074 A 
ATOM     30  C   UNL A   1      40.544  27.783  28.768  1.00  0.00     0.049 A 
ATOM     31  N   UNL A   1      42.146  29.731  30.388  1.00  0.00    -0.248 NA
ATOM     32  C   UNL A   1      40.268  31.114  30.501  1.00  0.00     0.031 C 
ATOM     33  C   UNL A   1      39.827  26.798  27.957  1.00  0.00     0.029 A 
ATOM     34  N   UNL A   1      41.802  27.247  28.903  1.00  0.00    -0.354 N 
ATOM     35  C   UNL A   1      42.467  30.878  31.104  1.00  0.00     0.074 A 
ATOM     36  C   UNL A   1      41.288  31.718  31.098  1.00  0.00     0.031 C 
ATOM     37  C   UNL A   1      40.645  25.770  27.687  1.00  0.00     0.029 A 
ATOM     38  C   UNL A   1      41.958  26.036  28.271  1.00  0.00     0.049 A 
ATOM     39  H   UNL A   1      42.525  27.688  29.404  1.00  0.00     0.167 HD
ATOM     40  C   UNL A   1      43.630  31.194  31.726  1.00  0.00     0.037 A 
ATOM     41  C   UNL A   1      43.034  25.231  28.164  1.00  0.00     0.037 A 
ATOM     42  C   UNL A   1      44.803  30.357  31.744  1.00  0.00     0.049 A 
ATOM     43  C   UNL A   1      44.324  25.623  28.835  1.00  0.00     0.074 A 
ATOM     44  C   UNL A   1      46.009  30.575  32.391  1.00  0.00     0.029 A 
ATOM     45  N   UNL A   1      44.924  29.145  31.080  1.00  0.00    -0.354 N 
ATOM     46  N   UNL A   1      44.593  26.679  29.563  1.00  0.00    -0.248 NA
ATOM     47  C   UNL A   1      45.461  24.704  28.673  1.00  0.00     0.031 C 
ATOM     48  C   UNL A   1      46.877  29.527  32.071  1.00  0.00     0.029 A 
ATOM     49  C   UNL A   1      46.194  28.621  31.276  1.00  0.00     0.049 A 
ATOM     50  H   UNL A   1      44.213  28.719  30.549  1.00  0.00     0.167 HD
ATOM     51  C   UNL A   1      45.912  26.537  29.970  1.00  0.00     0.074 A 
ATOM     52  C   UNL A   1      46.387  25.285  29.423  1.00  0.00     0.031 C 
ATOM     53  C   UNL A   1      46.662  27.371  30.733  1.00  0.00     0.037 A 
BRANCH  40  54
ATOM     54  C   UNL A   1      43.701  32.515  32.441  1.00  0.00     0.064 A 
ATOM     55  C   UNL A   1      43.379  32.634  33.802  1.00  0.00     0.173 A 
ATOM     56  C   UNL A   1      44.147  33.664  31.772  1.00  0.00     0.173 A 
ATOM     57  F   UNL A   1      42.942  31.568  34.488  1.00  0.00    -0.203 F 
ATOM     58  C   UNL A   1      43.471  33.860  34.456  1.00  0.00     0.198 A 
ATOM     59  C   UNL A   1      44.270  34.881  32.437  1.00  0.00     0.198 A 
ATOM     60  F   UNL A   1      44.480  33.605  30.474  1.00  0.00    -0.203 F 
ATOM     61  F   UNL A   1      43.112  33.960  35.744  1.00  0.00    -0.200 F 
ATOM     62  C   UNL A   1      43.924  34.981  33.776  1.00  0.00     0.200 A 
ATOM     63  F   UNL A   1      44.724  35.959  31.782  1.00  0.00    -0.200 F 
ATOM     64  F   UNL A   1      44.022  36.158  34.409  1.00  0.00    -0.200 F 
ENDBRANCH  40  54
BRANCH  41  65
ATOM     65  C   UNL A   1      42.938  23.960  27.396  1.00  0.00     0.064 A 
ATOM     66  C   UNL A   1      42.521  22.772  28.014  1.00  0.00     0.173 A 
ATOM     67  C   UNL A   1      43.280  23.904  26.037  1.00  0.00     0.173 A 
ATOM     68  F   UNL A   1      42.208  22.768  29.318  1.00  0.00    -0.203 F 
ATOM     69  C   UNL A   1      42.471  21.572  27.306  1.00  0.00     0.198 A 
ATOM     70  C   UNL A   1      43.198  22.710  25.323  1.00  0.00     0.198 A 
ATOM     71  F   UNL A   1      43.684  25.012  25.400  1.00  0.00    -0.203 F 
ATOM     72  F   UNL A   1      42.120  20.441  27.934  1.00  0.00    -0.200 F 
ATOM     73  C   UNL A   1      42.803  21.544  25.960  1.00  0.00     0.200 A 
ATOM     74  F   UNL A   1      43.506  22.691  24.019  1.00  0.00    -0.200 F 
ATOM     75  F   UNL A   1      42.752  20.390  25.280  1.00  0.00    -0.200 F 
ENDBRANCH  41  65
BRANCH  53  76
ATOM     76  C   UNL A   1      48.067  26.945  31.054  1.00  0.00     0.064 A 
ATOM     77  C   UNL A   1      48.352  26.085  32.126  1.00  0.00     0.173 A 
ATOM     78  C   UNL A   1      49.140  27.375  30.258  1.00  0.00     0.173 A 
ATOM     79  F   UNL A   1      47.366  25.655  32.928  1.00  0.00    -0.203 F 
ATOM     80  C   UNL A   1      49.661  25.693  32.403  1.00  0.00     0.198 A 
ATOM     81  C   UNL A   1      50.442  26.956  30.518  1.00  0.00     0.198 A 
ATOM     82  F   UNL A   1      48.923  28.193  29.217  1.00  0.00    -0.203 F 
ATOM     83  F   UNL A   1      49.913  24.914  33.463  1.00  0.00    -0.200 F 
ATOM     84  C   UNL A   1      50.702  26.124  31.595  1.00  0.00     0.200 A 
ATOM     85  F   UNL A   1      51.445  27.360  29.726  1.00  0.00    -0.200 F 
ATOM     86  F   UNL A   1      51.959  25.740  31.859  1.00  0.00    -0.200 F 
ENDBRANCH  53  76
ENDBRANCH  27  28
ENDBRANCH  19  22
ENDBRANCH  17  18
ENDBRANCH  16  17
ENDBRANCH   1  16
TORSDOF 13
ENDMDL
