MODEL 1
REMARK VINA RESULT:     -13.5      0.000      0.000
REMARK SMILES CC(C)c1noc(C[N@@H+]2[C@@H](C(=O)NCCCCNC(=O)c3ccc(-c4c5nc(c(-c6c(F)c(F)c(F)c(F)c6F)c6ccc([nH]6)c(-c6c(F)c(F)c(F)c(F)c6F)c6nc(c(-c7c(F)c(F)c(F)c(F)c7F)c7ccc4[nH]7)C=C6)C=C5)cc3)C[C@H]3CCCC[C@@H]32)n1
REMARK SMILES IDX 15 1 14 2 13 3 11 4 12 5 10 7 9 8 90 9 84 11 85 12 89 13
REMARK SMILES IDX 86 14 88 15 87 16 8 17 7 18 4 19 5 20 91 21 6 22 2 23 1 24
REMARK SMILES IDX 3 25 16 26 17 27 18 28 19 29 20 31 21 32 22 33 83 34 23 35
REMARK SMILES IDX 82 36 24 37 25 38 26 39 76 40 27 41 81 42 75 43 77 44 28 45
REMARK SMILES IDX 80 46 74 47 73 48 29 50 61 51 41 52 60 53 42 54 45 55 59 56
REMARK SMILES IDX 78 57 43 58 44 59 58 61 79 62 46 63 30 64 31 65 39 66 32 67
REMARK SMILES IDX 33 68 37 69 40 70 34 71 35 72 38 73 36 74 62 75 63 76 71 77
REMARK SMILES IDX 64 78 65 79 69 80 72 81 66 82 67 83 70 84 68 85 47 86 48 87
REMARK SMILES IDX 56 88 49 89 50 90 54 91 57 92 51 93 52 94 55 95 53 96
REMARK H PARENT 13 6 9 10 18 30 77 49 45 60
REMARK Flexibility Score: inf
ROOT
ATOM      1  C   UNL A   1      31.742  30.614  26.164  1.00  0.00     0.023 C 
ENDROOT
BRANCH   1   2
ATOM      2  C   UNL A   1      32.451  29.667  27.127  1.00  0.00     0.116 C 
BRANCH   2   3
ATOM      3  N   UNL A   1      31.710  28.429  27.295  1.00  0.00    -0.351 N 
ATOM      4  C   UNL A   1      31.674  27.334  26.468  1.00  0.00     0.278 C 
ATOM      5  O   UNL A   1      30.945  26.395  26.786  1.00  0.00    -0.268 OA
ATOM      6  H   UNL A   1      31.161  28.367  28.110  1.00  0.00     0.163 HD
BRANCH   4   7
ATOM      7  C   UNL A   1      32.599  27.344  25.235  1.00  0.00     0.275 C 
ATOM      8  N   UNL A   1      31.990  26.621  24.082  1.00  0.00    -0.314 N 
ATOM      9  C   UNL A   1      32.638  25.301  24.058  1.00  0.00     0.188 C 
ATOM     10  H   UNL A   1      30.986  26.478  24.185  1.00  0.00     0.349 HD
ATOM     11  C   UNL A   1      33.903  26.606  25.599  1.00  0.00     0.085 C 
ATOM     12  C   UNL A   1      34.071  25.585  24.493  1.00  0.00     0.054 C 
ATOM     13  C   UNL A   1      32.605  24.424  22.807  1.00  0.00     0.065 C 
ATOM     14  C   UNL A   1      34.800  24.299  24.841  1.00  0.00     0.010 C 
ATOM     15  C   UNL A   1      33.448  23.153  23.004  1.00  0.00     0.006 C 
ATOM     16  C   UNL A   1      34.841  23.416  23.592  1.00  0.00     0.001 C 
BRANCH   8  17
ATOM     17  C   UNL A   1      31.995  27.413  22.832  1.00  0.00     0.364 C 
BRANCH  17  18
ATOM     18  C   UNL A   1      30.897  28.413  22.654  1.00  0.00     0.281 A 
ATOM     19  C   UNL A   1      29.065  29.423  22.502  1.00  0.00     0.174 A 
ATOM     20  N   UNL A   1      29.811  29.992  21.543  1.00  0.00    -0.062 NA
ATOM     21  N   UNL A   1      29.727  28.481  23.249  1.00  0.00    -0.191 NA
ATOM     22  O   UNL A   1      31.036  29.329  21.648  1.00  0.00    -0.333 OA
BRANCH  19  23
ATOM     23  C   UNL A   1      27.622  29.736  22.748  1.00  0.00     0.055 C 
ATOM     24  C   UNL A   1      26.863  28.614  23.458  1.00  0.00     0.016 C 
ATOM     25  C   UNL A   1      27.461  31.030  23.558  1.00  0.00     0.016 C 
ENDBRANCH  19  23
ENDBRANCH  17  18
ENDBRANCH   8  17
ENDBRANCH   4   7
ENDBRANCH   2   3
ENDBRANCH   1   2
BRANCH   1  26
ATOM     26  C   UNL A   1      31.432  31.990  26.753  1.00  0.00     0.023 C 
BRANCH  26  27
ATOM     27  C   UNL A   1      32.643  32.750  27.286  1.00  0.00     0.116 C 
BRANCH  27  28
ATOM     28  N   UNL A   1      32.349  34.143  27.588  1.00  0.00    -0.352 N 
ATOM     29  C   UNL A   1      32.929  34.969  28.519  1.00  0.00     0.251 C 
ATOM     30  H   UNL A   1      31.633  34.550  27.047  1.00  0.00     0.163 HD
ATOM     31  O   UNL A   1      32.453  36.079  28.743  1.00  0.00    -0.269 OA
BRANCH  29  32
ATOM     32  C   UNL A   1      34.109  34.505  29.278  1.00  0.00     0.039 A 
ATOM     33  C   UNL A   1      33.914  33.875  30.509  1.00  0.00     0.014 A 
ATOM     34  C   UNL A   1      35.399  34.670  28.768  1.00  0.00     0.014 A 
ATOM     35  C   UNL A   1      35.007  33.345  31.195  1.00  0.00     0.010 A 
ATOM     36  C   UNL A   1      36.478  34.072  29.413  1.00  0.00     0.010 A 
ATOM     37  C   UNL A   1      36.293  33.400  30.631  1.00  0.00    -0.014 A 
BRANCH  37  38
ATOM     38  C   UNL A   1      37.453  32.749  31.293  1.00  0.00     0.031 A 
ATOM     39  C   UNL A   1      38.140  31.582  30.641  1.00  0.00     0.074 A 
ATOM     40  C   UNL A   1      37.836  33.160  32.517  1.00  0.00     0.049 A 
ATOM     41  N   UNL A   1      39.113  30.834  31.097  1.00  0.00    -0.248 NA
ATOM     42  C   UNL A   1      37.649  31.183  29.314  1.00  0.00     0.031 C 
ATOM     43  C   UNL A   1      37.216  34.246  33.277  1.00  0.00     0.029 A 
ATOM     44  N   UNL A   1      38.831  32.701  33.346  1.00  0.00    -0.354 N 
ATOM     45  C   UNL A   1      39.337  29.870  30.123  1.00  0.00     0.074 A 
ATOM     46  C   UNL A   1      38.364  30.094  29.076  1.00  0.00     0.031 C 
ATOM     47  C   UNL A   1      37.850  34.377  34.452  1.00  0.00     0.029 A 
ATOM     48  C   UNL A   1      38.892  33.360  34.549  1.00  0.00     0.049 A 
ATOM     49  H   UNL A   1      39.441  31.968  33.102  1.00  0.00     0.167 HD
ATOM     50  C   UNL A   1      40.282  28.899  30.096  1.00  0.00     0.037 A 
ATOM     51  C   UNL A   1      39.686  33.156  35.619  1.00  0.00     0.037 A 
ATOM     52  C   UNL A   1      41.260  28.695  31.132  1.00  0.00     0.049 A 
ATOM     53  C   UNL A   1      40.721  32.066  35.569  1.00  0.00     0.074 A 
ATOM     54  C   UNL A   1      42.309  27.792  31.161  1.00  0.00     0.029 A 
ATOM     55  N   UNL A   1      41.303  29.394  32.330  1.00  0.00    -0.354 N 
ATOM     56  N   UNL A   1      40.982  31.217  34.604  1.00  0.00    -0.248 NA
ATOM     57  C   UNL A   1      41.576  31.908  36.754  1.00  0.00     0.031 C 
ATOM     58  C   UNL A   1      42.945  27.900  32.401  1.00  0.00     0.029 A 
ATOM     59  C   UNL A   1      42.335  28.915  33.121  1.00  0.00     0.049 A 
ATOM     60  H   UNL A   1      40.690  30.122  32.581  1.00  0.00     0.167 HD
ATOM     61  C   UNL A   1      42.041  30.440  35.055  1.00  0.00     0.074 A 
ATOM     62  C   UNL A   1      42.387  30.932  36.372  1.00  0.00     0.031 C 
ATOM     63  C   UNL A   1      42.668  29.410  34.434  1.00  0.00     0.037 A 
BRANCH  50  64
ATOM     64  C   UNL A   1      40.296  27.975  28.912  1.00  0.00     0.064 A 
ATOM     65  C   UNL A   1      41.038  28.261  27.755  1.00  0.00     0.173 A 
ATOM     66  C   UNL A   1      39.579  26.768  28.946  1.00  0.00     0.173 A 
ATOM     67  F   UNL A   1      41.734  29.404  27.666  1.00  0.00    -0.203 F 
ATOM     68  C   UNL A   1      41.033  27.393  26.667  1.00  0.00     0.198 A 
ATOM     69  C   UNL A   1      39.606  25.886  27.869  1.00  0.00     0.198 A 
ATOM     70  F   UNL A   1      38.858  26.440  30.028  1.00  0.00    -0.203 F 
ATOM     71  F   UNL A   1      41.704  27.717  25.552  1.00  0.00    -0.200 F 
ATOM     72  C   UNL A   1      40.323  26.204  26.727  1.00  0.00     0.200 A 
ATOM     73  F   UNL A   1      38.932  24.729  27.935  1.00  0.00    -0.200 F 
ATOM     74  F   UNL A   1      40.326  25.367  25.680  1.00  0.00    -0.200 F 
ENDBRANCH  50  64
BRANCH  51  75
ATOM     75  C   UNL A   1      39.530  34.009  36.827  1.00  0.00     0.064 A 
ATOM     76  C   UNL A   1      38.745  33.593  37.910  1.00  0.00     0.173 A 
ATOM     77  C   UNL A   1      40.170  35.254  36.925  1.00  0.00     0.173 A 
ATOM     78  F   UNL A   1      38.098  32.420  37.857  1.00  0.00    -0.203 F 
ATOM     79  C   UNL A   1      38.590  34.398  39.039  1.00  0.00     0.198 A 
ATOM     80  C   UNL A   1      40.039  36.043  38.066  1.00  0.00     0.198 A 
ATOM     81  F   UNL A   1      40.937  35.697  35.918  1.00  0.00    -0.203 F 
ATOM     82  F   UNL A   1      37.798  33.995  40.042  1.00  0.00    -0.200 F 
ATOM     83  C   UNL A   1      39.244  35.618  39.119  1.00  0.00     0.200 A 
ATOM     84  F   UNL A   1      40.687  37.214  38.145  1.00  0.00    -0.200 F 
ATOM     85  F   UNL A   1      39.101  36.386  40.206  1.00  0.00    -0.200 F 
ENDBRANCH  51  75
BRANCH  63  86
ATOM     86  C   UNL A   1      43.808  28.756  35.160  1.00  0.00     0.064 A 
ATOM     87  C   UNL A   1      45.132  29.195  35.005  1.00  0.00     0.173 A 
ATOM     88  C   UNL A   1      43.568  27.705  36.059  1.00  0.00     0.173 A 
ATOM     89  F   UNL A   1      45.417  30.186  34.148  1.00  0.00    -0.203 F 
ATOM     90  C   UNL A   1      46.174  28.591  35.704  1.00  0.00     0.198 A 
ATOM     91  C   UNL A   1      44.608  27.126  36.781  1.00  0.00     0.198 A 
ATOM     92  F   UNL A   1      42.321  27.249  36.250  1.00  0.00    -0.203 F 
ATOM     93  F   UNL A   1      47.435  28.996  35.504  1.00  0.00    -0.200 F 
ATOM     94  C   UNL A   1      45.910  27.564  36.598  1.00  0.00     0.200 A 
ATOM     95  F   UNL A   1      44.349  26.144  37.656  1.00  0.00    -0.200 F 
ATOM     96  F   UNL A   1      46.913  26.991  37.278  1.00  0.00    -0.200 F 
ENDBRANCH  63  86
ENDBRANCH  37  38
ENDBRANCH  29  32
ENDBRANCH  27  28
ENDBRANCH  26  27
ENDBRANCH   1  26
TORSDOF 14
ENDMDL
MODEL 2
REMARK VINA RESULT:     -13.4      0.495      2.026
REMARK SMILES CC(C)c1noc(C[N@@H+]2[C@@H](C(=O)NCCCCNC(=O)c3ccc(-c4c5nc(c(-c6c(F)c(F)c(F)c(F)c6F)c6ccc([nH]6)c(-c6c(F)c(F)c(F)c(F)c6F)c6nc(c(-c7c(F)c(F)c(F)c(F)c7F)c7ccc4[nH]7)C=C6)C=C5)cc3)C[C@H]3CCCC[C@@H]32)n1
REMARK SMILES IDX 15 1 14 2 13 3 11 4 12 5 10 7 9 8 90 9 84 11 85 12 89 13
REMARK SMILES IDX 86 14 88 15 87 16 8 17 7 18 4 19 5 20 91 21 6 22 2 23 1 24
REMARK SMILES IDX 3 25 16 26 17 27 18 28 19 29 20 31 21 32 22 33 83 34 23 35
REMARK SMILES IDX 82 36 24 37 25 38 26 39 76 40 27 41 81 42 75 43 77 44 28 45
REMARK SMILES IDX 80 46 74 47 73 48 29 50 61 51 41 52 60 53 42 54 45 55 59 56
REMARK SMILES IDX 78 57 43 58 44 59 58 61 79 62 46 63 30 64 31 65 39 66 32 67
REMARK SMILES IDX 33 68 37 69 40 70 34 71 35 72 38 73 36 74 62 75 63 76 71 77
REMARK SMILES IDX 64 78 65 79 69 80 72 81 66 82 67 83 70 84 68 85 47 86 48 87
REMARK SMILES IDX 56 88 49 89 50 90 54 91 57 92 51 93 52 94 55 95 53 96
REMARK H PARENT 13 6 9 10 18 30 77 49 45 60
REMARK Flexibility Score: inf
ROOT
ATOM      1  C   UNL A   1      31.776  30.622  26.152  1.00  0.00     0.023 C 
ENDROOT
BRANCH   1   2
ATOM      2  C   UNL A   1      32.478  29.704  27.146  1.00  0.00     0.116 C 
BRANCH   2   3
ATOM      3  N   UNL A   1      31.738  28.471  27.343  1.00  0.00    -0.351 N 
ATOM      4  C   UNL A   1      31.663  27.375  26.520  1.00  0.00     0.278 C 
ATOM      5  O   UNL A   1      30.942  26.440  26.867  1.00  0.00    -0.268 OA
ATOM      6  H   UNL A   1      31.221  28.413  28.179  1.00  0.00     0.163 HD
BRANCH   4   7
ATOM      7  C   UNL A   1      32.539  27.379  25.251  1.00  0.00     0.275 C 
ATOM      8  N   UNL A   1      31.926  26.577  24.154  1.00  0.00    -0.314 N 
ATOM      9  C   UNL A   1      32.641  25.292  24.159  1.00  0.00     0.188 C 
ATOM     10  H   UNL A   1      30.935  26.388  24.303  1.00  0.00     0.349 HD
ATOM     11  C   UNL A   1      33.892  26.725  25.593  1.00  0.00     0.085 C 
ATOM     12  C   UNL A   1      34.072  25.667  24.524  1.00  0.00     0.054 C 
ATOM     13  C   UNL A   1      32.607  24.361  22.947  1.00  0.00     0.065 C 
ATOM     14  C   UNL A   1      34.880  24.436  24.896  1.00  0.00     0.010 C 
ATOM     15  C   UNL A   1      33.522  23.144  23.163  1.00  0.00     0.006 C 
ATOM     16  C   UNL A   1      34.920  23.502  23.683  1.00  0.00     0.001 C 
BRANCH   8  17
ATOM     17  C   UNL A   1      31.842  27.313  22.874  1.00  0.00     0.364 C 
BRANCH  17  18
ATOM     18  C   UNL A   1      30.638  28.175  22.659  1.00  0.00     0.281 A 
ATOM     19  C   UNL A   1      29.250  29.742  22.534  1.00  0.00     0.174 A 
ATOM     20  N   UNL A   1      28.499  28.695  22.906  1.00  0.00    -0.062 NA
ATOM     21  N   UNL A   1      30.571  29.442  22.314  1.00  0.00    -0.191 NA
ATOM     22  O   UNL A   1      29.420  27.647  22.982  1.00  0.00    -0.333 OA
BRANCH  19  23
ATOM     23  C   UNL A   1      28.737  31.141  22.388  1.00  0.00     0.055 C 
ATOM     24  C   UNL A   1      28.115  31.428  21.020  1.00  0.00     0.016 C 
ATOM     25  C   UNL A   1      27.710  31.477  23.478  1.00  0.00     0.016 C 
ENDBRANCH  19  23
ENDBRANCH  17  18
ENDBRANCH   8  17
ENDBRANCH   4   7
ENDBRANCH   2   3
ENDBRANCH   1   2
BRANCH   1  26
ATOM     26  C   UNL A   1      31.459  32.015  26.700  1.00  0.00     0.023 C 
BRANCH  26  27
ATOM     27  C   UNL A   1      32.629  32.718  27.382  1.00  0.00     0.116 C 
BRANCH  27  28
ATOM     28  N   UNL A   1      32.365  34.124  27.649  1.00  0.00    -0.352 N 
ATOM     29  C   UNL A   1      32.972  34.964  28.550  1.00  0.00     0.251 C 
ATOM     30  H   UNL A   1      31.650  34.530  27.107  1.00  0.00     0.163 HD
ATOM     31  O   UNL A   1      32.520  36.088  28.750  1.00  0.00    -0.269 OA
BRANCH  29  32
ATOM     32  C   UNL A   1      34.153  34.498  29.306  1.00  0.00     0.039 A 
ATOM     33  C   UNL A   1      33.964  33.918  30.563  1.00  0.00     0.014 A 
ATOM     34  C   UNL A   1      35.439  34.611  28.771  1.00  0.00     0.014 A 
ATOM     35  C   UNL A   1      35.055  33.386  31.251  1.00  0.00     0.010 A 
ATOM     36  C   UNL A   1      36.513  34.010  29.419  1.00  0.00     0.010 A 
ATOM     37  C   UNL A   1      36.332  33.388  30.665  1.00  0.00    -0.014 A 
BRANCH  37  38
ATOM     38  C   UNL A   1      37.486  32.732  31.331  1.00  0.00     0.031 A 
ATOM     39  C   UNL A   1      38.177  31.568  30.678  1.00  0.00     0.074 A 
ATOM     40  C   UNL A   1      37.861  33.136  32.561  1.00  0.00     0.049 A 
ATOM     41  N   UNL A   1      39.147  30.817  31.136  1.00  0.00    -0.248 NA
ATOM     42  C   UNL A   1      37.696  31.178  29.345  1.00  0.00     0.031 C 
ATOM     43  C   UNL A   1      37.236  34.217  33.322  1.00  0.00     0.029 A 
ATOM     44  N   UNL A   1      38.849  32.671  33.395  1.00  0.00    -0.354 N 
ATOM     45  C   UNL A   1      39.377  29.859  30.159  1.00  0.00     0.074 A 
ATOM     46  C   UNL A   1      38.413  30.090  29.106  1.00  0.00     0.031 C 
ATOM     47  C   UNL A   1      37.861  34.342  34.503  1.00  0.00     0.029 A 
ATOM     48  C   UNL A   1      38.901  33.323  34.602  1.00  0.00     0.049 A 
ATOM     49  H   UNL A   1      39.460  31.939  33.150  1.00  0.00     0.167 HD
ATOM     50  C   UNL A   1      40.322  28.888  30.134  1.00  0.00     0.037 A 
ATOM     51  C   UNL A   1      39.686  33.112  35.676  1.00  0.00     0.037 A 
ATOM     52  C   UNL A   1      41.292  28.676  31.176  1.00  0.00     0.049 A 
ATOM     53  C   UNL A   1      40.722  32.021  35.628  1.00  0.00     0.074 A 
ATOM     54  C   UNL A   1      42.340  27.773  31.207  1.00  0.00     0.029 A 
ATOM     55  N   UNL A   1      41.326  29.368  32.377  1.00  0.00    -0.354 N 
ATOM     56  N   UNL A   1      40.989  31.178  34.660  1.00  0.00    -0.248 NA
ATOM     57  C   UNL A   1      41.567  31.856  36.818  1.00  0.00     0.031 C 
ATOM     58  C   UNL A   1      42.967  27.873  32.453  1.00  0.00     0.029 A 
ATOM     59  C   UNL A   1      42.352  28.884  33.174  1.00  0.00     0.049 A 
ATOM     60  H   UNL A   1      40.712  30.096  32.628  1.00  0.00     0.167 HD
ATOM     61  C   UNL A   1      42.044  30.397  35.115  1.00  0.00     0.074 A 
ATOM     62  C   UNL A   1      42.381  30.882  36.437  1.00  0.00     0.031 C 
ATOM     63  C   UNL A   1      42.675  29.371  34.492  1.00  0.00     0.037 A 
BRANCH  50  64
ATOM     64  C   UNL A   1      40.344  27.970  28.944  1.00  0.00     0.064 A 
ATOM     65  C   UNL A   1      39.628  26.763  28.924  1.00  0.00     0.173 A 
ATOM     66  C   UNL A   1      41.070  28.318  27.794  1.00  0.00     0.173 A 
ATOM     67  F   UNL A   1      38.924  26.378  29.999  1.00  0.00    -0.203 F 
ATOM     68  C   UNL A   1      39.666  25.925  27.813  1.00  0.00     0.198 A 
ATOM     69  C   UNL A   1      41.077  27.493  26.672  1.00  0.00     0.198 A 
ATOM     70  F   UNL A   1      41.768  29.462  27.755  1.00  0.00    -0.203 F 
ATOM     71  F   UNL A   1      39.019  24.750  27.841  1.00  0.00    -0.200 F 
ATOM     72  C   UNL A   1      40.384  26.292  26.687  1.00  0.00     0.200 A 
ATOM     73  F   UNL A   1      41.759  27.858  25.578  1.00  0.00    -0.200 F 
ATOM     74  F   UNL A   1      40.414  25.486  25.616  1.00  0.00    -0.200 F 
ENDBRANCH  50  64
BRANCH  51  75
ATOM     75  C   UNL A   1      39.523  33.958  36.888  1.00  0.00     0.064 A 
ATOM     76  C   UNL A   1      40.141  35.212  36.984  1.00  0.00     0.173 A 
ATOM     77  C   UNL A   1      38.739  33.534  37.971  1.00  0.00     0.173 A 
ATOM     78  F   UNL A   1      40.917  35.655  35.984  1.00  0.00    -0.203 F 
ATOM     79  C   UNL A   1      39.998  36.001  38.125  1.00  0.00     0.198 A 
ATOM     80  C   UNL A   1      38.570  34.337  39.097  1.00  0.00     0.198 A 
ATOM     81  F   UNL A   1      38.120  32.345  37.928  1.00  0.00    -0.203 F 
ATOM     82  F   UNL A   1      40.636  37.176  38.209  1.00  0.00    -0.200 F 
ATOM     83  C   UNL A   1      39.206  35.566  39.176  1.00  0.00     0.200 A 
ATOM     84  F   UNL A   1      37.790  33.919  40.104  1.00  0.00    -0.200 F 
ATOM     85  F   UNL A   1      39.061  36.328  40.268  1.00  0.00    -0.200 F 
ENDBRANCH  51  75
BRANCH  63  86
ATOM     86  C   UNL A   1      43.810  28.712  35.223  1.00  0.00     0.064 A 
ATOM     87  C   UNL A   1      43.607  27.589  36.040  1.00  0.00     0.173 A 
ATOM     88  C   UNL A   1      45.123  29.182  35.069  1.00  0.00     0.173 A 
ATOM     89  F   UNL A   1      42.370  27.110  36.233  1.00  0.00    -0.203 F 
ATOM     90  C   UNL A   1      44.674  26.977  36.694  1.00  0.00     0.198 A 
ATOM     91  C   UNL A   1      46.191  28.547  35.696  1.00  0.00     0.198 A 
ATOM     92  F   UNL A   1      45.374  30.248  34.295  1.00  0.00    -0.203 F 
ATOM     93  F   UNL A   1      44.450  25.935  37.506  1.00  0.00    -0.200 F 
ATOM     94  C   UNL A   1      45.965  27.450  36.514  1.00  0.00     0.200 A 
ATOM     95  F   UNL A   1      47.440  28.995  35.508  1.00  0.00    -0.200 F 
ATOM     96  F   UNL A   1      46.992  26.852  37.134  1.00  0.00    -0.200 F 
ENDBRANCH  63  86
ENDBRANCH  37  38
ENDBRANCH  29  32
ENDBRANCH  27  28
ENDBRANCH  26  27
ENDBRANCH   1  26
TORSDOF 14
ENDMDL
MODEL 3
REMARK VINA RESULT:     -13.3      6.076     11.523
REMARK SMILES CC(C)c1noc(C[N@@H+]2[C@@H](C(=O)NCCCCNC(=O)c3ccc(-c4c5nc(c(-c6c(F)c(F)c(F)c(F)c6F)c6ccc([nH]6)c(-c6c(F)c(F)c(F)c(F)c6F)c6nc(c(-c7c(F)c(F)c(F)c(F)c7F)c7ccc4[nH]7)C=C6)C=C5)cc3)C[C@H]3CCCC[C@@H]32)n1
REMARK SMILES IDX 15 1 14 2 13 3 11 4 12 5 10 7 9 8 90 9 84 11 85 12 89 13
REMARK SMILES IDX 86 14 88 15 87 16 8 17 7 18 4 19 5 20 91 21 6 22 2 23 1 24
REMARK SMILES IDX 3 25 16 26 17 27 18 28 19 29 20 31 21 32 22 33 83 34 23 35
REMARK SMILES IDX 82 36 24 37 25 38 26 39 76 40 27 41 81 42 75 43 77 44 28 45
REMARK SMILES IDX 80 46 74 47 73 48 29 50 61 51 41 52 60 53 42 54 45 55 59 56
REMARK SMILES IDX 78 57 43 58 44 59 58 61 79 62 46 63 30 64 31 65 39 66 32 67
REMARK SMILES IDX 33 68 37 69 40 70 34 71 35 72 38 73 36 74 62 75 63 76 71 77
REMARK SMILES IDX 64 78 65 79 69 80 72 81 66 82 67 83 70 84 68 85 47 86 48 87
REMARK SMILES IDX 56 88 49 89 50 90 54 91 57 92 51 93 52 94 55 95 53 96
REMARK H PARENT 13 6 9 10 18 30 77 49 45 60
REMARK Flexibility Score: inf
ROOT
ATOM      1  C   UNL A   1      37.028  20.765  24.998  1.00  0.00     0.023 C 
ENDROOT
BRANCH   1   2
ATOM      2  C   UNL A   1      37.426  22.183  24.603  1.00  0.00     0.116 C 
BRANCH   2   3
ATOM      3  N   UNL A   1      36.588  22.691  23.532  1.00  0.00    -0.351 N 
ATOM      4  C   UNL A   1      35.289  23.129  23.595  1.00  0.00     0.278 C 
ATOM      5  O   UNL A   1      34.749  23.489  22.549  1.00  0.00    -0.268 OA
ATOM      6  H   UNL A   1      37.007  22.725  22.642  1.00  0.00     0.163 HD
BRANCH   4   7
ATOM      7  C   UNL A   1      34.627  23.192  24.987  1.00  0.00     0.275 C 
ATOM      8  N   UNL A   1      33.178  22.846  24.925  1.00  0.00    -0.314 N 
ATOM      9  C   UNL A   1      32.464  24.131  24.970  1.00  0.00     0.188 C 
ATOM     10  H   UNL A   1      32.917  22.369  24.062  1.00  0.00     0.349 HD
ATOM     11  C   UNL A   1      34.729  24.638  25.508  1.00  0.00     0.085 C 
ATOM     12  C   UNL A   1      33.309  24.990  25.903  1.00  0.00     0.054 C 
ATOM     13  C   UNL A   1      30.984  24.203  25.344  1.00  0.00     0.065 C 
ATOM     14  C   UNL A   1      32.906  26.451  25.811  1.00  0.00     0.010 C 
ATOM     15  C   UNL A   1      30.509  25.663  25.429  1.00  0.00     0.006 C 
ATOM     16  C   UNL A   1      31.441  26.574  26.238  1.00  0.00     0.001 C 
BRANCH   8  17
ATOM     17  C   UNL A   1      32.787  21.807  25.903  1.00  0.00     0.364 C 
BRANCH  17  18
ATOM     18  C   UNL A   1      32.966  20.379  25.491  1.00  0.00     0.281 A 
ATOM     19  C   UNL A   1      33.608  18.563  24.662  1.00  0.00     0.174 A 
ATOM     20  N   UNL A   1      32.271  18.457  24.639  1.00  0.00    -0.062 NA
ATOM     21  N   UNL A   1      34.074  19.718  25.239  1.00  0.00    -0.191 NA
ATOM     22  O   UNL A   1      31.841  19.662  25.199  1.00  0.00    -0.333 OA
BRANCH  19  23
ATOM     23  C   UNL A   1      34.547  17.546  24.091  1.00  0.00     0.055 C 
ATOM     24  C   UNL A   1      34.863  16.397  25.050  1.00  0.00     0.016 C 
ATOM     25  C   UNL A   1      34.008  16.961  22.779  1.00  0.00     0.016 C 
ENDBRANCH  19  23
ENDBRANCH  17  18
ENDBRANCH   8  17
ENDBRANCH   4   7
ENDBRANCH   2   3
ENDBRANCH   1   2
BRANCH   1  26
ATOM     26  C   UNL A   1      38.175  19.755  24.947  1.00  0.00     0.023 C 
BRANCH  26  27
ATOM     27  C   UNL A   1      39.402  20.133  25.771  1.00  0.00     0.116 C 
BRANCH  27  28
ATOM     28  N   UNL A   1      40.375  19.055  25.863  1.00  0.00    -0.352 N 
ATOM     29  C   UNL A   1      41.729  19.126  26.084  1.00  0.00     0.251 C 
ATOM     30  H   UNL A   1      40.012  18.147  25.751  1.00  0.00     0.163 HD
ATOM     31  O   UNL A   1      42.426  18.121  25.981  1.00  0.00    -0.269 OA
BRANCH  29  32
ATOM     32  C   UNL A   1      42.351  20.426  26.412  1.00  0.00     0.039 A 
ATOM     33  C   UNL A   1      42.897  21.192  25.379  1.00  0.00     0.014 A 
ATOM     34  C   UNL A   1      42.378  20.897  27.727  1.00  0.00     0.014 A 
ATOM     35  C   UNL A   1      43.403  22.463  25.654  1.00  0.00     0.010 A 
ATOM     36  C   UNL A   1      42.808  22.194  27.987  1.00  0.00     0.010 A 
ATOM     37  C   UNL A   1      43.323  22.993  26.953  1.00  0.00    -0.014 A 
BRANCH  37  38
ATOM     38  C   UNL A   1      43.756  24.382  27.246  1.00  0.00     0.031 A 
ATOM     39  C   UNL A   1      42.757  25.409  27.698  1.00  0.00     0.074 A 
ATOM     40  C   UNL A   1      45.038  24.738  27.030  1.00  0.00     0.049 A 
ATOM     41  N   UNL A   1      42.926  26.688  27.926  1.00  0.00    -0.248 NA
ATOM     42  C   UNL A   1      41.375  24.945  27.893  1.00  0.00     0.031 C 
ATOM     43  C   UNL A   1      46.091  23.848  26.541  1.00  0.00     0.029 A 
ATOM     44  N   UNL A   1      45.669  25.950  27.176  1.00  0.00    -0.354 N 
ATOM     45  C   UNL A   1      41.675  27.180  28.271  1.00  0.00     0.074 A 
ATOM     46  C   UNL A   1      40.746  26.076  28.172  1.00  0.00     0.031 C 
ATOM     47  C   UNL A   1      47.237  24.538  26.441  1.00  0.00     0.029 A 
ATOM     48  C   UNL A   1      46.993  25.927  26.816  1.00  0.00     0.049 A 
ATOM     49  H   UNL A   1      45.214  26.758  27.508  1.00  0.00     0.167 HD
ATOM     50  C   UNL A   1      41.338  28.435  28.654  1.00  0.00     0.037 A 
ATOM     51  C   UNL A   1      47.905  26.918  26.772  1.00  0.00     0.037 A 
ATOM     52  C   UNL A   1      42.272  29.524  28.770  1.00  0.00     0.049 A 
ATOM     53  C   UNL A   1      47.504  28.306  27.194  1.00  0.00     0.074 A 
ATOM     54  C   UNL A   1      42.044  30.810  29.228  1.00  0.00     0.029 A 
ATOM     55  N   UNL A   1      43.611  29.459  28.412  1.00  0.00    -0.354 N 
ATOM     56  N   UNL A   1      46.336  28.740  27.605  1.00  0.00    -0.248 NA
ATOM     57  C   UNL A   1      48.547  29.340  27.152  1.00  0.00     0.031 C 
ATOM     58  C   UNL A   1      43.227  31.541  29.086  1.00  0.00     0.029 A 
ATOM     59  C   UNL A   1      44.211  30.694  28.601  1.00  0.00     0.049 A 
ATOM     60  H   UNL A   1      44.067  28.655  28.073  1.00  0.00     0.167 HD
ATOM     61  C   UNL A   1      46.509  30.088  27.889  1.00  0.00     0.074 A 
ATOM     62  C   UNL A   1      47.899  30.395  27.623  1.00  0.00     0.031 C 
ATOM     63  C   UNL A   1      45.596  30.990  28.329  1.00  0.00     0.037 A 
BRANCH  50  64
ATOM     64  C   UNL A   1      39.892  28.701  28.967  1.00  0.00     0.064 A 
ATOM     65  C   UNL A   1      39.363  28.511  30.253  1.00  0.00     0.173 A 
ATOM     66  C   UNL A   1      39.029  29.184  27.971  1.00  0.00     0.173 A 
ATOM     67  F   UNL A   1      40.142  28.043  31.241  1.00  0.00    -0.203 F 
ATOM     68  C   UNL A   1      38.020  28.759  30.521  1.00  0.00     0.198 A 
ATOM     69  C   UNL A   1      37.694  29.464  28.252  1.00  0.00     0.198 A 
ATOM     70  F   UNL A   1      39.481  29.391  26.725  1.00  0.00    -0.203 F 
ATOM     71  F   UNL A   1      37.527  28.514  31.743  1.00  0.00    -0.200 F 
ATOM     72  C   UNL A   1      37.188  29.241  29.523  1.00  0.00     0.200 A 
ATOM     73  F   UNL A   1      36.896  29.947  27.289  1.00  0.00    -0.200 F 
ATOM     74  F   UNL A   1      35.897  29.486  29.785  1.00  0.00    -0.200 F 
ENDBRANCH  50  64
BRANCH  51  75
ATOM     75  C   UNL A   1      49.290  26.629  26.314  1.00  0.00     0.064 A 
ATOM     76  C   UNL A   1      50.254  26.124  27.197  1.00  0.00     0.173 A 
ATOM     77  C   UNL A   1      49.674  26.843  24.982  1.00  0.00     0.173 A 
ATOM     78  F   UNL A   1      49.941  25.921  28.485  1.00  0.00    -0.203 F 
ATOM     79  C   UNL A   1      51.555  25.863  26.770  1.00  0.00     0.198 A 
ATOM     80  C   UNL A   1      50.966  26.552  24.549  1.00  0.00     0.198 A 
ATOM     81  F   UNL A   1      48.788  27.319  24.094  1.00  0.00    -0.203 F 
ATOM     82  F   UNL A   1      52.470  25.424  27.646  1.00  0.00    -0.200 F 
ATOM     83  C   UNL A   1      51.908  26.070  25.445  1.00  0.00     0.200 A 
ATOM     84  F   UNL A   1      51.297  26.737  23.264  1.00  0.00    -0.200 F 
ATOM     85  F   UNL A   1      53.156  25.811  25.034  1.00  0.00    -0.200 F 
ENDBRANCH  51  75
BRANCH  63  86
ATOM     86  C   UNL A   1      46.073  32.394  28.571  1.00  0.00     0.064 A 
ATOM     87  C   UNL A   1      46.016  33.375  27.570  1.00  0.00     0.173 A 
ATOM     88  C   UNL A   1      46.551  32.773  29.835  1.00  0.00     0.173 A 
ATOM     89  F   UNL A   1      45.583  33.061  26.341  1.00  0.00    -0.203 F 
ATOM     90  C   UNL A   1      46.443  34.677  27.819  1.00  0.00     0.198 A 
ATOM     91  C   UNL A   1      46.944  34.084  30.090  1.00  0.00     0.198 A 
ATOM     92  F   UNL A   1      46.621  31.876  30.830  1.00  0.00    -0.203 F 
ATOM     93  F   UNL A   1      46.424  35.586  26.834  1.00  0.00    -0.200 F 
ATOM     94  C   UNL A   1      46.897  35.033  29.080  1.00  0.00     0.200 A 
ATOM     95  F   UNL A   1      47.367  34.429  31.314  1.00  0.00    -0.200 F 
ATOM     96  F   UNL A   1      47.296  36.289  29.321  1.00  0.00    -0.200 F 
ENDBRANCH  63  86
ENDBRANCH  37  38
ENDBRANCH  29  32
ENDBRANCH  27  28
ENDBRANCH  26  27
ENDBRANCH   1  26
TORSDOF 14
ENDMDL
