MODEL 1
REMARK VINA RESULT:     -12.7      0.000      0.000
REMARK SMILES CCOc1ccccc1NC(=O)[C@H]1[C@@H]2C=C[C@@H]([C@@H]3C[C@H]23)[C@@H]1C(=O)NCCCCNC(=O)c1ccc(-c2c3nc(c(-c4c(F)c(F)c(F)c(F)c4F)c4ccc([nH]4)c(-c4c(F)c(F)c(F)c(F)c4F)c4nc(c(-c5c(F)c(F)c(F)c(F)c5F)c5ccc2[nH]5)C=C4)C=C3)cc1
REMARK SMILES IDX 25 1 24 2 22 3 23 4 21 6 13 7 14 8 15 9 20 10 17 11 16 12
REMARK SMILES IDX 18 13 19 14 11 15 10 16 12 18 9 19 4 20 5 21 6 22 8 23 7 24
REMARK SMILES IDX 3 25 2 26 1 27 26 28 27 29 28 30 29 31 30 32 31 34 32 35
REMARK SMILES IDX 33 36 94 37 34 38 93 39 35 40 36 41 37 42 87 43 38 44 92 45
REMARK SMILES IDX 86 46 88 47 39 48 91 49 85 50 84 51 40 53 72 54 52 55 71 56
REMARK SMILES IDX 53 57 56 58 70 59 89 60 54 61 55 62 69 64 90 65 57 66 41 67
REMARK SMILES IDX 42 68 50 69 43 70 44 71 48 72 51 73 45 74 46 75 49 76 47 77
REMARK SMILES IDX 73 78 74 79 82 80 75 81 76 82 80 83 83 84 77 85 78 86 81 87
REMARK SMILES IDX 79 88 58 89 59 90 67 91 60 92 61 93 65 94 68 95 62 96 63 97
REMARK SMILES IDX 66 98 64 99
REMARK H PARENT 24 5 10 17 29 33 88 52 56 63
REMARK Flexibility Score: inf
ROOT
ATOM      1  C   UNL A   1      35.434  20.562  25.007  1.00  0.00     0.116 C 
ENDROOT
BRANCH   1   2
ATOM      2  N   UNL A   1      35.021  21.170  26.261  1.00  0.00    -0.356 N 
ATOM      3  C   UNL A   1      34.174  22.202  26.544  1.00  0.00     0.224 C 
ATOM      4  O   UNL A   1      33.878  22.338  27.733  1.00  0.00    -0.275 OA
ATOM      5  H   UNL A   1      35.428  20.760  27.057  1.00  0.00     0.163 HD
BRANCH   3   6
ATOM      6  C   UNL A   1      33.515  23.027  25.420  1.00  0.00     0.098 C 
ATOM      7  C   UNL A   1      33.114  24.444  25.789  1.00  0.00     0.099 C 
ATOM      8  C   UNL A   1      31.541  24.594  25.827  1.00  0.00     0.028 C 
ATOM      9  C   UNL A   1      31.020  23.393  26.636  1.00  0.00    -0.026 C 
ATOM     10  C   UNL A   1      30.866  24.394  24.469  1.00  0.00     0.001 C 
ATOM     11  C   UNL A   1      32.246  22.337  24.836  1.00  0.00     0.028 C 
ATOM     12  C   UNL A   1      31.315  22.209  26.058  1.00  0.00    -0.026 C 
ATOM     13  C   UNL A   1      31.437  23.153  23.777  1.00  0.00     0.001 C 
ATOM     14  C   UNL A   1      31.488  24.553  23.144  1.00  0.00     0.009 C 
BRANCH   7  15
ATOM     15  C   UNL A   1      33.888  25.502  24.995  1.00  0.00     0.229 C 
ATOM     16  N   UNL A   1      33.884  26.863  25.090  1.00  0.00    -0.323 N 
ATOM     17  H   UNL A   1      34.445  27.219  24.363  1.00  0.00     0.170 HD
ATOM     18  O   UNL A   1      34.680  25.067  24.137  1.00  0.00    -0.274 OA
BRANCH  16  19
ATOM     19  C   UNL A   1      33.378  27.975  25.839  1.00  0.00     0.083 A 
ATOM     20  C   UNL A   1      32.199  28.535  25.299  1.00  0.00     0.142 A 
ATOM     21  C   UNL A   1      31.705  29.785  25.693  1.00  0.00     0.048 A 
ATOM     22  C   UNL A   1      32.332  30.480  26.718  1.00  0.00     0.004 A 
ATOM     23  C   UNL A   1      33.904  28.649  26.942  1.00  0.00     0.030 A 
ATOM     24  C   UNL A   1      33.404  29.892  27.367  1.00  0.00     0.002 A 
BRANCH  20  25
ATOM     25  O   UNL A   1      31.580  27.904  24.244  1.00  0.00    -0.492 OA
BRANCH  25  26
ATOM     26  C   UNL A   1      30.475  28.684  23.757  1.00  0.00     0.226 C 
ATOM     27  C   UNL A   1      29.442  27.740  23.162  1.00  0.00     0.049 C 
ENDBRANCH  25  26
ENDBRANCH  20  25
ENDBRANCH  16  19
ENDBRANCH   7  15
ENDBRANCH   3   6
ENDBRANCH   1   2
BRANCH   1  28
ATOM     28  C   UNL A   1      36.886  20.890  24.658  1.00  0.00     0.023 C 
BRANCH  28  29
ATOM     29  C   UNL A   1      37.890  19.772  24.964  1.00  0.00     0.023 C 
BRANCH  29  30
ATOM     30  C   UNL A   1      39.097  20.185  25.803  1.00  0.00     0.116 C 
BRANCH  30  31
ATOM     31  N   UNL A   1      40.122  19.155  25.865  1.00  0.00    -0.352 N 
ATOM     32  C   UNL A   1      41.475  19.280  26.064  1.00  0.00     0.251 C 
ATOM     33  H   UNL A   1      39.798  18.233  25.746  1.00  0.00     0.163 HD
ATOM     34  O   UNL A   1      42.205  18.295  25.937  1.00  0.00    -0.269 OA
BRANCH  32  35
ATOM     35  C   UNL A   1      42.075  20.591  26.400  1.00  0.00     0.039 A 
ATOM     36  C   UNL A   1      42.429  21.455  25.360  1.00  0.00     0.014 A 
ATOM     37  C   UNL A   1      42.300  20.970  27.726  1.00  0.00     0.014 A 
ATOM     38  C   UNL A   1      42.947  22.721  25.650  1.00  0.00     0.010 A 
ATOM     39  C   UNL A   1      42.740  22.260  28.015  1.00  0.00     0.010 A 
ATOM     40  C   UNL A   1      43.071  23.150  26.981  1.00  0.00    -0.014 A 
BRANCH  40  41
ATOM     41  C   UNL A   1      43.533  24.527  27.304  1.00  0.00     0.031 A 
ATOM     42  C   UNL A   1      42.558  25.572  27.770  1.00  0.00     0.074 A 
ATOM     43  C   UNL A   1      44.823  24.861  27.108  1.00  0.00     0.049 A 
ATOM     44  N   UNL A   1      42.763  26.836  28.047  1.00  0.00    -0.248 NA
ATOM     45  C   UNL A   1      41.158  25.147  27.915  1.00  0.00     0.031 C 
ATOM     46  C   UNL A   1      45.858  23.960  26.600  1.00  0.00     0.029 A 
ATOM     47  N   UNL A   1      45.480  26.052  27.295  1.00  0.00    -0.354 N 
ATOM     48  C   UNL A   1      41.520  27.359  28.379  1.00  0.00     0.074 A 
ATOM     49  C   UNL A   1      40.558  26.290  28.213  1.00  0.00     0.031 C 
ATOM     50  C   UNL A   1      47.022  24.625  26.529  1.00  0.00     0.029 A 
ATOM     51  C   UNL A   1      46.808  26.007  26.947  1.00  0.00     0.049 A 
ATOM     52  H   UNL A   1      45.042  26.860  27.647  1.00  0.00     0.167 HD
ATOM     53  C   UNL A   1      41.211  28.609  28.802  1.00  0.00     0.037 A 
ATOM     54  C   UNL A   1      47.747  26.973  26.949  1.00  0.00     0.037 A 
ATOM     55  C   UNL A   1      42.175  29.666  28.978  1.00  0.00     0.049 A 
ATOM     56  C   UNL A   1      47.388  28.352  27.427  1.00  0.00     0.074 A 
ATOM     57  C   UNL A   1      41.976  30.940  29.479  1.00  0.00     0.029 A 
ATOM     58  N   UNL A   1      43.518  29.577  28.639  1.00  0.00    -0.354 N 
ATOM     59  N   UNL A   1      46.228  28.811  27.829  1.00  0.00    -0.248 NA
ATOM     60  C   UNL A   1      48.471  29.344  27.465  1.00  0.00     0.031 C 
ATOM     61  C   UNL A   1      43.183  31.643  29.379  1.00  0.00     0.029 A 
ATOM     62  C   UNL A   1      44.152  30.785  28.884  1.00  0.00     0.049 A 
ATOM     63  H   UNL A   1      43.956  28.772  28.278  1.00  0.00     0.167 HD
ATOM     64  C   UNL A   1      46.442  30.136  28.186  1.00  0.00     0.074 A 
ATOM     65  C   UNL A   1      47.850  30.402  27.969  1.00  0.00     0.031 C 
ATOM     66  C   UNL A   1      45.552  31.047  28.654  1.00  0.00     0.037 A 
BRANCH  53  67
ATOM     67  C   UNL A   1      39.763  28.905  29.082  1.00  0.00     0.064 A 
ATOM     68  C   UNL A   1      39.198  28.721  30.355  1.00  0.00     0.173 A 
ATOM     69  C   UNL A   1      38.926  29.382  28.061  1.00  0.00     0.173 A 
ATOM     70  F   UNL A   1      39.949  28.260  31.367  1.00  0.00    -0.203 F 
ATOM     71  C   UNL A   1      37.843  28.950  30.580  1.00  0.00     0.198 A 
ATOM     72  C   UNL A   1      37.580  29.650  28.301  1.00  0.00     0.198 A 
ATOM     73  F   UNL A   1      39.412  29.589  26.828  1.00  0.00    -0.203 F 
ATOM     74  F   UNL A   1      37.314  28.694  31.785  1.00  0.00    -0.200 F 
ATOM     75  C   UNL A   1      37.036  29.419  29.555  1.00  0.00     0.200 A 
ATOM     76  F   UNL A   1      36.806  30.119  27.313  1.00  0.00    -0.200 F 
ATOM     77  F   UNL A   1      35.732  29.636  29.772  1.00  0.00    -0.200 F 
ENDBRANCH  53  67
BRANCH  54  78
ATOM     78  C   UNL A   1      49.123  26.649  26.491  1.00  0.00     0.064 A 
ATOM     79  C   UNL A   1      49.515  26.861  25.162  1.00  0.00     0.173 A 
ATOM     80  C   UNL A   1      50.087  26.157  27.385  1.00  0.00     0.173 A 
ATOM     81  F   UNL A   1      48.624  27.311  24.265  1.00  0.00    -0.203 F 
ATOM     82  C   UNL A   1      50.816  26.589  24.743  1.00  0.00     0.198 A 
ATOM     83  C   UNL A   1      51.395  25.913  26.971  1.00  0.00     0.198 A 
ATOM     84  F   UNL A   1      49.764  25.942  28.668  1.00  0.00    -0.203 F 
ATOM     85  F   UNL A   1      51.155  26.771  23.460  1.00  0.00    -0.200 F 
ATOM     86  C   UNL A   1      51.757  26.125  25.650  1.00  0.00     0.200 A 
ATOM     87  F   UNL A   1      52.305  25.483  27.855  1.00  0.00    -0.200 F 
ATOM     88  F   UNL A   1      53.013  25.880  25.250  1.00  0.00    -0.200 F 
ENDBRANCH  54  78
BRANCH  66  89
ATOM     89  C   UNL A   1      46.076  32.416  28.987  1.00  0.00     0.064 A 
ATOM     90  C   UNL A   1      46.069  33.460  28.050  1.00  0.00     0.173 A 
ATOM     91  C   UNL A   1      46.556  32.697  30.276  1.00  0.00     0.173 A 
ATOM     92  F   UNL A   1      45.635  33.243  26.800  1.00  0.00    -0.203 F 
ATOM     93  C   UNL A   1      46.550  34.725  28.383  1.00  0.00     0.198 A 
ATOM     94  C   UNL A   1      47.003  33.971  30.615  1.00  0.00     0.198 A 
ATOM     95  F   UNL A   1      46.579  31.738  31.214  1.00  0.00    -0.203 F 
ATOM     96  F   UNL A   1      46.584  35.692  27.454  1.00  0.00    -0.200 F 
ATOM     97  C   UNL A   1      47.009  34.982  29.666  1.00  0.00     0.200 A 
ATOM     98  F   UNL A   1      47.430  34.221  31.861  1.00  0.00    -0.200 F 
ATOM     99  F   UNL A   1      47.462  36.201  29.986  1.00  0.00    -0.200 F 
ENDBRANCH  66  89
ENDBRANCH  40  41
ENDBRANCH  32  35
ENDBRANCH  30  31
ENDBRANCH  29  30
ENDBRANCH  28  29
ENDBRANCH   1  28
TORSDOF 15
ENDMDL
MODEL 2
REMARK VINA RESULT:     -12.6      5.238     10.830
REMARK SMILES CCOc1ccccc1NC(=O)[C@H]1[C@@H]2C=C[C@@H]([C@@H]3C[C@H]23)[C@@H]1C(=O)NCCCCNC(=O)c1ccc(-c2c3nc(c(-c4c(F)c(F)c(F)c(F)c4F)c4ccc([nH]4)c(-c4c(F)c(F)c(F)c(F)c4F)c4nc(c(-c5c(F)c(F)c(F)c(F)c5F)c5ccc2[nH]5)C=C4)C=C3)cc1
REMARK SMILES IDX 25 1 24 2 22 3 23 4 21 6 13 7 14 8 15 9 20 10 17 11 16 12
REMARK SMILES IDX 18 13 19 14 11 15 10 16 12 18 9 19 4 20 5 21 6 22 8 23 7 24
REMARK SMILES IDX 3 25 2 26 1 27 26 28 27 29 28 30 29 31 30 32 31 34 32 35
REMARK SMILES IDX 33 36 94 37 34 38 93 39 35 40 36 41 37 42 87 43 38 44 92 45
REMARK SMILES IDX 86 46 88 47 39 48 91 49 85 50 84 51 40 53 72 54 52 55 71 56
REMARK SMILES IDX 53 57 56 58 70 59 89 60 54 61 55 62 69 64 90 65 57 66 41 67
REMARK SMILES IDX 42 68 50 69 43 70 44 71 48 72 51 73 45 74 46 75 49 76 47 77
REMARK SMILES IDX 73 78 74 79 82 80 75 81 76 82 80 83 83 84 77 85 78 86 81 87
REMARK SMILES IDX 79 88 58 89 59 90 67 91 60 92 61 93 65 94 68 95 62 96 63 97
REMARK SMILES IDX 66 98 64 99
REMARK H PARENT 24 5 10 17 29 33 88 52 56 63
REMARK Flexibility Score: inf
ROOT
ATOM      1  C   UNL A   1      31.429  29.999  25.179  1.00  0.00     0.116 C 
ENDROOT
BRANCH   1   2
ATOM      2  N   UNL A   1      32.725  29.667  24.615  1.00  0.00    -0.356 N 
ATOM      3  C   UNL A   1      33.278  28.483  24.221  1.00  0.00     0.224 C 
ATOM      4  O   UNL A   1      34.332  28.571  23.587  1.00  0.00    -0.275 OA
ATOM      5  H   UNL A   1      33.318  30.443  24.492  1.00  0.00     0.163 HD
BRANCH   3   6
ATOM      6  C   UNL A   1      32.535  27.147  24.424  1.00  0.00     0.098 C 
ATOM      7  C   UNL A   1      33.384  25.894  24.308  1.00  0.00     0.099 C 
ATOM      8  C   UNL A   1      33.004  25.072  23.012  1.00  0.00     0.028 C 
ATOM      9  C   UNL A   1      32.947  26.095  21.863  1.00  0.00    -0.026 C 
ATOM     10  C   UNL A   1      31.579  24.515  23.027  1.00  0.00     0.001 C 
ATOM     11  C   UNL A   1      31.337  26.973  23.442  1.00  0.00     0.028 C 
ATOM     12  C   UNL A   1      32.003  27.040  22.053  1.00  0.00    -0.026 C 
ATOM     13  C   UNL A   1      30.597  25.598  23.487  1.00  0.00     0.001 C 
ATOM     14  C   UNL A   1      30.749  24.252  24.214  1.00  0.00     0.009 C 
BRANCH   7  15
ATOM     15  C   UNL A   1      33.463  25.111  25.622  1.00  0.00     0.229 C 
ATOM     16  N   UNL A   1      34.305  24.110  26.011  1.00  0.00    -0.323 N 
ATOM     17  H   UNL A   1      34.009  23.791  26.894  1.00  0.00     0.170 HD
ATOM     18  O   UNL A   1      32.653  25.449  26.507  1.00  0.00    -0.274 OA
BRANCH  16  19
ATOM     19  C   UNL A   1      35.455  23.344  25.630  1.00  0.00     0.083 A 
ATOM     20  C   UNL A   1      35.198  21.962  25.494  1.00  0.00     0.142 A 
ATOM     21  C   UNL A   1      36.218  21.006  25.417  1.00  0.00     0.048 A 
ATOM     22  C   UNL A   1      37.544  21.416  25.380  1.00  0.00     0.004 A 
ATOM     23  C   UNL A   1      36.790  23.718  25.470  1.00  0.00     0.030 A 
ATOM     24  C   UNL A   1      37.824  22.772  25.365  1.00  0.00     0.002 A 
BRANCH  20  25
ATOM     25  O   UNL A   1      33.901  21.510  25.580  1.00  0.00    -0.492 OA
BRANCH  25  26
ATOM     26  C   UNL A   1      33.641  20.502  24.590  1.00  0.00     0.226 C 
ATOM     27  C   UNL A   1      32.514  20.984  23.691  1.00  0.00     0.049 C 
ENDBRANCH  25  26
ENDBRANCH  20  25
ENDBRANCH  16  19
ENDBRANCH   7  15
ENDBRANCH   3   6
ENDBRANCH   1   2
BRANCH   1  28
ATOM     28  C   UNL A   1      31.546  30.591  26.585  1.00  0.00     0.023 C 
BRANCH  28  29
ATOM     29  C   UNL A   1      31.443  32.119  26.651  1.00  0.00     0.023 C 
BRANCH  29  30
ATOM     30  C   UNL A   1      32.682  32.838  27.178  1.00  0.00     0.116 C 
BRANCH  30  31
ATOM     31  N   UNL A   1      32.404  34.197  27.617  1.00  0.00    -0.352 N 
ATOM     32  C   UNL A   1      32.993  34.930  28.618  1.00  0.00     0.251 C 
ATOM     33  H   UNL A   1      31.687  34.658  27.125  1.00  0.00     0.163 HD
ATOM     34  O   UNL A   1      32.517  36.020  28.938  1.00  0.00    -0.269 OA
BRANCH  32  35
ATOM     35  C   UNL A   1      34.178  34.413  29.340  1.00  0.00     0.039 A 
ATOM     36  C   UNL A   1      33.989  33.758  30.560  1.00  0.00     0.014 A 
ATOM     37  C   UNL A   1      35.469  34.576  28.832  1.00  0.00     0.014 A 
ATOM     38  C   UNL A   1      35.085  33.212  31.237  1.00  0.00     0.010 A 
ATOM     39  C   UNL A   1      36.549  33.963  29.465  1.00  0.00     0.010 A 
ATOM     40  C   UNL A   1      36.370  33.276  30.676  1.00  0.00    -0.014 A 
BRANCH  40  41
ATOM     41  C   UNL A   1      37.530  32.621  31.337  1.00  0.00     0.031 A 
ATOM     42  C   UNL A   1      38.217  31.449  30.692  1.00  0.00     0.074 A 
ATOM     43  C   UNL A   1      37.923  33.033  32.558  1.00  0.00     0.049 A 
ATOM     44  N   UNL A   1      39.206  30.717  31.141  1.00  0.00    -0.248 NA
ATOM     45  C   UNL A   1      37.703  31.024  29.382  1.00  0.00     0.031 C 
ATOM     46  C   UNL A   1      37.301  34.116  33.321  1.00  0.00     0.029 A 
ATOM     47  N   UNL A   1      38.925  32.580  33.379  1.00  0.00    -0.354 N 
ATOM     48  C   UNL A   1      39.419  29.737  30.179  1.00  0.00     0.074 A 
ATOM     49  C   UNL A   1      38.418  29.934  29.152  1.00  0.00     0.031 C 
ATOM     50  C   UNL A   1      37.944  34.253  34.491  1.00  0.00     0.029 A 
ATOM     51  C   UNL A   1      38.995  33.244  34.579  1.00  0.00     0.049 A 
ATOM     52  H   UNL A   1      39.537  31.850  33.131  1.00  0.00     0.167 HD
ATOM     53  C   UNL A   1      40.373  28.774  30.145  1.00  0.00     0.037 A 
ATOM     54  C   UNL A   1      39.803  33.054  35.640  1.00  0.00     0.037 A 
ATOM     55  C   UNL A   1      41.375  28.591  31.164  1.00  0.00     0.049 A 
ATOM     56  C   UNL A   1      40.860  31.986  35.582  1.00  0.00     0.074 A 
ATOM     57  C   UNL A   1      42.434  27.701  31.183  1.00  0.00     0.029 A 
ATOM     58  N   UNL A   1      41.431  29.301  32.356  1.00  0.00    -0.354 N 
ATOM     59  N   UNL A   1      41.113  31.126  34.626  1.00  0.00    -0.248 NA
ATOM     60  C   UNL A   1      41.750  31.870  36.744  1.00  0.00     0.031 C 
ATOM     61  C   UNL A   1      43.088  27.823  32.415  1.00  0.00     0.029 A 
ATOM     62  C   UNL A   1      42.482  28.841  33.135  1.00  0.00     0.049 A 
ATOM     63  H   UNL A   1      40.814  30.025  32.611  1.00  0.00     0.167 HD
ATOM     64  C   UNL A   1      42.202  30.380  35.060  1.00  0.00     0.074 A 
ATOM     65  C   UNL A   1      42.572  30.903  36.359  1.00  0.00     0.031 C 
ATOM     66  C   UNL A   1      42.838  29.358  34.434  1.00  0.00     0.037 A 
BRANCH  53  67
ATOM     67  C   UNL A   1      40.360  27.831  28.974  1.00  0.00     0.064 A 
ATOM     68  C   UNL A   1      41.092  28.088  27.803  1.00  0.00     0.173 A 
ATOM     69  C   UNL A   1      39.605  26.648  29.023  1.00  0.00     0.173 A 
ATOM     70  F   UNL A   1      41.827  29.206  27.697  1.00  0.00    -0.203 F 
ATOM     71  C   UNL A   1      41.025  27.227  26.709  1.00  0.00     0.198 A 
ATOM     72  C   UNL A   1      39.572  25.770  27.943  1.00  0.00     0.198 A 
ATOM     73  F   UNL A   1      38.895  26.344  30.119  1.00  0.00    -0.203 F 
ATOM     74  F   UNL A   1      41.673  27.535  25.577  1.00  0.00    -0.200 F 
ATOM     75  C   UNL A   1      40.270  26.067  26.782  1.00  0.00     0.200 A 
ATOM     76  F   UNL A   1      38.855  24.641  28.020  1.00  0.00    -0.200 F 
ATOM     77  F   UNL A   1      40.203  25.242  25.728  1.00  0.00    -0.200 F 
ENDBRANCH  53  67
BRANCH  54  78
ATOM     78  C   UNL A   1      39.642  33.916  36.839  1.00  0.00     0.064 A 
ATOM     79  C   UNL A   1      40.235  35.184  36.906  1.00  0.00     0.173 A 
ATOM     80  C   UNL A   1      38.858  33.504  37.928  1.00  0.00     0.173 A 
ATOM     81  F   UNL A   1      41.011  35.615  35.900  1.00  0.00    -0.203 F 
ATOM     82  C   UNL A   1      40.054  36.005  38.018  1.00  0.00     0.198 A 
ATOM     83  C   UNL A   1      38.654  34.338  39.025  1.00  0.00     0.198 A 
ATOM     84  F   UNL A   1      38.263  32.302  37.909  1.00  0.00    -0.203 F 
ATOM     85  F   UNL A   1      40.658  37.200  38.070  1.00  0.00    -0.200 F 
ATOM     86  C   UNL A   1      39.256  35.586  39.072  1.00  0.00     0.200 A 
ATOM     87  F   UNL A   1      37.867  33.935  40.031  1.00  0.00    -0.200 F 
ATOM     88  F   UNL A   1      39.068  36.383  40.132  1.00  0.00    -0.200 F 
ENDBRANCH  54  78
BRANCH  66  89
ATOM     89  C   UNL A   1      44.018  28.747  35.135  1.00  0.00     0.064 A 
ATOM     90  C   UNL A   1      45.323  29.229  34.950  1.00  0.00     0.173 A 
ATOM     91  C   UNL A   1      43.836  27.685  36.036  1.00  0.00     0.173 A 
ATOM     92  F   UNL A   1      45.556  30.232  34.090  1.00  0.00    -0.203 F 
ATOM     93  C   UNL A   1      46.402  28.654  35.617  1.00  0.00     0.198 A 
ATOM     94  C   UNL A   1      44.913  27.136  36.728  1.00  0.00     0.198 A 
ATOM     95  F   UNL A   1      42.609  27.188  36.257  1.00  0.00    -0.203 F 
ATOM     96  F   UNL A   1      47.646  29.097  35.382  1.00  0.00    -0.200 F 
ATOM     97  C   UNL A   1      46.195  27.614  36.511  1.00  0.00     0.200 A 
ATOM     98  F   UNL A   1      44.707  26.142  37.604  1.00  0.00    -0.200 F 
ATOM     99  F   UNL A   1      47.234  27.069  37.158  1.00  0.00    -0.200 F 
ENDBRANCH  66  89
ENDBRANCH  40  41
ENDBRANCH  32  35
ENDBRANCH  30  31
ENDBRANCH  29  30
ENDBRANCH  28  29
ENDBRANCH   1  28
TORSDOF 15
ENDMDL
MODEL 3
REMARK VINA RESULT:     -12.4      1.109      1.931
REMARK SMILES CCOc1ccccc1NC(=O)[C@H]1[C@@H]2C=C[C@@H]([C@@H]3C[C@H]23)[C@@H]1C(=O)NCCCCNC(=O)c1ccc(-c2c3nc(c(-c4c(F)c(F)c(F)c(F)c4F)c4ccc([nH]4)c(-c4c(F)c(F)c(F)c(F)c4F)c4nc(c(-c5c(F)c(F)c(F)c(F)c5F)c5ccc2[nH]5)C=C4)C=C3)cc1
REMARK SMILES IDX 25 1 24 2 22 3 23 4 21 6 13 7 14 8 15 9 20 10 17 11 16 12
REMARK SMILES IDX 18 13 19 14 11 15 10 16 12 18 9 19 4 20 5 21 6 22 8 23 7 24
REMARK SMILES IDX 3 25 2 26 1 27 26 28 27 29 28 30 29 31 30 32 31 34 32 35
REMARK SMILES IDX 33 36 94 37 34 38 93 39 35 40 36 41 37 42 87 43 38 44 92 45
REMARK SMILES IDX 86 46 88 47 39 48 91 49 85 50 84 51 40 53 72 54 52 55 71 56
REMARK SMILES IDX 53 57 56 58 70 59 89 60 54 61 55 62 69 64 90 65 57 66 41 67
REMARK SMILES IDX 42 68 50 69 43 70 44 71 48 72 51 73 45 74 46 75 49 76 47 77
REMARK SMILES IDX 73 78 74 79 82 80 75 81 76 82 80 83 83 84 77 85 78 86 81 87
REMARK SMILES IDX 79 88 58 89 59 90 67 91 60 92 61 93 65 94 68 95 62 96 63 97
REMARK SMILES IDX 66 98 64 99
REMARK H PARENT 24 5 10 17 29 33 88 52 56 63
REMARK Flexibility Score: inf
ROOT
ATOM      1  C   UNL A   1      37.170  22.047  25.723  1.00  0.00     0.116 C 
ENDROOT
BRANCH   1   2
ATOM      2  N   UNL A   1      35.956  21.836  26.494  1.00  0.00    -0.356 N 
ATOM      3  C   UNL A   1      34.675  22.275  26.324  1.00  0.00     0.224 C 
ATOM      4  O   UNL A   1      33.830  21.744  27.047  1.00  0.00    -0.275 OA
ATOM      5  H   UNL A   1      36.081  21.269  27.288  1.00  0.00     0.163 HD
BRANCH   3   6
ATOM      6  C   UNL A   1      34.308  23.250  25.188  1.00  0.00     0.098 C 
ATOM      7  C   UNL A   1      32.951  23.921  25.305  1.00  0.00     0.099 C 
ATOM      8  C   UNL A   1      31.962  23.395  24.190  1.00  0.00     0.028 C 
ATOM      9  C   UNL A   1      32.085  21.861  24.204  1.00  0.00    -0.026 C 
ATOM     10  C   UNL A   1      32.391  23.747  22.764  1.00  0.00     0.001 C 
ATOM     11  C   UNL A   1      34.358  22.579  23.782  1.00  0.00     0.028 C 
ATOM     12  C   UNL A   1      33.329  21.437  23.896  1.00  0.00    -0.026 C 
ATOM     13  C   UNL A   1      33.882  23.453  22.578  1.00  0.00     0.001 C 
ATOM     14  C   UNL A   1      33.278  24.849  22.359  1.00  0.00     0.009 C 
BRANCH   7  15
ATOM     15  C   UNL A   1      33.057  25.441  25.471  1.00  0.00     0.229 C 
ATOM     16  N   UNL A   1      32.231  26.441  25.045  1.00  0.00    -0.323 N 
ATOM     17  H   UNL A   1      32.659  27.300  25.262  1.00  0.00     0.170 HD
ATOM     18  O   UNL A   1      34.035  25.851  26.126  1.00  0.00    -0.274 OA
BRANCH  16  19
ATOM     19  C   UNL A   1      30.982  26.723  24.403  1.00  0.00     0.083 A 
ATOM     20  C   UNL A   1      30.899  28.027  23.867  1.00  0.00     0.142 A 
ATOM     21  C   UNL A   1      29.689  28.604  23.463  1.00  0.00     0.048 A 
ATOM     22  C   UNL A   1      28.523  27.852  23.496  1.00  0.00     0.004 A 
ATOM     23  C   UNL A   1      29.812  25.967  24.306  1.00  0.00     0.030 A 
ATOM     24  C   UNL A   1      28.596  26.523  23.878  1.00  0.00     0.002 A 
BRANCH  20  25
ATOM     25  O   UNL A   1      32.021  28.824  23.868  1.00  0.00    -0.492 OA
BRANCH  25  26
ATOM     26  C   UNL A   1      32.560  28.953  22.542  1.00  0.00     0.226 C 
ATOM     27  C   UNL A   1      33.988  28.432  22.546  1.00  0.00     0.049 C 
ENDBRANCH  25  26
ENDBRANCH  20  25
ENDBRANCH  16  19
ENDBRANCH   7  15
ENDBRANCH   3   6
ENDBRANCH   1   2
BRANCH   1  28
ATOM     28  C   UNL A   1      37.339  21.006  24.616  1.00  0.00     0.023 C 
BRANCH  28  29
ATOM     29  C   UNL A   1      38.172  19.780  25.007  1.00  0.00     0.023 C 
BRANCH  29  30
ATOM     30  C   UNL A   1      39.279  20.037  26.027  1.00  0.00     0.116 C 
BRANCH  30  31
ATOM     31  N   UNL A   1      40.342  19.045  25.970  1.00  0.00    -0.352 N 
ATOM     32  C   UNL A   1      41.702  19.216  26.038  1.00  0.00     0.251 C 
ATOM     33  H   UNL A   1      40.040  18.113  25.866  1.00  0.00     0.163 HD
ATOM     34  O   UNL A   1      42.450  18.261  25.823  1.00  0.00    -0.269 OA
BRANCH  32  35
ATOM     35  C   UNL A   1      42.285  20.544  26.336  1.00  0.00     0.039 A 
ATOM     36  C   UNL A   1      42.706  21.348  25.273  1.00  0.00     0.014 A 
ATOM     37  C   UNL A   1      42.430  20.997  27.650  1.00  0.00     0.014 A 
ATOM     38  C   UNL A   1      43.210  22.629  25.524  1.00  0.00     0.010 A 
ATOM     39  C   UNL A   1      42.856  22.301  27.894  1.00  0.00     0.010 A 
ATOM     40  C   UNL A   1      43.254  23.131  26.834  1.00  0.00    -0.014 A 
BRANCH  40  41
ATOM     41  C   UNL A   1      43.701  24.524  27.107  1.00  0.00     0.031 A 
ATOM     42  C   UNL A   1      42.724  25.560  27.589  1.00  0.00     0.074 A 
ATOM     43  C   UNL A   1      44.975  24.878  26.851  1.00  0.00     0.049 A 
ATOM     44  N   UNL A   1      42.915  26.833  27.829  1.00  0.00    -0.248 NA
ATOM     45  C   UNL A   1      41.340  25.112  27.800  1.00  0.00     0.031 C 
ATOM     46  C   UNL A   1      46.006  23.986  26.321  1.00  0.00     0.029 A 
ATOM     47  N   UNL A   1      45.615  26.085  26.985  1.00  0.00    -0.354 N 
ATOM     48  C   UNL A   1      41.675  27.340  28.200  1.00  0.00     0.074 A 
ATOM     49  C   UNL A   1      40.729  26.249  28.097  1.00  0.00     0.031 C 
ATOM     50  C   UNL A   1      47.152  24.671  26.188  1.00  0.00     0.029 A 
ATOM     51  C   UNL A   1      46.928  26.058  26.584  1.00  0.00     0.049 A 
ATOM     52  H   UNL A   1      45.175  26.893  27.336  1.00  0.00     0.167 HD
ATOM     53  C   UNL A   1      41.359  28.594  28.608  1.00  0.00     0.037 A 
ATOM     54  C   UNL A   1      47.846  27.042  26.526  1.00  0.00     0.037 A 
ATOM     55  C   UNL A   1      42.307  29.672  28.721  1.00  0.00     0.049 A 
ATOM     56  C   UNL A   1      47.479  28.425  26.988  1.00  0.00     0.074 A 
ATOM     57  C   UNL A   1      42.103  30.953  29.202  1.00  0.00     0.029 A 
ATOM     58  N   UNL A   1      43.637  29.601  28.329  1.00  0.00    -0.354 N 
ATOM     59  N   UNL A   1      46.327  28.870  27.427  1.00  0.00    -0.248 NA
ATOM     60  C   UNL A   1      48.542  29.438  26.960  1.00  0.00     0.031 C 
ATOM     61  C   UNL A   1      43.290  31.677  29.037  1.00  0.00     0.029 A 
ATOM     62  C   UNL A   1      44.256  30.827  28.522  1.00  0.00     0.049 A 
ATOM     63  H   UNL A   1      44.077  28.797  27.968  1.00  0.00     0.167 HD
ATOM     64  C   UNL A   1      46.529  30.207  27.745  1.00  0.00     0.074 A 
ATOM     65  C   UNL A   1      47.921  30.495  27.465  1.00  0.00     0.031 C 
ATOM     66  C   UNL A   1      45.640  31.110  28.229  1.00  0.00     0.037 A 
BRANCH  53  67
ATOM     67  C   UNL A   1      39.918  28.867  28.940  1.00  0.00     0.064 A 
ATOM     68  C   UNL A   1      39.407  28.696  30.238  1.00  0.00     0.173 A 
ATOM     69  C   UNL A   1      39.031  29.311  27.945  1.00  0.00     0.173 A 
ATOM     70  F   UNL A   1      40.206  28.268  31.227  1.00  0.00    -0.203 F 
ATOM     71  C   UNL A   1      38.058  28.905  30.513  1.00  0.00     0.198 A 
ATOM     72  C   UNL A   1      37.692  29.557  28.233  1.00  0.00     0.198 A 
ATOM     73  F   UNL A   1      39.464  29.504  26.691  1.00  0.00    -0.203 F 
ATOM     74  F   UNL A   1      37.581  28.660  31.742  1.00  0.00    -0.200 F 
ATOM     75  C   UNL A   1      37.202  29.340  29.512  1.00  0.00     0.200 A 
ATOM     76  F   UNL A   1      36.870  29.994  27.269  1.00  0.00    -0.200 F 
ATOM     77  F   UNL A   1      35.904  29.537  29.777  1.00  0.00    -0.200 F 
ENDBRANCH  53  67
BRANCH  54  78
ATOM     78  C   UNL A   1      49.209  26.734  26.020  1.00  0.00     0.064 A 
ATOM     79  C   UNL A   1      49.555  26.963  24.681  1.00  0.00     0.173 A 
ATOM     80  C   UNL A   1      50.206  26.241  26.876  1.00  0.00     0.173 A 
ATOM     81  F   UNL A   1      48.631  27.414  23.819  1.00  0.00    -0.203 F 
ATOM     82  C   UNL A   1      50.844  26.706  24.217  1.00  0.00     0.198 A 
ATOM     83  C   UNL A   1      51.501  26.013  26.417  1.00  0.00     0.198 A 
ATOM     84  F   UNL A   1      49.928  26.011  28.168  1.00  0.00    -0.203 F 
ATOM     85  F   UNL A   1      51.139  26.904  22.925  1.00  0.00    -0.200 F 
ATOM     86  C   UNL A   1      51.818  26.241  25.087  1.00  0.00     0.200 A 
ATOM     87  F   UNL A   1      52.443  25.582  27.266  1.00  0.00    -0.200 F 
ATOM     88  F   UNL A   1      53.062  26.011  24.643  1.00  0.00    -0.200 F 
ENDBRANCH  54  78
BRANCH  66  89
ATOM     89  C   UNL A   1      46.149  32.497  28.510  1.00  0.00     0.064 A 
ATOM     90  C   UNL A   1      46.715  32.842  29.747  1.00  0.00     0.173 A 
ATOM     91  C   UNL A   1      46.103  33.484  27.514  1.00  0.00     0.173 A 
ATOM     92  F   UNL A   1      46.771  31.942  30.739  1.00  0.00    -0.203 F 
ATOM     93  C   UNL A   1      47.189  34.131  29.983  1.00  0.00     0.198 A 
ATOM     94  C   UNL A   1      46.610  34.761  27.742  1.00  0.00     0.198 A 
ATOM     95  F   UNL A   1      45.578  33.208  26.310  1.00  0.00    -0.203 F 
ATOM     96  F   UNL A   1      47.676  34.452  31.191  1.00  0.00    -0.200 F 
ATOM     97  C   UNL A   1      47.144  35.086  28.979  1.00  0.00     0.200 A 
ATOM     98  F   UNL A   1      46.581  35.677  26.764  1.00  0.00    -0.200 F 
ATOM     99  F   UNL A   1      47.609  36.322  29.206  1.00  0.00    -0.200 F 
ENDBRANCH  66  89
ENDBRANCH  40  41
ENDBRANCH  32  35
ENDBRANCH  30  31
ENDBRANCH  29  30
ENDBRANCH  28  29
ENDBRANCH   1  28
TORSDOF 15
ENDMDL
