MODEL 1
REMARK VINA RESULT:     -10.3      0.000      0.000
REMARK SMILES O=C(CCN1C(=O)/C(=C/C=C/c2ccco2)SC1=S)Nc1ccc(C(=O)NCCCCNC(=O)c2ccc(-c3c4nc(c(-c5c(F)c(F)c(F)c(F)c5F)c5ccc([nH]5)c(-c5c(F)c(F)c(F)c(F)c5F)c5nc(c(-c6c(F)c(F)c(F)c(F)c6F)c6ccc3[nH]6)C=C5)C=C4)cc2)c(O)c1
REMARK SMILES IDX 25 1 26 2 27 3 24 5 21 6 22 7 100 8 23 9 98 10 20 11 1 12
REMARK SMILES IDX 2 13 3 15 4 16 5 17 6 18 18 19 7 20 8 21 17 22 19 23 9 24
REMARK SMILES IDX 10 25 11 26 12 27 13 28 16 29 14 30 15 31 99 32 28 34 29 35
REMARK SMILES IDX 30 36 31 37 32 38 33 39 34 41 35 42 36 43 97 44 37 45 96 46
REMARK SMILES IDX 38 47 39 48 40 49 90 50 41 51 95 52 89 53 91 54 42 55 94 56
REMARK SMILES IDX 88 57 87 58 43 60 75 61 55 62 74 63 56 64 59 65 73 66 92 67
REMARK SMILES IDX 57 68 58 69 72 71 93 72 60 73 44 74 45 75 53 76 46 77 47 78
REMARK SMILES IDX 51 79 54 80 48 81 49 82 52 83 50 84 76 85 77 86 85 87 78 88
REMARK SMILES IDX 79 89 83 90 86 91 80 92 81 93 84 94 82 95 61 96 62 97 70 98
REMARK SMILES IDX 63 99 64 100 68 101 71 102 65 103 66 104 69 105 67 106
REMARK H PARENT 27 4 20 14 99 33 32 40 91 59 59 70
REMARK Flexibility Score: inf
ROOT
ATOM      1  C   UNL A   1      37.556  33.887  32.864  1.00  0.00     0.255 C 
ATOM      2  O   UNL A   1      37.326  34.818  33.630  1.00  0.00    -0.269 OA
ATOM      3  N   UNL A   1      37.143  33.967  31.550  1.00  0.00    -0.352 N 
ATOM      4  H   UNL A   1      36.651  34.784  31.311  1.00  0.00     0.163 HD
ENDROOT
BRANCH   1   5
ATOM      5  C   UNL A   1      38.218  32.662  33.372  1.00  0.00     0.081 A 
ATOM      6  C   UNL A   1      39.528  30.220  33.812  1.00  0.00     0.044 A 
ATOM      7  C   UNL A   1      38.178  30.235  33.465  1.00  0.00     0.027 A 
ATOM      8  C   UNL A   1      40.178  31.433  34.067  1.00  0.00     0.073 A 
ATOM      9  C   UNL A   1      37.528  31.453  33.230  1.00  0.00     0.020 A 
ATOM     10  C   UNL A   1      39.508  32.642  33.903  1.00  0.00     0.130 A 
BRANCH   6  11
ATOM     11  N   UNL A   1      40.305  29.056  33.948  1.00  0.00    -0.326 N 
ATOM     12  O   UNL A   1      40.722  28.982  36.224  1.00  0.00    -0.275 OA
ATOM     13  C   UNL A   1      40.898  28.557  35.084  1.00  0.00     0.226 C 
ATOM     14  H   UNL A   1      40.443  28.531  33.127  1.00  0.00     0.169 HD
BRANCH  13  15
ATOM     15  C   UNL A   1      41.920  27.449  34.854  1.00  0.00     0.122 C 
BRANCH  15  16
ATOM     16  C   UNL A   1      42.034  26.297  35.855  1.00  0.00     0.137 C 
BRANCH  16  17
ATOM     17  N   UNL A   1      43.293  25.539  35.995  1.00  0.00    -0.292 N 
ATOM     18  C   UNL A   1      43.281  24.227  35.520  1.00  0.00     0.266 C 
ATOM     19  C   UNL A   1      44.418  25.878  36.725  1.00  0.00     0.148 C 
ATOM     20  O   UNL A   1      42.317  23.655  35.019  1.00  0.00    -0.268 OA
ATOM     21  C   UNL A   1      44.604  23.578  35.710  1.00  0.00     0.080 C 
ATOM     22  S   UNL A   1      45.683  24.692  36.443  1.00  0.00    -0.054 SA
ATOM     23  S   UNL A   1      44.689  27.177  37.729  1.00  0.00    -0.052 S 
ATOM     24  C   UNL A   1      44.861  22.305  35.368  1.00  0.00     0.021 C 
BRANCH  24  25
ATOM     25  C   UNL A   1      46.164  21.677  35.462  1.00  0.00     0.005 C 
ATOM     26  C   UNL A   1      46.865  21.195  34.424  1.00  0.00     0.047 C 
BRANCH  26  27
ATOM     27  C   UNL A   1      48.182  20.681  34.611  1.00  0.00     0.126 A 
ATOM     28  C   UNL A   1      48.953  20.548  35.763  1.00  0.00     0.050 A 
ATOM     29  O   UNL A   1      48.944  20.222  33.557  1.00  0.00    -0.465 OA
ATOM     30  C   UNL A   1      50.221  20.045  35.389  1.00  0.00     0.042 A 
ATOM     31  C   UNL A   1      50.164  19.868  34.031  1.00  0.00     0.195 A 
ENDBRANCH  26  27
ENDBRANCH  24  25
ENDBRANCH  16  17
ENDBRANCH  15  16
ENDBRANCH  13  15
ENDBRANCH   6  11
BRANCH  10  32
ATOM     32  O   UNL A   1      40.194  33.763  34.278  1.00  0.00    -0.507 OA
ATOM     33  H   UNL A   1      40.250  34.496  33.697  1.00  0.00     0.293 HD
ENDBRANCH  10  32
ENDBRANCH   1   5
BRANCH   3  34
ATOM     34  C   UNL A   1      37.331  33.012  30.468  1.00  0.00     0.116 C 
BRANCH  34  35
ATOM     35  C   UNL A   1      37.050  33.547  29.069  1.00  0.00     0.023 C 
BRANCH  35  36
ATOM     36  C   UNL A   1      35.620  33.407  28.564  1.00  0.00     0.023 C 
BRANCH  36  37
ATOM     37  C   UNL A   1      34.718  32.472  29.358  1.00  0.00     0.116 C 
BRANCH  37  38
ATOM     38  N   UNL A   1      34.143  31.395  28.566  1.00  0.00    -0.352 N 
ATOM     39  C   UNL A   1      34.733  30.263  28.053  1.00  0.00     0.251 C 
ATOM     40  H   UNL A   1      33.183  31.491  28.367  1.00  0.00     0.163 HD
ATOM     41  O   UNL A   1      34.093  29.517  27.318  1.00  0.00    -0.269 OA
BRANCH  39  42
ATOM     42  C   UNL A   1      36.149  29.955  28.356  1.00  0.00     0.039 A 
ATOM     43  C   UNL A   1      36.471  29.397  29.596  1.00  0.00     0.014 A 
ATOM     44  C   UNL A   1      37.157  30.209  27.424  1.00  0.00     0.014 A 
ATOM     45  C   UNL A   1      37.791  29.034  29.872  1.00  0.00     0.010 A 
ATOM     46  C   UNL A   1      38.448  29.745  27.655  1.00  0.00     0.010 A 
ATOM     47  C   UNL A   1      38.787  29.174  28.890  1.00  0.00    -0.014 A 
BRANCH  47  48
ATOM     48  C   UNL A   1      40.197  28.780  29.155  1.00  0.00     0.031 A 
ATOM     49  C   UNL A   1      41.095  29.701  29.940  1.00  0.00     0.074 A 
ATOM     50  C   UNL A   1      40.684  27.627  28.657  1.00  0.00     0.049 A 
ATOM     51  N   UNL A   1      42.364  29.569  30.238  1.00  0.00    -0.248 NA
ATOM     52  C   UNL A   1      40.497  30.955  30.425  1.00  0.00     0.031 C 
ATOM     53  C   UNL A   1      39.934  26.673  27.838  1.00  0.00     0.029 A 
ATOM     54  N   UNL A   1      41.931  27.062  28.765  1.00  0.00    -0.354 N 
ATOM     55  C   UNL A   1      42.711  30.723  30.928  1.00  0.00     0.074 A 
ATOM     56  C   UNL A   1      41.546  31.578  30.937  1.00  0.00     0.031 C 
ATOM     57  C   UNL A   1      40.724  25.626  27.548  1.00  0.00     0.029 A 
ATOM     58  C   UNL A   1      42.045  25.850  28.128  1.00  0.00     0.049 A 
ATOM     59  H   UNL A   1      42.673  27.486  29.253  1.00  0.00     0.167 HD
ATOM     60  C   UNL A   1      43.883  31.032  31.534  1.00  0.00     0.037 A 
ATOM     61  C   UNL A   1      43.097  25.015  28.028  1.00  0.00     0.037 A 
ATOM     62  C   UNL A   1      45.035  30.170  31.546  1.00  0.00     0.049 A 
ATOM     63  C   UNL A   1      44.390  25.381  28.709  1.00  0.00     0.074 A 
ATOM     64  C   UNL A   1      46.258  30.368  32.161  1.00  0.00     0.029 A 
ATOM     65  N   UNL A   1      45.102  28.938  30.911  1.00  0.00    -0.354 N 
ATOM     66  N   UNL A   1      44.686  26.446  29.414  1.00  0.00    -0.248 NA
ATOM     67  C   UNL A   1      45.491  24.415  28.594  1.00  0.00     0.031 C 
ATOM     68  C   UNL A   1      47.082  29.279  31.860  1.00  0.00     0.029 A 
ATOM     69  C   UNL A   1      46.350  28.370  31.112  1.00  0.00     0.049 A 
ATOM     70  H   UNL A   1      44.372  28.527  30.394  1.00  0.00     0.167 HD
ATOM     71  C   UNL A   1      45.987  26.259  29.863  1.00  0.00     0.074 A 
ATOM     72  C   UNL A   1      46.417  24.971  29.361  1.00  0.00     0.031 C 
ATOM     73  C   UNL A   1      46.757  27.077  30.623  1.00  0.00     0.037 A 
BRANCH  60  74
ATOM     74  C   UNL A   1      43.969  32.355  32.241  1.00  0.00     0.064 A 
ATOM     75  C   UNL A   1      44.305  33.536  31.559  1.00  0.00     0.173 A 
ATOM     76  C   UNL A   1      43.697  32.450  33.614  1.00  0.00     0.173 A 
ATOM     77  F   UNL A   1      44.589  33.501  30.248  1.00  0.00    -0.203 F 
ATOM     78  C   UNL A   1      44.402  34.752  32.230  1.00  0.00     0.198 A 
ATOM     79  C   UNL A   1      43.758  33.675  34.275  1.00  0.00     0.198 A 
ATOM     80  F   UNL A   1      43.369  31.356  34.317  1.00  0.00    -0.203 F 
ATOM     81  F   UNL A   1      44.785  35.852  31.568  1.00  0.00    -0.200 F 
ATOM     82  C   UNL A   1      44.120  34.821  33.586  1.00  0.00     0.200 A 
ATOM     83  F   UNL A   1      43.472  33.744  35.583  1.00  0.00    -0.200 F 
ATOM     84  F   UNL A   1      44.207  35.994  34.229  1.00  0.00    -0.200 F 
ENDBRANCH  60  74
BRANCH  61  85
ATOM     85  C   UNL A   1      42.966  23.728  27.293  1.00  0.00     0.064 A 
ATOM     86  C   UNL A   1      42.425  22.594  27.917  1.00  0.00     0.173 A 
ATOM     87  C   UNL A   1      43.406  23.593  25.969  1.00  0.00     0.173 A 
ATOM     88  F   UNL A   1      42.008  22.666  29.190  1.00  0.00    -0.203 F 
ATOM     89  C   UNL A   1      42.361  21.368  27.258  1.00  0.00     0.198 A 
ATOM     90  C   UNL A   1      43.310  22.374  25.298  1.00  0.00     0.198 A 
ATOM     91  F   UNL A   1      43.927  24.646  25.322  1.00  0.00    -0.203 F 
ATOM     92  F   UNL A   1      41.895  20.287  27.900  1.00  0.00    -0.200 F 
ATOM     93  C   UNL A   1      42.799  21.260  25.947  1.00  0.00     0.200 A 
ATOM     94  F   UNL A   1      43.720  22.278  24.026  1.00  0.00    -0.200 F 
ATOM     95  F   UNL A   1      42.739  20.081  25.313  1.00  0.00    -0.200 F 
ENDBRANCH  61  85
BRANCH  73  96
ATOM     96  C   UNL A   1      48.115  26.571  31.019  1.00  0.00     0.064 A 
ATOM     97  C   UNL A   1      49.266  26.855  30.267  1.00  0.00     0.173 A 
ATOM     98  C   UNL A   1      48.267  25.795  32.179  1.00  0.00     0.173 A 
ATOM     99  F   UNL A   1      49.176  27.584  29.145  1.00  0.00    -0.203 F 
ATOM    100  C   UNL A   1      50.507  26.342  30.636  1.00  0.00     0.198 A 
ATOM    101  C   UNL A   1      49.516  25.316  32.566  1.00  0.00     0.198 A 
ATOM    102  F   UNL A   1      47.202  25.502  32.941  1.00  0.00    -0.203 F 
ATOM    103  F   UNL A   1      51.579  26.567  29.863  1.00  0.00    -0.200 F 
ATOM    104  C   UNL A   1      50.632  25.577  31.786  1.00  0.00     0.200 A 
ATOM    105  F   UNL A   1      49.636  24.593  33.687  1.00  0.00    -0.200 F 
ATOM    106  F   UNL A   1      51.826  25.083  32.138  1.00  0.00    -0.200 F 
ENDBRANCH  73  96
ENDBRANCH  47  48
ENDBRANCH  39  42
ENDBRANCH  37  38
ENDBRANCH  36  37
ENDBRANCH  35  36
ENDBRANCH  34  35
ENDBRANCH   3  34
TORSDOF 18
ENDMDL
MODEL 2
REMARK VINA RESULT:     -10.2      5.596      9.667
REMARK SMILES O=C(CCN1C(=O)/C(=C/C=C/c2ccco2)SC1=S)Nc1ccc(C(=O)NCCCCNC(=O)c2ccc(-c3c4nc(c(-c5c(F)c(F)c(F)c(F)c5F)c5ccc([nH]5)c(-c5c(F)c(F)c(F)c(F)c5F)c5nc(c(-c6c(F)c(F)c(F)c(F)c6F)c6ccc3[nH]6)C=C5)C=C4)cc2)c(O)c1
REMARK SMILES IDX 25 1 26 2 27 3 24 5 21 6 22 7 100 8 23 9 98 10 20 11 1 12
REMARK SMILES IDX 2 13 3 15 4 16 5 17 6 18 18 19 7 20 8 21 17 22 19 23 9 24
REMARK SMILES IDX 10 25 11 26 12 27 13 28 16 29 14 30 15 31 99 32 28 34 29 35
REMARK SMILES IDX 30 36 31 37 32 38 33 39 34 41 35 42 36 43 97 44 37 45 96 46
REMARK SMILES IDX 38 47 39 48 40 49 90 50 41 51 95 52 89 53 91 54 42 55 94 56
REMARK SMILES IDX 88 57 87 58 43 60 75 61 55 62 74 63 56 64 59 65 73 66 92 67
REMARK SMILES IDX 57 68 58 69 72 71 93 72 60 73 44 74 45 75 53 76 46 77 47 78
REMARK SMILES IDX 51 79 54 80 48 81 49 82 52 83 50 84 76 85 77 86 85 87 78 88
REMARK SMILES IDX 79 89 83 90 86 91 80 92 81 93 84 94 82 95 61 96 62 97 70 98
REMARK SMILES IDX 63 99 64 100 68 101 71 102 65 103 66 104 69 105 67 106
REMARK H PARENT 27 4 20 14 99 33 32 40 91 59 59 70
REMARK Flexibility Score: inf
ROOT
ATOM      1  C   UNL A   1      36.122  32.603  28.066  1.00  0.00     0.255 C 
ATOM      2  O   UNL A   1      37.261  32.263  28.371  1.00  0.00    -0.269 OA
ATOM      3  N   UNL A   1      35.788  33.940  28.062  1.00  0.00    -0.352 N 
ATOM      4  H   UNL A   1      36.504  34.557  28.338  1.00  0.00     0.163 HD
ENDROOT
BRANCH   1   5
ATOM      5  C   UNL A   1      35.101  31.571  27.769  1.00  0.00     0.081 A 
ATOM      6  C   UNL A   1      33.121  29.873  26.734  1.00  0.00     0.044 A 
ATOM      7  C   UNL A   1      32.773  31.127  27.234  1.00  0.00     0.027 A 
ATOM      8  C   UNL A   1      34.439  29.425  26.880  1.00  0.00     0.073 A 
ATOM      9  C   UNL A   1      33.763  31.981  27.736  1.00  0.00     0.020 A 
ATOM     10  C   UNL A   1      35.407  30.249  27.446  1.00  0.00     0.130 A 
BRANCH   6  11
ATOM     11  N   UNL A   1      32.229  28.992  26.096  1.00  0.00    -0.326 N 
ATOM     12  O   UNL A   1      31.490  27.661  27.840  1.00  0.00    -0.275 OA
ATOM     13  C   UNL A   1      31.545  27.931  26.642  1.00  0.00     0.226 C 
ATOM     14  H   UNL A   1      32.075  29.154  25.138  1.00  0.00     0.169 HD
BRANCH  13  15
ATOM     15  C   UNL A   1      30.895  26.987  25.637  1.00  0.00     0.122 C 
BRANCH  15  16
ATOM     16  C   UNL A   1      30.413  25.607  26.089  1.00  0.00     0.137 C 
BRANCH  16  17
ATOM     17  N   UNL A   1      31.022  24.377  25.543  1.00  0.00    -0.292 N 
ATOM     18  C   UNL A   1      31.683  23.557  26.458  1.00  0.00     0.266 C 
ATOM     19  C   UNL A   1      31.212  24.034  24.217  1.00  0.00     0.148 C 
ATOM     20  O   UNL A   1      31.813  23.780  27.658  1.00  0.00    -0.268 OA
ATOM     21  C   UNL A   1      32.241  22.353  25.789  1.00  0.00     0.080 C 
ATOM     22  S   UNL A   1      31.857  22.403  24.118  1.00  0.00    -0.054 SA
ATOM     23  S   UNL A   1      30.902  24.903  22.833  1.00  0.00    -0.052 S 
ATOM     24  C   UNL A   1      32.951  21.412  26.430  1.00  0.00     0.021 C 
BRANCH  24  25
ATOM     25  C   UNL A   1      33.431  20.186  25.820  1.00  0.00     0.005 C 
ATOM     26  C   UNL A   1      32.708  19.066  25.668  1.00  0.00     0.047 C 
BRANCH  26  27
ATOM     27  C   UNL A   1      33.243  17.944  24.969  1.00  0.00     0.126 A 
ATOM     28  C   UNL A   1      34.019  17.876  23.814  1.00  0.00     0.050 A 
ATOM     29  O   UNL A   1      33.016  16.649  25.381  1.00  0.00    -0.465 OA
ATOM     30  C   UNL A   1      34.221  16.513  23.497  1.00  0.00     0.042 A 
ATOM     31  C   UNL A   1      33.584  15.806  24.484  1.00  0.00     0.195 A 
ENDBRANCH  26  27
ENDBRANCH  24  25
ENDBRANCH  16  17
ENDBRANCH  15  16
ENDBRANCH  13  15
ENDBRANCH   6  11
BRANCH  10  32
ATOM     32  O   UNL A   1      36.636  29.682  27.640  1.00  0.00    -0.507 OA
ATOM     33  H   UNL A   1      37.260  29.662  26.940  1.00  0.00     0.293 HD
ENDBRANCH  10  32
ENDBRANCH   1   5
BRANCH   3  34
ATOM     34  C   UNL A   1      34.524  34.572  27.709  1.00  0.00     0.116 C 
BRANCH  34  35
ATOM     35  C   UNL A   1      34.445  36.069  27.977  1.00  0.00     0.023 C 
BRANCH  35  36
ATOM     36  C   UNL A   1      33.385  36.524  28.972  1.00  0.00     0.023 C 
BRANCH  36  37
ATOM     37  C   UNL A   1      32.937  35.488  29.994  1.00  0.00     0.116 C 
BRANCH  37  38
ATOM     38  N   UNL A   1      32.322  36.061  31.182  1.00  0.00    -0.352 N 
ATOM     39  C   UNL A   1      32.683  35.949  32.505  1.00  0.00     0.251 C 
ATOM     40  H   UNL A   1      31.526  36.616  31.013  1.00  0.00     0.163 HD
ATOM     41  O   UNL A   1      31.969  36.432  33.378  1.00  0.00    -0.269 OA
BRANCH  39  42
ATOM     42  C   UNL A   1      33.912  35.217  32.885  1.00  0.00     0.039 A 
ATOM     43  C   UNL A   1      33.802  33.909  33.364  1.00  0.00     0.014 A 
ATOM     44  C   UNL A   1      35.171  35.810  32.768  1.00  0.00     0.014 A 
ATOM     45  C   UNL A   1      34.954  33.178  33.661  1.00  0.00     0.010 A 
ATOM     46  C   UNL A   1      36.318  35.047  32.955  1.00  0.00     0.010 A 
ATOM     47  C   UNL A   1      36.226  33.729  33.426  1.00  0.00    -0.014 A 
BRANCH  47  48
ATOM     48  C   UNL A   1      37.468  32.966  33.719  1.00  0.00     0.031 A 
ATOM     49  C   UNL A   1      38.238  33.247  34.983  1.00  0.00     0.074 A 
ATOM     50  C   UNL A   1      37.929  32.057  32.837  1.00  0.00     0.049 A 
ATOM     51  N   UNL A   1      39.366  32.730  35.402  1.00  0.00    -0.248 NA
ATOM     52  C   UNL A   1      37.684  34.274  35.881  1.00  0.00     0.031 C 
ATOM     53  C   UNL A   1      37.307  31.728  31.554  1.00  0.00     0.029 A 
ATOM     54  N   UNL A   1      39.035  31.245  32.887  1.00  0.00    -0.354 N 
ATOM     55  C   UNL A   1      39.658  33.377  36.596  1.00  0.00     0.074 A 
ATOM     56  C   UNL A   1      38.634  34.377  36.796  1.00  0.00     0.031 C 
ATOM     57  C   UNL A   1      38.019  30.759  30.955  1.00  0.00     0.029 A 
ATOM     58  C   UNL A   1      39.167  30.424  31.793  1.00  0.00     0.049 A 
ATOM     59  H   UNL A   1      39.673  31.250  33.636  1.00  0.00     0.167 HD
ATOM     60  C   UNL A   1      40.666  33.138  37.469  1.00  0.00     0.037 A 
ATOM     61  C   UNL A   1      40.107  29.505  31.503  1.00  0.00     0.037 A 
ATOM     62  C   UNL A   1      41.670  32.125  37.281  1.00  0.00     0.049 A 
ATOM     63  C   UNL A   1      41.219  29.257  32.489  1.00  0.00     0.074 A 
ATOM     64  C   UNL A   1      42.712  31.773  38.121  1.00  0.00     0.029 A 
ATOM     65  N   UNL A   1      41.754  31.296  36.171  1.00  0.00    -0.354 N 
ATOM     66  N   UNL A   1      41.447  29.831  33.645  1.00  0.00    -0.248 NA
ATOM     67  C   UNL A   1      42.195  28.218  32.133  1.00  0.00     0.031 C 
ATOM     68  C   UNL A   1      43.455  30.765  37.499  1.00  0.00     0.029 A 
ATOM     69  C   UNL A   1      42.837  30.441  36.301  1.00  0.00     0.049 A 
ATOM     70  H   UNL A   1      41.136  31.313  35.405  1.00  0.00     0.167 HD
ATOM     71  C   UNL A   1      42.562  29.194  34.175  1.00  0.00     0.074 A 
ATOM     72  C   UNL A   1      42.954  28.181  33.218  1.00  0.00     0.031 C 
ATOM     73  C   UNL A   1      43.203  29.424  35.348  1.00  0.00     0.037 A 
BRANCH  60  74
ATOM     74  C   UNL A   1      40.721  33.982  38.711  1.00  0.00     0.064 A 
ATOM     75  C   UNL A   1      40.039  33.616  39.883  1.00  0.00     0.173 A 
ATOM     76  C   UNL A   1      41.478  35.163  38.739  1.00  0.00     0.173 A 
ATOM     77  F   UNL A   1      39.288  32.504  39.908  1.00  0.00    -0.203 F 
ATOM     78  C   UNL A   1      40.081  34.418  41.020  1.00  0.00     0.198 A 
ATOM     79  C   UNL A   1      41.549  35.944  39.890  1.00  0.00     0.198 A 
ATOM     80  F   UNL A   1      42.153  35.561  37.650  1.00  0.00    -0.203 F 
ATOM     81  F   UNL A   1      39.370  34.079  42.104  1.00  0.00    -0.200 F 
ATOM     82  C   UNL A   1      40.842  35.577  41.026  1.00  0.00     0.200 A 
ATOM     83  F   UNL A   1      42.296  37.056  39.900  1.00  0.00    -0.200 F 
ATOM     84  F   UNL A   1      40.888  36.344  42.123  1.00  0.00    -0.200 F 
ENDBRANCH  60  74
BRANCH  61  85
ATOM     85  C   UNL A   1      40.020  28.712  30.246  1.00  0.00     0.064 A 
ATOM     86  C   UNL A   1      39.368  27.471  30.221  1.00  0.00     0.173 A 
ATOM     87  C   UNL A   1      40.610  29.161  29.056  1.00  0.00     0.173 A 
ATOM     88  F   UNL A   1      38.804  26.988  31.339  1.00  0.00    -0.203 F 
ATOM     89  C   UNL A   1      39.339  26.693  29.065  1.00  0.00     0.198 A 
ATOM     90  C   UNL A   1      40.551  28.397  27.891  1.00  0.00     0.198 A 
ATOM     91  F   UNL A   1      41.241  30.343  29.022  1.00  0.00    -0.203 F 
ATOM     92  F   UNL A   1      38.762  25.483  29.088  1.00  0.00    -0.200 F 
ATOM     93  C   UNL A   1      39.927  27.159  27.899  1.00  0.00     0.200 A 
ATOM     94  F   UNL A   1      41.108  28.858  26.762  1.00  0.00    -0.200 F 
ATOM     95  F   UNL A   1      39.902  26.411  26.788  1.00  0.00    -0.200 F 
ENDBRANCH  61  85
BRANCH  73  96
ATOM     96  C   UNL A   1      44.350  28.517  35.695  1.00  0.00     0.064 A 
ATOM     97  C   UNL A   1      45.671  28.808  35.322  1.00  0.00     0.173 A 
ATOM     98  C   UNL A   1      44.120  27.338  36.423  1.00  0.00     0.173 A 
ATOM     99  F   UNL A   1      45.945  29.916  34.617  1.00  0.00    -0.203 F 
ATOM    100  C   UNL A   1      46.710  27.930  35.623  1.00  0.00     0.198 A 
ATOM    101  C   UNL A   1      45.167  26.483  36.755  1.00  0.00     0.198 A 
ATOM    102  F   UNL A   1      42.878  27.016  36.815  1.00  0.00    -0.203 F 
ATOM    103  F   UNL A   1      47.952  28.195  35.193  1.00  0.00    -0.200 F 
ATOM    104  C   UNL A   1      46.458  26.772  36.342  1.00  0.00     0.200 A 
ATOM    105  F   UNL A   1      44.924  25.374  37.467  1.00  0.00    -0.200 F 
ATOM    106  F   UNL A   1      47.459  25.929  36.630  1.00  0.00    -0.200 F 
ENDBRANCH  73  96
ENDBRANCH  47  48
ENDBRANCH  39  42
ENDBRANCH  37  38
ENDBRANCH  36  37
ENDBRANCH  35  36
ENDBRANCH  34  35
ENDBRANCH   3  34
TORSDOF 18
ENDMDL
MODEL 3
REMARK VINA RESULT:     -10.1      5.878     12.477
REMARK SMILES O=C(CCN1C(=O)/C(=C/C=C/c2ccco2)SC1=S)Nc1ccc(C(=O)NCCCCNC(=O)c2ccc(-c3c4nc(c(-c5c(F)c(F)c(F)c(F)c5F)c5ccc([nH]5)c(-c5c(F)c(F)c(F)c(F)c5F)c5nc(c(-c6c(F)c(F)c(F)c(F)c6F)c6ccc3[nH]6)C=C5)C=C4)cc2)c(O)c1
REMARK SMILES IDX 25 1 26 2 27 3 24 5 21 6 22 7 100 8 23 9 98 10 20 11 1 12
REMARK SMILES IDX 2 13 3 15 4 16 5 17 6 18 18 19 7 20 8 21 17 22 19 23 9 24
REMARK SMILES IDX 10 25 11 26 12 27 13 28 16 29 14 30 15 31 99 32 28 34 29 35
REMARK SMILES IDX 30 36 31 37 32 38 33 39 34 41 35 42 36 43 97 44 37 45 96 46
REMARK SMILES IDX 38 47 39 48 40 49 90 50 41 51 95 52 89 53 91 54 42 55 94 56
REMARK SMILES IDX 88 57 87 58 43 60 75 61 55 62 74 63 56 64 59 65 73 66 92 67
REMARK SMILES IDX 57 68 58 69 72 71 93 72 60 73 44 74 45 75 53 76 46 77 47 78
REMARK SMILES IDX 51 79 54 80 48 81 49 82 52 83 50 84 76 85 77 86 85 87 78 88
REMARK SMILES IDX 79 89 83 90 86 91 80 92 81 93 84 94 82 95 61 96 62 97 70 98
REMARK SMILES IDX 63 99 64 100 68 101 71 102 65 103 66 104 69 105 67 106
REMARK H PARENT 27 4 20 14 99 33 32 40 91 59 59 70
REMARK Flexibility Score: inf
ROOT
ATOM      1  C   UNL A   1      36.900  19.985  24.900  1.00  0.00     0.255 C 
ATOM      2  O   UNL A   1      36.458  18.866  24.659  1.00  0.00    -0.269 OA
ATOM      3  N   UNL A   1      38.183  20.121  25.387  1.00  0.00    -0.352 N 
ATOM      4  H   UNL A   1      38.670  19.279  25.539  1.00  0.00     0.163 HD
ENDROOT
BRANCH   1   5
ATOM      5  C   UNL A   1      36.031  21.173  24.725  1.00  0.00     0.081 A 
ATOM      6  C   UNL A   1      34.316  23.232  23.896  1.00  0.00     0.044 A 
ATOM      7  C   UNL A   1      35.654  23.238  23.503  1.00  0.00     0.027 A 
ATOM      8  C   UNL A   1      33.881  22.268  24.813  1.00  0.00     0.073 A 
ATOM      9  C   UNL A   1      36.506  22.201  23.903  1.00  0.00     0.020 A 
ATOM     10  C   UNL A   1      34.750  21.281  25.266  1.00  0.00     0.130 A 
BRANCH   6  11
ATOM     11  N   UNL A   1      33.349  24.152  23.451  1.00  0.00    -0.326 N 
ATOM     12  O   UNL A   1      33.364  23.842  21.158  1.00  0.00    -0.275 OA
ATOM     13  C   UNL A   1      32.989  24.450  22.158  1.00  0.00     0.226 C 
ATOM     14  H   UNL A   1      32.868  24.645  24.155  1.00  0.00     0.169 HD
BRANCH  13  15
ATOM     15  C   UNL A   1      32.131  25.698  21.990  1.00  0.00     0.122 C 
BRANCH  15  16
ATOM     16  C   UNL A   1      31.221  26.156  23.131  1.00  0.00     0.137 C 
BRANCH  16  17
ATOM     17  N   UNL A   1      31.493  27.413  23.858  1.00  0.00    -0.292 N 
ATOM     18  C   UNL A   1      32.444  27.345  24.876  1.00  0.00     0.266 C 
ATOM     19  C   UNL A   1      30.781  28.598  23.811  1.00  0.00     0.148 C 
ATOM     20  O   UNL A   1      33.051  26.336  25.224  1.00  0.00    -0.268 OA
ATOM     21  C   UNL A   1      32.632  28.670  25.521  1.00  0.00     0.080 C 
ATOM     22  S   UNL A   1      31.609  29.821  24.763  1.00  0.00    -0.054 SA
ATOM     23  S   UNL A   1      29.372  28.968  23.007  1.00  0.00    -0.052 S 
ATOM     24  C   UNL A   1      33.467  28.882  26.550  1.00  0.00     0.021 C 
BRANCH  24  25
ATOM     25  C   UNL A   1      33.735  30.181  27.138  1.00  0.00     0.005 C 
ATOM     26  C   UNL A   1      34.740  30.453  27.984  1.00  0.00     0.047 C 
BRANCH  26  27
ATOM     27  C   UNL A   1      34.974  31.786  28.432  1.00  0.00     0.126 A 
ATOM     28  C   UNL A   1      35.828  32.774  27.947  1.00  0.00     0.050 A 
ATOM     29  O   UNL A   1      34.330  32.311  29.532  1.00  0.00    -0.465 OA
ATOM     30  C   UNL A   1      35.732  33.898  28.800  1.00  0.00     0.042 A 
ATOM     31  C   UNL A   1      34.807  33.561  29.753  1.00  0.00     0.195 A 
ENDBRANCH  26  27
ENDBRANCH  24  25
ENDBRANCH  16  17
ENDBRANCH  15  16
ENDBRANCH  13  15
ENDBRANCH   6  11
BRANCH  10  32
ATOM     32  O   UNL A   1      34.261  20.452  26.238  1.00  0.00    -0.507 OA
ATOM     33  H   UNL A   1      34.807  20.198  26.956  1.00  0.00     0.293 HD
ENDBRANCH  10  32
ENDBRANCH   1   5
BRANCH   3  34
ATOM     34  C   UNL A   1      38.920  21.334  25.710  1.00  0.00     0.116 C 
BRANCH  34  35
ATOM     35  C   UNL A   1      40.379  21.127  26.100  1.00  0.00     0.023 C 
BRANCH  35  36
ATOM     36  C   UNL A   1      40.899  19.696  26.042  1.00  0.00     0.023 C 
BRANCH  36  37
ATOM     37  C   UNL A   1      42.370  19.505  26.384  1.00  0.00     0.116 C 
BRANCH  37  38
ATOM     38  N   UNL A   1      43.196  19.135  25.245  1.00  0.00    -0.352 N 
ATOM     39  C   UNL A   1      44.110  19.881  24.537  1.00  0.00     0.251 C 
ATOM     40  H   UNL A   1      43.085  18.208  24.932  1.00  0.00     0.163 HD
ATOM     41  O   UNL A   1      44.638  19.414  23.533  1.00  0.00    -0.269 OA
BRANCH  39  42
ATOM     42  C   UNL A   1      44.436  21.262  24.960  1.00  0.00     0.039 A 
ATOM     43  C   UNL A   1      44.026  22.331  24.158  1.00  0.00     0.014 A 
ATOM     44  C   UNL A   1      45.137  21.508  26.142  1.00  0.00     0.014 A 
ATOM     45  C   UNL A   1      44.262  23.643  24.576  1.00  0.00     0.010 A 
ATOM     46  C   UNL A   1      45.271  22.811  26.611  1.00  0.00     0.010 A 
ATOM     47  C   UNL A   1      44.857  23.895  25.824  1.00  0.00    -0.014 A 
BRANCH  47  48
ATOM     48  C   UNL A   1      45.104  25.283  26.299  1.00  0.00     0.031 A 
ATOM     49  C   UNL A   1      46.486  25.874  26.193  1.00  0.00     0.074 A 
ATOM     50  C   UNL A   1      44.109  25.994  26.863  1.00  0.00     0.049 A 
ATOM     51  N   UNL A   1      46.923  27.043  26.590  1.00  0.00    -0.248 NA
ATOM     52  C   UNL A   1      47.526  25.023  25.590  1.00  0.00     0.031 C 
ATOM     53  C   UNL A   1      42.740  25.520  27.072  1.00  0.00     0.029 A 
ATOM     54  N   UNL A   1      44.098  27.271  27.368  1.00  0.00    -0.354 N 
ATOM     55  C   UNL A   1      48.282  27.057  26.299  1.00  0.00     0.074 A 
ATOM     56  C   UNL A   1      48.614  25.756  25.766  1.00  0.00     0.031 C 
ATOM     57  C   UNL A   1      42.014  26.503  27.629  1.00  0.00     0.029 A 
ATOM     58  C   UNL A   1      42.872  27.663  27.849  1.00  0.00     0.049 A 
ATOM     59  H   UNL A   1      44.893  27.850  27.384  1.00  0.00     0.167 HD
ATOM     60  C   UNL A   1      49.168  28.074  26.428  1.00  0.00     0.037 A 
ATOM     61  C   UNL A   1      42.487  28.829  28.403  1.00  0.00     0.037 A 
ATOM     62  C   UNL A   1      48.831  29.377  26.936  1.00  0.00     0.049 A 
ATOM     63  C   UNL A   1      43.492  29.944  28.537  1.00  0.00     0.074 A 
ATOM     64  C   UNL A   1      49.643  30.488  27.073  1.00  0.00     0.029 A 
ATOM     65  N   UNL A   1      47.572  29.743  27.389  1.00  0.00    -0.354 N 
ATOM     66  N   UNL A   1      44.758  29.967  28.198  1.00  0.00    -0.248 NA
ATOM     67  C   UNL A   1      43.004  31.203  29.116  1.00  0.00     0.031 C 
ATOM     68  C   UNL A   1      48.889  31.513  27.652  1.00  0.00     0.029 A 
ATOM     69  C   UNL A   1      47.589  31.062  27.816  1.00  0.00     0.049 A 
ATOM     70  H   UNL A   1      46.783  29.154  27.405  1.00  0.00     0.167 HD
ATOM     71  C   UNL A   1      45.207  31.251  28.480  1.00  0.00     0.074 A 
ATOM     72  C   UNL A   1      44.071  31.981  29.004  1.00  0.00     0.031 C 
ATOM     73  C   UNL A   1      46.445  31.780  28.317  1.00  0.00     0.037 A 
BRANCH  60  74
ATOM     74  C   UNL A   1      50.586  27.813  26.002  1.00  0.00     0.064 A 
ATOM     75  C   UNL A   1      51.584  27.472  26.930  1.00  0.00     0.173 A 
ATOM     76  C   UNL A   1      50.951  27.888  24.650  1.00  0.00     0.173 A 
ATOM     77  F   UNL A   1      51.294  27.401  28.239  1.00  0.00    -0.203 F 
ATOM     78  C   UNL A   1      52.898  27.254  26.525  1.00  0.00     0.198 A 
ATOM     79  C   UNL A   1      52.258  27.632  24.244  1.00  0.00     0.198 A 
ATOM     80  F   UNL A   1      50.039  28.207  23.719  1.00  0.00    -0.203 F 
ATOM     81  F   UNL A   1      53.844  26.993  27.438  1.00  0.00    -0.200 F 
ATOM     82  C   UNL A   1      53.232  27.327  25.182  1.00  0.00     0.200 A 
ATOM     83  F   UNL A   1      52.578  27.688  22.943  1.00  0.00    -0.200 F 
ATOM     84  F   UNL A   1      54.496  27.109  24.792  1.00  0.00    -0.200 F 
ENDBRANCH  60  74
BRANCH  61  85
ATOM     85  C   UNL A   1      41.076  29.027  28.832  1.00  0.00     0.064 A 
ATOM     86  C   UNL A   1      40.069  29.299  27.894  1.00  0.00     0.173 A 
ATOM     87  C   UNL A   1      40.709  28.981  30.184  1.00  0.00     0.173 A 
ATOM     88  F   UNL A   1      40.372  29.373  26.589  1.00  0.00    -0.203 F 
ATOM     89  C   UNL A   1      38.758  29.550  28.294  1.00  0.00     0.198 A 
ATOM     90  C   UNL A   1      39.390  29.199  30.581  1.00  0.00     0.198 A 
ATOM     91  F   UNL A   1      41.630  28.719  31.123  1.00  0.00    -0.203 F 
ATOM     92  F   UNL A   1      37.830  29.867  27.380  1.00  0.00    -0.200 F 
ATOM     93  C   UNL A   1      38.418  29.496  29.637  1.00  0.00     0.200 A 
ATOM     94  F   UNL A   1      39.063  29.130  31.878  1.00  0.00    -0.200 F 
ATOM     95  F   UNL A   1      37.158  29.739  30.022  1.00  0.00    -0.200 F 
ENDBRANCH  61  85
BRANCH  73  96
ATOM     96  C   UNL A   1      46.618  33.238  28.642  1.00  0.00     0.064 A 
ATOM     97  C   UNL A   1      46.992  33.677  29.921  1.00  0.00     0.173 A 
ATOM     98  C   UNL A   1      46.413  34.209  27.650  1.00  0.00     0.173 A 
ATOM     99  F   UNL A   1      47.191  32.792  30.909  1.00  0.00    -0.203 F 
ATOM    100  C   UNL A   1      47.108  35.036  30.205  1.00  0.00     0.198 A 
ATOM    101  C   UNL A   1      46.568  35.565  27.928  1.00  0.00     0.198 A 
ATOM    102  F   UNL A   1      46.065  33.844  26.407  1.00  0.00    -0.203 F 
ATOM    103  F   UNL A   1      47.397  35.434  31.453  1.00  0.00    -0.200 F 
ATOM    104  C   UNL A   1      46.901  35.977  29.209  1.00  0.00     0.200 A 
ATOM    105  F   UNL A   1      46.385  36.471  26.958  1.00  0.00    -0.200 F 
ATOM    106  F   UNL A   1      47.012  37.283  29.485  1.00  0.00    -0.200 F 
ENDBRANCH  73  96
ENDBRANCH  47  48
ENDBRANCH  39  42
ENDBRANCH  37  38
ENDBRANCH  36  37
ENDBRANCH  35  36
ENDBRANCH  34  35
ENDBRANCH   3  34
TORSDOF 18
ENDMDL
