MODEL 1
REMARK VINA RESULT:     -13.4      0.000      0.000
REMARK SMILES COc1ccc2c(c1)c(CC(=O)NCCCCNC(=O)c1ccc(-c3c4nc(c(-c5c(F)c(F)c(F)c(F)c5F)c5ccc([nH]5)c(-c5c(F)c(F)c(F)c(F)c5F)c5nc(c(-c6c(F)c(F)c(F)c(F)c6F)c6ccc3[nH]6)C=C5)C=C4)cc1)c(C)n2Cc1ccn(C(F)F)c(=O)c1
REMARK SMILES IDX 14 1 13 2 11 3 12 4 10 6 9 7 3 8 4 9 8 10 5 11 7 12 6 13
REMARK SMILES IDX 86 14 84 15 85 16 2 17 1 18 87 19 88 20 89 21 97 22 90 23
REMARK SMILES IDX 95 24 91 25 96 26 92 27 93 28 94 29 15 30 16 31 17 32 18 33
REMARK SMILES IDX 19 34 20 36 21 37 22 38 83 39 23 40 82 41 24 42 25 43 26 44
REMARK SMILES IDX 76 45 27 46 81 47 75 48 77 49 28 50 80 51 74 52 73 53 29 55
REMARK SMILES IDX 61 56 41 57 60 58 42 59 45 60 59 61 78 62 43 63 44 64 58 66
REMARK SMILES IDX 79 67 46 68 30 69 31 70 39 71 32 72 33 73 37 74 40 75 34 76
REMARK SMILES IDX 35 77 38 78 36 79 62 80 63 81 71 82 64 83 65 84 69 85 72 86
REMARK SMILES IDX 66 87 67 88 70 89 68 90 47 91 48 92 56 93 49 94 50 95 54 96
REMARK SMILES IDX 57 97 51 98 52 99 55 100 53 101
REMARK H PARENT 13 5 18 35 77 54 45 65
REMARK Flexibility Score: inf
ROOT
ATOM      1  C   UNL A   1      33.667  28.664  27.102  1.00  0.00     0.116 C 
ENDROOT
BRANCH   1   2
ATOM      2  N   UNL A   1      33.773  28.367  25.688  1.00  0.00    -0.356 N 
ATOM      3  C   UNL A   1      33.582  27.178  25.039  1.00  0.00     0.224 C 
ATOM      4  O   UNL A   1      33.700  27.167  23.811  1.00  0.00    -0.275 OA
ATOM      5  H   UNL A   1      34.016  29.128  25.113  1.00  0.00     0.163 HD
BRANCH   3   6
ATOM      6  C   UNL A   1      33.160  25.930  25.803  1.00  0.00     0.138 C 
BRANCH   6   7
ATOM      7  C   UNL A   1      33.365  24.663  25.028  1.00  0.00    -0.010 A 
ATOM      8  C   UNL A   1      36.823  23.090  25.346  1.00  0.00     0.119 A 
ATOM      9  C   UNL A   1      36.542  21.953  24.596  1.00  0.00     0.048 A 
ATOM     10  C   UNL A   1      35.825  24.033  25.583  1.00  0.00     0.057 A 
ATOM     11  C   UNL A   1      35.265  21.744  24.048  1.00  0.00     0.031 A 
ATOM     12  C   UNL A   1      34.546  23.869  25.011  1.00  0.00     0.007 A 
ATOM     13  C   UNL A   1      34.275  22.724  24.255  1.00  0.00     0.049 A 
ATOM     14  N   UNL A   1      32.946  22.809  23.854  1.00  0.00    -0.340 N 
ATOM     15  C   UNL A   1      32.465  24.075  24.148  1.00  0.00     0.020 A 
ATOM     16  C   UNL A   1      31.185  24.648  23.645  1.00  0.00     0.065 C 
BRANCH   8  17
ATOM     17  O   UNL A   1      38.025  23.333  25.956  1.00  0.00    -0.497 OA
ATOM     18  C   UNL A   1      38.865  22.189  26.073  1.00  0.00     0.278 C 
ENDBRANCH   8  17
BRANCH  14  19
ATOM     19  C   UNL A   1      32.202  21.738  23.175  1.00  0.00     0.158 C 
BRANCH  19  20
ATOM     20  C   UNL A   1      32.470  20.352  23.732  1.00  0.00    -0.021 A 
ATOM     21  C   UNL A   1      32.465  20.145  25.169  1.00  0.00     0.024 A 
ATOM     22  C   UNL A   1      32.645  19.276  22.941  1.00  0.00     0.077 A 
ATOM     23  C   UNL A   1      32.774  18.957  25.698  1.00  0.00     0.095 A 
ATOM     24  C   UNL A   1      32.905  17.925  23.518  1.00  0.00     0.255 A 
ATOM     25  N   UNL A   1      33.036  17.867  24.892  1.00  0.00    -0.258 N 
ATOM     26  O   UNL A   1      32.992  16.966  22.746  1.00  0.00    -0.269 OA
BRANCH  25  27
ATOM     27  C   UNL A   1      33.347  16.589  25.481  1.00  0.00     0.451 C 
ATOM     28  F   UNL A   1      32.402  15.672  25.158  1.00  0.00    -0.185 F 
ATOM     29  F   UNL A   1      34.537  16.127  25.034  1.00  0.00    -0.185 F 
ENDBRANCH  25  27
ENDBRANCH  19  20
ENDBRANCH  14  19
ENDBRANCH   6   7
ENDBRANCH   3   6
ENDBRANCH   1   2
BRANCH   1  30
ATOM     30  C   UNL A   1      34.469  29.905  27.499  1.00  0.00     0.023 C 
BRANCH  30  31
ATOM     31  C   UNL A   1      33.653  31.203  27.612  1.00  0.00     0.023 C 
BRANCH  31  32
ATOM     32  C   UNL A   1      34.410  32.393  28.207  1.00  0.00     0.116 C 
BRANCH  32  33
ATOM     33  N   UNL A   1      34.456  32.392  29.657  1.00  0.00    -0.352 N 
ATOM     34  C   UNL A   1      35.333  31.943  30.602  1.00  0.00     0.251 C 
ATOM     35  H   UNL A   1      33.663  32.818  30.056  1.00  0.00     0.163 HD
ATOM     36  O   UNL A   1      35.062  32.256  31.767  1.00  0.00    -0.269 OA
BRANCH  34  37
ATOM     37  C   UNL A   1      36.509  31.065  30.353  1.00  0.00     0.039 A 
ATOM     38  C   UNL A   1      36.540  29.683  30.523  1.00  0.00     0.014 A 
ATOM     39  C   UNL A   1      37.708  31.728  30.016  1.00  0.00     0.014 A 
ATOM     40  C   UNL A   1      37.749  28.998  30.459  1.00  0.00     0.010 A 
ATOM     41  C   UNL A   1      38.921  31.050  29.959  1.00  0.00     0.010 A 
ATOM     42  C   UNL A   1      38.944  29.689  30.228  1.00  0.00    -0.014 A 
BRANCH  42  43
ATOM     43  C   UNL A   1      40.177  28.909  30.178  1.00  0.00     0.031 A 
ATOM     44  C   UNL A   1      40.836  28.728  31.499  1.00  0.00     0.074 A 
ATOM     45  C   UNL A   1      40.660  28.321  29.063  1.00  0.00     0.049 A 
ATOM     46  N   UNL A   1      41.998  29.155  31.869  1.00  0.00    -0.248 NA
ATOM     47  C   UNL A   1      40.065  28.085  32.575  1.00  0.00     0.031 C 
ATOM     48  C   UNL A   1      39.984  28.163  27.774  1.00  0.00     0.029 A 
ATOM     49  N   UNL A   1      41.840  27.652  28.878  1.00  0.00    -0.354 N 
ATOM     50  C   UNL A   1      42.182  28.692  33.169  1.00  0.00     0.074 A 
ATOM     51  C   UNL A   1      40.919  28.152  33.598  1.00  0.00     0.031 C 
ATOM     52  C   UNL A   1      40.651  27.254  27.029  1.00  0.00     0.029 A 
ATOM     53  C   UNL A   1      41.879  26.890  27.718  1.00  0.00     0.049 A 
ATOM     54  H   UNL A   1      42.592  27.706  29.510  1.00  0.00     0.167 HD
ATOM     55  C   UNL A   1      43.429  28.576  33.702  1.00  0.00     0.037 A 
ATOM     56  C   UNL A   1      42.830  25.989  27.374  1.00  0.00     0.037 A 
ATOM     57  C   UNL A   1      44.406  29.281  32.920  1.00  0.00     0.049 A 
ATOM     58  C   UNL A   1      44.074  26.339  28.098  1.00  0.00     0.074 A 
ATOM     59  C   UNL A   1      44.868  30.572  32.809  1.00  0.00     0.029 A 
ATOM     60  N   UNL A   1      44.816  28.601  31.808  1.00  0.00    -0.354 N 
ATOM     61  N   UNL A   1      44.763  27.423  27.876  1.00  0.00    -0.248 NA
ATOM     62  C   UNL A   1      44.434  25.606  29.309  1.00  0.00     0.031 C 
ATOM     63  C   UNL A   1      45.454  30.679  31.511  1.00  0.00     0.029 A 
ATOM     64  C   UNL A   1      45.357  29.443  30.875  1.00  0.00     0.049 A 
ATOM     65  H   UNL A   1      44.733  27.626  31.692  1.00  0.00     0.167 HD
ATOM     66  C   UNL A   1      45.316  27.727  29.102  1.00  0.00     0.074 A 
ATOM     67  C   UNL A   1      45.246  26.499  29.879  1.00  0.00     0.031 C 
ATOM     68  C   UNL A   1      45.464  29.022  29.499  1.00  0.00     0.037 A 
BRANCH  55  69
ATOM     69  C   UNL A   1      43.853  27.476  34.643  1.00  0.00     0.064 A 
ATOM     70  C   UNL A   1      43.913  26.144  34.184  1.00  0.00     0.173 A 
ATOM     71  C   UNL A   1      43.891  27.642  36.044  1.00  0.00     0.173 A 
ATOM     72  F   UNL A   1      43.838  25.871  32.873  1.00  0.00    -0.203 F 
ATOM     73  C   UNL A   1      43.970  25.062  35.067  1.00  0.00     0.198 A 
ATOM     74  C   UNL A   1      43.999  26.562  36.920  1.00  0.00     0.198 A 
ATOM     75  F   UNL A   1      43.706  28.837  36.617  1.00  0.00    -0.203 F 
ATOM     76  F   UNL A   1      43.923  23.809  34.593  1.00  0.00    -0.200 F 
ATOM     77  C   UNL A   1      44.015  25.271  36.434  1.00  0.00     0.200 A 
ATOM     78  F   UNL A   1      44.008  26.785  38.241  1.00  0.00    -0.200 F 
ATOM     79  F   UNL A   1      44.026  24.236  37.284  1.00  0.00    -0.200 F 
ENDBRANCH  55  69
BRANCH  56  80
ATOM     80  C   UNL A   1      42.658  24.674  26.710  1.00  0.00     0.064 A 
ATOM     81  C   UNL A   1      43.233  24.428  25.450  1.00  0.00     0.173 A 
ATOM     82  C   UNL A   1      42.217  23.545  27.426  1.00  0.00     0.173 A 
ATOM     83  F   UNL A   1      43.704  25.444  24.712  1.00  0.00    -0.203 F 
ATOM     84  C   UNL A   1      43.416  23.129  24.966  1.00  0.00     0.198 A 
ATOM     85  C   UNL A   1      42.394  22.249  26.938  1.00  0.00     0.198 A 
ATOM     86  F   UNL A   1      41.707  23.667  28.659  1.00  0.00    -0.203 F 
ATOM     87  F   UNL A   1      44.050  22.932  23.802  1.00  0.00    -0.200 F 
ATOM     88  C   UNL A   1      43.014  22.040  25.721  1.00  0.00     0.200 A 
ATOM     89  F   UNL A   1      42.029  21.202  27.692  1.00  0.00    -0.200 F 
ATOM     90  F   UNL A   1      43.264  20.793  25.298  1.00  0.00    -0.200 F 
ENDBRANCH  56  80
BRANCH  68  91
ATOM     91  C   UNL A   1      45.555  30.067  28.435  1.00  0.00     0.064 A 
ATOM     92  C   UNL A   1      44.451  30.718  27.863  1.00  0.00     0.173 A 
ATOM     93  C   UNL A   1      46.834  30.479  28.035  1.00  0.00     0.173 A 
ATOM     94  F   UNL A   1      43.202  30.426  28.250  1.00  0.00    -0.203 F 
ATOM     95  C   UNL A   1      44.625  31.715  26.905  1.00  0.00     0.198 A 
ATOM     96  C   UNL A   1      47.005  31.499  27.107  1.00  0.00     0.198 A 
ATOM     97  F   UNL A   1      47.923  29.911  28.578  1.00  0.00    -0.203 F 
ATOM     98  F   UNL A   1      43.560  32.315  26.355  1.00  0.00    -0.200 F 
ATOM     99  C   UNL A   1      45.902  32.110  26.535  1.00  0.00     0.200 A 
ATOM    100  F   UNL A   1      48.241  31.902  26.784  1.00  0.00    -0.200 F 
ATOM    101  F   UNL A   1      46.070  33.095  25.642  1.00  0.00    -0.200 F 
ENDBRANCH  68  91
ENDBRANCH  42  43
ENDBRANCH  34  37
ENDBRANCH  32  33
ENDBRANCH  31  32
ENDBRANCH  30  31
ENDBRANCH   1  30
TORSDOF 16
ENDMDL
MODEL 2
REMARK VINA RESULT:     -13.3      4.014      9.450
REMARK SMILES COc1ccc2c(c1)c(CC(=O)NCCCCNC(=O)c1ccc(-c3c4nc(c(-c5c(F)c(F)c(F)c(F)c5F)c5ccc([nH]5)c(-c5c(F)c(F)c(F)c(F)c5F)c5nc(c(-c6c(F)c(F)c(F)c(F)c6F)c6ccc3[nH]6)C=C5)C=C4)cc1)c(C)n2Cc1ccn(C(F)F)c(=O)c1
REMARK SMILES IDX 14 1 13 2 11 3 12 4 10 6 9 7 3 8 4 9 8 10 5 11 7 12 6 13
REMARK SMILES IDX 86 14 84 15 85 16 2 17 1 18 87 19 88 20 89 21 97 22 90 23
REMARK SMILES IDX 95 24 91 25 96 26 92 27 93 28 94 29 15 30 16 31 17 32 18 33
REMARK SMILES IDX 19 34 20 36 21 37 22 38 83 39 23 40 82 41 24 42 25 43 26 44
REMARK SMILES IDX 76 45 27 46 81 47 75 48 77 49 28 50 80 51 74 52 73 53 29 55
REMARK SMILES IDX 61 56 41 57 60 58 42 59 45 60 59 61 78 62 43 63 44 64 58 66
REMARK SMILES IDX 79 67 46 68 30 69 31 70 39 71 32 72 33 73 37 74 40 75 34 76
REMARK SMILES IDX 35 77 38 78 36 79 62 80 63 81 71 82 64 83 65 84 69 85 72 86
REMARK SMILES IDX 66 87 67 88 70 89 68 90 47 91 48 92 56 93 49 94 50 95 54 96
REMARK SMILES IDX 57 97 51 98 52 99 55 100 53 101
REMARK H PARENT 13 5 18 35 77 54 45 65
REMARK Flexibility Score: inf
ROOT
ATOM      1  C   UNL A   1      37.179  22.813  24.748  1.00  0.00     0.116 C 
ENDROOT
BRANCH   1   2
ATOM      2  N   UNL A   1      36.264  23.357  23.765  1.00  0.00    -0.356 N 
ATOM      3  C   UNL A   1      35.137  24.108  23.956  1.00  0.00     0.224 C 
ATOM      4  O   UNL A   1      34.523  24.490  22.957  1.00  0.00    -0.275 OA
ATOM      5  H   UNL A   1      36.486  23.160  22.826  1.00  0.00     0.163 HD
BRANCH   3   6
ATOM      6  C   UNL A   1      34.703  24.523  25.355  1.00  0.00     0.138 C 
BRANCH   6   7
ATOM      7  C   UNL A   1      33.355  25.178  25.388  1.00  0.00    -0.010 A 
ATOM      8  C   UNL A   1      33.260  28.648  26.965  1.00  0.00     0.119 A 
ATOM      9  C   UNL A   1      31.918  28.898  26.698  1.00  0.00     0.048 A 
ATOM     10  C   UNL A   1      33.845  27.458  26.536  1.00  0.00     0.057 A 
ATOM     11  C   UNL A   1      31.127  27.958  26.016  1.00  0.00     0.031 A 
ATOM     12  C   UNL A   1      33.064  26.479  25.886  1.00  0.00     0.007 A 
ATOM     13  C   UNL A   1      31.715  26.741  25.626  1.00  0.00     0.049 A 
ATOM     14  N   UNL A   1      31.212  25.633  24.952  1.00  0.00    -0.340 N 
ATOM     15  C   UNL A   1      32.148  24.612  24.995  1.00  0.00     0.020 A 
ATOM     16  C   UNL A   1      31.893  23.192  24.624  1.00  0.00     0.065 C 
BRANCH   8  17
ATOM     17  O   UNL A   1      34.103  29.538  27.573  1.00  0.00    -0.497 OA
ATOM     18  C   UNL A   1      33.826  30.904  27.279  1.00  0.00     0.278 C 
ENDBRANCH   8  17
BRANCH  14  19
ATOM     19  C   UNL A   1      29.874  25.552  24.348  1.00  0.00     0.158 C 
BRANCH  19  20
ATOM     20  C   UNL A   1      29.428  26.832  23.665  1.00  0.00    -0.021 A 
ATOM     21  C   UNL A   1      30.336  27.514  22.761  1.00  0.00     0.024 A 
ATOM     22  C   UNL A   1      28.186  27.332  23.807  1.00  0.00     0.077 A 
ATOM     23  C   UNL A   1      30.008  28.684  22.203  1.00  0.00     0.095 A 
ATOM     24  C   UNL A   1      27.775  28.592  23.120  1.00  0.00     0.255 A 
ATOM     25  N   UNL A   1      28.763  29.245  22.410  1.00  0.00    -0.258 N 
ATOM     26  O   UNL A   1      26.605  28.966  23.235  1.00  0.00    -0.269 OA
BRANCH  25  27
ATOM     27  C   UNL A   1      28.420  30.497  21.784  1.00  0.00     0.451 C 
ATOM     28  F   UNL A   1      29.532  31.244  21.570  1.00  0.00    -0.185 F 
ATOM     29  F   UNL A   1      27.826  30.293  20.586  1.00  0.00    -0.185 F 
ENDBRANCH  25  27
ENDBRANCH  19  20
ENDBRANCH  14  19
ENDBRANCH   6   7
ENDBRANCH   3   6
ENDBRANCH   1   2
BRANCH   1  30
ATOM     30  C   UNL A   1      37.374  21.303  24.590  1.00  0.00     0.023 C 
BRANCH  30  31
ATOM     31  C   UNL A   1      38.602  20.724  25.310  1.00  0.00     0.023 C 
BRANCH  31  32
ATOM     32  C   UNL A   1      39.287  21.679  26.291  1.00  0.00     0.116 C 
BRANCH  32  33
ATOM     33  N   UNL A   1      40.687  21.917  25.995  1.00  0.00    -0.352 N 
ATOM     34  C   UNL A   1      41.592  22.895  26.292  1.00  0.00     0.251 C 
ATOM     35  H   UNL A   1      41.080  21.200  25.445  1.00  0.00     0.163 HD
ATOM     36  O   UNL A   1      42.757  22.662  25.949  1.00  0.00    -0.269 OA
BRANCH  34  37
ATOM     37  C   UNL A   1      41.279  24.215  26.906  1.00  0.00     0.039 A 
ATOM     38  C   UNL A   1      40.410  25.168  26.381  1.00  0.00     0.014 A 
ATOM     39  C   UNL A   1      42.017  24.543  28.063  1.00  0.00     0.014 A 
ATOM     40  C   UNL A   1      40.356  26.444  26.934  1.00  0.00     0.010 A 
ATOM     41  C   UNL A   1      41.973  25.818  28.615  1.00  0.00     0.010 A 
ATOM     42  C   UNL A   1      41.173  26.782  28.017  1.00  0.00    -0.014 A 
BRANCH  42  43
ATOM     43  C   UNL A   1      41.070  28.140  28.544  1.00  0.00     0.031 A 
ATOM     44  C   UNL A   1      42.133  29.062  28.065  1.00  0.00     0.074 A 
ATOM     45  C   UNL A   1      40.064  28.574  29.333  1.00  0.00     0.049 A 
ATOM     46  N   UNL A   1      43.041  29.656  28.767  1.00  0.00    -0.248 NA
ATOM     47  C   UNL A   1      42.271  29.266  26.614  1.00  0.00     0.031 C 
ATOM     48  C   UNL A   1      38.812  27.880  29.644  1.00  0.00     0.029 A 
ATOM     49  N   UNL A   1      39.911  29.783  29.956  1.00  0.00    -0.354 N 
ATOM     50  C   UNL A   1      43.763  30.443  27.874  1.00  0.00     0.074 A 
ATOM     51  C   UNL A   1      43.333  30.071  26.552  1.00  0.00     0.031 C 
ATOM     52  C   UNL A   1      37.940  28.758  30.190  1.00  0.00     0.029 A 
ATOM     53  C   UNL A   1      38.622  30.023  30.412  1.00  0.00     0.049 A 
ATOM     54  H   UNL A   1      40.649  30.425  30.071  1.00  0.00     0.167 HD
ATOM     55  C   UNL A   1      44.488  31.510  28.308  1.00  0.00     0.037 A 
ATOM     56  C   UNL A   1      38.139  31.194  30.892  1.00  0.00     0.037 A 
ATOM     57  C   UNL A   1      44.669  31.482  29.732  1.00  0.00     0.049 A 
ATOM     58  C   UNL A   1      39.283  31.991  31.391  1.00  0.00     0.074 A 
ATOM     59  C   UNL A   1      45.522  30.881  30.629  1.00  0.00     0.029 A 
ATOM     60  N   UNL A   1      43.585  31.930  30.434  1.00  0.00    -0.354 N 
ATOM     61  N   UNL A   1      40.005  31.656  32.424  1.00  0.00    -0.248 NA
ATOM     62  C   UNL A   1      39.835  33.058  30.561  1.00  0.00     0.031 C 
ATOM     63  C   UNL A   1      44.839  30.860  31.882  1.00  0.00     0.029 A 
ATOM     64  C   UNL A   1      43.598  31.472  31.724  1.00  0.00     0.049 A 
ATOM     65  H   UNL A   1      42.884  32.511  30.059  1.00  0.00     0.167 HD
ATOM     66  C   UNL A   1      41.259  32.148  32.130  1.00  0.00     0.074 A 
ATOM     67  C   UNL A   1      41.055  33.149  31.094  1.00  0.00     0.031 C 
ATOM     68  C   UNL A   1      42.380  31.467  32.498  1.00  0.00     0.037 A 
BRANCH  55  69
ATOM     69  C   UNL A   1      44.643  32.802  27.544  1.00  0.00     0.064 A 
ATOM     70  C   UNL A   1      45.821  33.045  26.809  1.00  0.00     0.173 A 
ATOM     71  C   UNL A   1      43.821  33.927  27.770  1.00  0.00     0.173 A 
ATOM     72  F   UNL A   1      46.696  32.055  26.576  1.00  0.00    -0.203 F 
ATOM     73  C   UNL A   1      46.164  34.326  26.367  1.00  0.00     0.198 A 
ATOM     74  C   UNL A   1      44.141  35.193  27.284  1.00  0.00     0.198 A 
ATOM     75  F   UNL A   1      42.747  33.865  28.566  1.00  0.00    -0.203 F 
ATOM     76  F   UNL A   1      47.341  34.532  25.759  1.00  0.00    -0.200 F 
ATOM     77  C   UNL A   1      45.323  35.399  26.602  1.00  0.00     0.200 A 
ATOM     78  F   UNL A   1      43.330  36.226  27.551  1.00  0.00    -0.200 F 
ATOM     79  F   UNL A   1      45.668  36.635  26.219  1.00  0.00    -0.200 F 
ENDBRANCH  55  69
BRANCH  56  80
ATOM     80  C   UNL A   1      36.804  31.802  30.669  1.00  0.00     0.064 A 
ATOM     81  C   UNL A   1      35.892  31.933  31.732  1.00  0.00     0.173 A 
ATOM     82  C   UNL A   1      36.525  32.552  29.511  1.00  0.00     0.173 A 
ATOM     83  F   UNL A   1      36.095  31.275  32.883  1.00  0.00    -0.203 F 
ATOM     84  C   UNL A   1      34.806  32.812  31.663  1.00  0.00     0.198 A 
ATOM     85  C   UNL A   1      35.437  33.422  29.442  1.00  0.00     0.198 A 
ATOM     86  F   UNL A   1      37.362  32.538  28.464  1.00  0.00    -0.203 F 
ATOM     87  F   UNL A   1      34.011  32.977  32.730  1.00  0.00    -0.200 F 
ATOM     88  C   UNL A   1      34.591  33.570  30.525  1.00  0.00     0.200 A 
ATOM     89  F   UNL A   1      35.257  34.174  28.346  1.00  0.00    -0.200 F 
ATOM     90  F   UNL A   1      33.602  34.473  30.489  1.00  0.00    -0.200 F 
ENDBRANCH  56  80
BRANCH  68  91
ATOM     91  C   UNL A   1      42.273  30.530  33.657  1.00  0.00     0.064 A 
ATOM     92  C   UNL A   1      42.403  30.910  35.002  1.00  0.00     0.173 A 
ATOM     93  C   UNL A   1      41.948  29.194  33.386  1.00  0.00     0.173 A 
ATOM     94  F   UNL A   1      42.643  32.184  35.338  1.00  0.00    -0.203 F 
ATOM     95  C   UNL A   1      42.245  29.979  36.027  1.00  0.00     0.198 A 
ATOM     96  C   UNL A   1      41.754  28.276  34.411  1.00  0.00     0.198 A 
ATOM     97  F   UNL A   1      41.778  28.788  32.117  1.00  0.00    -0.203 F 
ATOM     98  F   UNL A   1      42.390  30.354  37.306  1.00  0.00    -0.200 F 
ATOM     99  C   UNL A   1      41.913  28.666  35.731  1.00  0.00     0.200 A 
ATOM    100  F   UNL A   1      41.394  27.019  34.119  1.00  0.00    -0.200 F 
ATOM    101  F   UNL A   1      41.724  27.780  36.718  1.00  0.00    -0.200 F 
ENDBRANCH  68  91
ENDBRANCH  42  43
ENDBRANCH  34  37
ENDBRANCH  32  33
ENDBRANCH  31  32
ENDBRANCH  30  31
ENDBRANCH   1  30
TORSDOF 16
ENDMDL
MODEL 3
REMARK VINA RESULT:     -13.3      3.665      9.351
REMARK SMILES COc1ccc2c(c1)c(CC(=O)NCCCCNC(=O)c1ccc(-c3c4nc(c(-c5c(F)c(F)c(F)c(F)c5F)c5ccc([nH]5)c(-c5c(F)c(F)c(F)c(F)c5F)c5nc(c(-c6c(F)c(F)c(F)c(F)c6F)c6ccc3[nH]6)C=C5)C=C4)cc1)c(C)n2Cc1ccn(C(F)F)c(=O)c1
REMARK SMILES IDX 14 1 13 2 11 3 12 4 10 6 9 7 3 8 4 9 8 10 5 11 7 12 6 13
REMARK SMILES IDX 86 14 84 15 85 16 2 17 1 18 87 19 88 20 89 21 97 22 90 23
REMARK SMILES IDX 95 24 91 25 96 26 92 27 93 28 94 29 15 30 16 31 17 32 18 33
REMARK SMILES IDX 19 34 20 36 21 37 22 38 83 39 23 40 82 41 24 42 25 43 26 44
REMARK SMILES IDX 76 45 27 46 81 47 75 48 77 49 28 50 80 51 74 52 73 53 29 55
REMARK SMILES IDX 61 56 41 57 60 58 42 59 45 60 59 61 78 62 43 63 44 64 58 66
REMARK SMILES IDX 79 67 46 68 30 69 31 70 39 71 32 72 33 73 37 74 40 75 34 76
REMARK SMILES IDX 35 77 38 78 36 79 62 80 63 81 71 82 64 83 65 84 69 85 72 86
REMARK SMILES IDX 66 87 67 88 70 89 68 90 47 91 48 92 56 93 49 94 50 95 54 96
REMARK SMILES IDX 57 97 51 98 52 99 55 100 53 101
REMARK H PARENT 13 5 18 35 77 54 45 65
REMARK Flexibility Score: inf
ROOT
ATOM      1  C   UNL A   1      34.767  21.384  24.774  1.00  0.00     0.116 C 
ENDROOT
BRANCH   1   2
ATOM      2  N   UNL A   1      35.226  22.454  23.912  1.00  0.00    -0.356 N 
ATOM      3  C   UNL A   1      34.513  23.223  23.035  1.00  0.00     0.224 C 
ATOM      4  O   UNL A   1      35.116  24.106  22.420  1.00  0.00    -0.275 OA
ATOM      5  H   UNL A   1      36.188  22.656  23.965  1.00  0.00     0.163 HD
BRANCH   3   6
ATOM      6  C   UNL A   1      33.008  23.045  22.886  1.00  0.00     0.138 C 
BRANCH   6   7
ATOM      7  C   UNL A   1      32.221  24.231  23.358  1.00  0.00    -0.010 A 
ATOM      8  C   UNL A   1      30.240  23.705  26.573  1.00  0.00     0.119 A 
ATOM      9  C   UNL A   1      29.781  25.014  26.683  1.00  0.00     0.048 A 
ATOM     10  C   UNL A   1      31.090  23.351  25.526  1.00  0.00     0.057 A 
ATOM     11  C   UNL A   1      30.143  25.991  25.740  1.00  0.00     0.031 A 
ATOM     12  C   UNL A   1      31.435  24.301  24.543  1.00  0.00     0.007 A 
ATOM     13  C   UNL A   1      30.965  25.613  24.662  1.00  0.00     0.049 A 
ATOM     14  N   UNL A   1      31.487  26.328  23.589  1.00  0.00    -0.340 N 
ATOM     15  C   UNL A   1      32.071  25.443  22.696  1.00  0.00     0.020 A 
ATOM     16  C   UNL A   1      32.503  25.778  21.310  1.00  0.00     0.065 C 
BRANCH   8  17
ATOM     17  O   UNL A   1      29.976  22.717  27.483  1.00  0.00    -0.497 OA
ATOM     18  C   UNL A   1      28.626  22.261  27.478  1.00  0.00     0.278 C 
ENDBRANCH   8  17
BRANCH  14  19
ATOM     19  C   UNL A   1      31.375  27.783  23.414  1.00  0.00     0.158 C 
BRANCH  19  20
ATOM     20  C   UNL A   1      32.052  28.589  24.507  1.00  0.00    -0.021 A 
ATOM     21  C   UNL A   1      33.419  28.279  24.883  1.00  0.00     0.024 A 
ATOM     22  C   UNL A   1      31.457  29.640  25.105  1.00  0.00     0.077 A 
ATOM     23  C   UNL A   1      34.021  28.914  25.894  1.00  0.00     0.095 A 
ATOM     24  C   UNL A   1      32.148  30.415  26.176  1.00  0.00     0.255 A 
ATOM     25  N   UNL A   1      33.385  29.939  26.567  1.00  0.00    -0.258 N 
ATOM     26  O   UNL A   1      31.579  31.407  26.640  1.00  0.00    -0.269 OA
BRANCH  25  27
ATOM     27  C   UNL A   1      34.057  30.626  27.640  1.00  0.00     0.451 C 
ATOM     28  F   UNL A   1      35.077  29.874  28.124  1.00  0.00    -0.185 F 
ATOM     29  F   UNL A   1      34.577  31.800  27.215  1.00  0.00    -0.185 F 
ENDBRANCH  25  27
ENDBRANCH  19  20
ENDBRANCH  14  19
ENDBRANCH   6   7
ENDBRANCH   3   6
ENDBRANCH   1   2
BRANCH   1  30
ATOM     30  C   UNL A   1      35.914  20.502  25.272  1.00  0.00     0.023 C 
BRANCH  30  31
ATOM     31  C   UNL A   1      37.319  20.951  24.841  1.00  0.00     0.023 C 
BRANCH  31  32
ATOM     32  C   UNL A   1      38.029  21.887  25.822  1.00  0.00     0.116 C 
BRANCH  32  33
ATOM     33  N   UNL A   1      39.476  21.802  25.770  1.00  0.00    -0.352 N 
ATOM     34  C   UNL A   1      40.512  22.504  26.315  1.00  0.00     0.251 C 
ATOM     35  H   UNL A   1      39.786  21.059  25.203  1.00  0.00     0.163 HD
ATOM     36  O   UNL A   1      41.636  22.023  26.125  1.00  0.00    -0.269 OA
BRANCH  34  37
ATOM     37  C   UNL A   1      40.403  23.805  27.030  1.00  0.00     0.039 A 
ATOM     38  C   UNL A   1      39.436  24.780  26.798  1.00  0.00     0.014 A 
ATOM     39  C   UNL A   1      41.440  24.091  27.943  1.00  0.00     0.014 A 
ATOM     40  C   UNL A   1      39.558  26.037  27.381  1.00  0.00     0.010 A 
ATOM     41  C   UNL A   1      41.572  25.348  28.522  1.00  0.00     0.010 A 
ATOM     42  C   UNL A   1      40.652  26.336  28.201  1.00  0.00    -0.014 A 
BRANCH  42  43
ATOM     43  C   UNL A   1      40.720  27.676  28.776  1.00  0.00     0.031 A 
ATOM     44  C   UNL A   1      41.827  28.512  28.240  1.00  0.00     0.074 A 
ATOM     45  C   UNL A   1      39.825  28.172  29.656  1.00  0.00     0.049 A 
ATOM     46  N   UNL A   1      42.839  28.993  28.883  1.00  0.00    -0.248 NA
ATOM     47  C   UNL A   1      41.870  28.757  26.789  1.00  0.00     0.031 C 
ATOM     48  C   UNL A   1      38.540  27.587  30.046  1.00  0.00     0.029 A 
ATOM     49  N   UNL A   1      39.838  29.366  30.325  1.00  0.00    -0.354 N 
ATOM     50  C   UNL A   1      43.562  29.742  27.959  1.00  0.00     0.074 A 
ATOM     51  C   UNL A   1      42.996  29.462  26.666  1.00  0.00     0.031 C 
ATOM     52  C   UNL A   1      37.801  28.521  30.686  1.00  0.00     0.029 A 
ATOM     53  C   UNL A   1      38.616  29.708  30.891  1.00  0.00     0.049 A 
ATOM     54  H   UNL A   1      40.640  29.931  30.399  1.00  0.00     0.167 HD
ATOM     55  C   UNL A   1      44.417  30.720  28.365  1.00  0.00     0.037 A 
ATOM     56  C   UNL A   1      38.287  30.900  31.443  1.00  0.00     0.037 A 
ATOM     57  C   UNL A   1      44.705  30.621  29.769  1.00  0.00     0.049 A 
ATOM     58  C   UNL A   1      39.537  31.567  31.872  1.00  0.00     0.074 A 
ATOM     59  C   UNL A   1      45.564  29.910  30.575  1.00  0.00     0.029 A 
ATOM     60  N   UNL A   1      43.727  31.142  30.569  1.00  0.00    -0.354 N 
ATOM     61  N   UNL A   1      40.302  31.128  32.832  1.00  0.00    -0.248 NA
ATOM     62  C   UNL A   1      40.123  32.609  31.033  1.00  0.00     0.031 C 
ATOM     63  C   UNL A   1      44.981  29.906  31.878  1.00  0.00     0.029 A 
ATOM     64  C   UNL A   1      43.796  30.636  31.839  1.00  0.00     0.049 A 
ATOM     65  H   UNL A   1      43.058  31.798  30.270  1.00  0.00     0.167 HD
ATOM     66  C   UNL A   1      41.571  31.512  32.454  1.00  0.00     0.074 A 
ATOM     67  C   UNL A   1      41.384  32.565  31.467  1.00  0.00     0.031 C 
ATOM     68  C   UNL A   1      42.647  30.716  32.709  1.00  0.00     0.037 A 
BRANCH  55  69
ATOM     69  C   UNL A   1      44.636  32.019  27.631  1.00  0.00     0.064 A 
ATOM     70  C   UNL A   1      45.828  32.223  26.905  1.00  0.00     0.173 A 
ATOM     71  C   UNL A   1      43.866  33.175  27.878  1.00  0.00     0.173 A 
ATOM     72  F   UNL A   1      46.657  31.199  26.654  1.00  0.00    -0.203 F 
ATOM     73  C   UNL A   1      46.231  33.496  26.493  1.00  0.00     0.198 A 
ATOM     74  C   UNL A   1      44.247  34.436  27.421  1.00  0.00     0.198 A 
ATOM     75  F   UNL A   1      42.786  33.146  28.668  1.00  0.00    -0.203 F 
ATOM     76  F   UNL A   1      47.420  33.660  25.894  1.00  0.00    -0.200 F 
ATOM     77  C   UNL A   1      45.440  34.602  26.749  1.00  0.00     0.200 A 
ATOM     78  F   UNL A   1      43.483  35.499  27.708  1.00  0.00    -0.200 F 
ATOM     79  F   UNL A   1      45.844  35.828  26.393  1.00  0.00    -0.200 F 
ENDBRANCH  55  69
BRANCH  56  80
ATOM     80  C   UNL A   1      37.003  31.638  31.348  1.00  0.00     0.064 A 
ATOM     81  C   UNL A   1      36.292  31.988  32.510  1.00  0.00     0.173 A 
ATOM     82  C   UNL A   1      36.621  32.290  30.160  1.00  0.00     0.173 A 
ATOM     83  F   UNL A   1      36.609  31.435  33.689  1.00  0.00    -0.203 F 
ATOM     84  C   UNL A   1      35.305  32.979  32.495  1.00  0.00     0.198 A 
ATOM     85  C   UNL A   1      35.631  33.273  30.147  1.00  0.00     0.198 A 
ATOM     86  F   UNL A   1      37.273  32.067  29.011  1.00  0.00    -0.203 F 
ATOM     87  F   UNL A   1      34.714  33.350  33.640  1.00  0.00    -0.200 F 
ATOM     88  C   UNL A   1      34.990  33.635  31.317  1.00  0.00     0.200 A 
ATOM     89  F   UNL A   1      35.356  33.923  29.007  1.00  0.00    -0.200 F 
ATOM     90  F   UNL A   1      34.106  34.642  31.318  1.00  0.00    -0.200 F 
ENDBRANCH  56  80
BRANCH  68  91
ATOM     91  C   UNL A   1      42.541  29.750  33.844  1.00  0.00     0.064 A 
ATOM     92  C   UNL A   1      42.010  28.454  33.739  1.00  0.00     0.173 A 
ATOM     93  C   UNL A   1      43.074  30.137  35.081  1.00  0.00     0.173 A 
ATOM     94  F   UNL A   1      41.549  27.991  32.570  1.00  0.00    -0.203 F 
ATOM     95  C   UNL A   1      41.988  27.598  34.839  1.00  0.00     0.198 A 
ATOM     96  C   UNL A   1      43.084  29.269  36.166  1.00  0.00     0.198 A 
ATOM     97  F   UNL A   1      43.624  31.353  35.224  1.00  0.00    -0.203 F 
ATOM     98  F   UNL A   1      41.462  26.370  34.727  1.00  0.00    -0.200 F 
ATOM     99  C   UNL A   1      42.532  28.004  36.048  1.00  0.00     0.200 A 
ATOM    100  F   UNL A   1      43.647  29.652  37.319  1.00  0.00    -0.200 F 
ATOM    101  F   UNL A   1      42.545  27.168  37.095  1.00  0.00    -0.200 F 
ENDBRANCH  68  91
ENDBRANCH  42  43
ENDBRANCH  34  37
ENDBRANCH  32  33
ENDBRANCH  31  32
ENDBRANCH  30  31
ENDBRANCH   1  30
TORSDOF 16
ENDMDL
