MODEL 1
REMARK VINA RESULT:     -13.3      0.000      0.000
REMARK SMILES CC1(C)CCN(C(=O)N[C@](C)(C(=O)NCCCCNC(=O)c2ccc(-c3c4nc(c(-c5c(F)c(F)c(F)c(F)c5F)c5ccc([nH]5)c(-c5c(F)c(F)c(F)c(F)c5F)c5nc(c(-c6c(F)c(F)c(F)c(F)c6F)c6ccc3[nH]6)C=C5)C=C4)cc2)c2ccccc2)C1
REMARK SMILES IDX 16 1 15 2 14 3 12 4 13 5 10 7 11 8 9 9 7 10 8 11 6 13 1 14
REMARK SMILES IDX 2 15 3 16 4 17 91 18 5 19 85 20 86 21 90 22 87 23 89 24
REMARK SMILES IDX 88 25 17 26 18 27 19 28 20 29 21 31 22 32 23 33 84 34 24 35
REMARK SMILES IDX 83 36 25 37 26 38 27 39 77 40 28 41 82 42 76 43 78 44 29 45
REMARK SMILES IDX 81 46 75 47 74 48 30 50 62 51 42 52 61 53 43 54 46 55 60 56
REMARK SMILES IDX 79 57 44 58 45 59 59 61 80 62 47 63 31 64 32 65 40 66 33 67
REMARK SMILES IDX 34 68 38 69 41 70 35 71 36 72 39 73 37 74 63 75 64 76 72 77
REMARK SMILES IDX 65 78 66 79 70 80 73 81 67 82 68 83 71 84 69 85 48 86 49 87
REMARK SMILES IDX 57 88 50 89 51 90 55 91 58 92 52 93 53 94 56 95 54 96
REMARK H PARENT 14 6 9 12 19 30 78 49 46 60
REMARK Flexibility Score: inf
ROOT
ATOM      1  C   UNL A   1      37.176  21.441  24.567  1.00  0.00     0.023 C 
ENDROOT
BRANCH   1   2
ATOM      2  C   UNL A   1      36.503  22.351  25.602  1.00  0.00     0.116 C 
BRANCH   2   3
ATOM      3  N   UNL A   1      35.537  21.621  26.394  1.00  0.00    -0.354 N 
ATOM      4  C   UNL A   1      34.228  21.295  26.221  1.00  0.00     0.250 C 
ATOM      5  O   UNL A   1      33.654  21.073  27.298  1.00  0.00    -0.272 OA
ATOM      6  H   UNL A   1      35.909  21.289  27.242  1.00  0.00     0.163 HD
BRANCH   4   7
ATOM      7  C   UNL A   1      33.472  21.236  24.811  1.00  0.00     0.143 C 
ATOM      8  C   UNL A   1      32.004  21.688  25.009  1.00  0.00     0.051 C 
BRANCH   7   9
ATOM      9  N   UNL A   1      34.049  22.255  23.883  1.00  0.00    -0.320 N 
ATOM     10  C   UNL A   1      33.427  23.247  23.208  1.00  0.00     0.318 C 
ATOM     11  O   UNL A   1      33.269  23.080  21.997  1.00  0.00    -0.249 OA
ATOM     12  H   UNL A   1      35.021  22.194  23.742  1.00  0.00     0.166 HD
BRANCH  10  13
ATOM     13  N   UNL A   1      33.219  24.454  23.812  1.00  0.00    -0.324 N 
ATOM     14  C   UNL A   1      33.969  27.331  25.850  1.00  0.00     0.013 C 
ATOM     15  C   UNL A   1      32.987  26.268  25.351  1.00  0.00    -0.016 C 
ATOM     16  C   UNL A   1      31.876  26.101  26.399  1.00  0.00     0.013 C 
ATOM     17  C   UNL A   1      32.350  26.652  23.998  1.00  0.00     0.030 C 
ATOM     18  C   UNL A   1      33.729  24.942  25.078  1.00  0.00     0.127 C 
ATOM     19  C   UNL A   1      32.773  25.574  23.013  1.00  0.00     0.122 C 
ENDBRANCH  10  13
ENDBRANCH   7   9
BRANCH   7  20
ATOM     20  C   UNL A   1      33.493  19.789  24.251  1.00  0.00    -0.013 A 
ATOM     21  C   UNL A   1      32.515  19.366  23.329  1.00  0.00     0.007 A 
ATOM     22  C   UNL A   1      34.465  18.835  24.626  1.00  0.00     0.007 A 
ATOM     23  C   UNL A   1      32.531  18.078  22.783  1.00  0.00     0.000 A 
ATOM     24  C   UNL A   1      34.460  17.537  24.108  1.00  0.00     0.000 A 
ATOM     25  C   UNL A   1      33.498  17.161  23.181  1.00  0.00     0.000 A 
ENDBRANCH   7  20
ENDBRANCH   4   7
ENDBRANCH   2   3
ENDBRANCH   1   2
BRANCH   1  26
ATOM     26  C   UNL A   1      37.899  20.216  25.142  1.00  0.00     0.023 C 
BRANCH  26  27
ATOM     27  C   UNL A   1      39.211  20.505  25.858  1.00  0.00     0.116 C 
BRANCH  27  28
ATOM     28  N   UNL A   1      40.100  19.354  25.902  1.00  0.00    -0.352 N 
ATOM     29  C   UNL A   1      41.458  19.317  26.120  1.00  0.00     0.251 C 
ATOM     30  H   UNL A   1      39.671  18.481  25.754  1.00  0.00     0.163 HD
ATOM     31  O   UNL A   1      42.077  18.271  26.024  1.00  0.00    -0.269 OA
BRANCH  29  32
ATOM     32  C   UNL A   1      42.166  20.577  26.431  1.00  0.00     0.039 A 
ATOM     33  C   UNL A   1      42.668  21.342  25.376  1.00  0.00     0.014 A 
ATOM     34  C   UNL A   1      42.283  21.019  27.751  1.00  0.00     0.014 A 
ATOM     35  C   UNL A   1      43.212  22.600  25.638  1.00  0.00     0.010 A 
ATOM     36  C   UNL A   1      42.769  22.297  28.004  1.00  0.00     0.010 A 
ATOM     37  C   UNL A   1      43.222  23.104  26.948  1.00  0.00    -0.014 A 
BRANCH  37  38
ATOM     38  C   UNL A   1      43.664  24.489  27.239  1.00  0.00     0.031 A 
ATOM     39  C   UNL A   1      42.680  25.505  27.739  1.00  0.00     0.074 A 
ATOM     40  C   UNL A   1      44.933  24.848  26.964  1.00  0.00     0.049 A 
ATOM     41  N   UNL A   1      42.849  26.785  27.954  1.00  0.00    -0.248 NA
ATOM     42  C   UNL A   1      41.318  25.022  28.008  1.00  0.00     0.031 C 
ATOM     43  C   UNL A   1      45.969  23.957  26.441  1.00  0.00     0.029 A 
ATOM     44  N   UNL A   1      45.562  26.063  27.072  1.00  0.00    -0.354 N 
ATOM     45  C   UNL A   1      41.613  27.262  28.365  1.00  0.00     0.074 A 
ATOM     46  C   UNL A   1      40.693  26.145  28.326  1.00  0.00     0.031 C 
ATOM     47  C   UNL A   1      47.111  24.649  26.296  1.00  0.00     0.029 A 
ATOM     48  C   UNL A   1      46.875  26.039  26.673  1.00  0.00     0.049 A 
ATOM     49  H   UNL A   1      45.113  26.874  27.403  1.00  0.00     0.167 HD
ATOM     50  C   UNL A   1      41.282  28.516  28.756  1.00  0.00     0.037 A 
ATOM     51  C   UNL A   1      47.784  27.031  26.609  1.00  0.00     0.037 A 
ATOM     52  C   UNL A   1      42.208  29.616  28.813  1.00  0.00     0.049 A 
ATOM     53  C   UNL A   1      47.378  28.422  27.009  1.00  0.00     0.074 A 
ATOM     54  C   UNL A   1      41.994  30.903  29.274  1.00  0.00     0.029 A 
ATOM     55  N   UNL A   1      43.527  29.559  28.384  1.00  0.00    -0.354 N 
ATOM     56  N   UNL A   1      46.227  28.849  27.468  1.00  0.00    -0.248 NA
ATOM     57  C   UNL A   1      48.399  29.471  26.875  1.00  0.00     0.031 C 
ATOM     58  C   UNL A   1      43.169  31.638  29.077  1.00  0.00     0.029 A 
ATOM     59  C   UNL A   1      44.128  30.798  28.535  1.00  0.00     0.049 A 
ATOM     60  H   UNL A   1      43.969  28.756  28.023  1.00  0.00     0.167 HD
ATOM     61  C   UNL A   1      46.390  30.208  27.700  1.00  0.00     0.074 A 
ATOM     62  C   UNL A   1      47.755  30.532  27.340  1.00  0.00     0.031 C 
ATOM     63  C   UNL A   1      45.489  31.104  28.171  1.00  0.00     0.037 A 
BRANCH  50  64
ATOM     64  C   UNL A   1      39.854  28.760  29.147  1.00  0.00     0.064 A 
ATOM     65  C   UNL A   1      39.403  28.551  30.459  1.00  0.00     0.173 A 
ATOM     66  C   UNL A   1      38.926  29.216  28.199  1.00  0.00     0.173 A 
ATOM     67  F   UNL A   1      40.248  28.103  31.400  1.00  0.00    -0.203 F 
ATOM     68  C   UNL A   1      38.067  28.751  30.798  1.00  0.00     0.198 A 
ATOM     69  C   UNL A   1      37.598  29.445  28.549  1.00  0.00     0.198 A 
ATOM     70  F   UNL A   1      39.307  29.438  26.932  1.00  0.00    -0.203 F 
ATOM     71  F   UNL A   1      37.647  28.489  32.044  1.00  0.00    -0.200 F 
ATOM     72  C   UNL A   1      37.168  29.203  29.845  1.00  0.00     0.200 A 
ATOM     73  F   UNL A   1      36.731  29.891  27.630  1.00  0.00    -0.200 F 
ATOM     74  F   UNL A   1      35.882  29.394  30.172  1.00  0.00    -0.200 F 
ENDBRANCH  50  64
BRANCH  51  75
ATOM     75  C   UNL A   1      49.172  26.735  26.174  1.00  0.00     0.064 A 
ATOM     76  C   UNL A   1      50.122  26.276  27.097  1.00  0.00     0.173 A 
ATOM     77  C   UNL A   1      49.574  26.888  24.840  1.00  0.00     0.173 A 
ATOM     78  F   UNL A   1      49.788  26.135  28.387  1.00  0.00    -0.203 F 
ATOM     79  C   UNL A   1      51.427  25.989  26.702  1.00  0.00     0.198 A 
ATOM     80  C   UNL A   1      50.874  26.578  24.442  1.00  0.00     0.198 A 
ATOM     81  F   UNL A   1      48.702  27.321  23.920  1.00  0.00    -0.203 F 
ATOM     82  F   UNL A   1      52.324  25.581  27.611  1.00  0.00    -0.200 F 
ATOM     83  C   UNL A   1      51.800  26.132  25.374  1.00  0.00     0.200 A 
ATOM     84  F   UNL A   1      51.228  26.706  23.156  1.00  0.00    -0.200 F 
ATOM     85  F   UNL A   1      53.053  25.848  24.994  1.00  0.00    -0.200 F 
ENDBRANCH  51  75
BRANCH  63  86
ATOM     86  C   UNL A   1      45.956  32.519  28.346  1.00  0.00     0.064 A 
ATOM     87  C   UNL A   1      46.552  32.950  29.539  1.00  0.00     0.173 A 
ATOM     88  C   UNL A   1      45.849  33.438  27.291  1.00  0.00     0.173 A 
ATOM     89  F   UNL A   1      46.659  32.113  30.581  1.00  0.00    -0.203 F 
ATOM     90  C   UNL A   1      47.012  34.258  29.675  1.00  0.00     0.198 A 
ATOM     91  C   UNL A   1      46.334  34.737  27.422  1.00  0.00     0.198 A 
ATOM     92  F   UNL A   1      45.289  33.072  26.129  1.00  0.00    -0.203 F 
ATOM     93  F   UNL A   1      47.545  34.660  30.837  1.00  0.00    -0.200 F 
ATOM     94  C   UNL A   1      46.910  35.146  28.615  1.00  0.00     0.200 A 
ATOM     95  F   UNL A   1      46.245  35.590  26.394  1.00  0.00    -0.200 F 
ATOM     96  F   UNL A   1      47.362  36.401  28.745  1.00  0.00    -0.200 F 
ENDBRANCH  63  86
ENDBRANCH  37  38
ENDBRANCH  29  32
ENDBRANCH  27  28
ENDBRANCH  26  27
ENDBRANCH   1  26
TORSDOF 14
ENDMDL
MODEL 2
REMARK VINA RESULT:     -13.2      0.174      1.584
REMARK SMILES CC1(C)CCN(C(=O)N[C@](C)(C(=O)NCCCCNC(=O)c2ccc(-c3c4nc(c(-c5c(F)c(F)c(F)c(F)c5F)c5ccc([nH]5)c(-c5c(F)c(F)c(F)c(F)c5F)c5nc(c(-c6c(F)c(F)c(F)c(F)c6F)c6ccc3[nH]6)C=C5)C=C4)cc2)c2ccccc2)C1
REMARK SMILES IDX 16 1 15 2 14 3 12 4 13 5 10 7 11 8 9 9 7 10 8 11 6 13 1 14
REMARK SMILES IDX 2 15 3 16 4 17 91 18 5 19 85 20 86 21 90 22 87 23 89 24
REMARK SMILES IDX 88 25 17 26 18 27 19 28 20 29 21 31 22 32 23 33 84 34 24 35
REMARK SMILES IDX 83 36 25 37 26 38 27 39 77 40 28 41 82 42 76 43 78 44 29 45
REMARK SMILES IDX 81 46 75 47 74 48 30 50 62 51 42 52 61 53 43 54 46 55 60 56
REMARK SMILES IDX 79 57 44 58 45 59 59 61 80 62 47 63 31 64 32 65 40 66 33 67
REMARK SMILES IDX 34 68 38 69 41 70 35 71 36 72 39 73 37 74 63 75 64 76 72 77
REMARK SMILES IDX 65 78 66 79 70 80 73 81 67 82 68 83 71 84 69 85 48 86 49 87
REMARK SMILES IDX 57 88 50 89 51 90 55 91 58 92 52 93 53 94 56 95 54 96
REMARK H PARENT 14 6 9 12 19 30 78 49 46 60
REMARK Flexibility Score: inf
ROOT
ATOM      1  C   UNL A   1      37.139  21.413  24.501  1.00  0.00     0.023 C 
ENDROOT
BRANCH   1   2
ATOM      2  C   UNL A   1      36.509  22.344  25.544  1.00  0.00     0.116 C 
BRANCH   2   3
ATOM      3  N   UNL A   1      35.563  21.635  26.377  1.00  0.00    -0.354 N 
ATOM      4  C   UNL A   1      34.246  21.313  26.247  1.00  0.00     0.250 C 
ATOM      5  O   UNL A   1      33.703  21.116  27.344  1.00  0.00    -0.272 OA
ATOM      6  H   UNL A   1      35.956  21.316  27.220  1.00  0.00     0.163 HD
BRANCH   4   7
ATOM      7  C   UNL A   1      33.451  21.233  24.860  1.00  0.00     0.143 C 
ATOM      8  C   UNL A   1      31.980  21.654  25.100  1.00  0.00     0.051 C 
BRANCH   7   9
ATOM      9  N   UNL A   1      33.978  22.260  23.912  1.00  0.00    -0.320 N 
ATOM     10  C   UNL A   1      33.316  23.241  23.259  1.00  0.00     0.318 C 
ATOM     11  O   UNL A   1      33.120  23.070  22.054  1.00  0.00    -0.249 OA
ATOM     12  H   UNL A   1      34.946  22.216  23.738  1.00  0.00     0.166 HD
BRANCH  10  13
ATOM     13  N   UNL A   1      33.109  24.445  23.869  1.00  0.00    -0.324 N 
ATOM     14  C   UNL A   1      33.859  27.311  25.922  1.00  0.00     0.013 C 
ATOM     15  C   UNL A   1      32.877  26.251  25.417  1.00  0.00    -0.016 C 
ATOM     16  C   UNL A   1      31.764  26.080  26.463  1.00  0.00     0.013 C 
ATOM     17  C   UNL A   1      32.241  26.642  24.066  1.00  0.00     0.030 C 
ATOM     18  C   UNL A   1      33.618  24.926  25.137  1.00  0.00     0.127 C 
ATOM     19  C   UNL A   1      32.664  25.570  23.075  1.00  0.00     0.122 C 
ENDBRANCH  10  13
ENDBRANCH   7   9
BRANCH   7  20
ATOM     20  C   UNL A   1      33.487  19.785  24.305  1.00  0.00    -0.013 A 
ATOM     21  C   UNL A   1      32.512  19.348  23.386  1.00  0.00     0.007 A 
ATOM     22  C   UNL A   1      34.470  18.842  24.681  1.00  0.00     0.007 A 
ATOM     23  C   UNL A   1      32.541  18.059  22.844  1.00  0.00     0.000 A 
ATOM     24  C   UNL A   1      34.478  17.543  24.166  1.00  0.00     0.000 A 
ATOM     25  C   UNL A   1      33.518  17.153  23.242  1.00  0.00     0.000 A 
ENDBRANCH   7  20
ENDBRANCH   4   7
ENDBRANCH   2   3
ENDBRANCH   1   2
BRANCH   1  26
ATOM     26  C   UNL A   1      37.886  20.200  25.069  1.00  0.00     0.023 C 
BRANCH  26  27
ATOM     27  C   UNL A   1      39.212  20.506  25.753  1.00  0.00     0.116 C 
BRANCH  27  28
ATOM     28  N   UNL A   1      40.088  19.348  25.838  1.00  0.00    -0.352 N 
ATOM     29  C   UNL A   1      41.437  19.302  26.107  1.00  0.00     0.251 C 
ATOM     30  H   UNL A   1      39.657  18.477  25.680  1.00  0.00     0.163 HD
ATOM     31  O   UNL A   1      42.050  18.249  26.041  1.00  0.00    -0.269 OA
BRANCH  29  32
ATOM     32  C   UNL A   1      42.144  20.557  26.436  1.00  0.00     0.039 A 
ATOM     33  C   UNL A   1      42.629  21.346  25.390  1.00  0.00     0.014 A 
ATOM     34  C   UNL A   1      42.276  20.973  27.763  1.00  0.00     0.014 A 
ATOM     35  C   UNL A   1      43.171  22.601  25.671  1.00  0.00     0.010 A 
ATOM     36  C   UNL A   1      42.759  22.247  28.036  1.00  0.00     0.010 A 
ATOM     37  C   UNL A   1      43.195  23.078  26.991  1.00  0.00    -0.014 A 
BRANCH  37  38
ATOM     38  C   UNL A   1      43.636  24.458  27.306  1.00  0.00     0.031 A 
ATOM     39  C   UNL A   1      42.651  25.463  27.827  1.00  0.00     0.074 A 
ATOM     40  C   UNL A   1      44.903  24.825  27.034  1.00  0.00     0.049 A 
ATOM     41  N   UNL A   1      42.818  26.739  28.064  1.00  0.00    -0.248 NA
ATOM     42  C   UNL A   1      41.291  24.973  28.091  1.00  0.00     0.031 C 
ATOM     43  C   UNL A   1      45.940  23.945  26.493  1.00  0.00     0.029 A 
ATOM     44  N   UNL A   1      45.530  26.039  27.162  1.00  0.00    -0.354 N 
ATOM     45  C   UNL A   1      41.582  27.207  28.486  1.00  0.00     0.074 A 
ATOM     46  C   UNL A   1      40.664  26.089  28.430  1.00  0.00     0.031 C 
ATOM     47  C   UNL A   1      47.080  24.642  26.358  1.00  0.00     0.029 A 
ATOM     48  C   UNL A   1      46.842  26.024  26.759  1.00  0.00     0.049 A 
ATOM     49  H   UNL A   1      45.081  26.843  27.509  1.00  0.00     0.167 HD
ATOM     50  C   UNL A   1      41.250  28.453  28.900  1.00  0.00     0.037 A 
ATOM     51  C   UNL A   1      47.749  27.019  26.711  1.00  0.00     0.037 A 
ATOM     52  C   UNL A   1      42.174  29.554  28.975  1.00  0.00     0.049 A 
ATOM     53  C   UNL A   1      47.342  28.402  27.137  1.00  0.00     0.074 A 
ATOM     54  C   UNL A   1      41.958  30.832  29.459  1.00  0.00     0.029 A 
ATOM     55  N   UNL A   1      43.492  29.507  28.541  1.00  0.00    -0.354 N 
ATOM     56  N   UNL A   1      46.191  28.819  27.606  1.00  0.00    -0.248 NA
ATOM     57  C   UNL A   1      48.360  29.456  27.018  1.00  0.00     0.031 C 
ATOM     58  C   UNL A   1      43.131  31.572  29.272  1.00  0.00     0.029 A 
ATOM     59  C   UNL A   1      44.091  30.744  28.712  1.00  0.00     0.049 A 
ATOM     60  H   UNL A   1      43.935  28.711  28.165  1.00  0.00     0.167 HD
ATOM     61  C   UNL A   1      46.352  30.174  27.861  1.00  0.00     0.074 A 
ATOM     62  C   UNL A   1      47.715  30.507  27.504  1.00  0.00     0.031 C 
ATOM     63  C   UNL A   1      45.450  31.060  28.350  1.00  0.00     0.037 A 
BRANCH  50  64
ATOM     64  C   UNL A   1      39.822  28.687  29.299  1.00  0.00     0.064 A 
ATOM     65  C   UNL A   1      38.860  29.118  28.373  1.00  0.00     0.173 A 
ATOM     66  C   UNL A   1      39.409  28.470  30.622  1.00  0.00     0.173 A 
ATOM     67  F   UNL A   1      39.207  29.351  27.098  1.00  0.00    -0.203 F 
ATOM     68  C   UNL A   1      37.546  29.362  28.765  1.00  0.00     0.198 A 
ATOM     69  C   UNL A   1      38.087  28.685  31.003  1.00  0.00     0.198 A 
ATOM     70  F   UNL A   1      40.287  28.052  31.545  1.00  0.00    -0.203 F 
ATOM     71  F   UNL A   1      36.659  29.829  27.876  1.00  0.00    -0.200 F 
ATOM     72  C   UNL A   1      37.160  29.140  30.078  1.00  0.00     0.200 A 
ATOM     73  F   UNL A   1      37.712  28.461  32.270  1.00  0.00    -0.200 F 
ATOM     74  F   UNL A   1      35.896  29.377  30.455  1.00  0.00    -0.200 F 
ENDBRANCH  50  64
BRANCH  51  75
ATOM     75  C   UNL A   1      49.137  26.734  26.268  1.00  0.00     0.064 A 
ATOM     76  C   UNL A   1      50.091  26.265  27.181  1.00  0.00     0.173 A 
ATOM     77  C   UNL A   1      49.534  26.906  24.934  1.00  0.00     0.173 A 
ATOM     78  F   UNL A   1      49.762  26.105  28.470  1.00  0.00    -0.203 F 
ATOM     79  C   UNL A   1      51.396  25.988  26.778  1.00  0.00     0.198 A 
ATOM     80  C   UNL A   1      50.833  26.606  24.528  1.00  0.00     0.198 A 
ATOM     81  F   UNL A   1      48.657  27.350  24.023  1.00  0.00    -0.203 F 
ATOM     82  F   UNL A   1      52.297  25.570  27.677  1.00  0.00    -0.200 F 
ATOM     83  C   UNL A   1      51.764  26.151  25.451  1.00  0.00     0.200 A 
ATOM     84  F   UNL A   1      51.182  26.753  23.243  1.00  0.00    -0.200 F 
ATOM     85  F   UNL A   1      53.016  25.876  25.062  1.00  0.00    -0.200 F 
ENDBRANCH  51  75
BRANCH  63  86
ATOM     86  C   UNL A   1      45.915  32.472  28.549  1.00  0.00     0.064 A 
ATOM     87  C   UNL A   1      45.749  33.444  27.554  1.00  0.00     0.173 A 
ATOM     88  C   UNL A   1      46.488  32.866  29.768  1.00  0.00     0.173 A 
ATOM     89  F   UNL A   1      45.223  33.111  26.366  1.00  0.00    -0.203 F 
ATOM     90  C   UNL A   1      46.155  34.760  27.766  1.00  0.00     0.198 A 
ATOM     91  C   UNL A   1      46.868  34.187  29.985  1.00  0.00     0.198 A 
ATOM     92  F   UNL A   1      46.665  31.972  30.752  1.00  0.00    -0.203 F 
ATOM     93  F   UNL A   1      46.021  35.666  26.787  1.00  0.00    -0.200 F 
ATOM     94  C   UNL A   1      46.706  35.131  28.983  1.00  0.00     0.200 A 
ATOM     95  F   UNL A   1      47.391  34.547  31.166  1.00  0.00    -0.200 F 
ATOM     96  F   UNL A   1      47.087  36.399  29.188  1.00  0.00    -0.200 F 
ENDBRANCH  63  86
ENDBRANCH  37  38
ENDBRANCH  29  32
ENDBRANCH  27  28
ENDBRANCH  26  27
ENDBRANCH   1  26
TORSDOF 14
ENDMDL
MODEL 3
REMARK VINA RESULT:     -13.2      5.823     11.313
REMARK SMILES CC1(C)CCN(C(=O)N[C@](C)(C(=O)NCCCCNC(=O)c2ccc(-c3c4nc(c(-c5c(F)c(F)c(F)c(F)c5F)c5ccc([nH]5)c(-c5c(F)c(F)c(F)c(F)c5F)c5nc(c(-c6c(F)c(F)c(F)c(F)c6F)c6ccc3[nH]6)C=C5)C=C4)cc2)c2ccccc2)C1
REMARK SMILES IDX 16 1 15 2 14 3 12 4 13 5 10 7 11 8 9 9 7 10 8 11 6 13 1 14
REMARK SMILES IDX 2 15 3 16 4 17 91 18 5 19 85 20 86 21 90 22 87 23 89 24
REMARK SMILES IDX 88 25 17 26 18 27 19 28 20 29 21 31 22 32 23 33 84 34 24 35
REMARK SMILES IDX 83 36 25 37 26 38 27 39 77 40 28 41 82 42 76 43 78 44 29 45
REMARK SMILES IDX 81 46 75 47 74 48 30 50 62 51 42 52 61 53 43 54 46 55 60 56
REMARK SMILES IDX 79 57 44 58 45 59 59 61 80 62 47 63 31 64 32 65 40 66 33 67
REMARK SMILES IDX 34 68 38 69 41 70 35 71 36 72 39 73 37 74 63 75 64 76 72 77
REMARK SMILES IDX 65 78 66 79 70 80 73 81 67 82 68 83 71 84 69 85 48 86 49 87
REMARK SMILES IDX 57 88 50 89 51 90 55 91 58 92 52 93 53 94 56 95 54 96
REMARK H PARENT 14 6 9 12 19 30 78 49 46 60
REMARK Flexibility Score: inf
ROOT
ATOM      1  C   UNL A   1      31.971  30.182  26.770  1.00  0.00     0.023 C 
ENDROOT
BRANCH   1   2
ATOM      2  C   UNL A   1      32.577  29.579  25.496  1.00  0.00     0.116 C 
BRANCH   2   3
ATOM      3  N   UNL A   1      32.396  28.145  25.457  1.00  0.00    -0.354 N 
ATOM      4  C   UNL A   1      31.858  27.285  24.549  1.00  0.00     0.250 C 
ATOM      5  O   UNL A   1      31.485  26.224  25.072  1.00  0.00    -0.272 OA
ATOM      6  H   UNL A   1      32.736  27.692  26.262  1.00  0.00     0.163 HD
BRANCH   4   7
ATOM      7  C   UNL A   1      31.674  27.591  22.989  1.00  0.00     0.143 C 
ATOM      8  C   UNL A   1      32.888  28.415  22.492  1.00  0.00     0.051 C 
BRANCH   7   9
ATOM      9  N   UNL A   1      31.747  26.319  22.209  1.00  0.00    -0.320 N 
ATOM     10  C   UNL A   1      32.835  25.633  21.793  1.00  0.00     0.318 C 
ATOM     11  O   UNL A   1      33.112  25.705  20.593  1.00  0.00    -0.249 OA
ATOM     12  H   UNL A   1      30.880  25.925  21.962  1.00  0.00     0.166 HD
BRANCH  10  13
ATOM     13  N   UNL A   1      33.426  24.726  22.625  1.00  0.00    -0.324 N 
ATOM     14  C   UNL A   1      35.115  23.512  25.569  1.00  0.00     0.013 C 
ATOM     15  C   UNL A   1      34.908  23.510  24.052  1.00  0.00    -0.016 C 
ATOM     16  C   UNL A   1      36.199  23.010  23.385  1.00  0.00     0.013 C 
ATOM     17  C   UNL A   1      33.737  22.599  23.625  1.00  0.00     0.030 C 
ATOM     18  C   UNL A   1      34.512  24.920  23.564  1.00  0.00     0.127 C 
ATOM     19  C   UNL A   1      32.719  23.509  22.957  1.00  0.00     0.122 C 
ENDBRANCH  10  13
ENDBRANCH   7   9
BRANCH   7  20
ATOM     20  C   UNL A   1      30.372  28.402  22.752  1.00  0.00    -0.013 A 
ATOM     21  C   UNL A   1      30.408  29.623  22.049  1.00  0.00     0.007 A 
ATOM     22  C   UNL A   1      29.108  27.977  23.218  1.00  0.00     0.007 A 
ATOM     23  C   UNL A   1      29.246  30.356  21.793  1.00  0.00     0.000 A 
ATOM     24  C   UNL A   1      27.950  28.727  22.992  1.00  0.00     0.000 A 
ATOM     25  C   UNL A   1      28.018  29.913  22.273  1.00  0.00     0.000 A 
ENDBRANCH   7  20
ENDBRANCH   4   7
ENDBRANCH   2   3
ENDBRANCH   1   2
BRANCH   1  26
ATOM     26  C   UNL A   1      31.759  31.700  26.741  1.00  0.00     0.023 C 
BRANCH  26  27
ATOM     27  C   UNL A   1      32.862  32.530  27.384  1.00  0.00     0.116 C 
BRANCH  27  28
ATOM     28  N   UNL A   1      32.466  33.907  27.632  1.00  0.00    -0.352 N 
ATOM     29  C   UNL A   1      33.001  34.815  28.518  1.00  0.00     0.251 C 
ATOM     30  H   UNL A   1      31.711  34.236  27.093  1.00  0.00     0.163 HD
ATOM     31  O   UNL A   1      32.484  35.908  28.679  1.00  0.00    -0.269 OA
BRANCH  29  32
ATOM     32  C   UNL A   1      34.189  34.429  29.308  1.00  0.00     0.039 A 
ATOM     33  C   UNL A   1      34.000  33.874  30.575  1.00  0.00     0.014 A 
ATOM     34  C   UNL A   1      35.473  34.566  28.774  1.00  0.00     0.014 A 
ATOM     35  C   UNL A   1      35.097  33.372  31.276  1.00  0.00     0.010 A 
ATOM     36  C   UNL A   1      36.555  34.011  29.446  1.00  0.00     0.010 A 
ATOM     37  C   UNL A   1      36.375  33.395  30.694  1.00  0.00    -0.014 A 
BRANCH  37  38
ATOM     38  C   UNL A   1      37.534  32.747  31.352  1.00  0.00     0.031 A 
ATOM     39  C   UNL A   1      38.219  31.584  30.697  1.00  0.00     0.074 A 
ATOM     40  C   UNL A   1      37.908  33.152  32.581  1.00  0.00     0.049 A 
ATOM     41  N   UNL A   1      39.180  30.823  31.156  1.00  0.00    -0.248 NA
ATOM     42  C   UNL A   1      37.741  31.211  29.358  1.00  0.00     0.031 C 
ATOM     43  C   UNL A   1      37.294  34.248  33.332  1.00  0.00     0.029 A 
ATOM     44  N   UNL A   1      38.884  32.679  33.421  1.00  0.00    -0.354 N 
ATOM     45  C   UNL A   1      39.408  29.872  30.173  1.00  0.00     0.074 A 
ATOM     46  C   UNL A   1      38.456  30.124  29.111  1.00  0.00     0.031 C 
ATOM     47  C   UNL A   1      37.924  34.379  34.511  1.00  0.00     0.029 A 
ATOM     48  C   UNL A   1      38.953  33.350  34.617  1.00  0.00     0.049 A 
ATOM     49  H   UNL A   1      39.478  31.929  33.188  1.00  0.00     0.167 HD
ATOM     50  C   UNL A   1      40.341  28.890  30.150  1.00  0.00     0.037 A 
ATOM     51  C   UNL A   1      39.751  33.149  35.683  1.00  0.00     0.037 A 
ATOM     52  C   UNL A   1      41.299  28.661  31.200  1.00  0.00     0.049 A 
ATOM     53  C   UNL A   1      40.749  32.025  35.649  1.00  0.00     0.074 A 
ATOM     54  C   UNL A   1      42.337  27.748  31.237  1.00  0.00     0.029 A 
ATOM     55  N   UNL A   1      41.327  29.349  32.405  1.00  0.00    -0.354 N 
ATOM     56  N   UNL A   1      41.009  31.177  34.684  1.00  0.00    -0.248 NA
ATOM     57  C   UNL A   1      41.560  31.826  36.859  1.00  0.00     0.031 C 
ATOM     58  C   UNL A   1      42.963  27.850  32.485  1.00  0.00     0.029 A 
ATOM     59  C   UNL A   1      42.342  28.855  33.209  1.00  0.00     0.049 A 
ATOM     60  H   UNL A   1      40.713  30.079  32.653  1.00  0.00     0.167 HD
ATOM     61  C   UNL A   1      42.027  30.361  35.157  1.00  0.00     0.074 A 
ATOM     62  C   UNL A   1      42.344  30.822  36.493  1.00  0.00     0.031 C 
ATOM     63  C   UNL A   1      42.643  29.325  34.537  1.00  0.00     0.037 A 
BRANCH  50  64
ATOM     64  C   UNL A   1      40.361  27.988  28.952  1.00  0.00     0.064 A 
ATOM     65  C   UNL A   1      41.098  28.308  27.801  1.00  0.00     0.173 A 
ATOM     66  C   UNL A   1      39.640  26.784  28.956  1.00  0.00     0.173 A 
ATOM     67  F   UNL A   1      41.794  29.453  27.741  1.00  0.00    -0.203 F 
ATOM     68  C   UNL A   1      41.081  27.475  26.685  1.00  0.00     0.198 A 
ATOM     69  C   UNL A   1      39.651  25.939  27.849  1.00  0.00     0.198 A 
ATOM     70  F   UNL A   1      38.925  26.428  30.033  1.00  0.00    -0.203 F 
ATOM     71  F   UNL A   1      41.745  27.830  25.576  1.00  0.00    -0.200 F 
ATOM     72  C   UNL A   1      40.362  26.290  26.712  1.00  0.00     0.200 A 
ATOM     73  F   UNL A   1      38.964  24.789  27.880  1.00  0.00    -0.200 F 
ATOM     74  F   UNL A   1      40.344  25.490  25.636  1.00  0.00    -0.200 F 
ENDBRANCH  50  64
BRANCH  51  75
ATOM     75  C   UNL A   1      39.656  34.050  36.858  1.00  0.00     0.064 A 
ATOM     76  C   UNL A   1      38.868  33.697  37.962  1.00  0.00     0.173 A 
ATOM     77  C   UNL A   1      40.354  35.265  36.913  1.00  0.00     0.173 A 
ATOM     78  F   UNL A   1      38.166  32.555  37.945  1.00  0.00    -0.203 F 
ATOM     79  C   UNL A   1      38.774  34.531  39.075  1.00  0.00     0.198 A 
ATOM     80  C   UNL A   1      40.277  36.087  38.036  1.00  0.00     0.198 A 
ATOM     81  F   UNL A   1      41.123  35.646  35.883  1.00  0.00    -0.203 F 
ATOM     82  F   UNL A   1      37.989  34.183  40.104  1.00  0.00    -0.200 F 
ATOM     83  C   UNL A   1      39.484  35.721  39.114  1.00  0.00     0.200 A 
ATOM     84  F   UNL A   1      40.974  37.230  38.076  1.00  0.00    -0.200 F 
ATOM     85  F   UNL A   1      39.401  36.518  40.188  1.00  0.00    -0.200 F 
ENDBRANCH  51  75
BRANCH  63  86
ATOM     86  C   UNL A   1      43.741  28.632  35.289  1.00  0.00     0.064 A 
ATOM     87  C   UNL A   1      43.482  27.517  36.099  1.00  0.00     0.173 A 
ATOM     88  C   UNL A   1      45.071  29.058  35.160  1.00  0.00     0.173 A 
ATOM     89  F   UNL A   1      42.224  27.084  36.269  1.00  0.00    -0.203 F 
ATOM     90  C   UNL A   1      44.515  26.862  36.765  1.00  0.00     0.198 A 
ATOM     91  C   UNL A   1      46.104  28.385  35.806  1.00  0.00     0.198 A 
ATOM     92  F   UNL A   1      45.369  30.118  34.394  1.00  0.00    -0.203 F 
ATOM     93  F   UNL A   1      44.241  25.822  37.564  1.00  0.00    -0.200 F 
ATOM     94  C   UNL A   1      45.825  27.292  36.611  1.00  0.00     0.200 A 
ATOM     95  F   UNL A   1      47.370  28.794  35.647  1.00  0.00    -0.200 F 
ATOM     96  F   UNL A   1      46.819  26.654  37.244  1.00  0.00    -0.200 F 
ENDBRANCH  63  86
ENDBRANCH  37  38
ENDBRANCH  29  32
ENDBRANCH  27  28
ENDBRANCH  26  27
ENDBRANCH   1  26
TORSDOF 14
ENDMDL
