MODEL 1
REMARK VINA RESULT:     -12.7      0.000      0.000
REMARK SMILES COc1cc2cc(C(=O)NCCCCNC(=O)c3ccc(-c4c5nc(c(-c6c(F)c(F)c(F)c(F)c6F)c6ccc([nH]6)c(-c6c(F)c(F)c(F)c(F)c6F)c6nc(c(-c7c(F)c(F)c(F)c(F)c7F)c7ccc4[nH]7)C=C6)C=C5)cc3)n(Cc3ccccc3)c2c(OC)c1OC
REMARK SMILES IDX 12 1 11 2 10 3 8 4 9 5 7 7 3 8 4 9 93 10 5 11 90 12 6 13
REMARK SMILES IDX 89 14 81 15 2 16 1 17 94 18 95 19 91 20 92 21 82 22 83 23
REMARK SMILES IDX 84 24 88 25 85 26 87 27 86 28 13 29 14 30 15 31 16 32 17 34
REMARK SMILES IDX 18 35 19 36 80 37 20 38 79 39 21 40 22 41 23 42 73 43 24 44
REMARK SMILES IDX 78 45 72 46 74 47 25 48 77 49 71 50 70 51 26 53 58 54 38 55
REMARK SMILES IDX 57 56 39 57 42 58 56 59 75 60 40 61 41 62 55 64 76 65 43 66
REMARK SMILES IDX 27 67 28 68 36 69 29 70 30 71 34 72 37 73 31 74 32 75 35 76
REMARK SMILES IDX 33 77 59 78 60 79 68 80 61 81 62 82 66 83 69 84 63 85 64 86
REMARK SMILES IDX 67 87 65 88 44 89 45 90 53 91 46 92 47 93 51 94 54 95 48 96
REMARK SMILES IDX 49 97 52 98 50 99
REMARK H PARENT 10 6 15 33 74 52 42 63
REMARK Flexibility Score: inf
ROOT
ATOM      1  C   UNL A   1      39.998  22.549  27.283  1.00  0.00     0.023 C 
ENDROOT
BRANCH   1   2
ATOM      2  C   UNL A   1      39.018  22.737  26.126  1.00  0.00     0.116 C 
BRANCH   2   3
ATOM      3  N   UNL A   1      38.561  21.459  25.624  1.00  0.00    -0.351 N 
ATOM      4  C   UNL A   1      37.416  21.018  25.019  1.00  0.00     0.267 C 
ATOM      5  O   UNL A   1      37.490  19.847  24.625  1.00  0.00    -0.268 OA
ATOM      6  H   UNL A   1      39.226  20.744  25.746  1.00  0.00     0.163 HD
BRANCH   4   7
ATOM      7  C   UNL A   1      36.205  21.799  24.783  1.00  0.00     0.108 A 
ATOM      8  C   UNL A   1      32.944  24.803  23.315  1.00  0.00     0.165 A 
ATOM      9  C   UNL A   1      34.309  24.520  23.125  1.00  0.00     0.061 A 
ATOM     10  C   UNL A   1      32.181  24.126  24.283  1.00  0.00     0.205 A 
ATOM     11  C   UNL A   1      34.904  23.471  23.852  1.00  0.00     0.008 A 
ATOM     12  C   UNL A   1      32.805  23.144  25.092  1.00  0.00     0.189 A 
ATOM     13  C   UNL A   1      36.200  22.905  23.922  1.00  0.00     0.042 A 
ATOM     14  C   UNL A   1      34.129  22.761  24.753  1.00  0.00     0.096 A 
ATOM     15  N   UNL A   1      34.864  21.609  25.087  1.00  0.00    -0.329 N 
BRANCH   8  16
ATOM     16  O   UNL A   1      32.364  25.667  22.418  1.00  0.00    -0.493 OA
ATOM     17  C   UNL A   1      32.647  25.308  21.066  1.00  0.00     0.278 C 
ENDBRANCH   8  16
BRANCH  10  18
ATOM     18  O   UNL A   1      30.829  24.245  24.458  1.00  0.00    -0.490 OA
ATOM     19  C   UNL A   1      30.278  25.279  25.250  1.00  0.00     0.278 C 
ENDBRANCH  10  18
BRANCH  12  20
ATOM     20  O   UNL A   1      32.279  22.511  26.186  1.00  0.00    -0.491 OA
ATOM     21  C   UNL A   1      32.499  23.016  27.491  1.00  0.00     0.278 C 
ENDBRANCH  12  20
BRANCH  15  22
ATOM     22  C   UNL A   1      34.149  20.427  25.576  1.00  0.00     0.158 C 
BRANCH  22  23
ATOM     23  C   UNL A   1      33.654  19.357  24.635  1.00  0.00    -0.028 A 
ATOM     24  C   UNL A   1      32.566  19.450  23.764  1.00  0.00     0.005 A 
ATOM     25  C   UNL A   1      34.437  18.180  24.602  1.00  0.00     0.005 A 
ATOM     26  C   UNL A   1      32.347  18.452  22.807  1.00  0.00     0.000 A 
ATOM     27  C   UNL A   1      34.201  17.175  23.669  1.00  0.00     0.000 A 
ATOM     28  C   UNL A   1      33.170  17.326  22.749  1.00  0.00     0.000 A 
ENDBRANCH  22  23
ENDBRANCH  15  22
ENDBRANCH   4   7
ENDBRANCH   2   3
ENDBRANCH   1   2
BRANCH   1  29
ATOM     29  C   UNL A   1      40.730  21.209  27.361  1.00  0.00     0.023 C 
BRANCH  29  30
ATOM     30  C   UNL A   1      42.244  21.300  27.200  1.00  0.00     0.116 C 
BRANCH  30  31
ATOM     31  N   UNL A   1      42.656  21.806  25.906  1.00  0.00    -0.352 N 
ATOM     32  C   UNL A   1      43.009  23.029  25.415  1.00  0.00     0.251 C 
ATOM     33  H   UNL A   1      42.689  21.101  25.220  1.00  0.00     0.163 HD
ATOM     34  O   UNL A   1      43.406  23.044  24.242  1.00  0.00    -0.269 OA
BRANCH  32  35
ATOM     35  C   UNL A   1      42.905  24.321  26.142  1.00  0.00     0.039 A 
ATOM     36  C   UNL A   1      43.621  24.668  27.287  1.00  0.00     0.014 A 
ATOM     37  C   UNL A   1      41.936  25.222  25.658  1.00  0.00     0.014 A 
ATOM     38  C   UNL A   1      43.302  25.822  27.993  1.00  0.00     0.010 A 
ATOM     39  C   UNL A   1      41.631  26.390  26.342  1.00  0.00     0.010 A 
ATOM     40  C   UNL A   1      42.282  26.660  27.539  1.00  0.00    -0.014 A 
BRANCH  40  41
ATOM     41  C   UNL A   1      42.029  27.885  28.290  1.00  0.00     0.031 A 
ATOM     42  C   UNL A   1      43.065  28.943  28.091  1.00  0.00     0.074 A 
ATOM     43  C   UNL A   1      40.906  28.091  29.006  1.00  0.00     0.049 A 
ATOM     44  N   UNL A   1      43.806  29.524  28.978  1.00  0.00    -0.248 NA
ATOM     45  C   UNL A   1      43.401  29.309  26.703  1.00  0.00     0.031 C 
ATOM     46  C   UNL A   1      39.703  27.257  29.053  1.00  0.00     0.029 A 
ATOM     47  N   UNL A   1      40.562  29.159  29.780  1.00  0.00    -0.354 N 
ATOM     48  C   UNL A   1      44.583  30.449  28.282  1.00  0.00     0.074 A 
ATOM     49  C   UNL A   1      44.399  30.172  26.882  1.00  0.00     0.031 C 
ATOM     50  C   UNL A   1      38.693  27.959  29.616  1.00  0.00     0.029 A 
ATOM     51  C   UNL A   1      39.209  29.235  30.082  1.00  0.00     0.049 A 
ATOM     52  H   UNL A   1      41.219  29.821  30.099  1.00  0.00     0.167 HD
ATOM     53  C   UNL A   1      45.143  31.522  28.903  1.00  0.00     0.037 A 
ATOM     54  C   UNL A   1      38.559  30.307  30.604  1.00  0.00     0.037 A 
ATOM     55  C   UNL A   1      45.281  31.298  30.317  1.00  0.00     0.049 A 
ATOM     56  C   UNL A   1      39.583  31.189  31.216  1.00  0.00     0.074 A 
ATOM     57  C   UNL A   1      45.968  30.383  31.087  1.00  0.00     0.029 A 
ATOM     58  N   UNL A   1      44.367  31.881  31.158  1.00  0.00    -0.354 N 
ATOM     59  N   UNL A   1      40.274  30.881  32.279  1.00  0.00    -0.248 NA
ATOM     60  C   UNL A   1      40.148  32.240  30.383  1.00  0.00     0.031 C 
ATOM     61  C   UNL A   1      45.109  30.111  32.190  1.00  0.00     0.029 A 
ATOM     62  C   UNL A   1      43.980  30.922  32.056  1.00  0.00     0.049 A 
ATOM     63  H   UNL A   1      44.049  32.812  31.122  1.00  0.00     0.167 HD
ATOM     64  C   UNL A   1      41.541  31.387  32.031  1.00  0.00     0.074 A 
ATOM     65  C   UNL A   1      41.383  32.280  30.886  1.00  0.00     0.031 C 
ATOM     66  C   UNL A   1      42.646  30.819  32.592  1.00  0.00     0.037 A 
BRANCH  53  67
ATOM     67  C   UNL A   1      45.219  32.900  28.290  1.00  0.00     0.064 A 
ATOM     68  C   UNL A   1      46.477  33.512  28.117  1.00  0.00     0.173 A 
ATOM     69  C   UNL A   1      44.104  33.756  28.157  1.00  0.00     0.173 A 
ATOM     70  F   UNL A   1      47.607  32.803  28.248  1.00  0.00    -0.203 F 
ATOM     71  C   UNL A   1      46.605  34.888  27.904  1.00  0.00     0.198 A 
ATOM     72  C   UNL A   1      44.234  35.117  27.891  1.00  0.00     0.198 A 
ATOM     73  F   UNL A   1      42.853  33.342  28.391  1.00  0.00    -0.203 F 
ATOM     74  F   UNL A   1      47.823  35.446  27.877  1.00  0.00    -0.200 F 
ATOM     75  C   UNL A   1      45.483  35.690  27.797  1.00  0.00     0.200 A 
ATOM     76  F   UNL A   1      43.134  35.880  27.813  1.00  0.00    -0.200 F 
ATOM     77  F   UNL A   1      45.604  37.016  27.657  1.00  0.00    -0.200 F 
ENDBRANCH  53  67
BRANCH  54  78
ATOM     78  C   UNL A   1      37.189  30.795  30.292  1.00  0.00     0.064 A 
ATOM     79  C   UNL A   1      36.325  31.219  31.318  1.00  0.00     0.173 A 
ATOM     80  C   UNL A   1      36.807  31.135  28.980  1.00  0.00     0.173 A 
ATOM     81  F   UNL A   1      36.631  30.976  32.601  1.00  0.00    -0.203 F 
ATOM     82  C   UNL A   1      35.172  31.965  31.048  1.00  0.00     0.198 A 
ATOM     83  C   UNL A   1      35.652  31.871  28.711  1.00  0.00     0.198 A 
ATOM     84  F   UNL A   1      37.596  30.847  27.935  1.00  0.00    -0.203 F 
ATOM     85  F   UNL A   1      34.412  32.411  32.059  1.00  0.00    -0.200 F 
ATOM     86  C   UNL A   1      34.843  32.301  29.746  1.00  0.00     0.200 A 
ATOM     87  F   UNL A   1      35.364  32.219  27.448  1.00  0.00    -0.200 F 
ATOM     88  F   UNL A   1      33.777  33.072  29.492  1.00  0.00    -0.200 F 
ENDBRANCH  54  78
BRANCH  66  89
ATOM     89  C   UNL A   1      42.453  29.810  33.686  1.00  0.00     0.064 A 
ATOM     90  C   UNL A   1      42.318  28.429  33.458  1.00  0.00     0.173 A 
ATOM     91  C   UNL A   1      42.631  30.235  35.008  1.00  0.00     0.173 A 
ATOM     92  F   UNL A   1      42.231  27.939  32.214  1.00  0.00    -0.203 F 
ATOM     93  C   UNL A   1      42.352  27.520  34.514  1.00  0.00     0.198 A 
ATOM     94  C   UNL A   1      42.700  29.322  36.056  1.00  0.00     0.198 A 
ATOM     95  F   UNL A   1      42.815  31.538  35.274  1.00  0.00    -0.203 F 
ATOM     96  F   UNL A   1      42.238  26.205  34.274  1.00  0.00    -0.200 F 
ATOM     97  C   UNL A   1      42.559  27.966  35.810  1.00  0.00     0.200 A 
ATOM     98  F   UNL A   1      42.953  29.755  37.299  1.00  0.00    -0.200 F 
ATOM     99  F   UNL A   1      42.660  27.088  36.816  1.00  0.00    -0.200 F 
ENDBRANCH  66  89
ENDBRANCH  40  41
ENDBRANCH  32  35
ENDBRANCH  30  31
ENDBRANCH  29  30
ENDBRANCH   1  29
TORSDOF 16
ENDMDL
MODEL 2
REMARK VINA RESULT:     -12.7      3.299      8.901
REMARK SMILES COc1cc2cc(C(=O)NCCCCNC(=O)c3ccc(-c4c5nc(c(-c6c(F)c(F)c(F)c(F)c6F)c6ccc([nH]6)c(-c6c(F)c(F)c(F)c(F)c6F)c6nc(c(-c7c(F)c(F)c(F)c(F)c7F)c7ccc4[nH]7)C=C6)C=C5)cc3)n(Cc3ccccc3)c2c(OC)c1OC
REMARK SMILES IDX 12 1 11 2 10 3 8 4 9 5 7 7 3 8 4 9 93 10 5 11 90 12 6 13
REMARK SMILES IDX 89 14 81 15 2 16 1 17 94 18 95 19 91 20 92 21 82 22 83 23
REMARK SMILES IDX 84 24 88 25 85 26 87 27 86 28 13 29 14 30 15 31 16 32 17 34
REMARK SMILES IDX 18 35 19 36 80 37 20 38 79 39 21 40 22 41 23 42 73 43 24 44
REMARK SMILES IDX 78 45 72 46 74 47 25 48 77 49 71 50 70 51 26 53 58 54 38 55
REMARK SMILES IDX 57 56 39 57 42 58 56 59 75 60 40 61 41 62 55 64 76 65 43 66
REMARK SMILES IDX 27 67 28 68 36 69 29 70 30 71 34 72 37 73 31 74 32 75 35 76
REMARK SMILES IDX 33 77 59 78 60 79 68 80 61 81 62 82 66 83 69 84 63 85 64 86
REMARK SMILES IDX 67 87 65 88 44 89 45 90 53 91 46 92 47 93 51 94 54 95 48 96
REMARK SMILES IDX 49 97 52 98 50 99
REMARK H PARENT 10 6 15 33 74 52 42 63
REMARK Flexibility Score: inf
ROOT
ATOM      1  C   UNL A   1      34.390  30.858  27.580  1.00  0.00     0.023 C 
ENDROOT
BRANCH   1   2
ATOM      2  C   UNL A   1      33.739  29.907  26.577  1.00  0.00     0.116 C 
BRANCH   2   3
ATOM      3  N   UNL A   1      32.561  29.287  27.142  1.00  0.00    -0.351 N 
ATOM      4  C   UNL A   1      31.969  28.059  27.023  1.00  0.00     0.267 C 
ATOM      5  O   UNL A   1      31.020  27.895  27.801  1.00  0.00    -0.268 OA
ATOM      6  H   UNL A   1      32.073  29.886  27.753  1.00  0.00     0.163 HD
BRANCH   4   7
ATOM      7  C   UNL A   1      32.383  26.982  26.128  1.00  0.00     0.108 A 
ATOM      8  C   UNL A   1      34.508  23.436  23.956  1.00  0.00     0.165 A 
ATOM      9  C   UNL A   1      34.696  24.289  25.060  1.00  0.00     0.061 A 
ATOM     10  C   UNL A   1      33.445  23.623  23.056  1.00  0.00     0.205 A 
ATOM     11  C   UNL A   1      33.745  25.292  25.325  1.00  0.00     0.008 A 
ATOM     12  C   UNL A   1      32.548  24.700  23.259  1.00  0.00     0.189 A 
ATOM     13  C   UNL A   1      33.592  26.297  26.310  1.00  0.00     0.042 A 
ATOM     14  C   UNL A   1      32.661  25.426  24.474  1.00  0.00     0.096 A 
ATOM     15  N   UNL A   1      31.738  26.260  25.133  1.00  0.00    -0.329 N 
BRANCH   8  16
ATOM     16  O   UNL A   1      35.328  22.336  23.884  1.00  0.00    -0.493 OA
ATOM     17  C   UNL A   1      36.658  22.680  23.498  1.00  0.00     0.278 C 
ENDBRANCH   8  16
BRANCH  10  18
ATOM     18  O   UNL A   1      33.113  22.780  22.029  1.00  0.00    -0.490 OA
ATOM     19  C   UNL A   1      32.159  21.752  22.201  1.00  0.00     0.278 C 
ENDBRANCH  10  18
BRANCH  12  20
ATOM     20  O   UNL A   1      31.570  25.140  22.409  1.00  0.00    -0.491 OA
ATOM     21  C   UNL A   1      31.889  25.959  21.298  1.00  0.00     0.278 C 
ENDBRANCH  12  20
BRANCH  15  22
ATOM     22  C   UNL A   1      30.321  26.178  24.771  1.00  0.00     0.158 C 
BRANCH  22  23
ATOM     23  C   UNL A   1      29.637  27.278  23.998  1.00  0.00    -0.028 A 
ATOM     24  C   UNL A   1      28.282  27.348  23.667  1.00  0.00     0.005 A 
ATOM     25  C   UNL A   1      30.466  28.370  23.653  1.00  0.00     0.005 A 
ATOM     26  C   UNL A   1      27.753  28.524  23.124  1.00  0.00     0.000 A 
ATOM     27  C   UNL A   1      29.943  29.528  23.085  1.00  0.00     0.000 A 
ATOM     28  C   UNL A   1      28.577  29.616  22.847  1.00  0.00     0.000 A 
ENDBRANCH  22  23
ENDBRANCH  15  22
ENDBRANCH   4   7
ENDBRANCH   2   3
ENDBRANCH   1   2
BRANCH   1  29
ATOM     29  C   UNL A   1      33.692  32.197  27.819  1.00  0.00     0.023 C 
BRANCH  29  30
ATOM     30  C   UNL A   1      34.490  33.190  28.657  1.00  0.00     0.116 C 
BRANCH  30  31
ATOM     31  N   UNL A   1      34.389  32.953  30.083  1.00  0.00    -0.352 N 
ATOM     32  C   UNL A   1      35.151  32.306  31.011  1.00  0.00     0.251 C 
ATOM     33  H   UNL A   1      33.579  33.354  30.474  1.00  0.00     0.163 HD
ATOM     34  O   UNL A   1      34.773  32.408  32.185  1.00  0.00    -0.269 OA
BRANCH  32  35
ATOM     35  C   UNL A   1      36.341  31.463  30.724  1.00  0.00     0.039 A 
ATOM     36  C   UNL A   1      36.358  30.069  30.687  1.00  0.00     0.014 A 
ATOM     37  C   UNL A   1      37.558  32.155  30.558  1.00  0.00     0.014 A 
ATOM     38  C   UNL A   1      37.564  29.384  30.601  1.00  0.00     0.010 A 
ATOM     39  C   UNL A   1      38.763  31.477  30.445  1.00  0.00     0.010 A 
ATOM     40  C   UNL A   1      38.767  30.089  30.520  1.00  0.00    -0.014 A 
BRANCH  40  41
ATOM     41  C   UNL A   1      39.996  29.317  30.377  1.00  0.00     0.031 A 
ATOM     42  C   UNL A   1      40.757  29.147  31.650  1.00  0.00     0.074 A 
ATOM     43  C   UNL A   1      40.354  28.712  29.227  1.00  0.00     0.049 A 
ATOM     44  N   UNL A   1      41.976  29.495  31.915  1.00  0.00    -0.248 NA
ATOM     45  C   UNL A   1      40.019  28.633  32.817  1.00  0.00     0.031 C 
ATOM     46  C   UNL A   1      39.566  28.569  28.001  1.00  0.00     0.029 A 
ATOM     47  N   UNL A   1      41.483  28.002  28.944  1.00  0.00    -0.354 N 
ATOM     48  C   UNL A   1      42.212  29.091  33.228  1.00  0.00     0.074 A 
ATOM     49  C   UNL A   1      40.940  28.703  33.776  1.00  0.00     0.031 C 
ATOM     50  C   UNL A   1      40.136  27.632  27.209  1.00  0.00     0.029 A 
ATOM     51  C   UNL A   1      41.389  27.206  27.808  1.00  0.00     0.049 A 
ATOM     52  H   UNL A   1      42.297  28.049  29.497  1.00  0.00     0.167 HD
ATOM     53  C   UNL A   1      43.474  28.889  33.696  1.00  0.00     0.037 A 
ATOM     54  C   UNL A   1      42.246  26.218  27.444  1.00  0.00     0.037 A 
ATOM     55  C   UNL A   1      44.445  29.606  32.916  1.00  0.00     0.049 A 
ATOM     56  C   UNL A   1      43.513  26.437  28.186  1.00  0.00     0.074 A 
ATOM     57  C   UNL A   1      44.668  30.939  32.639  1.00  0.00     0.029 A 
ATOM     58  N   UNL A   1      45.180  28.907  31.993  1.00  0.00    -0.354 N 
ATOM     59  N   UNL A   1      44.319  27.440  27.977  1.00  0.00    -0.248 NA
ATOM     60  C   UNL A   1      43.664  25.766  29.469  1.00  0.00     0.031 C 
ATOM     61  C   UNL A   1      45.106  30.965  31.284  1.00  0.00     0.029 A 
ATOM     62  C   UNL A   1      45.182  29.645  30.839  1.00  0.00     0.049 A 
ATOM     63  H   UNL A   1      45.622  28.038  32.132  1.00  0.00     0.167 HD
ATOM     64  C   UNL A   1      44.777  27.789  29.239  1.00  0.00     0.074 A 
ATOM     65  C   UNL A   1      44.403  26.676  30.107  1.00  0.00     0.031 C 
ATOM     66  C   UNL A   1      45.163  29.066  29.518  1.00  0.00     0.037 A 
BRANCH  53  67
ATOM     67  C   UNL A   1      43.853  27.756  34.620  1.00  0.00     0.064 A 
ATOM     68  C   UNL A   1      43.655  26.425  34.200  1.00  0.00     0.173 A 
ATOM     69  C   UNL A   1      44.108  27.926  35.999  1.00  0.00     0.173 A 
ATOM     70  F   UNL A   1      43.379  26.146  32.918  1.00  0.00    -0.203 F 
ATOM     71  C   UNL A   1      43.636  25.361  35.107  1.00  0.00     0.198 A 
ATOM     72  C   UNL A   1      44.143  26.856  36.890  1.00  0.00     0.198 A 
ATOM     73  F   UNL A   1      44.218  29.135  36.561  1.00  0.00    -0.203 F 
ATOM     74  F   UNL A   1      43.314  24.132  34.681  1.00  0.00    -0.200 F 
ATOM     75  C   UNL A   1      43.875  25.578  36.451  1.00  0.00     0.200 A 
ATOM     76  F   UNL A   1      44.353  27.092  38.193  1.00  0.00    -0.200 F 
ATOM     77  F   UNL A   1      43.795  24.570  37.329  1.00  0.00    -0.200 F 
ENDBRANCH  53  67
BRANCH  54  78
ATOM     78  C   UNL A   1      41.930  24.916  26.800  1.00  0.00     0.064 A 
ATOM     79  C   UNL A   1      42.755  24.395  25.788  1.00  0.00     0.173 A 
ATOM     80  C   UNL A   1      40.995  24.022  27.359  1.00  0.00     0.173 A 
ATOM     81  F   UNL A   1      43.703  25.161  25.228  1.00  0.00    -0.203 F 
ATOM     82  C   UNL A   1      42.673  23.055  25.387  1.00  0.00     0.198 A 
ATOM     83  C   UNL A   1      40.907  22.690  26.952  1.00  0.00     0.198 A 
ATOM     84  F   UNL A   1      40.212  24.394  28.382  1.00  0.00    -0.203 F 
ATOM     85  F   UNL A   1      43.526  22.579  24.468  1.00  0.00    -0.200 F 
ATOM     86  C   UNL A   1      41.758  22.202  25.978  1.00  0.00     0.200 A 
ATOM     87  F   UNL A   1      40.040  21.866  27.558  1.00  0.00    -0.200 F 
ATOM     88  F   UNL A   1      41.724  20.905  25.643  1.00  0.00    -0.200 F 
ENDBRANCH  54  78
BRANCH  66  89
ATOM     89  C   UNL A   1      45.334  30.026  28.378  1.00  0.00     0.064 A 
ATOM     90  C   UNL A   1      44.291  30.808  27.852  1.00  0.00     0.173 A 
ATOM     91  C   UNL A   1      46.639  30.317  27.957  1.00  0.00     0.173 A 
ATOM     92  F   UNL A   1      43.029  30.648  28.272  1.00  0.00    -0.203 F 
ATOM     93  C   UNL A   1      44.548  31.830  26.940  1.00  0.00     0.198 A 
ATOM     94  C   UNL A   1      46.895  31.360  27.073  1.00  0.00     0.198 A 
ATOM     95  F   UNL A   1      47.675  29.633  28.466  1.00  0.00    -0.203 F 
ATOM     96  F   UNL A   1      43.540  32.575  26.463  1.00  0.00    -0.200 F 
ATOM     97  C   UNL A   1      45.851  32.115  26.564  1.00  0.00     0.200 A 
ATOM     98  F   UNL A   1      48.161  31.665  26.754  1.00  0.00    -0.200 F 
ATOM     99  F   UNL A   1      46.104  33.140  25.739  1.00  0.00    -0.200 F 
ENDBRANCH  66  89
ENDBRANCH  40  41
ENDBRANCH  32  35
ENDBRANCH  30  31
ENDBRANCH  29  30
ENDBRANCH   1  29
TORSDOF 16
ENDMDL
MODEL 3
REMARK VINA RESULT:     -12.6      2.144      3.743
REMARK SMILES COc1cc2cc(C(=O)NCCCCNC(=O)c3ccc(-c4c5nc(c(-c6c(F)c(F)c(F)c(F)c6F)c6ccc([nH]6)c(-c6c(F)c(F)c(F)c(F)c6F)c6nc(c(-c7c(F)c(F)c(F)c(F)c7F)c7ccc4[nH]7)C=C6)C=C5)cc3)n(Cc3ccccc3)c2c(OC)c1OC
REMARK SMILES IDX 12 1 11 2 10 3 8 4 9 5 7 7 3 8 4 9 93 10 5 11 90 12 6 13
REMARK SMILES IDX 89 14 81 15 2 16 1 17 94 18 95 19 91 20 92 21 82 22 83 23
REMARK SMILES IDX 84 24 88 25 85 26 87 27 86 28 13 29 14 30 15 31 16 32 17 34
REMARK SMILES IDX 18 35 19 36 80 37 20 38 79 39 21 40 22 41 23 42 73 43 24 44
REMARK SMILES IDX 78 45 72 46 74 47 25 48 77 49 71 50 70 51 26 53 58 54 38 55
REMARK SMILES IDX 57 56 39 57 42 58 56 59 75 60 40 61 41 62 55 64 76 65 43 66
REMARK SMILES IDX 27 67 28 68 36 69 29 70 30 71 34 72 37 73 31 74 32 75 35 76
REMARK SMILES IDX 33 77 59 78 60 79 68 80 61 81 62 82 66 83 69 84 63 85 64 86
REMARK SMILES IDX 67 87 65 88 44 89 45 90 53 91 46 92 47 93 51 94 54 95 48 96
REMARK SMILES IDX 49 97 52 98 50 99
REMARK H PARENT 10 6 15 33 74 52 42 63
REMARK Flexibility Score: inf
ROOT
ATOM      1  C   UNL A   1      41.147  21.222  26.190  1.00  0.00     0.023 C 
ENDROOT
BRANCH   1   2
ATOM      2  C   UNL A   1      40.039  21.642  27.154  1.00  0.00     0.116 C 
BRANCH   2   3
ATOM      3  N   UNL A   1      39.331  22.801  26.655  1.00  0.00    -0.351 N 
ATOM      4  C   UNL A   1      38.112  23.005  26.069  1.00  0.00     0.267 C 
ATOM      5  O   UNL A   1      37.839  24.202  25.911  1.00  0.00    -0.268 OA
ATOM      6  H   UNL A   1      39.846  23.633  26.761  1.00  0.00     0.163 HD
BRANCH   4   7
ATOM      7  C   UNL A   1      37.154  21.973  25.683  1.00  0.00     0.108 A 
ATOM      8  C   UNL A   1      34.957  18.058  24.394  1.00  0.00     0.165 A 
ATOM      9  C   UNL A   1      36.263  18.539  24.606  1.00  0.00     0.061 A 
ATOM     10  C   UNL A   1      33.841  18.911  24.456  1.00  0.00     0.205 A 
ATOM     11  C   UNL A   1      36.450  19.882  24.984  1.00  0.00     0.008 A 
ATOM     12  C   UNL A   1      34.037  20.288  24.729  1.00  0.00     0.189 A 
ATOM     13  C   UNL A   1      37.570  20.695  25.283  1.00  0.00     0.042 A 
ATOM     14  C   UNL A   1      35.340  20.700  25.112  1.00  0.00     0.096 A 
ATOM     15  N   UNL A   1      35.774  21.856  25.787  1.00  0.00    -0.329 N 
BRANCH   8  16
ATOM     16  O   UNL A   1      34.817  16.698  24.264  1.00  0.00    -0.493 OA
ATOM     17  C   UNL A   1      35.366  15.991  25.375  1.00  0.00     0.278 C 
ENDBRANCH   8  16
BRANCH  10  18
ATOM     18  O   UNL A   1      32.532  18.517  24.383  1.00  0.00    -0.490 OA
ATOM     19  C   UNL A   1      31.927  18.200  23.146  1.00  0.00     0.278 C 
ENDBRANCH  10  18
BRANCH  12  20
ATOM     20  O   UNL A   1      33.108  21.290  24.660  1.00  0.00    -0.491 OA
ATOM     21  C   UNL A   1      32.749  21.863  23.415  1.00  0.00     0.278 C 
ENDBRANCH  12  20
BRANCH  15  22
ATOM     22  C   UNL A   1      34.797  22.654  26.531  1.00  0.00     0.158 C 
BRANCH  22  23
ATOM     23  C   UNL A   1      34.224  23.930  25.967  1.00  0.00    -0.028 A 
ATOM     24  C   UNL A   1      34.752  24.692  24.922  1.00  0.00     0.005 A 
ATOM     25  C   UNL A   1      32.989  24.330  26.527  1.00  0.00     0.005 A 
ATOM     26  C   UNL A   1      34.005  25.741  24.373  1.00  0.00     0.000 A 
ATOM     27  C   UNL A   1      32.261  25.392  25.999  1.00  0.00     0.000 A 
ATOM     28  C   UNL A   1      32.758  26.081  24.899  1.00  0.00     0.000 A 
ENDBRANCH  22  23
ENDBRANCH  15  22
ENDBRANCH   4   7
ENDBRANCH   2   3
ENDBRANCH   1   2
BRANCH   1  29
ATOM     29  C   UNL A   1      41.399  19.722  26.032  1.00  0.00     0.023 C 
BRANCH  29  30
ATOM     30  C   UNL A   1      42.864  19.310  26.119  1.00  0.00     0.116 C 
BRANCH  30  31
ATOM     31  N   UNL A   1      43.648  19.725  24.973  1.00  0.00    -0.352 N 
ATOM     32  C   UNL A   1      44.294  20.870  24.609  1.00  0.00     0.251 C 
ATOM     33  H   UNL A   1      43.735  19.013  24.300  1.00  0.00     0.163 HD
ATOM     34  O   UNL A   1      44.958  20.805  23.566  1.00  0.00    -0.269 OA
BRANCH  32  35
ATOM     35  C   UNL A   1      44.221  22.174  25.319  1.00  0.00     0.039 A 
ATOM     36  C   UNL A   1      44.822  22.466  26.543  1.00  0.00     0.014 A 
ATOM     37  C   UNL A   1      43.402  23.153  24.721  1.00  0.00     0.014 A 
ATOM     38  C   UNL A   1      44.526  23.652  27.205  1.00  0.00     0.010 A 
ATOM     39  C   UNL A   1      43.124  24.351  25.364  1.00  0.00     0.010 A 
ATOM     40  C   UNL A   1      43.647  24.574  26.632  1.00  0.00    -0.014 A 
BRANCH  40  41
ATOM     41  C   UNL A   1      43.418  25.824  27.347  1.00  0.00     0.031 A 
ATOM     42  C   UNL A   1      44.417  26.891  27.039  1.00  0.00     0.074 A 
ATOM     43  C   UNL A   1      42.338  26.039  28.125  1.00  0.00     0.049 A 
ATOM     44  N   UNL A   1      45.201  27.522  27.853  1.00  0.00    -0.248 NA
ATOM     45  C   UNL A   1      44.655  27.205  25.619  1.00  0.00     0.031 C 
ATOM     46  C   UNL A   1      41.159  25.187  28.283  1.00  0.00     0.029 A 
ATOM     47  N   UNL A   1      42.023  27.133  28.876  1.00  0.00    -0.354 N 
ATOM     48  C   UNL A   1      45.912  28.431  27.070  1.00  0.00     0.074 A 
ATOM     49  C   UNL A   1      45.645  28.093  25.698  1.00  0.00     0.031 C 
ATOM     50  C   UNL A   1      40.172  25.893  28.882  1.00  0.00     0.029 A 
ATOM     51  C   UNL A   1      40.690  27.196  29.262  1.00  0.00     0.049 A 
ATOM     52  H   UNL A   1      42.684  27.818  29.125  1.00  0.00     0.167 HD
ATOM     53  C   UNL A   1      46.489  29.539  27.611  1.00  0.00     0.037 A 
ATOM     54  C   UNL A   1      40.052  28.277  29.780  1.00  0.00     0.037 A 
ATOM     55  C   UNL A   1      46.720  29.377  29.020  1.00  0.00     0.049 A 
ATOM     56  C   UNL A   1      41.095  29.202  30.289  1.00  0.00     0.074 A 
ATOM     57  C   UNL A   1      47.475  28.507  29.781  1.00  0.00     0.029 A 
ATOM     58  N   UNL A   1      45.850  29.977  29.894  1.00  0.00    -0.354 N 
ATOM     59  N   UNL A   1      41.858  28.951  31.317  1.00  0.00    -0.248 NA
ATOM     60  C   UNL A   1      41.584  30.228  29.379  1.00  0.00     0.031 C 
ATOM     61  C   UNL A   1      46.693  28.266  30.947  1.00  0.00     0.029 A 
ATOM     62  C   UNL A   1      45.542  29.050  30.854  1.00  0.00     0.049 A 
ATOM     63  H   UNL A   1      45.511  30.900  29.841  1.00  0.00     0.167 HD
ATOM     64  C   UNL A   1      43.097  29.469  30.967  1.00  0.00     0.074 A 
ATOM     65  C   UNL A   1      42.848  30.311  29.800  1.00  0.00     0.031 C 
ATOM     66  C   UNL A   1      44.247  28.945  31.479  1.00  0.00     0.037 A 
BRANCH  53  67
ATOM     67  C   UNL A   1      46.497  30.891  26.939  1.00  0.00     0.064 A 
ATOM     68  C   UNL A   1      47.694  31.634  26.892  1.00  0.00     0.173 A 
ATOM     69  C   UNL A   1      45.324  31.611  26.621  1.00  0.00     0.173 A 
ATOM     70  F   UNL A   1      48.867  31.061  27.201  1.00  0.00    -0.203 F 
ATOM     71  C   UNL A   1      47.701  33.006  26.623  1.00  0.00     0.198 A 
ATOM     72  C   UNL A   1      45.342  32.966  26.301  1.00  0.00     0.198 A 
ATOM     73  F   UNL A   1      44.104  31.069  26.719  1.00  0.00    -0.203 F 
ATOM     74  F   UNL A   1      48.846  33.695  26.719  1.00  0.00    -0.200 F 
ATOM     75  C   UNL A   1      46.524  33.672  26.334  1.00  0.00     0.200 A 
ATOM     76  F   UNL A   1      44.187  33.597  26.045  1.00  0.00    -0.200 F 
ATOM     77  F   UNL A   1      46.521  34.997  26.139  1.00  0.00    -0.200 F 
ENDBRANCH  53  67
BRANCH  54  78
ATOM     78  C   UNL A   1      38.656  28.727  29.538  1.00  0.00     0.064 A 
ATOM     79  C   UNL A   1      37.804  29.039  30.613  1.00  0.00     0.173 A 
ATOM     80  C   UNL A   1      38.224  29.143  28.263  1.00  0.00     0.173 A 
ATOM     81  F   UNL A   1      38.154  28.720  31.867  1.00  0.00    -0.203 F 
ATOM     82  C   UNL A   1      36.614  29.753  30.425  1.00  0.00     0.198 A 
ATOM     83  C   UNL A   1      37.033  29.846  28.077  1.00  0.00     0.198 A 
ATOM     84  F   UNL A   1      38.995  28.963  27.182  1.00  0.00    -0.203 F 
ATOM     85  F   UNL A   1      35.864  30.093  31.484  1.00  0.00    -0.200 F 
ATOM     86  C   UNL A   1      36.236  30.166  29.159  1.00  0.00     0.200 A 
ATOM     87  F   UNL A   1      36.697  30.270  26.850  1.00  0.00    -0.200 F 
ATOM     88  F   UNL A   1      35.133  30.907  28.988  1.00  0.00    -0.200 F 
ENDBRANCH  54  78
BRANCH  66  89
ATOM     89  C   UNL A   1      44.144  27.979  32.622  1.00  0.00     0.064 A 
ATOM     90  C   UNL A   1      44.014  26.589  32.460  1.00  0.00     0.173 A 
ATOM     91  C   UNL A   1      44.408  28.460  33.911  1.00  0.00     0.173 A 
ATOM     92  F   UNL A   1      43.848  26.048  31.245  1.00  0.00    -0.203 F 
ATOM     93  C   UNL A   1      44.135  25.724  33.546  1.00  0.00     0.198 A 
ATOM     94  C   UNL A   1      44.563  27.591  34.987  1.00  0.00     0.198 A 
ATOM     95  F   UNL A   1      44.591  29.774  34.111  1.00  0.00    -0.203 F 
ATOM     96  F   UNL A   1      44.023  24.399  33.366  1.00  0.00    -0.200 F 
ATOM     97  C   UNL A   1      44.425  26.225  34.805  1.00  0.00     0.200 A 
ATOM     98  F   UNL A   1      44.895  28.077  36.191  1.00  0.00    -0.200 F 
ATOM     99  F   UNL A   1      44.607  25.389  35.836  1.00  0.00    -0.200 F 
ENDBRANCH  66  89
ENDBRANCH  40  41
ENDBRANCH  32  35
ENDBRANCH  30  31
ENDBRANCH  29  30
ENDBRANCH   1  29
TORSDOF 16
ENDMDL
