MODEL 1
REMARK VINA RESULT:     -14.1      0.000      0.000
REMARK SMILES Cc1cccc(-c2cccc(C(=O)NCCCCNC(=O)c3ccc(-c4c5nc(c(-c6c(F)c(F)c(F)c(F)c6F)c6ccc([nH]6)c(-c6c(F)c(F)c(F)c(F)c6F)c6nc(c(-c7c(F)c(F)c(F)c(F)c7F)c7ccc4[nH]7)C=C6)C=C5)cc3)c2)c1
REMARK SMILES IDX 17 1 16 2 15 3 14 4 12 5 13 6 11 8 7 9 8 10 85 11 9 12 10 13
REMARK SMILES IDX 6 14 1 15 2 16 3 17 86 18 4 19 5 20 18 21 19 22 20 23 21 25
REMARK SMILES IDX 22 26 23 27 84 28 24 29 83 30 25 31 26 32 27 33 77 34 28 35
REMARK SMILES IDX 82 36 76 37 78 38 29 39 81 40 75 41 74 42 30 44 62 45 42 46
REMARK SMILES IDX 61 47 43 48 46 49 60 50 79 51 44 52 45 53 59 55 80 56 47 57
REMARK SMILES IDX 31 58 32 59 40 60 33 61 34 62 38 63 41 64 35 65 36 66 39 67
REMARK SMILES IDX 37 68 63 69 64 70 72 71 65 72 66 73 70 74 73 75 67 76 68 77
REMARK SMILES IDX 71 78 69 79 48 80 49 81 57 82 50 83 51 84 55 85 58 86 52 87
REMARK SMILES IDX 53 88 56 89 54 90
REMARK H PARENT 14 7 19 24 78 43 46 54
REMARK Flexibility Score: inf
ROOT
ATOM      1  C   UNL A   1      32.824  30.710  27.160  1.00  0.00     0.023 C 
ENDROOT
BRANCH   1   2
ATOM      2  C   UNL A   1      31.796  29.650  26.760  1.00  0.00     0.023 C 
BRANCH   2   3
ATOM      3  C   UNL A   1      32.116  28.217  27.189  1.00  0.00     0.116 C 
BRANCH   3   4
ATOM      4  N   UNL A   1      32.639  27.380  26.119  1.00  0.00    -0.352 N 
ATOM      5  C   UNL A   1      32.150  26.891  24.930  1.00  0.00     0.251 C 
ATOM      6  O   UNL A   1      32.905  26.150  24.296  1.00  0.00    -0.269 OA
ATOM      7  H   UNL A   1      33.566  27.096  26.286  1.00  0.00     0.163 HD
BRANCH   5   8
ATOM      8  C   UNL A   1      30.790  27.166  24.373  1.00  0.00     0.040 A 
ATOM      9  C   UNL A   1      29.292  28.815  23.322  1.00  0.00    -0.018 A 
ATOM     10  C   UNL A   1      28.283  27.840  23.300  1.00  0.00     0.009 A 
ATOM     11  C   UNL A   1      30.556  28.446  23.821  1.00  0.00     0.022 A 
ATOM     12  C   UNL A   1      28.484  26.593  23.876  1.00  0.00     0.001 A 
ATOM     13  C   UNL A   1      29.712  26.285  24.460  1.00  0.00     0.014 A 
BRANCH   9  14
ATOM     14  C   UNL A   1      28.967  30.197  22.929  1.00  0.00    -0.018 A 
ATOM     15  C   UNL A   1      27.784  31.976  19.751  1.00  0.00     0.044 C 
ATOM     16  C   UNL A   1      28.233  31.743  21.163  1.00  0.00    -0.051 A 
ATOM     17  C   UNL A   1      28.392  32.812  22.047  1.00  0.00     0.003 A 
ATOM     18  C   UNL A   1      28.519  30.450  21.615  1.00  0.00     0.012 A 
ATOM     19  C   UNL A   1      28.817  32.584  23.357  1.00  0.00     0.001 A 
ATOM     20  C   UNL A   1      29.101  31.286  23.797  1.00  0.00     0.009 A 
ENDBRANCH   9  14
ENDBRANCH   5   8
ENDBRANCH   3   4
ENDBRANCH   2   3
ENDBRANCH   1   2
BRANCH   1  21
ATOM     21  C   UNL A   1      34.014  30.188  27.958  1.00  0.00     0.116 C 
BRANCH  21  22
ATOM     22  N   UNL A   1      34.801  31.197  28.653  1.00  0.00    -0.352 N 
ATOM     23  C   UNL A   1      36.037  31.088  29.277  1.00  0.00     0.251 C 
ATOM     24  H   UNL A   1      34.395  32.093  28.684  1.00  0.00     0.163 HD
ATOM     25  O   UNL A   1      36.483  32.035  29.905  1.00  0.00    -0.269 OA
BRANCH  23  26
ATOM     26  C   UNL A   1      36.885  29.881  29.065  1.00  0.00     0.039 A 
ATOM     27  C   UNL A   1      37.057  28.996  30.140  1.00  0.00     0.014 A 
ATOM     28  C   UNL A   1      37.656  29.723  27.921  1.00  0.00     0.014 A 
ATOM     29  C   UNL A   1      38.172  28.159  30.173  1.00  0.00     0.010 A 
ATOM     30  C   UNL A   1      38.823  28.991  27.999  1.00  0.00     0.010 A 
ATOM     31  C   UNL A   1      39.120  28.272  29.159  1.00  0.00    -0.014 A 
BRANCH  31  32
ATOM     32  C   UNL A   1      40.498  27.802  29.271  1.00  0.00     0.031 A 
ATOM     33  C   UNL A   1      40.891  26.477  28.751  1.00  0.00     0.074 A 
ATOM     34  C   UNL A   1      41.445  28.682  29.667  1.00  0.00     0.049 A 
ATOM     35  N   UNL A   1      42.024  25.903  28.982  1.00  0.00    -0.248 NA
ATOM     36  C   UNL A   1      39.993  25.664  27.946  1.00  0.00     0.031 C 
ATOM     37  C   UNL A   1      42.892  28.572  29.496  1.00  0.00     0.029 A 
ATOM     38  N   UNL A   1      41.281  29.798  30.505  1.00  0.00    -0.354 N 
ATOM     39  C   UNL A   1      42.124  24.808  28.151  1.00  0.00     0.074 A 
ATOM     40  C   UNL A   1      40.802  24.661  27.592  1.00  0.00     0.031 C 
ATOM     41  C   UNL A   1      43.493  29.338  30.419  1.00  0.00     0.029 A 
ATOM     42  C   UNL A   1      42.454  29.834  31.303  1.00  0.00     0.049 A 
ATOM     43  H   UNL A   1      40.518  30.420  30.534  1.00  0.00     0.167 HD
ATOM     44  C   UNL A   1      43.354  24.242  27.956  1.00  0.00     0.037 A 
ATOM     45  C   UNL A   1      42.382  29.583  32.643  1.00  0.00     0.037 A 
ATOM     46  C   UNL A   1      44.340  24.796  28.891  1.00  0.00     0.049 A 
ATOM     47  C   UNL A   1      43.131  28.349  33.103  1.00  0.00     0.074 A 
ATOM     48  C   UNL A   1      45.356  25.735  28.802  1.00  0.00     0.029 A 
ATOM     49  N   UNL A   1      44.158  24.569  30.245  1.00  0.00    -0.354 N 
ATOM     50  N   UNL A   1      43.748  27.520  32.307  1.00  0.00    -0.248 NA
ATOM     51  C   UNL A   1      43.157  27.903  34.497  1.00  0.00     0.031 C 
ATOM     52  C   UNL A   1      45.741  26.102  30.125  1.00  0.00     0.029 A 
ATOM     53  C   UNL A   1      44.965  25.383  31.015  1.00  0.00     0.049 A 
ATOM     54  H   UNL A   1      43.529  23.907  30.614  1.00  0.00     0.167 HD
ATOM     55  C   UNL A   1      44.190  26.444  33.028  1.00  0.00     0.074 A 
ATOM     56  C   UNL A   1      43.802  26.730  34.397  1.00  0.00     0.031 C 
ATOM     57  C   UNL A   1      44.805  25.371  32.458  1.00  0.00     0.037 A 
BRANCH  44  58
ATOM     58  C   UNL A   1      43.734  23.351  26.783  1.00  0.00     0.064 A 
ATOM     59  C   UNL A   1      43.247  22.025  26.707  1.00  0.00     0.173 A 
ATOM     60  C   UNL A   1      44.619  23.695  25.744  1.00  0.00     0.173 A 
ATOM     61  F   UNL A   1      42.316  21.569  27.554  1.00  0.00    -0.203 F 
ATOM     62  C   UNL A   1      43.699  21.105  25.752  1.00  0.00     0.198 A 
ATOM     63  C   UNL A   1      45.105  22.766  24.816  1.00  0.00     0.198 A 
ATOM     64  F   UNL A   1      45.005  24.953  25.528  1.00  0.00    -0.203 F 
ATOM     65  F   UNL A   1      43.206  19.859  25.745  1.00  0.00    -0.200 F 
ATOM     66  C   UNL A   1      44.654  21.466  24.828  1.00  0.00     0.200 A 
ATOM     67  F   UNL A   1      46.010  23.154  23.905  1.00  0.00    -0.200 F 
ATOM     68  F   UNL A   1      45.116  20.579  23.936  1.00  0.00    -0.200 F 
ENDBRANCH  44  58
BRANCH  45  69
ATOM     69  C   UNL A   1      41.120  30.087  33.248  1.00  0.00     0.064 A 
ATOM     70  C   UNL A   1      40.988  31.473  33.458  1.00  0.00     0.173 A 
ATOM     71  C   UNL A   1      39.952  29.316  33.253  1.00  0.00     0.173 A 
ATOM     72  F   UNL A   1      42.078  32.258  33.457  1.00  0.00    -0.203 F 
ATOM     73  C   UNL A   1      39.736  32.076  33.542  1.00  0.00     0.198 A 
ATOM     74  C   UNL A   1      38.700  29.922  33.356  1.00  0.00     0.198 A 
ATOM     75  F   UNL A   1      40.011  27.994  33.034  1.00  0.00    -0.203 F 
ATOM     76  F   UNL A   1      39.640  33.411  33.618  1.00  0.00    -0.200 F 
ATOM     77  C   UNL A   1      38.591  31.301  33.463  1.00  0.00     0.200 A 
ATOM     78  F   UNL A   1      37.591  29.175  33.250  1.00  0.00    -0.200 F 
ATOM     79  F   UNL A   1      37.385  31.884  33.444  1.00  0.00    -0.200 F 
ENDBRANCH  45  69
BRANCH  57  80
ATOM     80  C   UNL A   1      45.309  24.214  33.261  1.00  0.00     0.064 A 
ATOM     81  C   UNL A   1      44.496  23.109  33.554  1.00  0.00     0.173 A 
ATOM     82  C   UNL A   1      46.584  24.237  33.859  1.00  0.00     0.173 A 
ATOM     83  F   UNL A   1      43.254  23.023  33.052  1.00  0.00    -0.203 F 
ATOM     84  C   UNL A   1      44.941  22.074  34.376  1.00  0.00     0.198 A 
ATOM     85  C   UNL A   1      47.009  23.226  34.719  1.00  0.00     0.198 A 
ATOM     86  F   UNL A   1      47.454  25.226  33.604  1.00  0.00    -0.203 F 
ATOM     87  F   UNL A   1      44.153  21.013  34.598  1.00  0.00    -0.200 F 
ATOM     88  C   UNL A   1      46.190  22.141  34.971  1.00  0.00     0.200 A 
ATOM     89  F   UNL A   1      48.215  23.309  35.298  1.00  0.00    -0.200 F 
ATOM     90  F   UNL A   1      46.608  21.158  35.780  1.00  0.00    -0.200 F 
ENDBRANCH  57  80
ENDBRANCH  31  32
ENDBRANCH  23  26
ENDBRANCH  21  22
ENDBRANCH   1  21
TORSDOF 12
ENDMDL
MODEL 2
REMARK VINA RESULT:     -14.0      4.546     10.432
REMARK SMILES Cc1cccc(-c2cccc(C(=O)NCCCCNC(=O)c3ccc(-c4c5nc(c(-c6c(F)c(F)c(F)c(F)c6F)c6ccc([nH]6)c(-c6c(F)c(F)c(F)c(F)c6F)c6nc(c(-c7c(F)c(F)c(F)c(F)c7F)c7ccc4[nH]7)C=C6)C=C5)cc3)c2)c1
REMARK SMILES IDX 17 1 16 2 15 3 14 4 12 5 13 6 11 8 7 9 8 10 85 11 9 12 10 13
REMARK SMILES IDX 6 14 1 15 2 16 3 17 86 18 4 19 5 20 18 21 19 22 20 23 21 25
REMARK SMILES IDX 22 26 23 27 84 28 24 29 83 30 25 31 26 32 27 33 77 34 28 35
REMARK SMILES IDX 82 36 76 37 78 38 29 39 81 40 75 41 74 42 30 44 62 45 42 46
REMARK SMILES IDX 61 47 43 48 46 49 60 50 79 51 44 52 45 53 59 55 80 56 47 57
REMARK SMILES IDX 31 58 32 59 40 60 33 61 34 62 38 63 41 64 35 65 36 66 39 67
REMARK SMILES IDX 37 68 63 69 64 70 72 71 65 72 66 73 70 74 73 75 67 76 68 77
REMARK SMILES IDX 71 78 69 79 48 80 49 81 57 82 50 83 51 84 55 85 58 86 52 87
REMARK SMILES IDX 53 88 56 89 54 90
REMARK H PARENT 14 7 19 24 78 43 46 54
REMARK Flexibility Score: inf
ROOT
ATOM      1  C   UNL A   1      37.855  21.442  25.377  1.00  0.00     0.023 C 
ENDROOT
BRANCH   1   2
ATOM      2  C   UNL A   1      36.347  21.329  25.599  1.00  0.00     0.023 C 
BRANCH   2   3
ATOM      3  C   UNL A   1      35.667  20.121  24.952  1.00  0.00     0.116 C 
BRANCH   3   4
ATOM      4  N   UNL A   1      34.233  20.047  25.193  1.00  0.00    -0.352 N 
ATOM      5  C   UNL A   1      33.161  20.884  24.988  1.00  0.00     0.251 C 
ATOM      6  O   UNL A   1      32.067  20.472  25.381  1.00  0.00    -0.269 OA
ATOM      7  H   UNL A   1      33.967  19.192  25.602  1.00  0.00     0.163 HD
BRANCH   5   8
ATOM      8  C   UNL A   1      33.226  22.237  24.356  1.00  0.00     0.040 A 
ATOM      9  C   UNL A   1      33.058  24.673  24.687  1.00  0.00    -0.018 A 
ATOM     10  C   UNL A   1      33.310  24.846  23.318  1.00  0.00     0.009 A 
ATOM     11  C   UNL A   1      33.065  23.360  25.199  1.00  0.00     0.022 A 
ATOM     12  C   UNL A   1      33.429  23.752  22.470  1.00  0.00     0.001 A 
ATOM     13  C   UNL A   1      33.328  22.459  22.983  1.00  0.00     0.014 A 
BRANCH   9  14
ATOM     14  C   UNL A   1      32.693  25.841  25.506  1.00  0.00    -0.018 A 
ATOM     15  C   UNL A   1      34.464  28.966  26.832  1.00  0.00     0.044 C 
ATOM     16  C   UNL A   1      33.398  27.946  26.563  1.00  0.00    -0.051 A 
ATOM     17  C   UNL A   1      32.126  28.080  27.123  1.00  0.00     0.003 A 
ATOM     18  C   UNL A   1      33.665  26.832  25.760  1.00  0.00     0.012 A 
ATOM     19  C   UNL A   1      31.142  27.121  26.871  1.00  0.00     0.001 A 
ATOM     20  C   UNL A   1      31.422  26.010  26.066  1.00  0.00     0.009 A 
ENDBRANCH   9  14
ENDBRANCH   5   8
ENDBRANCH   3   4
ENDBRANCH   2   3
ENDBRANCH   1   2
BRANCH   1  21
ATOM     21  C   UNL A   1      38.465  22.789  25.749  1.00  0.00     0.116 C 
BRANCH  21  22
ATOM     22  N   UNL A   1      39.851  22.754  26.196  1.00  0.00    -0.352 N 
ATOM     23  C   UNL A   1      40.681  23.791  26.603  1.00  0.00     0.251 C 
ATOM     24  H   UNL A   1      40.261  21.860  26.211  1.00  0.00     0.163 HD
ATOM     25  O   UNL A   1      41.858  23.566  26.837  1.00  0.00    -0.269 OA
BRANCH  23  26
ATOM     26  C   UNL A   1      40.117  25.138  26.898  1.00  0.00     0.039 A 
ATOM     27  C   UNL A   1      40.613  26.236  26.179  1.00  0.00     0.014 A 
ATOM     28  C   UNL A   1      39.278  25.356  27.983  1.00  0.00     0.014 A 
ATOM     29  C   UNL A   1      40.503  27.518  26.715  1.00  0.00     0.010 A 
ATOM     30  C   UNL A   1      39.271  26.600  28.580  1.00  0.00     0.010 A 
ATOM     31  C   UNL A   1      39.952  27.665  27.985  1.00  0.00    -0.014 A 
BRANCH  31  32
ATOM     32  C   UNL A   1      40.154  28.834  28.836  1.00  0.00     0.031 A 
ATOM     33  C   UNL A   1      39.111  29.872  28.958  1.00  0.00     0.074 A 
ATOM     34  C   UNL A   1      41.220  28.845  29.667  1.00  0.00     0.049 A 
ATOM     35  N   UNL A   1      39.280  31.022  29.519  1.00  0.00    -0.248 NA
ATOM     36  C   UNL A   1      37.778  29.698  28.402  1.00  0.00     0.031 C 
ATOM     37  C   UNL A   1      41.425  29.686  30.844  1.00  0.00     0.029 A 
ATOM     38  N   UNL A   1      42.457  28.202  29.484  1.00  0.00    -0.354 N 
ATOM     39  C   UNL A   1      38.044  31.615  29.656  1.00  0.00     0.074 A 
ATOM     40  C   UNL A   1      37.160  30.786  28.872  1.00  0.00     0.031 C 
ATOM     41  C   UNL A   1      42.742  29.769  31.090  1.00  0.00     0.029 A 
ATOM     42  C   UNL A   1      43.422  29.112  29.989  1.00  0.00     0.049 A 
ATOM     43  H   UNL A   1      42.619  27.315  29.090  1.00  0.00     0.167 HD
ATOM     44  C   UNL A   1      37.912  32.667  30.519  1.00  0.00     0.037 A 
ATOM     45  C   UNL A   1      44.303  29.720  29.141  1.00  0.00     0.037 A 
ATOM     46  C   UNL A   1      39.225  33.130  30.985  1.00  0.00     0.049 A 
ATOM     47  C   UNL A   1      44.172  31.227  29.057  1.00  0.00     0.074 A 
ATOM     48  C   UNL A   1      39.965  32.969  32.147  1.00  0.00     0.029 A 
ATOM     49  N   UNL A   1      40.099  33.662  30.054  1.00  0.00    -0.354 N 
ATOM     50  N   UNL A   1      43.256  31.925  29.668  1.00  0.00    -0.248 NA
ATOM     51  C   UNL A   1      45.013  32.054  28.189  1.00  0.00     0.031 C 
ATOM     52  C   UNL A   1      41.309  33.365  31.877  1.00  0.00     0.029 A 
ATOM     53  C   UNL A   1      41.380  33.772  30.557  1.00  0.00     0.049 A 
ATOM     54  H   UNL A   1      39.840  33.930  29.142  1.00  0.00     0.167 HD
ATOM     55  C   UNL A   1      43.332  33.228  29.262  1.00  0.00     0.074 A 
ATOM     56  C   UNL A   1      44.451  33.265  28.339  1.00  0.00     0.031 C 
ATOM     57  C   UNL A   1      42.453  34.185  29.669  1.00  0.00     0.037 A 
BRANCH  44  58
ATOM     58  C   UNL A   1      36.602  33.148  31.124  1.00  0.00     0.064 A 
ATOM     59  C   UNL A   1      35.692  33.905  30.349  1.00  0.00     0.173 A 
ATOM     60  C   UNL A   1      36.203  32.973  32.463  1.00  0.00     0.173 A 
ATOM     61  F   UNL A   1      35.866  34.076  29.033  1.00  0.00    -0.203 F 
ATOM     62  C   UNL A   1      34.560  34.521  30.895  1.00  0.00     0.198 A 
ATOM     63  C   UNL A   1      35.096  33.624  33.021  1.00  0.00     0.198 A 
ATOM     64  F   UNL A   1      36.815  32.115  33.279  1.00  0.00    -0.203 F 
ATOM     65  F   UNL A   1      33.746  35.236  30.106  1.00  0.00    -0.200 F 
ATOM     66  C   UNL A   1      34.280  34.409  32.240  1.00  0.00     0.200 A 
ATOM     67  F   UNL A   1      34.827  33.470  34.327  1.00  0.00    -0.200 F 
ATOM     68  F   UNL A   1      33.218  35.028  32.773  1.00  0.00    -0.200 F 
ENDBRANCH  44  58
BRANCH  45  69
ATOM     69  C   UNL A   1      44.710  28.836  28.016  1.00  0.00     0.064 A 
ATOM     70  C   UNL A   1      45.581  27.765  28.290  1.00  0.00     0.173 A 
ATOM     71  C   UNL A   1      43.982  28.791  26.822  1.00  0.00     0.173 A 
ATOM     72  F   UNL A   1      46.300  27.758  29.426  1.00  0.00    -0.203 F 
ATOM     73  C   UNL A   1      45.627  26.641  27.470  1.00  0.00     0.198 A 
ATOM     74  C   UNL A   1      44.044  27.671  25.993  1.00  0.00     0.198 A 
ATOM     75  F   UNL A   1      43.117  29.769  26.517  1.00  0.00    -0.203 F 
ATOM     76  F   UNL A   1      46.374  25.586  27.823  1.00  0.00    -0.200 F 
ATOM     77  C   UNL A   1      44.836  26.584  26.335  1.00  0.00     0.200 A 
ATOM     78  F   UNL A   1      43.256  27.602  24.909  1.00  0.00    -0.200 F 
ATOM     79  F   UNL A   1      44.801  25.467  25.596  1.00  0.00    -0.200 F 
ENDBRANCH  45  69
BRANCH  57  80
ATOM     80  C   UNL A   1      42.564  35.614  29.240  1.00  0.00     0.064 A 
ATOM     81  C   UNL A   1      41.968  36.078  28.058  1.00  0.00     0.173 A 
ATOM     82  C   UNL A   1      43.372  36.530  29.942  1.00  0.00     0.173 A 
ATOM     83  F   UNL A   1      41.209  35.261  27.311  1.00  0.00    -0.203 F 
ATOM     84  C   UNL A   1      42.149  37.388  27.616  1.00  0.00     0.198 A 
ATOM     85  C   UNL A   1      43.590  37.824  29.474  1.00  0.00     0.198 A 
ATOM     86  F   UNL A   1      43.947  36.197  31.108  1.00  0.00    -0.203 F 
ATOM     87  F   UNL A   1      41.528  37.809  26.506  1.00  0.00    -0.200 F 
ATOM     88  C   UNL A   1      42.972  38.255  28.316  1.00  0.00     0.200 A 
ATOM     89  F   UNL A   1      44.400  38.649  30.153  1.00  0.00    -0.200 F 
ATOM     90  F   UNL A   1      43.164  39.507  27.878  1.00  0.00    -0.200 F 
ENDBRANCH  57  80
ENDBRANCH  31  32
ENDBRANCH  23  26
ENDBRANCH  21  22
ENDBRANCH   1  21
TORSDOF 12
ENDMDL
MODEL 3
REMARK VINA RESULT:     -13.8      2.055      3.925
REMARK SMILES Cc1cccc(-c2cccc(C(=O)NCCCCNC(=O)c3ccc(-c4c5nc(c(-c6c(F)c(F)c(F)c(F)c6F)c6ccc([nH]6)c(-c6c(F)c(F)c(F)c(F)c6F)c6nc(c(-c7c(F)c(F)c(F)c(F)c7F)c7ccc4[nH]7)C=C6)C=C5)cc3)c2)c1
REMARK SMILES IDX 17 1 16 2 15 3 14 4 12 5 13 6 11 8 7 9 8 10 85 11 9 12 10 13
REMARK SMILES IDX 6 14 1 15 2 16 3 17 86 18 4 19 5 20 18 21 19 22 20 23 21 25
REMARK SMILES IDX 22 26 23 27 84 28 24 29 83 30 25 31 26 32 27 33 77 34 28 35
REMARK SMILES IDX 82 36 76 37 78 38 29 39 81 40 75 41 74 42 30 44 62 45 42 46
REMARK SMILES IDX 61 47 43 48 46 49 60 50 79 51 44 52 45 53 59 55 80 56 47 57
REMARK SMILES IDX 31 58 32 59 40 60 33 61 34 62 38 63 41 64 35 65 36 66 39 67
REMARK SMILES IDX 37 68 63 69 64 70 72 71 65 72 66 73 70 74 73 75 67 76 68 77
REMARK SMILES IDX 71 78 69 79 48 80 49 81 57 82 50 83 51 84 55 85 58 86 52 87
REMARK SMILES IDX 53 88 56 89 54 90
REMARK H PARENT 14 7 19 24 78 43 46 54
REMARK Flexibility Score: inf
ROOT
ATOM      1  C   UNL A   1      32.763  30.719  27.124  1.00  0.00     0.023 C 
ENDROOT
BRANCH   1   2
ATOM      2  C   UNL A   1      31.791  29.580  26.815  1.00  0.00     0.023 C 
BRANCH   2   3
ATOM      3  C   UNL A   1      32.041  28.269  27.564  1.00  0.00     0.116 C 
BRANCH   3   4
ATOM      4  N   UNL A   1      31.086  27.216  27.253  1.00  0.00    -0.352 N 
ATOM      5  C   UNL A   1      31.032  26.179  26.350  1.00  0.00     0.251 C 
ATOM      6  O   UNL A   1      29.999  25.505  26.359  1.00  0.00    -0.269 OA
ATOM      7  H   UNL A   1      30.287  27.255  27.825  1.00  0.00     0.163 HD
BRANCH   5   8
ATOM      8  C   UNL A   1      32.101  25.830  25.365  1.00  0.00     0.040 A 
ATOM      9  C   UNL A   1      33.713  24.135  24.591  1.00  0.00    -0.018 A 
ATOM     10  C   UNL A   1      34.127  25.029  23.593  1.00  0.00     0.009 A 
ATOM     11  C   UNL A   1      32.664  24.536  25.442  1.00  0.00     0.022 A 
ATOM     12  C   UNL A   1      33.614  26.318  23.530  1.00  0.00     0.001 A 
ATOM     13  C   UNL A   1      32.650  26.728  24.450  1.00  0.00     0.014 A 
BRANCH   9  14
ATOM     14  C   UNL A   1      34.450  22.874  24.781  1.00  0.00    -0.018 A 
ATOM     15  C   UNL A   1      38.076  21.851  25.465  1.00  0.00     0.044 C 
ATOM     16  C   UNL A   1      36.601  21.761  25.203  1.00  0.00    -0.051 A 
ATOM     17  C   UNL A   1      35.972  20.521  25.086  1.00  0.00     0.003 A 
ATOM     18  C   UNL A   1      35.833  22.922  25.052  1.00  0.00     0.012 A 
ATOM     19  C   UNL A   1      34.600  20.449  24.836  1.00  0.00     0.001 A 
ATOM     20  C   UNL A   1      33.842  21.617  24.687  1.00  0.00     0.009 A 
ENDBRANCH   9  14
ENDBRANCH   5   8
ENDBRANCH   3   4
ENDBRANCH   2   3
ENDBRANCH   1   2
BRANCH   1  21
ATOM     21  C   UNL A   1      34.135  30.281  27.625  1.00  0.00     0.116 C 
BRANCH  21  22
ATOM     22  N   UNL A   1      34.835  31.239  28.470  1.00  0.00    -0.352 N 
ATOM     23  C   UNL A   1      35.999  31.086  29.213  1.00  0.00     0.251 C 
ATOM     24  H   UNL A   1      34.420  32.129  28.522  1.00  0.00     0.163 HD
ATOM     25  O   UNL A   1      36.366  31.986  29.951  1.00  0.00    -0.269 OA
BRANCH  23  26
ATOM     26  C   UNL A   1      36.876  29.899  29.007  1.00  0.00     0.039 A 
ATOM     27  C   UNL A   1      37.067  29.022  30.085  1.00  0.00     0.014 A 
ATOM     28  C   UNL A   1      37.650  29.755  27.863  1.00  0.00     0.014 A 
ATOM     29  C   UNL A   1      38.202  28.213  30.122  1.00  0.00     0.010 A 
ATOM     30  C   UNL A   1      38.835  29.052  27.946  1.00  0.00     0.010 A 
ATOM     31  C   UNL A   1      39.148  28.344  29.109  1.00  0.00    -0.014 A 
BRANCH  31  32
ATOM     32  C   UNL A   1      40.537  27.908  29.223  1.00  0.00     0.031 A 
ATOM     33  C   UNL A   1      40.963  26.593  28.704  1.00  0.00     0.074 A 
ATOM     34  C   UNL A   1      41.461  28.810  29.621  1.00  0.00     0.049 A 
ATOM     35  N   UNL A   1      42.109  26.046  28.936  1.00  0.00    -0.248 NA
ATOM     36  C   UNL A   1      40.087  25.758  27.896  1.00  0.00     0.031 C 
ATOM     37  C   UNL A   1      42.911  28.736  29.454  1.00  0.00     0.029 A 
ATOM     38  N   UNL A   1      41.268  29.922  30.460  1.00  0.00    -0.354 N 
ATOM     39  C   UNL A   1      42.238  24.955  28.105  1.00  0.00     0.074 A 
ATOM     40  C   UNL A   1      40.920  24.776  27.543  1.00  0.00     0.031 C 
ATOM     41  C   UNL A   1      43.491  29.515  30.379  1.00  0.00     0.029 A 
ATOM     42  C   UNL A   1      42.438  29.986  31.260  1.00  0.00     0.049 A 
ATOM     43  H   UNL A   1      40.490  30.524  30.487  1.00  0.00     0.167 HD
ATOM     44  C   UNL A   1      43.481  24.419  27.913  1.00  0.00     0.037 A 
ATOM     45  C   UNL A   1      42.369  29.732  32.600  1.00  0.00     0.037 A 
ATOM     46  C   UNL A   1      44.451  24.996  28.851  1.00  0.00     0.049 A 
ATOM     47  C   UNL A   1      43.147  28.516  33.061  1.00  0.00     0.074 A 
ATOM     48  C   UNL A   1      45.445  25.959  28.764  1.00  0.00     0.029 A 
ATOM     49  N   UNL A   1      44.272  24.764  30.204  1.00  0.00    -0.354 N 
ATOM     50  N   UNL A   1      43.786  27.703  32.267  1.00  0.00    -0.248 NA
ATOM     51  C   UNL A   1      43.181  28.070  34.455  1.00  0.00     0.031 C 
ATOM     52  C   UNL A   1      45.818  26.335  30.088  1.00  0.00     0.029 A 
ATOM     53  C   UNL A   1      45.057  25.597  30.976  1.00  0.00     0.049 A 
ATOM     54  H   UNL A   1      43.658  24.087  30.571  1.00  0.00     0.167 HD
ATOM     55  C   UNL A   1      44.252  26.638  32.988  1.00  0.00     0.074 A 
ATOM     56  C   UNL A   1      43.855  26.913  34.356  1.00  0.00     0.031 C 
ATOM     57  C   UNL A   1      44.894  25.580  32.419  1.00  0.00     0.037 A 
BRANCH  44  58
ATOM     58  C   UNL A   1      43.885  23.539  26.741  1.00  0.00     0.064 A 
ATOM     59  C   UNL A   1      43.420  22.205  26.655  1.00  0.00     0.173 A 
ATOM     60  C   UNL A   1      44.774  23.900  25.710  1.00  0.00     0.173 A 
ATOM     61  F   UNL A   1      42.488  21.732  27.492  1.00  0.00    -0.203 F 
ATOM     62  C   UNL A   1      43.893  21.296  25.701  1.00  0.00     0.198 A 
ATOM     63  C   UNL A   1      45.283  22.982  24.784  1.00  0.00     0.198 A 
ATOM     64  F   UNL A   1      45.143  25.164  25.503  1.00  0.00    -0.203 F 
ATOM     65  F   UNL A   1      43.420  20.042  25.685  1.00  0.00    -0.200 F 
ATOM     66  C   UNL A   1      44.852  21.675  24.787  1.00  0.00     0.200 A 
ATOM     67  F   UNL A   1      46.190  23.386  23.882  1.00  0.00    -0.200 F 
ATOM     68  F   UNL A   1      45.335  20.798  23.896  1.00  0.00    -0.200 F 
ENDBRANCH  44  58
BRANCH  45  69
ATOM     69  C   UNL A   1      41.094  30.204  33.203  1.00  0.00     0.064 A 
ATOM     70  C   UNL A   1      40.916  31.590  33.387  1.00  0.00     0.173 A 
ATOM     71  C   UNL A   1      39.953  29.395  33.229  1.00  0.00     0.173 A 
ATOM     72  F   UNL A   1      41.979  32.411  33.366  1.00  0.00    -0.203 F 
ATOM     73  C   UNL A   1      39.645  32.151  33.467  1.00  0.00     0.198 A 
ATOM     74  C   UNL A   1      38.682  29.961  33.328  1.00  0.00     0.198 A 
ATOM     75  F   UNL A   1      40.055  28.073  33.035  1.00  0.00    -0.203 F 
ATOM     76  F   UNL A   1      39.505  33.484  33.518  1.00  0.00    -0.200 F 
ATOM     77  C   UNL A   1      38.527  31.337  33.409  1.00  0.00     0.200 A 
ATOM     78  F   UNL A   1      37.598  29.175  33.242  1.00  0.00    -0.200 F 
ATOM     79  F   UNL A   1      37.302  31.879  33.386  1.00  0.00    -0.200 F 
ENDBRANCH  45  69
BRANCH  57  80
ATOM     80  C   UNL A   1      45.425  24.435  33.222  1.00  0.00     0.064 A 
ATOM     81  C   UNL A   1      44.630  23.321  33.532  1.00  0.00     0.173 A 
ATOM     82  C   UNL A   1      46.706  24.479  33.803  1.00  0.00     0.173 A 
ATOM     83  F   UNL A   1      43.384  23.215  33.047  1.00  0.00    -0.203 F 
ATOM     84  C   UNL A   1      45.101  22.298  34.355  1.00  0.00     0.198 A 
ATOM     85  C   UNL A   1      47.156  23.480  34.664  1.00  0.00     0.198 A 
ATOM     86  F   UNL A   1      47.559  25.479  33.531  1.00  0.00    -0.203 F 
ATOM     87  F   UNL A   1      44.330  21.227  34.593  1.00  0.00    -0.200 F 
ATOM     88  C   UNL A   1      46.356  22.386  34.933  1.00  0.00     0.200 A 
ATOM     89  F   UNL A   1      48.368  23.583  35.227  1.00  0.00    -0.200 F 
ATOM     90  F   UNL A   1      46.798  21.413  35.743  1.00  0.00    -0.200 F 
ENDBRANCH  57  80
ENDBRANCH  31  32
ENDBRANCH  23  26
ENDBRANCH  21  22
ENDBRANCH   1  21
TORSDOF 12
ENDMDL
