MODEL 1
REMARK VINA RESULT:     -13.0      0.000      0.000
REMARK SMILES NS(=O)(=O)c1ccc(/N=C/c2ccc(O)c(C(=O)NCCCCNC(=O)c3ccc(-c4c5nc(c(-c6c(F)c(F)c(F)c(F)c6F)c6ccc([nH]6)c(-c6c(F)c(F)c(F)c(F)c6F)c6nc(c(-c7c(F)c(F)c(F)c(F)c7F)c7ccc4[nH]7)C=C6)C=C5)cc3)c2)cc1
REMARK SMILES IDX 20 1 19 2 17 3 18 4 16 6 11 7 12 8 90 9 13 10 14 11 10 12
REMARK SMILES IDX 9 13 8 14 5 15 6 16 92 17 7 18 91 19 2 20 3 21 4 22 1 23
REMARK SMILES IDX 15 26 21 28 22 29 23 30 24 31 25 32 26 34 27 35 28 36 89 37
REMARK SMILES IDX 29 38 88 39 30 40 31 41 32 42 82 43 33 44 87 45 81 46 83 47
REMARK SMILES IDX 34 48 86 49 80 50 79 51 35 53 67 54 47 55 66 56 48 57 51 58
REMARK SMILES IDX 65 59 84 60 49 61 50 62 64 64 85 65 52 66 36 67 37 68 45 69
REMARK SMILES IDX 38 70 39 71 43 72 46 73 40 74 41 75 44 76 42 77 68 78 69 79
REMARK SMILES IDX 77 80 70 81 71 82 75 83 78 84 72 85 73 86 76 87 74 88 53 89
REMARK SMILES IDX 54 90 62 91 55 92 56 93 60 94 63 95 57 96 58 97 61 98 59 99
REMARK H PARENT 19 5 1 24 1 25 15 27 24 33 83 52 51 63
REMARK Flexibility Score: inf
ROOT
ATOM      1  C   UNL A   1      31.819  29.870  25.385  1.00  0.00     0.116 C 
ENDROOT
BRANCH   1   2
ATOM      2  N   UNL A   1      33.098  29.675  24.715  1.00  0.00    -0.352 N 
ATOM      3  C   UNL A   1      33.525  28.689  23.851  1.00  0.00     0.255 C 
ATOM      4  O   UNL A   1      34.688  28.721  23.441  1.00  0.00    -0.269 OA
ATOM      5  H   UNL A   1      33.771  30.365  24.913  1.00  0.00     0.163 HD
BRANCH   3   6
ATOM      6  C   UNL A   1      32.678  27.532  23.460  1.00  0.00     0.082 A 
ATOM      7  C   UNL A   1      32.317  25.142  23.347  1.00  0.00    -0.006 A 
ATOM      8  C   UNL A   1      31.336  25.311  22.372  1.00  0.00     0.013 A 
ATOM      9  C   UNL A   1      32.902  26.251  23.962  1.00  0.00     0.027 A 
ATOM     10  C   UNL A   1      30.977  26.605  21.986  1.00  0.00     0.047 A 
ATOM     11  C   UNL A   1      31.660  27.706  22.511  1.00  0.00     0.128 A 
BRANCH   7  12
ATOM     12  C   UNL A   1      32.877  23.799  23.619  1.00  0.00     0.119 C 
ATOM     13  N   UNL A   1      32.316  22.748  23.107  1.00  0.00    -0.256 NA
BRANCH  13  14
ATOM     14  C   UNL A   1      32.765  21.466  23.457  1.00  0.00     0.063 A 
ATOM     15  C   UNL A   1      33.470  18.849  24.190  1.00  0.00     0.082 A 
ATOM     16  C   UNL A   1      32.466  19.055  23.242  1.00  0.00     0.024 A 
ATOM     17  C   UNL A   1      34.109  19.936  24.792  1.00  0.00     0.024 A 
ATOM     18  C   UNL A   1      32.118  20.363  22.885  1.00  0.00     0.030 A 
ATOM     19  C   UNL A   1      33.746  21.237  24.430  1.00  0.00     0.030 A 
BRANCH  15  20
ATOM     20  S   UNL A   1      33.937  17.204  24.640  1.00  0.00     0.238 S 
ATOM     21  O   UNL A   1      35.361  17.160  24.866  1.00  0.00    -0.207 OA
ATOM     22  O   UNL A   1      33.258  16.280  23.759  1.00  0.00    -0.207 OA
BRANCH  20  23
ATOM     23  N   UNL A   1      33.244  17.005  26.156  1.00  0.00    -0.225 NA
ATOM     24  H   UNL A   1      32.711  16.137  26.177  1.00  0.00     0.137 HD
ATOM     25  H   UNL A   1      32.624  17.791  26.352  1.00  0.00     0.137 HD
ENDBRANCH  20  23
ENDBRANCH  15  20
ENDBRANCH  13  14
ENDBRANCH   7  12
BRANCH  11  26
ATOM     26  O   UNL A   1      31.287  28.933  22.031  1.00  0.00    -0.507 OA
ATOM     27  H   UNL A   1      30.642  28.996  21.355  1.00  0.00     0.293 HD
ENDBRANCH  11  26
ENDBRANCH   3   6
ENDBRANCH   1   2
BRANCH   1  28
ATOM     28  C   UNL A   1      31.911  30.478  26.778  1.00  0.00     0.023 C 
BRANCH  28  29
ATOM     29  C   UNL A   1      31.617  31.966  26.891  1.00  0.00     0.023 C 
BRANCH  29  30
ATOM     30  C   UNL A   1      32.781  32.841  27.338  1.00  0.00     0.116 C 
BRANCH  30  31
ATOM     31  N   UNL A   1      32.399  34.204  27.684  1.00  0.00    -0.352 N 
ATOM     32  C   UNL A   1      32.949  35.058  28.612  1.00  0.00     0.251 C 
ATOM     33  H   UNL A   1      31.636  34.567  27.180  1.00  0.00     0.163 HD
ATOM     34  O   UNL A   1      32.440  36.153  28.827  1.00  0.00    -0.269 OA
BRANCH  32  35
ATOM     35  C   UNL A   1      34.133  34.632  29.389  1.00  0.00     0.039 A 
ATOM     36  C   UNL A   1      33.949  34.134  30.681  1.00  0.00     0.014 A 
ATOM     37  C   UNL A   1      35.411  34.679  28.829  1.00  0.00     0.014 A 
ATOM     38  C   UNL A   1      35.035  33.593  31.374  1.00  0.00     0.010 A 
ATOM     39  C   UNL A   1      36.472  34.058  29.481  1.00  0.00     0.010 A 
ATOM     40  C   UNL A   1      36.295  33.504  30.759  1.00  0.00    -0.014 A 
BRANCH  40  41
ATOM     41  C   UNL A   1      37.435  32.824  31.428  1.00  0.00     0.031 A 
ATOM     42  C   UNL A   1      38.103  31.647  30.769  1.00  0.00     0.074 A 
ATOM     43  C   UNL A   1      37.821  33.217  32.658  1.00  0.00     0.049 A 
ATOM     44  N   UNL A   1      39.057  30.876  31.225  1.00  0.00    -0.248 NA
ATOM     45  C   UNL A   1      37.614  31.269  29.433  1.00  0.00     0.031 C 
ATOM     46  C   UNL A   1      37.217  34.308  33.426  1.00  0.00     0.029 A 
ATOM     47  N   UNL A   1      38.806  32.737  33.486  1.00  0.00    -0.354 N 
ATOM     48  C   UNL A   1      39.270  29.918  30.242  1.00  0.00     0.074 A 
ATOM     49  C   UNL A   1      38.309  30.168  29.190  1.00  0.00     0.031 C 
ATOM     50  C   UNL A   1      37.857  34.428  34.601  1.00  0.00     0.029 A 
ATOM     51  C   UNL A   1      38.887  33.398  34.690  1.00  0.00     0.049 A 
ATOM     52  H   UNL A   1      39.397  31.990  33.242  1.00  0.00     0.167 HD
ATOM     53  C   UNL A   1      40.200  28.934  30.209  1.00  0.00     0.037 A 
ATOM     54  C   UNL A   1      39.692  33.188  35.749  1.00  0.00     0.037 A 
ATOM     55  C   UNL A   1      41.173  28.706  31.244  1.00  0.00     0.049 A 
ATOM     56  C   UNL A   1      40.712  32.081  35.685  1.00  0.00     0.074 A 
ATOM     57  C   UNL A   1      42.199  27.778  31.271  1.00  0.00     0.029 A 
ATOM     58  N   UNL A   1      41.240  29.411  32.436  1.00  0.00    -0.354 N 
ATOM     59  N   UNL A   1      40.957  31.234  34.714  1.00  0.00    -0.248 NA
ATOM     60  C   UNL A   1      41.575  31.906  36.862  1.00  0.00     0.031 C 
ATOM     61  C   UNL A   1      42.852  27.884  32.502  1.00  0.00     0.029 A 
ATOM     62  C   UNL A   1      42.274  28.920  33.217  1.00  0.00     0.049 A 
ATOM     63  H   UNL A   1      40.641  30.151  32.689  1.00  0.00     0.167 HD
ATOM     64  C   UNL A   1      42.019  30.452  35.148  1.00  0.00     0.074 A 
ATOM     65  C   UNL A   1      42.384  30.936  36.462  1.00  0.00     0.031 C 
ATOM     66  C   UNL A   1      42.637  29.424  34.517  1.00  0.00     0.037 A 
BRANCH  53  67
ATOM     67  C   UNL A   1      40.219  28.028  29.011  1.00  0.00     0.064 A 
ATOM     68  C   UNL A   1      40.962  28.343  27.862  1.00  0.00     0.173 A 
ATOM     69  C   UNL A   1      39.539  26.801  29.036  1.00  0.00     0.173 A 
ATOM     70  F   UNL A   1      41.621  29.508  27.782  1.00  0.00    -0.203 F 
ATOM     71  C   UNL A   1      41.005  27.472  26.776  1.00  0.00     0.198 A 
ATOM     72  C   UNL A   1      39.611  25.919  27.962  1.00  0.00     0.198 A 
ATOM     73  F   UNL A   1      38.818  26.449  30.112  1.00  0.00    -0.203 F 
ATOM     74  F   UNL A   1      41.686  27.812  25.674  1.00  0.00    -0.200 F 
ATOM     75  C   UNL A   1      40.339  26.257  26.831  1.00  0.00     0.200 A 
ATOM     76  F   UNL A   1      38.979  24.738  28.023  1.00  0.00    -0.200 F 
ATOM     77  F   UNL A   1      40.395  25.412  25.792  1.00  0.00    -0.200 F 
ENDBRANCH  53  67
BRANCH  54  78
ATOM     78  C   UNL A   1      39.581  34.044  36.962  1.00  0.00     0.064 A 
ATOM     79  C   UNL A   1      40.263  35.266  37.048  1.00  0.00     0.173 A 
ATOM     80  C   UNL A   1      38.821  33.644  38.070  1.00  0.00     0.173 A 
ATOM     81  F   UNL A   1      41.020  35.685  36.023  1.00  0.00    -0.203 F 
ATOM     82  C   UNL A   1      40.220  36.036  38.209  1.00  0.00     0.198 A 
ATOM     83  C   UNL A   1      38.750  34.431  39.218  1.00  0.00     0.198 A 
ATOM     84  F   UNL A   1      38.143  32.487  38.040  1.00  0.00    -0.203 F 
ATOM     85  F   UNL A   1      40.935  37.167  38.287  1.00  0.00    -0.200 F 
ATOM     86  C   UNL A   1      39.460  35.619  39.292  1.00  0.00     0.200 A 
ATOM     87  F   UNL A   1      38.002  34.033  40.256  1.00  0.00    -0.200 F 
ATOM     88  F   UNL A   1      39.422  36.358  40.409  1.00  0.00    -0.200 F 
ENDBRANCH  54  78
BRANCH  66  89
ATOM     89  C   UNL A   1      43.801  28.782  35.213  1.00  0.00     0.064 A 
ATOM     90  C   UNL A   1      45.115  29.243  35.035  1.00  0.00     0.173 A 
ATOM     91  C   UNL A   1      43.594  27.718  36.104  1.00  0.00     0.173 A 
ATOM     92  F   UNL A   1      45.369  30.249  34.184  1.00  0.00    -0.203 F 
ATOM     93  C   UNL A   1      46.180  28.642  35.701  1.00  0.00     0.198 A 
ATOM     94  C   UNL A   1      44.657  27.143  36.795  1.00  0.00     0.198 A 
ATOM     95  F   UNL A   1      42.357  27.245  36.317  1.00  0.00    -0.203 F 
ATOM     96  F   UNL A   1      47.431  29.063  35.475  1.00  0.00    -0.200 F 
ATOM     97  C   UNL A   1      45.949  27.599  36.586  1.00  0.00     0.200 A 
ATOM     98  F   UNL A   1      44.429  26.147  37.663  1.00  0.00    -0.200 F 
ATOM     99  F   UNL A   1      46.975  27.028  37.234  1.00  0.00    -0.200 F 
ENDBRANCH  66  89
ENDBRANCH  40  41
ENDBRANCH  32  35
ENDBRANCH  30  31
ENDBRANCH  29  30
ENDBRANCH  28  29
ENDBRANCH   1  28
TORSDOF 16
ENDMDL
MODEL 2
REMARK VINA RESULT:     -12.9      1.998      3.027
REMARK SMILES NS(=O)(=O)c1ccc(/N=C/c2ccc(O)c(C(=O)NCCCCNC(=O)c3ccc(-c4c5nc(c(-c6c(F)c(F)c(F)c(F)c6F)c6ccc([nH]6)c(-c6c(F)c(F)c(F)c(F)c6F)c6nc(c(-c7c(F)c(F)c(F)c(F)c7F)c7ccc4[nH]7)C=C6)C=C5)cc3)c2)cc1
REMARK SMILES IDX 20 1 19 2 17 3 18 4 16 6 11 7 12 8 90 9 13 10 14 11 10 12
REMARK SMILES IDX 9 13 8 14 5 15 6 16 92 17 7 18 91 19 2 20 3 21 4 22 1 23
REMARK SMILES IDX 15 26 21 28 22 29 23 30 24 31 25 32 26 34 27 35 28 36 89 37
REMARK SMILES IDX 29 38 88 39 30 40 31 41 32 42 82 43 33 44 87 45 81 46 83 47
REMARK SMILES IDX 34 48 86 49 80 50 79 51 35 53 67 54 47 55 66 56 48 57 51 58
REMARK SMILES IDX 65 59 84 60 49 61 50 62 64 64 85 65 52 66 36 67 37 68 45 69
REMARK SMILES IDX 38 70 39 71 43 72 46 73 40 74 41 75 44 76 42 77 68 78 69 79
REMARK SMILES IDX 77 80 70 81 71 82 75 83 78 84 72 85 73 86 76 87 74 88 53 89
REMARK SMILES IDX 54 90 62 91 55 92 56 93 60 94 63 95 57 96 58 97 61 98 59 99
REMARK H PARENT 19 5 1 24 1 25 15 27 24 33 83 52 51 63
REMARK Flexibility Score: inf
ROOT
ATOM      1  C   UNL A   1      31.432  29.606  25.289  1.00  0.00     0.116 C 
ENDROOT
BRANCH   1   2
ATOM      2  N   UNL A   1      32.226  29.569  24.068  1.00  0.00    -0.352 N 
ATOM      3  C   UNL A   1      32.807  28.513  23.398  1.00  0.00     0.255 C 
ATOM      4  O   UNL A   1      33.476  28.746  22.389  1.00  0.00    -0.269 OA
ATOM      5  H   UNL A   1      32.372  30.448  23.650  1.00  0.00     0.163 HD
BRANCH   3   6
ATOM      6  C   UNL A   1      32.745  27.110  23.887  1.00  0.00     0.082 A 
ATOM      7  C   UNL A   1      33.860  25.118  24.688  1.00  0.00    -0.006 A 
ATOM      8  C   UNL A   1      32.736  24.345  24.406  1.00  0.00     0.013 A 
ATOM      9  C   UNL A   1      33.822  26.506  24.532  1.00  0.00     0.027 A 
ATOM     10  C   UNL A   1      31.584  24.971  23.923  1.00  0.00     0.047 A 
ATOM     11  C   UNL A   1      31.597  26.341  23.645  1.00  0.00     0.128 A 
BRANCH   7  12
ATOM     12  C   UNL A   1      35.157  24.470  24.986  1.00  0.00     0.119 C 
ATOM     13  N   UNL A   1      35.319  23.205  24.750  1.00  0.00    -0.256 NA
BRANCH  13  14
ATOM     14  C   UNL A   1      36.500  22.558  25.143  1.00  0.00     0.063 A 
ATOM     15  C   UNL A   1      38.965  21.422  25.859  1.00  0.00     0.082 A 
ATOM     16  C   UNL A   1      38.670  22.732  26.242  1.00  0.00     0.024 A 
ATOM     17  C   UNL A   1      38.052  20.682  25.104  1.00  0.00     0.024 A 
ATOM     18  C   UNL A   1      37.440  23.292  25.876  1.00  0.00     0.030 A 
ATOM     19  C   UNL A   1      36.830  21.257  24.742  1.00  0.00     0.030 A 
BRANCH  15  20
ATOM     20  S   UNL A   1      40.506  20.692  26.327  1.00  0.00     0.238 S 
ATOM     21  O   UNL A   1      40.595  20.654  27.766  1.00  0.00    -0.207 OA
ATOM     22  O   UNL A   1      41.547  21.251  25.495  1.00  0.00    -0.207 OA
BRANCH  20  23
ATOM     23  N   UNL A   1      40.334  19.089  25.855  1.00  0.00    -0.225 NA
ATOM     24  H   UNL A   1      39.769  18.590  26.541  1.00  0.00     0.137 HD
ATOM     25  H   UNL A   1      41.254  18.654  25.790  1.00  0.00     0.137 HD
ENDBRANCH  20  23
ENDBRANCH  15  20
ENDBRANCH  13  14
ENDBRANCH   7  12
BRANCH  11  26
ATOM     26  O   UNL A   1      30.447  26.861  23.114  1.00  0.00    -0.507 OA
ATOM     27  H   UNL A   1      29.816  26.294  22.718  1.00  0.00     0.293 HD
ENDBRANCH  11  26
ENDBRANCH   3   6
ENDBRANCH   1   2
BRANCH   1  28
ATOM     28  C   UNL A   1      32.113  30.272  26.477  1.00  0.00     0.023 C 
BRANCH  28  29
ATOM     29  C   UNL A   1      31.762  31.729  26.733  1.00  0.00     0.023 C 
BRANCH  29  30
ATOM     30  C   UNL A   1      32.858  32.574  27.371  1.00  0.00     0.116 C 
BRANCH  30  31
ATOM     31  N   UNL A   1      32.452  33.940  27.673  1.00  0.00    -0.352 N 
ATOM     32  C   UNL A   1      32.976  34.828  28.584  1.00  0.00     0.251 C 
ATOM     33  H   UNL A   1      31.689  34.278  27.150  1.00  0.00     0.163 HD
ATOM     34  O   UNL A   1      32.449  35.921  28.761  1.00  0.00    -0.269 OA
BRANCH  32  35
ATOM     35  C   UNL A   1      34.156  34.442  29.387  1.00  0.00     0.039 A 
ATOM     36  C   UNL A   1      33.957  33.864  30.643  1.00  0.00     0.014 A 
ATOM     37  C   UNL A   1      35.449  34.605  28.884  1.00  0.00     0.014 A 
ATOM     38  C   UNL A   1      35.051  33.362  31.353  1.00  0.00     0.010 A 
ATOM     39  C   UNL A   1      36.524  34.023  29.549  1.00  0.00     0.010 A 
ATOM     40  C   UNL A   1      36.337  33.390  30.788  1.00  0.00    -0.014 A 
BRANCH  40  41
ATOM     41  C   UNL A   1      37.494  32.754  31.469  1.00  0.00     0.031 A 
ATOM     42  C   UNL A   1      38.208  31.599  30.822  1.00  0.00     0.074 A 
ATOM     43  C   UNL A   1      37.856  33.166  32.701  1.00  0.00     0.049 A 
ATOM     44  N   UNL A   1      39.185  30.863  31.288  1.00  0.00    -0.248 NA
ATOM     45  C   UNL A   1      37.745  31.198  29.484  1.00  0.00     0.031 C 
ATOM     46  C   UNL A   1      37.209  34.238  33.459  1.00  0.00     0.029 A 
ATOM     47  N   UNL A   1      38.850  32.724  33.539  1.00  0.00    -0.354 N 
ATOM     48  C   UNL A   1      39.440  29.909  30.312  1.00  0.00     0.074 A 
ATOM     49  C   UNL A   1      38.480  30.121  29.251  1.00  0.00     0.031 C 
ATOM     50  C   UNL A   1      37.834  34.386  34.638  1.00  0.00     0.029 A 
ATOM     51  C   UNL A   1      38.899  33.393  34.740  1.00  0.00     0.049 A 
ATOM     52  H   UNL A   1      39.470  31.998  33.303  1.00  0.00     0.167 HD
ATOM     53  C   UNL A   1      40.404  28.958  30.291  1.00  0.00     0.037 A 
ATOM     54  C   UNL A   1      39.702  33.216  35.807  1.00  0.00     0.037 A 
ATOM     55  C   UNL A   1      41.377  28.769  31.335  1.00  0.00     0.049 A 
ATOM     56  C   UNL A   1      40.761  32.146  35.756  1.00  0.00     0.074 A 
ATOM     57  C   UNL A   1      42.434  27.878  31.374  1.00  0.00     0.029 A 
ATOM     58  N   UNL A   1      41.409  29.481  32.524  1.00  0.00    -0.354 N 
ATOM     59  N   UNL A   1      41.044  31.304  34.791  1.00  0.00    -0.248 NA
ATOM     60  C   UNL A   1      41.620  32.006  36.941  1.00  0.00     0.031 C 
ATOM     61  C   UNL A   1      43.073  28.012  32.610  1.00  0.00     0.029 A 
ATOM     62  C   UNL A   1      42.453  29.030  33.315  1.00  0.00     0.049 A 
ATOM     63  H   UNL A   1      40.782  30.201  32.768  1.00  0.00     0.167 HD
ATOM     64  C   UNL A   1      42.129  30.561  35.237  1.00  0.00     0.074 A 
ATOM     65  C   UNL A   1      42.466  31.063  36.552  1.00  0.00     0.031 C 
ATOM     66  C   UNL A   1      42.787  29.552  34.615  1.00  0.00     0.037 A 
BRANCH  53  67
ATOM     67  C   UNL A   1      40.465  28.048  29.097  1.00  0.00     0.064 A 
ATOM     68  C   UNL A   1      39.730  26.854  29.044  1.00  0.00     0.173 A 
ATOM     69  C   UNL A   1      41.217  28.406  27.968  1.00  0.00     0.173 A 
ATOM     70  F   UNL A   1      39.003  26.460  30.101  1.00  0.00    -0.203 F 
ATOM     71  C   UNL A   1      39.762  26.042  27.913  1.00  0.00     0.198 A 
ATOM     72  C   UNL A   1      41.221  27.608  26.827  1.00  0.00     0.198 A 
ATOM     73  F   UNL A   1      41.935  29.539  27.964  1.00  0.00    -0.203 F 
ATOM     74  F   UNL A   1      39.085  24.886  27.901  1.00  0.00    -0.200 F 
ATOM     75  C   UNL A   1      40.499  26.425  26.803  1.00  0.00     0.200 A 
ATOM     76  F   UNL A   1      41.922  27.987  25.749  1.00  0.00    -0.200 F 
ATOM     77  F   UNL A   1      40.515  25.651  25.708  1.00  0.00    -0.200 F 
ENDBRANCH  53  67
BRANCH  54  78
ATOM     78  C   UNL A   1      39.551  34.073  37.014  1.00  0.00     0.064 A 
ATOM     79  C   UNL A   1      38.795  33.643  38.115  1.00  0.00     0.173 A 
ATOM     80  C   UNL A   1      40.128  35.349  37.081  1.00  0.00     0.173 A 
ATOM     81  F   UNL A   1      38.205  32.439  38.093  1.00  0.00    -0.203 F 
ATOM     82  C   UNL A   1      38.590  34.471  39.217  1.00  0.00     0.198 A 
ATOM     83  C   UNL A   1      39.953  36.162  38.198  1.00  0.00     0.198 A 
ATOM     84  F   UNL A   1      40.867  35.807  36.059  1.00  0.00    -0.203 F 
ATOM     85  F   UNL A   1      37.809  34.060  40.225  1.00  0.00    -0.200 F 
ATOM     86  C   UNL A   1      39.173  35.729  39.260  1.00  0.00     0.200 A 
ATOM     87  F   UNL A   1      40.531  37.371  38.243  1.00  0.00    -0.200 F 
ATOM     88  F   UNL A   1      38.974  36.526  40.319  1.00  0.00    -0.200 F 
ENDBRANCH  54  78
BRANCH  66  89
ATOM     89  C   UNL A   1      43.968  28.956  35.324  1.00  0.00     0.064 A 
ATOM     90  C   UNL A   1      43.834  27.860  36.191  1.00  0.00     0.173 A 
ATOM     91  C   UNL A   1      45.257  29.462  35.101  1.00  0.00     0.173 A 
ATOM     92  F   UNL A   1      42.622  27.347  36.450  1.00  0.00    -0.203 F 
ATOM     93  C   UNL A   1      44.945  27.313  36.829  1.00  0.00     0.198 A 
ATOM     94  C   UNL A   1      46.369  28.890  35.712  1.00  0.00     0.198 A 
ATOM     95  F   UNL A   1      45.442  30.502  34.274  1.00  0.00    -0.203 F 
ATOM     96  F   UNL A   1      44.787  26.302  37.694  1.00  0.00    -0.200 F 
ATOM     97  C   UNL A   1      46.211  27.822  36.583  1.00  0.00     0.200 A 
ATOM     98  F   UNL A   1      47.594  29.373  35.459  1.00  0.00    -0.200 F 
ATOM     99  F   UNL A   1      47.280  27.288  37.190  1.00  0.00    -0.200 F 
ENDBRANCH  66  89
ENDBRANCH  40  41
ENDBRANCH  32  35
ENDBRANCH  30  31
ENDBRANCH  29  30
ENDBRANCH  28  29
ENDBRANCH   1  28
TORSDOF 16
ENDMDL
MODEL 3
REMARK VINA RESULT:     -12.9      5.613     11.123
REMARK SMILES NS(=O)(=O)c1ccc(/N=C/c2ccc(O)c(C(=O)NCCCCNC(=O)c3ccc(-c4c5nc(c(-c6c(F)c(F)c(F)c(F)c6F)c6ccc([nH]6)c(-c6c(F)c(F)c(F)c(F)c6F)c6nc(c(-c7c(F)c(F)c(F)c(F)c7F)c7ccc4[nH]7)C=C6)C=C5)cc3)c2)cc1
REMARK SMILES IDX 20 1 19 2 17 3 18 4 16 6 11 7 12 8 90 9 13 10 14 11 10 12
REMARK SMILES IDX 9 13 8 14 5 15 6 16 92 17 7 18 91 19 2 20 3 21 4 22 1 23
REMARK SMILES IDX 15 26 21 28 22 29 23 30 24 31 25 32 26 34 27 35 28 36 89 37
REMARK SMILES IDX 29 38 88 39 30 40 31 41 32 42 82 43 33 44 87 45 81 46 83 47
REMARK SMILES IDX 34 48 86 49 80 50 79 51 35 53 67 54 47 55 66 56 48 57 51 58
REMARK SMILES IDX 65 59 84 60 49 61 50 62 64 64 85 65 52 66 36 67 37 68 45 69
REMARK SMILES IDX 38 70 39 71 43 72 46 73 40 74 41 75 44 76 42 77 68 78 69 79
REMARK SMILES IDX 77 80 70 81 71 82 75 83 78 84 72 85 73 86 76 87 74 88 53 89
REMARK SMILES IDX 54 90 62 91 55 92 56 93 60 94 63 95 57 96 58 97 61 98 59 99
REMARK H PARENT 19 5 1 24 1 25 15 27 24 33 83 52 51 63
REMARK Flexibility Score: inf
ROOT
ATOM      1  C   UNL A   1      36.896  22.706  25.472  1.00  0.00     0.116 C 
ENDROOT
BRANCH   1   2
ATOM      2  N   UNL A   1      36.033  22.249  26.553  1.00  0.00    -0.352 N 
ATOM      3  C   UNL A   1      34.742  21.765  26.538  1.00  0.00     0.255 C 
ATOM      4  O   UNL A   1      34.203  21.476  27.608  1.00  0.00    -0.269 OA
ATOM      5  H   UNL A   1      36.442  22.293  27.448  1.00  0.00     0.163 HD
BRANCH   3   6
ATOM      6  C   UNL A   1      33.930  21.663  25.296  1.00  0.00     0.082 A 
ATOM      7  C   UNL A   1      32.357  22.632  23.735  1.00  0.00    -0.006 A 
ATOM      8  C   UNL A   1      32.062  21.374  23.213  1.00  0.00     0.013 A 
ATOM      9  C   UNL A   1      33.363  22.783  24.692  1.00  0.00     0.027 A 
ATOM     10  C   UNL A   1      32.756  20.260  23.691  1.00  0.00     0.047 A 
ATOM     11  C   UNL A   1      33.667  20.402  24.741  1.00  0.00     0.128 A 
BRANCH   7  12
ATOM     12  C   UNL A   1      31.496  23.794  23.416  1.00  0.00     0.119 C 
ATOM     13  N   UNL A   1      31.986  24.994  23.460  1.00  0.00    -0.256 NA
BRANCH  13  14
ATOM     14  C   UNL A   1      31.149  26.105  23.280  1.00  0.00     0.063 A 
ATOM     15  C   UNL A   1      29.334  28.203  22.853  1.00  0.00     0.082 A 
ATOM     16  C   UNL A   1      28.926  27.068  23.556  1.00  0.00     0.024 A 
ATOM     17  C   UNL A   1      30.631  28.291  22.342  1.00  0.00     0.024 A 
ATOM     18  C   UNL A   1      29.836  26.025  23.761  1.00  0.00     0.030 A 
ATOM     19  C   UNL A   1      31.528  27.239  22.550  1.00  0.00     0.030 A 
BRANCH  15  20
ATOM     20  S   UNL A   1      28.204  29.540  22.599  1.00  0.00     0.238 S 
ATOM     21  O   UNL A   1      28.143  29.848  21.191  1.00  0.00    -0.207 OA
ATOM     22  O   UNL A   1      28.451  30.544  23.608  1.00  0.00    -0.207 OA
BRANCH  20  23
ATOM     23  N   UNL A   1      26.712  28.861  22.965  1.00  0.00    -0.225 NA
ATOM     24  H   UNL A   1      26.793  28.294  23.808  1.00  0.00     0.137 HD
ATOM     25  H   UNL A   1      26.406  28.275  22.189  1.00  0.00     0.137 HD
ENDBRANCH  20  23
ENDBRANCH  15  20
ENDBRANCH  13  14
ENDBRANCH   7  12
BRANCH  11  26
ATOM     26  O   UNL A   1      34.255  19.250  25.191  1.00  0.00    -0.507 OA
ATOM     27  H   UNL A   1      33.929  18.826  25.960  1.00  0.00     0.293 HD
ENDBRANCH  11  26
ENDBRANCH   3   6
ENDBRANCH   1   2
BRANCH   1  28
ATOM     28  C   UNL A   1      38.386  22.510  25.714  1.00  0.00     0.023 C 
BRANCH  28  29
ATOM     29  C   UNL A   1      38.966  21.157  25.332  1.00  0.00     0.023 C 
BRANCH  29  30
ATOM     30  C   UNL A   1      39.409  20.273  26.491  1.00  0.00     0.116 C 
BRANCH  30  31
ATOM     31  N   UNL A   1      40.407  19.277  26.128  1.00  0.00    -0.352 N 
ATOM     32  C   UNL A   1      41.779  19.384  26.094  1.00  0.00     0.251 C 
ATOM     33  H   UNL A   1      40.049  18.398  25.867  1.00  0.00     0.163 HD
ATOM     34  O   UNL A   1      42.465  18.456  25.680  1.00  0.00    -0.269 OA
BRANCH  32  35
ATOM     35  C   UNL A   1      42.425  20.645  26.515  1.00  0.00     0.039 A 
ATOM     36  C   UNL A   1      42.919  21.510  25.536  1.00  0.00     0.014 A 
ATOM     37  C   UNL A   1      42.500  20.996  27.865  1.00  0.00     0.014 A 
ATOM     38  C   UNL A   1      43.401  22.769  25.905  1.00  0.00     0.010 A 
ATOM     39  C   UNL A   1      42.894  22.282  28.222  1.00  0.00     0.010 A 
ATOM     40  C   UNL A   1      43.344  23.185  27.246  1.00  0.00    -0.014 A 
BRANCH  40  41
ATOM     41  C   UNL A   1      43.737  24.562  27.645  1.00  0.00     0.031 A 
ATOM     42  C   UNL A   1      42.681  25.577  27.988  1.00  0.00     0.074 A 
ATOM     43  C   UNL A   1      45.037  24.918  27.628  1.00  0.00     0.049 A 
ATOM     44  N   UNL A   1      42.818  26.845  28.283  1.00  0.00    -0.248 NA
ATOM     45  C   UNL A   1      41.284  25.114  27.969  1.00  0.00     0.031 C 
ATOM     46  C   UNL A   1      46.151  24.043  27.260  1.00  0.00     0.029 A 
ATOM     47  N   UNL A   1      45.642  26.117  27.916  1.00  0.00    -0.354 N 
ATOM     48  C   UNL A   1      41.529  27.331  28.468  1.00  0.00     0.074 A 
ATOM     49  C   UNL A   1      40.621  26.238  28.198  1.00  0.00     0.031 C 
ATOM     50  C   UNL A   1      47.302  24.724  27.365  1.00  0.00     0.029 A 
ATOM     51  C   UNL A   1      47.009  26.097  27.766  1.00  0.00     0.049 A 
ATOM     52  H   UNL A   1      45.144  26.916  28.202  1.00  0.00     0.167 HD
ATOM     53  C   UNL A   1      41.141  28.569  28.854  1.00  0.00     0.037 A 
ATOM     54  C   UNL A   1      47.920  27.077  27.921  1.00  0.00     0.037 A 
ATOM     55  C   UNL A   1      42.049  29.646  29.150  1.00  0.00     0.049 A 
ATOM     56  C   UNL A   1      47.456  28.446  28.345  1.00  0.00     0.074 A 
ATOM     57  C   UNL A   1      41.755  30.916  29.614  1.00  0.00     0.029 A 
ATOM     58  N   UNL A   1      43.427  29.580  29.011  1.00  0.00    -0.354 N 
ATOM     59  N   UNL A   1      46.241  28.870  28.596  1.00  0.00    -0.248 NA
ATOM     60  C   UNL A   1      48.493  29.474  28.515  1.00  0.00     0.031 C 
ATOM     61  C   UNL A   1      42.950  31.637  29.701  1.00  0.00     0.029 A 
ATOM     62  C   UNL A   1      43.994  30.796  29.354  1.00  0.00     0.049 A 
ATOM     63  H   UNL A   1      43.926  28.785  28.712  1.00  0.00     0.167 HD
ATOM     64  C   UNL A   1      46.371  30.196  28.984  1.00  0.00     0.074 A 
ATOM     65  C   UNL A   1      47.784  30.504  28.953  1.00  0.00     0.031 C 
ATOM     66  C   UNL A   1      45.406  31.082  29.334  1.00  0.00     0.037 A 
BRANCH  53  67
ATOM     67  C   UNL A   1      39.668  28.832  28.986  1.00  0.00     0.064 A 
ATOM     68  C   UNL A   1      38.991  28.634  30.200  1.00  0.00     0.173 A 
ATOM     69  C   UNL A   1      38.938  29.349  27.905  1.00  0.00     0.173 A 
ATOM     70  F   UNL A   1      39.640  28.132  31.261  1.00  0.00    -0.203 F 
ATOM     71  C   UNL A   1      37.635  28.925  30.319  1.00  0.00     0.198 A 
ATOM     72  C   UNL A   1      37.590  29.668  28.037  1.00  0.00     0.198 A 
ATOM     73  F   UNL A   1      39.537  29.561  26.724  1.00  0.00    -0.203 F 
ATOM     74  F   UNL A   1      37.000  28.688  31.476  1.00  0.00    -0.200 F 
ATOM     75  C   UNL A   1      36.938  29.450  29.242  1.00  0.00     0.200 A 
ATOM     76  F   UNL A   1      36.921  30.190  27.000  1.00  0.00    -0.200 F 
ATOM     77  F   UNL A   1      35.636  29.745  29.363  1.00  0.00    -0.200 F 
ENDBRANCH  53  67
BRANCH  54  78
ATOM     78  C   UNL A   1      49.365  26.807  27.687  1.00  0.00     0.064 A 
ATOM     79  C   UNL A   1      50.208  26.425  28.740  1.00  0.00     0.173 A 
ATOM     80  C   UNL A   1      49.939  26.959  26.417  1.00  0.00     0.173 A 
ATOM     81  F   UNL A   1      49.712  26.286  29.979  1.00  0.00    -0.203 F 
ATOM     82  C   UNL A   1      51.575  26.242  28.540  1.00  0.00     0.198 A 
ATOM     83  C   UNL A   1      51.300  26.741  26.210  1.00  0.00     0.198 A 
ATOM     84  F   UNL A   1      49.177  27.316  25.372  1.00  0.00    -0.203 F 
ATOM     85  F   UNL A   1      52.368  25.941  29.578  1.00  0.00    -0.200 F 
ATOM     86  C   UNL A   1      52.119  26.396  27.274  1.00  0.00     0.200 A 
ATOM     87  F   UNL A   1      51.819  26.876  24.982  1.00  0.00    -0.200 F 
ATOM     88  F   UNL A   1      53.434  26.224  27.083  1.00  0.00    -0.200 F 
ENDBRANCH  54  78
BRANCH  66  89
ATOM     89  C   UNL A   1      45.846  32.453  29.758  1.00  0.00     0.064 A 
ATOM     90  C   UNL A   1      45.956  33.511  28.842  1.00  0.00     0.173 A 
ATOM     91  C   UNL A   1      46.121  32.722  31.108  1.00  0.00     0.173 A 
ATOM     92  F   UNL A   1      45.719  33.303  27.538  1.00  0.00    -0.203 F 
ATOM     93  C   UNL A   1      46.354  34.779  29.260  1.00  0.00     0.198 A 
ATOM     94  C   UNL A   1      46.483  33.999  31.526  1.00  0.00     0.198 A 
ATOM     95  F   UNL A   1      46.021  31.749  32.025  1.00  0.00    -0.203 F 
ATOM     96  F   UNL A   1      46.505  35.760  28.360  1.00  0.00    -0.200 F 
ATOM     97  C   UNL A   1      46.608  35.024  30.601  1.00  0.00     0.200 A 
ATOM     98  F   UNL A   1      46.711  34.237  32.825  1.00  0.00    -0.200 F 
ATOM     99  F   UNL A   1      46.981  36.247  31.001  1.00  0.00    -0.200 F 
ENDBRANCH  66  89
ENDBRANCH  40  41
ENDBRANCH  32  35
ENDBRANCH  30  31
ENDBRANCH  29  30
ENDBRANCH  28  29
ENDBRANCH   1  28
TORSDOF 16
ENDMDL
