MODEL 1
REMARK VINA RESULT:     -14.9      0.000      0.000
REMARK SMILES Cc1c(NC(=O)[C@@H]2CC=CC[C@@H]2C(=O)NCCCCNC(=O)c2ccc(-c3c4nc(c(-c5c(F)c(F)c(F)c(F)c5F)c5ccc([nH]5)c(-c5c(F)c(F)c(F)c(F)c5F)c5nc(c(-c6c(F)c(F)c(F)c(F)c6F)c6ccc3[nH]6)C=C5)C=C4)cc2)cccc1C(=O)N1CCOCC1
REMARK SMILES IDX 17 1 16 2 15 3 13 4 14 5 12 7 7 8 8 9 9 10 11 11 10 12 5 13
REMARK SMILES IDX 4 14 6 16 3 17 1 18 2 19 89 20 86 21 88 22 87 23 90 24 91 25
REMARK SMILES IDX 92 26 93 27 97 28 94 29 96 30 95 31 18 32 19 33 20 34 21 35
REMARK SMILES IDX 22 37 23 38 24 39 85 40 25 41 84 42 26 43 27 44 28 45 78 46
REMARK SMILES IDX 29 47 83 48 77 49 79 50 30 51 82 52 76 53 75 54 31 56 63 57
REMARK SMILES IDX 43 58 62 59 44 60 47 61 61 62 80 63 45 64 46 65 60 67 81 68
REMARK SMILES IDX 48 69 32 70 33 71 41 72 34 73 35 74 39 75 42 76 36 77 37 78
REMARK SMILES IDX 40 79 38 80 64 81 65 82 73 83 66 84 67 85 71 86 74 87 68 88
REMARK SMILES IDX 69 89 72 90 70 91 49 92 50 93 58 94 51 95 52 96 56 97 59 98
REMARK SMILES IDX 53 99 54 100 57 101 55 102
REMARK H PARENT 15 6 4 15 20 36 79 55 47 66
REMARK Flexibility Score: inf
ROOT
ATOM      1  C   UNL A   1      32.076  30.022  26.792  1.00  0.00     0.023 C 
ENDROOT
BRANCH   1   2
ATOM      2  C   UNL A   1      32.192  29.856  25.265  1.00  0.00     0.116 C 
BRANCH   2   3
ATOM      3  N   UNL A   1      31.039  29.203  24.668  1.00  0.00    -0.356 N 
ATOM      4  C   UNL A   1      30.726  27.993  24.157  1.00  0.00     0.224 C 
ATOM      5  O   UNL A   1      29.510  27.886  23.912  1.00  0.00    -0.275 OA
ATOM      6  H   UNL A   1      30.269  29.815  24.622  1.00  0.00     0.163 HD
BRANCH   4   7
ATOM      7  C   UNL A   1      31.622  26.761  23.885  1.00  0.00     0.095 C 
ATOM      8  C   UNL A   1      32.823  26.339  24.762  1.00  0.00     0.095 C 
ATOM      9  C   UNL A   1      33.866  27.455  24.810  1.00  0.00     0.041 C 
ATOM     10  C   UNL A   1      34.179  27.985  23.437  1.00  0.00    -0.030 C 
ATOM     11  C   UNL A   1      32.163  26.893  22.432  1.00  0.00     0.041 C 
ATOM     12  C   UNL A   1      33.432  27.702  22.360  1.00  0.00    -0.030 C 
BRANCH   8  13
ATOM     13  C   UNL A   1      32.360  25.740  26.071  1.00  0.00     0.228 C 
ATOM     14  N   UNL A   1      32.725  24.521  26.533  1.00  0.00    -0.326 N 
ATOM     15  H   UNL A   1      32.404  24.383  27.453  1.00  0.00     0.169 HD
ATOM     16  O   UNL A   1      31.601  26.372  26.820  1.00  0.00    -0.274 OA
BRANCH  14  17
ATOM     17  C   UNL A   1      33.436  23.394  26.072  1.00  0.00     0.044 A 
ATOM     18  C   UNL A   1      31.233  22.635  25.177  1.00  0.00     0.047 C 
ATOM     19  C   UNL A   1      32.720  22.496  25.227  1.00  0.00    -0.015 A 
ATOM     20  C   UNL A   1      33.368  21.429  24.576  1.00  0.00     0.045 A 
ATOM     21  C   UNL A   1      34.766  23.123  26.366  1.00  0.00     0.026 A 
ATOM     22  C   UNL A   1      34.699  21.167  24.922  1.00  0.00     0.014 A 
ATOM     23  C   UNL A   1      35.382  21.990  25.824  1.00  0.00     0.003 A 
BRANCH  20  24
ATOM     24  C   UNL A   1      32.659  20.413  23.728  1.00  0.00     0.254 C 
ATOM     25  O   UNL A   1      32.158  20.815  22.678  1.00  0.00    -0.269 OA
ATOM     26  N   UNL A   1      32.659  19.055  24.054  1.00  0.00    -0.334 N 
ATOM     27  C   UNL A   1      32.564  18.466  25.397  1.00  0.00     0.148 C 
ATOM     28  C   UNL A   1      32.466  18.087  22.973  1.00  0.00     0.148 C 
ATOM     29  C   UNL A   1      33.384  17.162  25.521  1.00  0.00     0.181 C 
ATOM     30  C   UNL A   1      33.411  16.897  23.167  1.00  0.00     0.181 C 
ATOM     31  O   UNL A   1      33.162  16.258  24.429  1.00  0.00    -0.378 OA
ENDBRANCH  20  24
ENDBRANCH  14  17
ENDBRANCH   8  13
ENDBRANCH   4   7
ENDBRANCH   2   3
ENDBRANCH   1   2
BRANCH   1  32
ATOM     32  C   UNL A   1      32.977  31.082  27.425  1.00  0.00     0.023 C 
BRANCH  32  33
ATOM     33  C   UNL A   1      34.399  30.615  27.692  1.00  0.00     0.116 C 
BRANCH  33  34
ATOM     34  N   UNL A   1      35.185  31.456  28.591  1.00  0.00    -0.352 N 
ATOM     35  C   UNL A   1      36.357  31.129  29.261  1.00  0.00     0.251 C 
ATOM     36  H   UNL A   1      34.843  32.367  28.740  1.00  0.00     0.163 HD
ATOM     37  O   UNL A   1      36.890  31.924  30.029  1.00  0.00    -0.269 OA
BRANCH  35  38
ATOM     38  C   UNL A   1      37.034  29.853  28.922  1.00  0.00     0.039 A 
ATOM     39  C   UNL A   1      37.385  29.001  29.973  1.00  0.00     0.014 A 
ATOM     40  C   UNL A   1      37.582  29.671  27.657  1.00  0.00     0.014 A 
ATOM     41  C   UNL A   1      38.499  28.178  29.831  1.00  0.00     0.010 A 
ATOM     42  C   UNL A   1      38.756  28.956  27.551  1.00  0.00     0.010 A 
ATOM     43  C   UNL A   1      39.252  28.265  28.660  1.00  0.00    -0.014 A 
BRANCH  43  44
ATOM     44  C   UNL A   1      40.587  27.693  28.528  1.00  0.00     0.031 A 
ATOM     45  C   UNL A   1      40.738  26.249  28.295  1.00  0.00     0.074 A 
ATOM     46  C   UNL A   1      41.692  28.468  28.597  1.00  0.00     0.049 A 
ATOM     47  N   UNL A   1      41.730  25.543  28.722  1.00  0.00    -0.248 NA
ATOM     48  C   UNL A   1      39.740  25.477  27.570  1.00  0.00     0.031 C 
ATOM     49  C   UNL A   1      43.075  28.070  28.345  1.00  0.00     0.029 A 
ATOM     50  N   UNL A   1      41.802  29.741  29.168  1.00  0.00    -0.354 N 
ATOM     51  C   UNL A   1      41.668  24.327  28.086  1.00  0.00     0.074 A 
ATOM     52  C   UNL A   1      40.369  24.306  27.449  1.00  0.00     0.031 C 
ATOM     53  C   UNL A   1      43.886  28.860  29.069  1.00  0.00     0.029 A 
ATOM     54  C   UNL A   1      43.034  29.718  29.868  1.00  0.00     0.049 A 
ATOM     55  H   UNL A   1      41.165  30.488  29.098  1.00  0.00     0.167 HD
ATOM     56  C   UNL A   1      42.785  23.543  28.034  1.00  0.00     0.037 A 
ATOM     57  C   UNL A   1      43.096  29.908  31.218  1.00  0.00     0.037 A 
ATOM     58  C   UNL A   1      43.888  24.138  28.792  1.00  0.00     0.049 A 
ATOM     59  C   UNL A   1      43.799  28.802  31.947  1.00  0.00     0.074 A 
ATOM     60  C   UNL A   1      44.979  24.899  28.403  1.00  0.00     0.029 A 
ATOM     61  N   UNL A   1      43.794  24.266  30.175  1.00  0.00    -0.354 N 
ATOM     62  N   UNL A   1      43.972  27.622  31.424  1.00  0.00    -0.248 NA
ATOM     63  C   UNL A   1      44.325  28.902  33.304  1.00  0.00     0.031 C 
ATOM     64  C   UNL A   1      45.512  25.527  29.553  1.00  0.00     0.029 A 
ATOM     65  C   UNL A   1      44.756  25.143  30.645  1.00  0.00     0.049 A 
ATOM     66  H   UNL A   1      43.137  23.799  30.740  1.00  0.00     0.167 HD
ATOM     67  C   UNL A   1      44.585  26.810  32.335  1.00  0.00     0.074 A 
ATOM     68  C   UNL A   1      44.805  27.659  33.491  1.00  0.00     0.031 C 
ATOM     69  C   UNL A   1      44.840  25.499  32.055  1.00  0.00     0.037 A 
BRANCH  56  70
ATOM     70  C   UNL A   1      42.963  22.434  27.017  1.00  0.00     0.064 A 
ATOM     71  C   UNL A   1      42.261  21.215  27.139  1.00  0.00     0.173 A 
ATOM     72  C   UNL A   1      43.865  22.483  25.939  1.00  0.00     0.173 A 
ATOM     73  F   UNL A   1      41.275  21.057  28.030  1.00  0.00    -0.203 F 
ATOM     74  C   UNL A   1      42.545  20.101  26.344  1.00  0.00     0.198 A 
ATOM     75  C   UNL A   1      44.197  21.352  25.185  1.00  0.00     0.198 A 
ATOM     76  F   UNL A   1      44.409  23.640  25.542  1.00  0.00    -0.203 F 
ATOM     77  F   UNL A   1      41.851  18.967  26.516  1.00  0.00    -0.200 F 
ATOM     78  C   UNL A   1      43.546  20.155  25.397  1.00  0.00     0.200 A 
ATOM     79  F   UNL A   1      45.153  21.435  24.249  1.00  0.00    -0.200 F 
ATOM     80  F   UNL A   1      43.856  19.073  24.671  1.00  0.00    -0.200 F 
ENDBRANCH  56  70
BRANCH  57  81
ATOM     81  C   UNL A   1      41.964  30.728  31.723  1.00  0.00     0.064 A 
ATOM     82  C   UNL A   1      40.914  30.008  32.323  1.00  0.00     0.173 A 
ATOM     83  C   UNL A   1      42.068  32.085  32.028  1.00  0.00     0.173 A 
ATOM     84  F   UNL A   1      40.819  28.689  32.088  1.00  0.00    -0.203 F 
ATOM     85  C   UNL A   1      40.117  30.564  33.317  1.00  0.00     0.198 A 
ATOM     86  C   UNL A   1      41.232  32.657  32.993  1.00  0.00     0.198 A 
ATOM     87  F   UNL A   1      43.051  32.828  31.502  1.00  0.00    -0.203 F 
ATOM     88  F   UNL A   1      39.268  29.789  34.006  1.00  0.00    -0.200 F 
ATOM     89  C   UNL A   1      40.292  31.886  33.667  1.00  0.00     0.200 A 
ATOM     90  F   UNL A   1      41.416  33.932  33.361  1.00  0.00    -0.200 F 
ATOM     91  F   UNL A   1      39.601  32.394  34.696  1.00  0.00    -0.200 F 
ENDBRANCH  57  81
BRANCH  69  92
ATOM     92  C   UNL A   1      45.301  24.484  33.059  1.00  0.00     0.064 A 
ATOM     93  C   UNL A   1      44.536  23.369  33.440  1.00  0.00     0.173 A 
ATOM     94  C   UNL A   1      46.609  24.543  33.588  1.00  0.00     0.173 A 
ATOM     95  F   UNL A   1      43.332  23.134  32.898  1.00  0.00    -0.203 F 
ATOM     96  C   UNL A   1      45.010  22.429  34.357  1.00  0.00     0.198 A 
ATOM     97  C   UNL A   1      47.100  23.573  34.460  1.00  0.00     0.198 A 
ATOM     98  F   UNL A   1      47.452  25.532  33.258  1.00  0.00    -0.203 F 
ATOM     99  F   UNL A   1      44.220  21.412  34.731  1.00  0.00    -0.200 F 
ATOM    100  C   UNL A   1      46.292  22.528  34.862  1.00  0.00     0.200 A 
ATOM    101  F   UNL A   1      48.365  23.650  34.898  1.00  0.00    -0.200 F 
ATOM    102  F   UNL A   1      46.754  21.608  35.718  1.00  0.00    -0.200 F 
ENDBRANCH  69  92
ENDBRANCH  43  44
ENDBRANCH  35  38
ENDBRANCH  33  34
ENDBRANCH  32  33
ENDBRANCH   1  32
TORSDOF 14
ENDMDL
MODEL 2
REMARK VINA RESULT:     -14.6      1.266      2.066
REMARK SMILES Cc1c(NC(=O)[C@@H]2CC=CC[C@@H]2C(=O)NCCCCNC(=O)c2ccc(-c3c4nc(c(-c5c(F)c(F)c(F)c(F)c5F)c5ccc([nH]5)c(-c5c(F)c(F)c(F)c(F)c5F)c5nc(c(-c6c(F)c(F)c(F)c(F)c6F)c6ccc3[nH]6)C=C5)C=C4)cc2)cccc1C(=O)N1CCOCC1
REMARK SMILES IDX 17 1 16 2 15 3 13 4 14 5 12 7 7 8 8 9 9 10 11 11 10 12 5 13
REMARK SMILES IDX 4 14 6 16 3 17 1 18 2 19 89 20 86 21 88 22 87 23 90 24 91 25
REMARK SMILES IDX 92 26 93 27 97 28 94 29 96 30 95 31 18 32 19 33 20 34 21 35
REMARK SMILES IDX 22 37 23 38 24 39 85 40 25 41 84 42 26 43 27 44 28 45 78 46
REMARK SMILES IDX 29 47 83 48 77 49 79 50 30 51 82 52 76 53 75 54 31 56 63 57
REMARK SMILES IDX 43 58 62 59 44 60 47 61 61 62 80 63 45 64 46 65 60 67 81 68
REMARK SMILES IDX 48 69 32 70 33 71 41 72 34 73 35 74 39 75 42 76 36 77 37 78
REMARK SMILES IDX 40 79 38 80 64 81 65 82 73 83 66 84 67 85 71 86 74 87 68 88
REMARK SMILES IDX 69 89 72 90 70 91 49 92 50 93 58 94 51 95 52 96 56 97 59 98
REMARK SMILES IDX 53 99 54 100 57 101 55 102
REMARK H PARENT 15 6 4 15 20 36 79 55 47 66
REMARK Flexibility Score: inf
ROOT
ATOM      1  C   UNL A   1      32.004  30.098  26.670  1.00  0.00     0.023 C 
ENDROOT
BRANCH   1   2
ATOM      2  C   UNL A   1      31.412  30.453  25.292  1.00  0.00     0.116 C 
BRANCH   2   3
ATOM      3  N   UNL A   1      30.665  29.363  24.688  1.00  0.00    -0.356 N 
ATOM      4  C   UNL A   1      30.877  28.385  23.782  1.00  0.00     0.224 C 
ATOM      5  O   UNL A   1      29.931  27.577  23.731  1.00  0.00    -0.275 OA
ATOM      6  H   UNL A   1      29.746  29.327  25.037  1.00  0.00     0.163 HD
BRANCH   4   7
ATOM      7  C   UNL A   1      32.097  28.116  22.867  1.00  0.00     0.095 C 
ATOM      8  C   UNL A   1      32.785  26.742  22.705  1.00  0.00     0.095 C 
ATOM      9  C   UNL A   1      33.315  26.250  24.051  1.00  0.00     0.041 C 
ATOM     10  C   UNL A   1      34.090  27.319  24.770  1.00  0.00    -0.030 C 
ATOM     11  C   UNL A   1      33.211  29.122  23.274  1.00  0.00     0.041 C 
ATOM     12  C   UNL A   1      34.072  28.607  24.398  1.00  0.00    -0.030 C 
BRANCH   8  13
ATOM     13  C   UNL A   1      31.935  25.798  21.885  1.00  0.00     0.228 C 
ATOM     14  N   UNL A   1      31.377  24.658  22.357  1.00  0.00    -0.326 N 
ATOM     15  H   UNL A   1      30.771  24.261  21.690  1.00  0.00     0.169 HD
ATOM     16  O   UNL A   1      31.689  26.042  20.696  1.00  0.00    -0.274 OA
BRANCH  14  17
ATOM     17  C   UNL A   1      31.415  23.877  23.530  1.00  0.00     0.044 A 
ATOM     18  C   UNL A   1      33.305  22.683  22.421  1.00  0.00     0.047 C 
ATOM     19  C   UNL A   1      32.508  22.970  23.652  1.00  0.00    -0.015 A 
ATOM     20  C   UNL A   1      32.742  22.261  24.846  1.00  0.00     0.045 A 
ATOM     21  C   UNL A   1      30.488  23.953  24.561  1.00  0.00     0.026 A 
ATOM     22  C   UNL A   1      31.769  22.336  25.850  1.00  0.00     0.014 A 
ATOM     23  C   UNL A   1      30.644  23.154  25.699  1.00  0.00     0.003 A 
BRANCH  20  24
ATOM     24  C   UNL A   1      33.834  21.244  25.014  1.00  0.00     0.254 C 
ATOM     25  O   UNL A   1      33.564  20.081  24.715  1.00  0.00    -0.269 OA
ATOM     26  N   UNL A   1      35.129  21.612  25.388  1.00  0.00    -0.334 N 
ATOM     27  C   UNL A   1      35.511  22.648  26.357  1.00  0.00     0.148 C 
ATOM     28  C   UNL A   1      36.232  20.730  25.003  1.00  0.00     0.148 C 
ATOM     29  C   UNL A   1      36.822  23.363  25.957  1.00  0.00     0.181 C 
ATOM     30  C   UNL A   1      37.426  21.568  24.536  1.00  0.00     0.181 C 
ATOM     31  O   UNL A   1      37.863  22.450  25.582  1.00  0.00    -0.378 OA
ENDBRANCH  20  24
ENDBRANCH  14  17
ENDBRANCH   8  13
ENDBRANCH   4   7
ENDBRANCH   2   3
ENDBRANCH   1   2
BRANCH   1  32
ATOM     32  C   UNL A   1      33.000  31.099  27.254  1.00  0.00     0.023 C 
BRANCH  32  33
ATOM     33  C   UNL A   1      34.207  30.462  27.923  1.00  0.00     0.116 C 
BRANCH  33  34
ATOM     34  N   UNL A   1      35.031  31.356  28.731  1.00  0.00    -0.352 N 
ATOM     35  C   UNL A   1      36.259  31.088  29.323  1.00  0.00     0.251 C 
ATOM     36  H   UNL A   1      34.673  32.263  28.874  1.00  0.00     0.163 HD
ATOM     37  O   UNL A   1      36.822  31.925  30.022  1.00  0.00    -0.269 OA
BRANCH  35  38
ATOM     38  C   UNL A   1      36.948  29.819  28.979  1.00  0.00     0.039 A 
ATOM     39  C   UNL A   1      37.313  28.970  30.027  1.00  0.00     0.014 A 
ATOM     40  C   UNL A   1      37.491  29.646  27.711  1.00  0.00     0.014 A 
ATOM     41  C   UNL A   1      38.436  28.160  29.877  1.00  0.00     0.010 A 
ATOM     42  C   UNL A   1      38.673  28.943  27.597  1.00  0.00     0.010 A 
ATOM     43  C   UNL A   1      39.182  28.256  28.703  1.00  0.00    -0.014 A 
BRANCH  43  44
ATOM     44  C   UNL A   1      40.522  27.699  28.563  1.00  0.00     0.031 A 
ATOM     45  C   UNL A   1      40.688  26.258  28.326  1.00  0.00     0.074 A 
ATOM     46  C   UNL A   1      41.619  28.486  28.629  1.00  0.00     0.049 A 
ATOM     47  N   UNL A   1      41.690  25.562  28.747  1.00  0.00    -0.248 NA
ATOM     48  C   UNL A   1      39.695  25.477  27.604  1.00  0.00     0.031 C 
ATOM     49  C   UNL A   1      43.005  28.104  28.369  1.00  0.00     0.029 A 
ATOM     50  N   UNL A   1      41.718  29.759  29.202  1.00  0.00    -0.354 N 
ATOM     51  C   UNL A   1      41.638  24.346  28.107  1.00  0.00     0.074 A 
ATOM     52  C   UNL A   1      40.337  24.313  27.477  1.00  0.00     0.031 C 
ATOM     53  C   UNL A   1      43.811  28.901  29.091  1.00  0.00     0.029 A 
ATOM     54  C   UNL A   1      42.954  29.748  29.896  1.00  0.00     0.049 A 
ATOM     55  H   UNL A   1      41.072  30.500  29.137  1.00  0.00     0.167 HD
ATOM     56  C   UNL A   1      42.763  23.575  28.049  1.00  0.00     0.037 A 
ATOM     57  C   UNL A   1      43.020  29.936  31.246  1.00  0.00     0.037 A 
ATOM     58  C   UNL A   1      43.863  24.180  28.802  1.00  0.00     0.049 A 
ATOM     59  C   UNL A   1      43.739  28.836  31.969  1.00  0.00     0.074 A 
ATOM     60  C   UNL A   1      44.944  24.954  28.410  1.00  0.00     0.029 A 
ATOM     61  N   UNL A   1      43.775  24.304  30.187  1.00  0.00    -0.354 N 
ATOM     62  N   UNL A   1      43.922  27.659  31.443  1.00  0.00    -0.248 NA
ATOM     63  C   UNL A   1      44.271  28.938  33.324  1.00  0.00     0.031 C 
ATOM     64  C   UNL A   1      45.476  25.585  29.559  1.00  0.00     0.029 A 
ATOM     65  C   UNL A   1      44.729  25.190  30.654  1.00  0.00     0.049 A 
ATOM     66  H   UNL A   1      43.126  23.829  30.753  1.00  0.00     0.167 HD
ATOM     67  C   UNL A   1      44.548  26.852  32.348  1.00  0.00     0.074 A 
ATOM     68  C   UNL A   1      44.765  27.701  33.505  1.00  0.00     0.031 C 
ATOM     69  C   UNL A   1      44.816  25.544  32.064  1.00  0.00     0.037 A 
BRANCH  56  70
ATOM     70  C   UNL A   1      42.948  22.470  27.028  1.00  0.00     0.064 A 
ATOM     71  C   UNL A   1      42.276  21.236  27.162  1.00  0.00     0.173 A 
ATOM     72  C   UNL A   1      43.831  22.539  25.935  1.00  0.00     0.173 A 
ATOM     73  F   UNL A   1      41.309  21.057  28.069  1.00  0.00    -0.203 F 
ATOM     74  C   UNL A   1      42.571  20.128  26.361  1.00  0.00     0.198 A 
ATOM     75  C   UNL A   1      44.175  21.416  25.175  1.00  0.00     0.198 A 
ATOM     76  F   UNL A   1      44.342  23.708  25.530  1.00  0.00    -0.203 F 
ATOM     77  F   UNL A   1      41.905  18.980  26.544  1.00  0.00    -0.200 F 
ATOM     78  C   UNL A   1      43.555  20.205  25.397  1.00  0.00     0.200 A 
ATOM     79  F   UNL A   1      45.113  21.520  24.222  1.00  0.00    -0.200 F 
ATOM     80  F   UNL A   1      43.876  19.130  24.666  1.00  0.00    -0.200 F 
ENDBRANCH  56  70
BRANCH  57  81
ATOM     81  C   UNL A   1      41.881  30.742  31.759  1.00  0.00     0.064 A 
ATOM     82  C   UNL A   1      40.841  30.009  32.360  1.00  0.00     0.173 A 
ATOM     83  C   UNL A   1      41.973  32.099  32.068  1.00  0.00     0.173 A 
ATOM     84  F   UNL A   1      40.759  28.690  32.121  1.00  0.00    -0.203 F 
ATOM     85  C   UNL A   1      40.043  30.553  33.358  1.00  0.00     0.198 A 
ATOM     86  C   UNL A   1      41.134  32.658  33.039  1.00  0.00     0.198 A 
ATOM     87  F   UNL A   1      42.946  32.853  31.541  1.00  0.00    -0.203 F 
ATOM     88  F   UNL A   1      39.204  29.767  34.048  1.00  0.00    -0.200 F 
ATOM     89  C   UNL A   1      40.205  31.875  33.713  1.00  0.00     0.200 A 
ATOM     90  F   UNL A   1      41.307  33.934  33.410  1.00  0.00    -0.200 F 
ATOM     91  F   UNL A   1      39.513  32.373  34.747  1.00  0.00    -0.200 F 
ENDBRANCH  57  81
BRANCH  69  92
ATOM     92  C   UNL A   1      45.294  24.532  33.063  1.00  0.00     0.064 A 
ATOM     93  C   UNL A   1      44.537  23.414  33.454  1.00  0.00     0.173 A 
ATOM     94  C   UNL A   1      46.607  24.596  33.577  1.00  0.00     0.173 A 
ATOM     95  F   UNL A   1      43.328  23.174  32.928  1.00  0.00    -0.203 F 
ATOM     96  C   UNL A   1      45.026  22.477  34.366  1.00  0.00     0.198 A 
ATOM     97  C   UNL A   1      47.112  23.629  34.444  1.00  0.00     0.198 A 
ATOM     98  F   UNL A   1      47.443  25.589  33.236  1.00  0.00    -0.203 F 
ATOM     99  F   UNL A   1      44.244  21.458  34.752  1.00  0.00    -0.200 F 
ATOM    100  C   UNL A   1      46.313  22.582  34.856  1.00  0.00     0.200 A 
ATOM    101  F   UNL A   1      48.382  23.711  34.867  1.00  0.00    -0.200 F 
ATOM    102  F   UNL A   1      46.789  21.664  35.708  1.00  0.00    -0.200 F 
ENDBRANCH  69  92
ENDBRANCH  43  44
ENDBRANCH  35  38
ENDBRANCH  33  34
ENDBRANCH  32  33
ENDBRANCH   1  32
TORSDOF 14
ENDMDL
MODEL 3
REMARK VINA RESULT:     -14.6      1.512      2.381
REMARK SMILES Cc1c(NC(=O)[C@@H]2CC=CC[C@@H]2C(=O)NCCCCNC(=O)c2ccc(-c3c4nc(c(-c5c(F)c(F)c(F)c(F)c5F)c5ccc([nH]5)c(-c5c(F)c(F)c(F)c(F)c5F)c5nc(c(-c6c(F)c(F)c(F)c(F)c6F)c6ccc3[nH]6)C=C5)C=C4)cc2)cccc1C(=O)N1CCOCC1
REMARK SMILES IDX 17 1 16 2 15 3 13 4 14 5 12 7 7 8 8 9 9 10 11 11 10 12 5 13
REMARK SMILES IDX 4 14 6 16 3 17 1 18 2 19 89 20 86 21 88 22 87 23 90 24 91 25
REMARK SMILES IDX 92 26 93 27 97 28 94 29 96 30 95 31 18 32 19 33 20 34 21 35
REMARK SMILES IDX 22 37 23 38 24 39 85 40 25 41 84 42 26 43 27 44 28 45 78 46
REMARK SMILES IDX 29 47 83 48 77 49 79 50 30 51 82 52 76 53 75 54 31 56 63 57
REMARK SMILES IDX 43 58 62 59 44 60 47 61 61 62 80 63 45 64 46 65 60 67 81 68
REMARK SMILES IDX 48 69 32 70 33 71 41 72 34 73 35 74 39 75 42 76 36 77 37 78
REMARK SMILES IDX 40 79 38 80 64 81 65 82 73 83 66 84 67 85 71 86 74 87 68 88
REMARK SMILES IDX 69 89 72 90 70 91 49 92 50 93 58 94 51 95 52 96 56 97 59 98
REMARK SMILES IDX 53 99 54 100 57 101 55 102
REMARK H PARENT 15 6 4 15 20 36 79 55 47 66
REMARK Flexibility Score: inf
ROOT
ATOM      1  C   UNL A   1      33.286  29.934  26.097  1.00  0.00     0.023 C 
ENDROOT
BRANCH   1   2
ATOM      2  C   UNL A   1      31.834  29.694  25.643  1.00  0.00     0.116 C 
BRANCH   2   3
ATOM      3  N   UNL A   1      31.292  28.424  26.096  1.00  0.00    -0.356 N 
ATOM      4  C   UNL A   1      30.891  27.255  25.552  1.00  0.00     0.224 C 
ATOM      5  O   UNL A   1      30.651  26.392  26.416  1.00  0.00    -0.275 OA
ATOM      6  H   UNL A   1      31.187  28.412  27.074  1.00  0.00     0.163 HD
BRANCH   4   7
ATOM      7  C   UNL A   1      30.735  26.844  24.068  1.00  0.00     0.095 C 
ATOM      8  C   UNL A   1      31.045  27.766  22.866  1.00  0.00     0.095 C 
ATOM      9  C   UNL A   1      30.170  29.019  22.917  1.00  0.00     0.041 C 
ATOM     10  C   UNL A   1      28.725  28.681  23.161  1.00  0.00    -0.030 C 
ATOM     11  C   UNL A   1      29.274  26.346  23.876  1.00  0.00     0.041 C 
ATOM     12  C   UNL A   1      28.319  27.466  23.558  1.00  0.00    -0.030 C 
BRANCH   8  13
ATOM     13  C   UNL A   1      32.535  27.944  22.683  1.00  0.00     0.228 C 
ATOM     14  N   UNL A   1      33.389  26.959  22.320  1.00  0.00    -0.326 N 
ATOM     15  H   UNL A   1      34.289  27.320  22.146  1.00  0.00     0.169 HD
ATOM     16  O   UNL A   1      33.062  29.052  22.853  1.00  0.00    -0.274 OA
BRANCH  14  17
ATOM     17  C   UNL A   1      33.359  25.564  22.118  1.00  0.00     0.044 A 
ATOM     18  C   UNL A   1      34.427  25.429  24.370  1.00  0.00     0.047 C 
ATOM     19  C   UNL A   1      33.731  24.755  23.231  1.00  0.00    -0.015 A 
ATOM     20  C   UNL A   1      33.583  23.355  23.203  1.00  0.00     0.045 A 
ATOM     21  C   UNL A   1      32.975  24.944  20.937  1.00  0.00     0.026 A 
ATOM     22  C   UNL A   1      33.226  22.763  21.985  1.00  0.00     0.014 A 
ATOM     23  C   UNL A   1      32.948  23.547  20.860  1.00  0.00     0.003 A 
BRANCH  20  24
ATOM     24  C   UNL A   1      34.017  22.446  24.315  1.00  0.00     0.254 C 
ATOM     25  O   UNL A   1      35.101  21.879  24.181  1.00  0.00    -0.269 OA
ATOM     26  N   UNL A   1      33.281  22.327  25.497  1.00  0.00    -0.334 N 
ATOM     27  C   UNL A   1      31.818  22.315  25.633  1.00  0.00     0.148 C 
ATOM     28  C   UNL A   1      33.988  21.906  26.708  1.00  0.00     0.148 C 
ATOM     29  C   UNL A   1      31.350  22.991  26.942  1.00  0.00     0.181 C 
ATOM     30  C   UNL A   1      33.498  22.725  27.906  1.00  0.00     0.181 C 
ATOM     31  O   UNL A   1      32.085  22.547  28.092  1.00  0.00    -0.378 OA
ENDBRANCH  20  24
ENDBRANCH  14  17
ENDBRANCH   8  13
ENDBRANCH   4   7
ENDBRANCH   2   3
ENDBRANCH   1   2
BRANCH   1  32
ATOM     32  C   UNL A   1      33.478  30.915  27.253  1.00  0.00     0.023 C 
BRANCH  32  33
ATOM     33  C   UNL A   1      34.338  30.384  28.388  1.00  0.00     0.116 C 
BRANCH  33  34
ATOM     34  N   UNL A   1      35.262  31.344  28.987  1.00  0.00    -0.352 N 
ATOM     35  C   UNL A   1      36.579  31.134  29.378  1.00  0.00     0.251 C 
ATOM     36  H   UNL A   1      34.909  32.252  29.132  1.00  0.00     0.163 HD
ATOM     37  O   UNL A   1      37.229  32.025  29.916  1.00  0.00    -0.269 OA
BRANCH  35  38
ATOM     38  C   UNL A   1      37.234  29.857  29.001  1.00  0.00     0.039 A 
ATOM     39  C   UNL A   1      37.544  28.957  30.024  1.00  0.00     0.014 A 
ATOM     40  C   UNL A   1      37.803  29.713  27.741  1.00  0.00     0.014 A 
ATOM     41  C   UNL A   1      38.643  28.115  29.871  1.00  0.00     0.010 A 
ATOM     42  C   UNL A   1      38.963  28.975  27.629  1.00  0.00     0.010 A 
ATOM     43  C   UNL A   1      39.422  28.230  28.719  1.00  0.00    -0.014 A 
BRANCH  43  44
ATOM     44  C   UNL A   1      40.745  27.633  28.591  1.00  0.00     0.031 A 
ATOM     45  C   UNL A   1      40.870  26.187  28.353  1.00  0.00     0.074 A 
ATOM     46  C   UNL A   1      41.865  28.387  28.668  1.00  0.00     0.049 A 
ATOM     47  N   UNL A   1      41.846  25.461  28.782  1.00  0.00    -0.248 NA
ATOM     48  C   UNL A   1      39.861  25.438  27.621  1.00  0.00     0.031 C 
ATOM     49  C   UNL A   1      43.241  27.964  28.420  1.00  0.00     0.029 A 
ATOM     50  N   UNL A   1      41.997  29.655  29.244  1.00  0.00    -0.354 N 
ATOM     51  C   UNL A   1      41.764  24.248  28.140  1.00  0.00     0.074 A 
ATOM     52  C   UNL A   1      40.468  24.255  27.497  1.00  0.00     0.031 C 
ATOM     53  C   UNL A   1      44.064  28.735  29.150  1.00  0.00     0.029 A 
ATOM     54  C   UNL A   1      43.225  29.606  29.949  1.00  0.00     0.049 A 
ATOM     55  H   UNL A   1      41.374  30.415  29.174  1.00  0.00     0.167 HD
ATOM     56  C   UNL A   1      42.866  23.444  28.090  1.00  0.00     0.037 A 
ATOM     57  C   UNL A   1      43.285  29.790  31.300  1.00  0.00     0.037 A 
ATOM     58  C   UNL A   1      43.977  24.015  28.855  1.00  0.00     0.049 A 
ATOM     59  C   UNL A   1      43.964  28.668  32.027  1.00  0.00     0.074 A 
ATOM     60  C   UNL A   1      45.084  24.757  28.473  1.00  0.00     0.029 A 
ATOM     61  N   UNL A   1      43.879  24.140  30.239  1.00  0.00    -0.354 N 
ATOM     62  N   UNL A   1      44.116  27.486  31.501  1.00  0.00    -0.248 NA
ATOM     63  C   UNL A   1      44.486  28.753  33.388  1.00  0.00     0.031 C 
ATOM     64  C   UNL A   1      45.624  25.370  29.628  1.00  0.00     0.029 A 
ATOM     65  C   UNL A   1      44.856  24.996  30.716  1.00  0.00     0.049 A 
ATOM     66  H   UNL A   1      43.211  23.683  30.798  1.00  0.00     0.167 HD
ATOM     67  C   UNL A   1      44.710  26.660  32.411  1.00  0.00     0.074 A 
ATOM     68  C   UNL A   1      44.941  27.500  33.571  1.00  0.00     0.031 C 
ATOM     69  C   UNL A   1      44.941  25.345  32.127  1.00  0.00     0.037 A 
BRANCH  56  70
ATOM     70  C   UNL A   1      43.027  22.336  27.070  1.00  0.00     0.064 A 
ATOM     71  C   UNL A   1      42.294  21.134  27.179  1.00  0.00     0.173 A 
ATOM     72  C   UNL A   1      43.942  22.367  26.001  1.00  0.00     0.173 A 
ATOM     73  F   UNL A   1      41.295  20.997  28.058  1.00  0.00    -0.203 F 
ATOM     74  C   UNL A   1      42.559  20.017  26.380  1.00  0.00     0.198 A 
ATOM     75  C   UNL A   1      44.254  21.232  25.246  1.00  0.00     0.198 A 
ATOM     76  F   UNL A   1      44.518  23.512  25.616  1.00  0.00    -0.203 F 
ATOM     77  F   UNL A   1      41.834  18.900  26.539  1.00  0.00    -0.200 F 
ATOM     78  C   UNL A   1      43.571  20.050  25.444  1.00  0.00     0.200 A 
ATOM     79  F   UNL A   1      45.221  21.296  24.319  1.00  0.00    -0.200 F 
ATOM     80  F   UNL A   1      43.861  18.965  24.717  1.00  0.00    -0.200 F 
ENDBRANCH  56  70
BRANCH  57  81
ATOM     81  C   UNL A   1      42.166  30.629  31.804  1.00  0.00     0.064 A 
ATOM     82  C   UNL A   1      41.099  29.927  32.394  1.00  0.00     0.173 A 
ATOM     83  C   UNL A   1      42.296  31.982  32.117  1.00  0.00     0.173 A 
ATOM     84  F   UNL A   1      40.979  28.611  32.151  1.00  0.00    -0.203 F 
ATOM     85  C   UNL A   1      40.308  30.493  33.386  1.00  0.00     0.198 A 
ATOM     86  C   UNL A   1      41.466  32.565  33.081  1.00  0.00     0.198 A 
ATOM     87  F   UNL A   1      43.297  32.708  31.601  1.00  0.00    -0.203 F 
ATOM     88  F   UNL A   1      39.439  29.732  34.066  1.00  0.00    -0.200 F 
ATOM     89  C   UNL A   1      40.507  31.809  33.745  1.00  0.00     0.200 A 
ATOM     90  F   UNL A   1      41.673  33.834  33.457  1.00  0.00    -0.200 F 
ATOM     91  F   UNL A   1      39.821  32.325  34.773  1.00  0.00    -0.200 F 
ENDBRANCH  57  81
BRANCH  69  92
ATOM     92  C   UNL A   1      45.378  24.317  33.129  1.00  0.00     0.064 A 
ATOM     93  C   UNL A   1      44.596  23.208  33.492  1.00  0.00     0.173 A 
ATOM     94  C   UNL A   1      46.680  24.358  33.675  1.00  0.00     0.173 A 
ATOM     95  F   UNL A   1      43.397  22.990  32.934  1.00  0.00    -0.203 F 
ATOM     96  C   UNL A   1      45.048  22.256  34.407  1.00  0.00     0.198 A 
ATOM     97  C   UNL A   1      47.149  23.376  34.546  1.00  0.00     0.198 A 
ATOM     98  F   UNL A   1      47.538  25.341  33.364  1.00  0.00    -0.203 F 
ATOM     99  F   UNL A   1      44.242  21.245  34.764  1.00  0.00    -0.200 F 
ATOM    100  C   UNL A   1      46.324  22.338  34.930  1.00  0.00     0.200 A 
ATOM    101  F   UNL A   1      48.409  23.436  35.001  1.00  0.00    -0.200 F 
ATOM    102  F   UNL A   1      46.766  21.406  35.785  1.00  0.00    -0.200 F 
ENDBRANCH  69  92
ENDBRANCH  43  44
ENDBRANCH  35  38
ENDBRANCH  33  34
ENDBRANCH  32  33
ENDBRANCH   1  32
TORSDOF 14
ENDMDL
