MODEL 1
REMARK VINA RESULT:     -11.5      0.000      0.000
REMARK SMILES CCOC(=O)c1sc(NC(=O)CCC(=O)NCCCCNC(=O)c2ccc(-c3c4nc(c(-c5c(F)c(F)c(F)c(F)c5F)c5ccc([nH]5)c(-c5c(F)c(F)c(F)c(F)c5F)c5nc(c(-c6c(F)c(F)c(F)c(F)c6F)c6ccc3[nH]6)C=C5)C=C4)cc2)c(C#N)c1C
REMARK SMILES IDX 14 1 15 2 16 3 13 5 12 6 10 7 9 8 11 10 8 11 6 12 7 13 90 14
REMARK SMILES IDX 87 15 91 16 4 17 5 18 3 19 2 20 1 21 88 22 89 23 17 24 18 25
REMARK SMILES IDX 19 26 20 27 21 28 22 29 23 31 24 32 25 33 86 34 26 35 85 36
REMARK SMILES IDX 27 37 28 38 29 39 79 40 30 41 84 42 78 43 80 44 31 45 83 46
REMARK SMILES IDX 77 47 76 48 32 50 64 51 44 52 63 53 45 54 48 55 62 56 81 57
REMARK SMILES IDX 46 58 47 59 61 61 82 62 49 63 33 64 34 65 42 66 35 67 36 68
REMARK SMILES IDX 40 69 43 70 37 71 38 72 41 73 39 74 65 75 66 76 74 77 67 78
REMARK SMILES IDX 68 79 72 80 75 81 69 82 70 83 73 84 71 85 50 86 51 87 59 88
REMARK SMILES IDX 52 89 53 90 57 91 60 92 54 93 55 94 58 95 56 96
REMARK H PARENT 16 4 9 9 21 30 80 49 48 60
REMARK Flexibility Score: inf
ROOT
ATOM      1  C   UNL A   1      34.491  22.624  26.880  1.00  0.00     0.220 C 
ATOM      2  O   UNL A   1      33.836  21.963  27.688  1.00  0.00    -0.275 OA
ATOM      3  N   UNL A   1      35.695  22.127  26.492  1.00  0.00    -0.356 N 
ATOM      4  H   UNL A   1      36.059  21.418  27.070  1.00  0.00     0.163 HD
ENDROOT
BRANCH   1   5
ATOM      5  C   UNL A   1      33.981  23.941  26.346  1.00  0.00     0.110 C 
BRANCH   5   6
ATOM      6  C   UNL A   1      32.584  23.965  25.728  1.00  0.00     0.110 C 
BRANCH   6   7
ATOM      7  C   UNL A   1      31.393  24.305  26.607  1.00  0.00     0.225 C 
ATOM      8  N   UNL A   1      30.573  25.389  26.454  1.00  0.00    -0.317 N 
ATOM      9  H   UNL A   1      29.802  25.406  27.066  1.00  0.00     0.170 HD
ATOM     10  O   UNL A   1      31.101  23.517  27.517  1.00  0.00    -0.275 OA
BRANCH   8  11
ATOM     11  C   UNL A   1      30.637  26.467  25.591  1.00  0.00     0.114 A 
ATOM     12  C   UNL A   1      30.085  28.071  23.827  1.00  0.00     0.118 A 
ATOM     13  S   UNL A   1      29.793  26.427  24.121  1.00  0.00    -0.109 S 
ATOM     14  C   UNL A   1      30.945  28.631  24.755  1.00  0.00    -0.006 A 
ATOM     15  C   UNL A   1      31.404  27.621  25.675  1.00  0.00     0.091 A 
ATOM     16  C   UNL A   1      31.329  30.077  24.821  1.00  0.00     0.048 C 
BRANCH  12  17
ATOM     17  C   UNL A   1      29.497  28.657  22.656  1.00  0.00     0.348 C 
ATOM     18  O   UNL A   1      30.071  28.975  21.625  1.00  0.00    -0.245 OA
BRANCH  17  19
ATOM     19  O   UNL A   1      28.184  28.887  22.935  1.00  0.00    -0.462 OA
BRANCH  19  20
ATOM     20  C   UNL A   1      27.647  30.113  22.439  1.00  0.00     0.230 C 
ATOM     21  C   UNL A   1      27.706  31.201  23.497  1.00  0.00     0.049 C 
ENDBRANCH  19  20
ENDBRANCH  17  19
ENDBRANCH  12  17
BRANCH  15  22
ATOM     22  C   UNL A   1      32.422  27.886  26.644  1.00  0.00     0.103 C 
ATOM     23  N   UNL A   1      33.239  28.047  27.463  1.00  0.00    -0.192 NA
ENDBRANCH  15  22
ENDBRANCH   8  11
ENDBRANCH   6   7
ENDBRANCH   5   6
ENDBRANCH   1   5
BRANCH   3  24
ATOM     24  C   UNL A   1      36.529  22.479  25.355  1.00  0.00     0.116 C 
BRANCH  24  25
ATOM     25  C   UNL A   1      37.876  23.127  25.698  1.00  0.00     0.023 C 
BRANCH  25  26
ATOM     26  C   UNL A   1      38.996  22.189  26.137  1.00  0.00     0.023 C 
BRANCH  26  27
ATOM     27  C   UNL A   1      39.858  22.725  27.253  1.00  0.00     0.116 C 
BRANCH  27  28
ATOM     28  N   UNL A   1      41.272  22.377  27.096  1.00  0.00    -0.352 N 
ATOM     29  C   UNL A   1      42.319  23.208  26.719  1.00  0.00     0.251 C 
ATOM     30  H   UNL A   1      41.511  21.441  27.283  1.00  0.00     0.163 HD
ATOM     31  O   UNL A   1      43.357  22.763  26.250  1.00  0.00    -0.269 OA
BRANCH  29  32
ATOM     32  C   UNL A   1      42.160  24.655  26.940  1.00  0.00     0.039 A 
ATOM     33  C   UNL A   1      41.339  25.490  26.177  1.00  0.00     0.014 A 
ATOM     34  C   UNL A   1      42.809  25.150  28.050  1.00  0.00     0.014 A 
ATOM     35  C   UNL A   1      41.207  26.820  26.583  1.00  0.00     0.010 A 
ATOM     36  C   UNL A   1      42.204  26.195  28.655  1.00  0.00     0.010 A 
ATOM     37  C   UNL A   1      41.693  27.174  27.846  1.00  0.00    -0.014 A 
BRANCH  37  38
ATOM     38  C   UNL A   1      41.510  28.459  28.498  1.00  0.00     0.031 A 
ATOM     39  C   UNL A   1      42.585  29.398  28.122  1.00  0.00     0.074 A 
ATOM     40  C   UNL A   1      40.368  28.792  29.153  1.00  0.00     0.049 A 
ATOM     41  N   UNL A   1      43.664  29.629  28.790  1.00  0.00    -0.248 NA
ATOM     42  C   UNL A   1      42.632  29.907  26.739  1.00  0.00     0.031 C 
ATOM     43  C   UNL A   1      39.114  28.025  29.273  1.00  0.00     0.029 A 
ATOM     44  N   UNL A   1      40.060  29.943  29.827  1.00  0.00    -0.354 N 
ATOM     45  C   UNL A   1      44.360  30.573  28.045  1.00  0.00     0.074 A 
ATOM     46  C   UNL A   1      43.847  30.462  26.710  1.00  0.00     0.031 C 
ATOM     47  C   UNL A   1      38.129  28.806  29.777  1.00  0.00     0.029 A 
ATOM     48  C   UNL A   1      38.707  30.070  30.182  1.00  0.00     0.049 A 
ATOM     49  H   UNL A   1      40.734  30.628  30.045  1.00  0.00     0.167 HD
ATOM     50  C   UNL A   1      44.966  31.610  28.692  1.00  0.00     0.037 A 
ATOM     51  C   UNL A   1      38.139  31.152  30.781  1.00  0.00     0.037 A 
ATOM     52  C   UNL A   1      44.989  31.327  30.112  1.00  0.00     0.049 A 
ATOM     53  C   UNL A   1      39.249  31.900  31.418  1.00  0.00     0.074 A 
ATOM     54  C   UNL A   1      45.634  30.445  30.950  1.00  0.00     0.029 A 
ATOM     55  N   UNL A   1      43.843  31.731  30.750  1.00  0.00    -0.354 N 
ATOM     56  N   UNL A   1      39.948  31.425  32.413  1.00  0.00    -0.248 NA
ATOM     57  C   UNL A   1      39.883  32.965  30.655  1.00  0.00     0.031 C 
ATOM     58  C   UNL A   1      44.724  30.187  32.023  1.00  0.00     0.029 A 
ATOM     59  C   UNL A   1      43.594  30.990  31.866  1.00  0.00     0.049 A 
ATOM     60  H   UNL A   1      43.268  32.467  30.437  1.00  0.00     0.167 HD
ATOM     61  C   UNL A   1      41.249  31.810  32.136  1.00  0.00     0.074 A 
ATOM     62  C   UNL A   1      41.128  32.866  31.131  1.00  0.00     0.031 C 
ATOM     63  C   UNL A   1      42.293  31.006  32.500  1.00  0.00     0.037 A 
BRANCH  50  64
ATOM     64  C   UNL A   1      44.982  33.057  28.212  1.00  0.00     0.064 A 
ATOM     65  C   UNL A   1      46.240  33.684  28.053  1.00  0.00     0.173 A 
ATOM     66  C   UNL A   1      43.879  33.939  28.221  1.00  0.00     0.173 A 
ATOM     67  F   UNL A   1      47.366  32.956  28.010  1.00  0.00    -0.203 F 
ATOM     68  C   UNL A   1      46.385  35.075  28.032  1.00  0.00     0.198 A 
ATOM     69  C   UNL A   1      44.025  35.325  28.164  1.00  0.00     0.198 A 
ATOM     70  F   UNL A   1      42.619  33.527  28.377  1.00  0.00    -0.203 F 
ATOM     71  F   UNL A   1      47.609  35.617  28.014  1.00  0.00    -0.200 F 
ATOM     72  C   UNL A   1      45.277  35.895  28.105  1.00  0.00     0.200 A 
ATOM     73  F   UNL A   1      42.935  36.103  28.249  1.00  0.00    -0.200 F 
ATOM     74  F   UNL A   1      45.412  37.226  28.156  1.00  0.00    -0.200 F 
ENDBRANCH  50  64
BRANCH  51  75
ATOM     75  C   UNL A   1      36.800  31.769  30.584  1.00  0.00     0.064 A 
ATOM     76  C   UNL A   1      35.895  31.939  31.650  1.00  0.00     0.173 A 
ATOM     77  C   UNL A   1      36.520  32.497  29.413  1.00  0.00     0.173 A 
ATOM     78  F   UNL A   1      36.113  31.325  32.822  1.00  0.00    -0.203 F 
ATOM     79  C   UNL A   1      34.797  32.804  31.557  1.00  0.00     0.198 A 
ATOM     80  C   UNL A   1      35.427  33.364  29.322  1.00  0.00     0.198 A 
ATOM     81  F   UNL A   1      37.366  32.460  28.373  1.00  0.00    -0.203 F 
ATOM     82  F   UNL A   1      33.993  32.987  32.615  1.00  0.00    -0.200 F 
ATOM     83  C   UNL A   1      34.571  33.527  30.397  1.00  0.00     0.200 A 
ATOM     84  F   UNL A   1      35.248  34.095  28.213  1.00  0.00    -0.200 F 
ATOM     85  F   UNL A   1      33.563  34.409  30.330  1.00  0.00    -0.200 F 
ENDBRANCH  51  75
BRANCH  63  86
ATOM     86  C   UNL A   1      42.043  29.978  33.562  1.00  0.00     0.064 A 
ATOM     87  C   UNL A   1      41.637  28.654  33.329  1.00  0.00     0.173 A 
ATOM     88  C   UNL A   1      42.358  30.337  34.879  1.00  0.00     0.173 A 
ATOM     89  F   UNL A   1      41.385  28.217  32.088  1.00  0.00    -0.203 F 
ATOM     90  C   UNL A   1      41.535  27.738  34.378  1.00  0.00     0.198 A 
ATOM     91  C   UNL A   1      42.290  29.415  35.916  1.00  0.00     0.198 A 
ATOM     92  F   UNL A   1      42.790  31.578  35.148  1.00  0.00    -0.203 F 
ATOM     93  F   UNL A   1      41.143  26.478  34.137  1.00  0.00    -0.200 F 
ATOM     94  C   UNL A   1      41.871  28.118  35.668  1.00  0.00     0.200 A 
ATOM     95  F   UNL A   1      42.661  29.777  37.151  1.00  0.00    -0.200 F 
ATOM     96  F   UNL A   1      41.815  27.229  36.670  1.00  0.00    -0.200 F 
ENDBRANCH  63  86
ENDBRANCH  37  38
ENDBRANCH  29  32
ENDBRANCH  27  28
ENDBRANCH  26  27
ENDBRANCH  25  26
ENDBRANCH  24  25
ENDBRANCH   3  24
TORSDOF 18
ENDMDL
MODEL 2
REMARK VINA RESULT:     -11.4      3.034      8.759
REMARK SMILES CCOC(=O)c1sc(NC(=O)CCC(=O)NCCCCNC(=O)c2ccc(-c3c4nc(c(-c5c(F)c(F)c(F)c(F)c5F)c5ccc([nH]5)c(-c5c(F)c(F)c(F)c(F)c5F)c5nc(c(-c6c(F)c(F)c(F)c(F)c6F)c6ccc3[nH]6)C=C5)C=C4)cc2)c(C#N)c1C
REMARK SMILES IDX 14 1 15 2 16 3 13 5 12 6 10 7 9 8 11 10 8 11 6 12 7 13 90 14
REMARK SMILES IDX 87 15 91 16 4 17 5 18 3 19 2 20 1 21 88 22 89 23 17 24 18 25
REMARK SMILES IDX 19 26 20 27 21 28 22 29 23 31 24 32 25 33 86 34 26 35 85 36
REMARK SMILES IDX 27 37 28 38 29 39 79 40 30 41 84 42 78 43 80 44 31 45 83 46
REMARK SMILES IDX 77 47 76 48 32 50 64 51 44 52 63 53 45 54 48 55 62 56 81 57
REMARK SMILES IDX 46 58 47 59 61 61 82 62 49 63 33 64 34 65 42 66 35 67 36 68
REMARK SMILES IDX 40 69 43 70 37 71 38 72 41 73 39 74 65 75 66 76 74 77 67 78
REMARK SMILES IDX 68 79 72 80 75 81 69 82 70 83 73 84 71 85 50 86 51 87 59 88
REMARK SMILES IDX 52 89 53 90 57 91 60 92 54 93 55 94 58 95 56 96
REMARK H PARENT 16 4 9 9 21 30 80 49 48 60
REMARK Flexibility Score: inf
ROOT
ATOM      1  C   UNL A   1      34.243  30.041  27.599  1.00  0.00     0.220 C 
ATOM      2  O   UNL A   1      35.074  29.132  27.635  1.00  0.00    -0.275 OA
ATOM      3  N   UNL A   1      34.522  31.174  28.297  1.00  0.00    -0.356 N 
ATOM      4  H   UNL A   1      35.232  31.083  28.972  1.00  0.00     0.163 HD
ENDROOT
BRANCH   1   5
ATOM      5  C   UNL A   1      32.959  29.903  26.818  1.00  0.00     0.110 C 
BRANCH   5   6
ATOM      6  C   UNL A   1      32.859  28.757  25.812  1.00  0.00     0.110 C 
BRANCH   6   7
ATOM      7  C   UNL A   1      31.638  28.667  24.913  1.00  0.00     0.225 C 
ATOM      8  N   UNL A   1      31.067  27.511  24.456  1.00  0.00    -0.317 N 
ATOM      9  H   UNL A   1      30.232  27.641  23.951  1.00  0.00     0.170 HD
ATOM     10  O   UNL A   1      31.075  29.724  24.594  1.00  0.00    -0.275 OA
BRANCH   8  11
ATOM     11  C   UNL A   1      31.456  26.191  24.581  1.00  0.00     0.114 A 
ATOM     12  C   UNL A   1      31.546  23.848  25.282  1.00  0.00     0.118 A 
ATOM     13  S   UNL A   1      31.046  25.313  25.972  1.00  0.00    -0.109 S 
ATOM     14  C   UNL A   1      32.164  24.023  24.056  1.00  0.00    -0.006 A 
ATOM     15  C   UNL A   1      32.266  25.427  23.751  1.00  0.00     0.091 A 
ATOM     16  C   UNL A   1      32.637  22.921  23.158  1.00  0.00     0.048 C 
BRANCH  12  17
ATOM     17  C   UNL A   1      31.351  22.647  26.044  1.00  0.00     0.348 C 
ATOM     18  O   UNL A   1      30.821  21.613  25.664  1.00  0.00    -0.245 OA
BRANCH  17  19
ATOM     19  O   UNL A   1      31.784  22.897  27.310  1.00  0.00    -0.462 OA
BRANCH  19  20
ATOM     20  C   UNL A   1      33.199  22.859  27.504  1.00  0.00     0.230 C 
ATOM     21  C   UNL A   1      33.740  21.457  27.286  1.00  0.00     0.049 C 
ENDBRANCH  19  20
ENDBRANCH  17  19
ENDBRANCH  12  17
BRANCH  15  22
ATOM     22  C   UNL A   1      33.000  25.904  22.620  1.00  0.00     0.103 C 
ATOM     23  N   UNL A   1      33.546  26.284  21.660  1.00  0.00    -0.192 NA
ENDBRANCH  15  22
ENDBRANCH   8  11
ENDBRANCH   6   7
ENDBRANCH   5   6
ENDBRANCH   1   5
BRANCH   3  24
ATOM     24  C   UNL A   1      33.934  32.499  28.202  1.00  0.00     0.116 C 
BRANCH  24  25
ATOM     25  C   UNL A   1      34.932  33.663  28.138  1.00  0.00     0.023 C 
BRANCH  25  26
ATOM     26  C   UNL A   1      34.490  34.979  28.773  1.00  0.00     0.023 C 
BRANCH  26  27
ATOM     27  C   UNL A   1      33.222  34.885  29.583  1.00  0.00     0.116 C 
BRANCH  27  28
ATOM     28  N   UNL A   1      33.242  35.742  30.772  1.00  0.00    -0.352 N 
ATOM     29  C   UNL A   1      33.736  35.439  32.033  1.00  0.00     0.251 C 
ATOM     30  H   UNL A   1      32.861  36.643  30.662  1.00  0.00     0.163 HD
ATOM     31  O   UNL A   1      33.370  36.045  33.031  1.00  0.00    -0.269 OA
BRANCH  29  32
ATOM     32  C   UNL A   1      34.756  34.382  32.135  1.00  0.00     0.039 A 
ATOM     33  C   UNL A   1      34.497  33.014  32.024  1.00  0.00     0.014 A 
ATOM     34  C   UNL A   1      36.054  34.834  32.248  1.00  0.00     0.014 A 
ATOM     35  C   UNL A   1      35.589  32.142  32.029  1.00  0.00     0.010 A 
ATOM     36  C   UNL A   1      36.992  34.037  31.691  1.00  0.00     0.010 A 
ATOM     37  C   UNL A   1      36.869  32.690  31.896  1.00  0.00    -0.014 A 
BRANCH  37  38
ATOM     38  C   UNL A   1      38.101  31.940  31.726  1.00  0.00     0.031 A 
ATOM     39  C   UNL A   1      38.731  31.660  33.032  1.00  0.00     0.074 A 
ATOM     40  C   UNL A   1      38.460  31.378  30.543  1.00  0.00     0.049 A 
ATOM     41  N   UNL A   1      39.664  32.354  33.592  1.00  0.00    -0.248 NA
ATOM     42  C   UNL A   1      38.073  30.713  33.950  1.00  0.00     0.031 C 
ATOM     43  C   UNL A   1      37.704  31.326  29.278  1.00  0.00     0.029 A 
ATOM     44  N   UNL A   1      39.588  30.669  30.227  1.00  0.00    -0.354 N 
ATOM     45  C   UNL A   1      39.924  31.709  34.796  1.00  0.00     0.074 A 
ATOM     46  C   UNL A   1      38.749  30.939  35.080  1.00  0.00     0.031 C 
ATOM     47  C   UNL A   1      38.283  30.454  28.418  1.00  0.00     0.029 A 
ATOM     48  C   UNL A   1      39.540  30.015  28.985  1.00  0.00     0.049 A 
ATOM     49  H   UNL A   1      40.370  30.621  30.825  1.00  0.00     0.167 HD
ATOM     50  C   UNL A   1      41.219  31.556  35.196  1.00  0.00     0.037 A 
ATOM     51  C   UNL A   1      40.497  29.187  28.485  1.00  0.00     0.037 A 
ATOM     52  C   UNL A   1      42.068  32.391  34.371  1.00  0.00     0.049 A 
ATOM     53  C   UNL A   1      41.743  29.506  29.220  1.00  0.00     0.074 A 
ATOM     54  C   UNL A   1      42.293  33.740  34.207  1.00  0.00     0.029 A 
ATOM     55  N   UNL A   1      42.458  31.768  33.213  1.00  0.00    -0.354 N 
ATOM     56  N   UNL A   1      42.356  30.654  29.117  1.00  0.00    -0.248 NA
ATOM     57  C   UNL A   1      42.050  28.733  30.414  1.00  0.00     0.031 C 
ATOM     58  C   UNL A   1      42.643  33.913  32.831  1.00  0.00     0.029 A 
ATOM     59  C   UNL A   1      42.720  32.662  32.218  1.00  0.00     0.049 A 
ATOM     60  H   UNL A   1      42.537  30.791  33.112  1.00  0.00     0.167 HD
ATOM     61  C   UNL A   1      42.770  30.941  30.407  1.00  0.00     0.074 A 
ATOM     62  C   UNL A   1      42.683  29.671  31.126  1.00  0.00     0.031 C 
ATOM     63  C   UNL A   1      42.817  32.237  30.839  1.00  0.00     0.037 A 
BRANCH  50  64
ATOM     64  C   UNL A   1      41.797  30.300  35.841  1.00  0.00     0.064 A 
ATOM     65  C   UNL A   1      42.776  30.469  36.848  1.00  0.00     0.173 A 
ATOM     66  C   UNL A   1      41.703  28.991  35.322  1.00  0.00     0.173 A 
ATOM     67  F   UNL A   1      42.955  31.661  37.436  1.00  0.00    -0.203 F 
ATOM     68  C   UNL A   1      43.662  29.448  37.208  1.00  0.00     0.198 A 
ATOM     69  C   UNL A   1      42.565  27.965  35.710  1.00  0.00     0.198 A 
ATOM     70  F   UNL A   1      40.846  28.651  34.356  1.00  0.00    -0.203 F 
ATOM     71  F   UNL A   1      44.655  29.700  38.070  1.00  0.00    -0.200 F 
ATOM     72  C   UNL A   1      43.566  28.200  36.625  1.00  0.00     0.200 A 
ATOM     73  F   UNL A   1      42.461  26.763  35.121  1.00  0.00    -0.200 F 
ATOM     74  F   UNL A   1      44.452  27.239  36.912  1.00  0.00    -0.200 F 
ENDBRANCH  50  64
BRANCH  51  75
ATOM     75  C   UNL A   1      40.366  27.943  27.679  1.00  0.00     0.064 A 
ATOM     76  C   UNL A   1      41.168  27.705  26.545  1.00  0.00     0.173 A 
ATOM     77  C   UNL A   1      39.684  26.829  28.199  1.00  0.00     0.173 A 
ATOM     78  F   UNL A   1      41.896  28.698  26.014  1.00  0.00    -0.203 F 
ATOM     79  C   UNL A   1      41.298  26.425  25.988  1.00  0.00     0.198 A 
ATOM     80  C   UNL A   1      39.817  25.552  27.646  1.00  0.00     0.198 A 
ATOM     81  F   UNL A   1      38.959  26.942  29.322  1.00  0.00    -0.203 F 
ATOM     82  F   UNL A   1      42.119  26.225  24.946  1.00  0.00    -0.200 F 
ATOM     83  C   UNL A   1      40.633  25.346  26.547  1.00  0.00     0.200 A 
ATOM     84  F   UNL A   1      39.209  24.508  28.227  1.00  0.00    -0.200 F 
ATOM     85  F   UNL A   1      40.812  24.110  26.061  1.00  0.00    -0.200 F 
ENDBRANCH  51  75
BRANCH  63  86
ATOM     86  C   UNL A   1      42.857  33.317  29.797  1.00  0.00     0.064 A 
ATOM     87  C   UNL A   1      41.757  34.084  29.383  1.00  0.00     0.173 A 
ATOM     88  C   UNL A   1      44.117  33.664  29.292  1.00  0.00     0.173 A 
ATOM     89  F   UNL A   1      40.533  33.858  29.876  1.00  0.00    -0.203 F 
ATOM     90  C   UNL A   1      41.916  35.141  28.485  1.00  0.00     0.198 A 
ATOM     91  C   UNL A   1      44.278  34.738  28.427  1.00  0.00     0.198 A 
ATOM     92  F   UNL A   1      45.205  32.987  29.689  1.00  0.00    -0.203 F 
ATOM     93  F   UNL A   1      40.853  35.863  28.098  1.00  0.00    -0.200 F 
ATOM     94  C   UNL A   1      43.178  35.472  28.016  1.00  0.00     0.200 A 
ATOM     95  F   UNL A   1      45.506  35.079  28.015  1.00  0.00    -0.200 F 
ATOM     96  F   UNL A   1      43.339  36.513  27.187  1.00  0.00    -0.200 F 
ENDBRANCH  63  86
ENDBRANCH  37  38
ENDBRANCH  29  32
ENDBRANCH  27  28
ENDBRANCH  26  27
ENDBRANCH  25  26
ENDBRANCH  24  25
ENDBRANCH   3  24
TORSDOF 18
ENDMDL
MODEL 3
REMARK VINA RESULT:     -11.3      3.272      8.995
REMARK SMILES CCOC(=O)c1sc(NC(=O)CCC(=O)NCCCCNC(=O)c2ccc(-c3c4nc(c(-c5c(F)c(F)c(F)c(F)c5F)c5ccc([nH]5)c(-c5c(F)c(F)c(F)c(F)c5F)c5nc(c(-c6c(F)c(F)c(F)c(F)c6F)c6ccc3[nH]6)C=C5)C=C4)cc2)c(C#N)c1C
REMARK SMILES IDX 14 1 15 2 16 3 13 5 12 6 10 7 9 8 11 10 8 11 6 12 7 13 90 14
REMARK SMILES IDX 87 15 91 16 4 17 5 18 3 19 2 20 1 21 88 22 89 23 17 24 18 25
REMARK SMILES IDX 19 26 20 27 21 28 22 29 23 31 24 32 25 33 86 34 26 35 85 36
REMARK SMILES IDX 27 37 28 38 29 39 79 40 30 41 84 42 78 43 80 44 31 45 83 46
REMARK SMILES IDX 77 47 76 48 32 50 64 51 44 52 63 53 45 54 48 55 62 56 81 57
REMARK SMILES IDX 46 58 47 59 61 61 82 62 49 63 33 64 34 65 42 66 35 67 36 68
REMARK SMILES IDX 40 69 43 70 37 71 38 72 41 73 39 74 65 75 66 76 74 77 67 78
REMARK SMILES IDX 68 79 72 80 75 81 69 82 70 83 73 84 71 85 50 86 51 87 59 88
REMARK SMILES IDX 52 89 53 90 57 91 60 92 54 93 55 94 58 95 56 96
REMARK H PARENT 16 4 9 9 21 30 80 49 48 60
REMARK Flexibility Score: inf
ROOT
ATOM      1  C   UNL A   1      33.460  28.439  24.451  1.00  0.00     0.220 C 
ATOM      2  O   UNL A   1      34.128  28.278  23.427  1.00  0.00    -0.275 OA
ATOM      3  N   UNL A   1      33.163  29.716  24.811  1.00  0.00    -0.356 N 
ATOM      4  H   UNL A   1      33.711  30.409  24.377  1.00  0.00     0.163 HD
ENDROOT
BRANCH   1   5
ATOM      5  C   UNL A   1      32.995  27.266  25.279  1.00  0.00     0.110 C 
BRANCH   5   6
ATOM      6  C   UNL A   1      31.510  26.910  25.235  1.00  0.00     0.110 C 
BRANCH   6   7
ATOM      7  C   UNL A   1      31.013  25.943  24.175  1.00  0.00     0.225 C 
ATOM      8  N   UNL A   1      31.333  24.615  24.092  1.00  0.00    -0.317 N 
ATOM      9  H   UNL A   1      30.853  24.124  23.387  1.00  0.00     0.170 HD
ATOM     10  O   UNL A   1      30.211  26.370  23.332  1.00  0.00    -0.275 OA
BRANCH   8  11
ATOM     11  C   UNL A   1      32.214  23.843  24.825  1.00  0.00     0.114 A 
ATOM     12  C   UNL A   1      34.278  22.828  25.662  1.00  0.00     0.118 A 
ATOM     13  S   UNL A   1      33.729  23.442  24.180  1.00  0.00    -0.109 S 
ATOM     14  C   UNL A   1      33.279  22.782  26.618  1.00  0.00    -0.006 A 
ATOM     15  C   UNL A   1      32.028  23.210  26.047  1.00  0.00     0.091 A 
ATOM     16  C   UNL A   1      33.465  22.375  28.048  1.00  0.00     0.048 C 
BRANCH  12  17
ATOM     17  C   UNL A   1      35.637  22.373  25.737  1.00  0.00     0.348 C 
ATOM     18  O   UNL A   1      36.037  21.226  25.597  1.00  0.00    -0.245 OA
BRANCH  17  19
ATOM     19  O   UNL A   1      36.403  23.442  26.090  1.00  0.00    -0.462 OA
BRANCH  19  20
ATOM     20  C   UNL A   1      37.815  23.251  26.004  1.00  0.00     0.230 C 
ATOM     21  C   UNL A   1      38.557  24.322  26.783  1.00  0.00     0.049 C 
ENDBRANCH  19  20
ENDBRANCH  17  19
ENDBRANCH  12  17
BRANCH  15  22
ATOM     22  C   UNL A   1      30.795  23.115  26.766  1.00  0.00     0.103 C 
ATOM     23  N   UNL A   1      29.800  23.096  27.376  1.00  0.00    -0.192 NA
ENDBRANCH  15  22
ENDBRANCH   8  11
ENDBRANCH   6   7
ENDBRANCH   5   6
ENDBRANCH   1   5
BRANCH   3  24
ATOM     24  C   UNL A   1      32.162  30.217  25.737  1.00  0.00     0.116 C 
BRANCH  24  25
ATOM     25  C   UNL A   1      32.621  30.361  27.194  1.00  0.00     0.023 C 
BRANCH  25  26
ATOM     26  C   UNL A   1      34.127  30.392  27.438  1.00  0.00     0.023 C 
BRANCH  26  27
ATOM     27  C   UNL A   1      34.696  31.773  27.646  1.00  0.00     0.116 C 
BRANCH  27  28
ATOM     28  N   UNL A   1      34.556  32.242  29.027  1.00  0.00    -0.352 N 
ATOM     29  C   UNL A   1      35.313  31.879  30.133  1.00  0.00     0.251 C 
ATOM     30  H   UNL A   1      33.839  32.897  29.191  1.00  0.00     0.163 HD
ATOM     31  O   UNL A   1      34.892  32.014  31.273  1.00  0.00    -0.269 OA
BRANCH  29  32
ATOM     32  C   UNL A   1      36.669  31.358  29.894  1.00  0.00     0.039 A 
ATOM     33  C   UNL A   1      37.827  32.141  29.865  1.00  0.00     0.014 A 
ATOM     34  C   UNL A   1      36.759  29.986  29.798  1.00  0.00     0.014 A 
ATOM     35  C   UNL A   1      39.053  31.484  29.740  1.00  0.00     0.010 A 
ATOM     36  C   UNL A   1      37.917  29.451  30.243  1.00  0.00     0.010 A 
ATOM     37  C   UNL A   1      39.075  30.094  29.899  1.00  0.00    -0.014 A 
BRANCH  37  38
ATOM     38  C   UNL A   1      40.265  29.264  29.958  1.00  0.00     0.031 A 
ATOM     39  C   UNL A   1      40.719  29.094  31.352  1.00  0.00     0.074 A 
ATOM     40  C   UNL A   1      40.719  28.557  28.891  1.00  0.00     0.049 A 
ATOM     41  N   UNL A   1      41.626  29.792  31.949  1.00  0.00    -0.248 NA
ATOM     42  C   UNL A   1      39.897  28.290  32.274  1.00  0.00     0.031 C 
ATOM     43  C   UNL A   1      40.113  28.409  27.555  1.00  0.00     0.029 A 
ATOM     44  N   UNL A   1      41.826  27.757  28.790  1.00  0.00    -0.354 N 
ATOM     45  C   UNL A   1      41.700  29.269  33.235  1.00  0.00     0.074 A 
ATOM     46  C   UNL A   1      40.450  28.601  33.450  1.00  0.00     0.031 C 
ATOM     47  C   UNL A   1      40.728  27.418  26.865  1.00  0.00     0.029 A 
ATOM     48  C   UNL A   1      41.879  26.975  27.624  1.00  0.00     0.049 A 
ATOM     49  H   UNL A   1      42.528  27.732  29.480  1.00  0.00     0.167 HD
ATOM     50  C   UNL A   1      42.927  29.090  33.804  1.00  0.00     0.037 A 
ATOM     51  C   UNL A   1      42.828  26.045  27.332  1.00  0.00     0.037 A 
ATOM     52  C   UNL A   1      43.920  29.782  33.009  1.00  0.00     0.049 A 
ATOM     53  C   UNL A   1      44.000  26.374  28.177  1.00  0.00     0.074 A 
ATOM     54  C   UNL A   1      44.253  31.091  32.737  1.00  0.00     0.029 A 
ATOM     55  N   UNL A   1      44.398  29.016  31.977  1.00  0.00    -0.354 N 
ATOM     56  N   UNL A   1      44.697  27.469  28.034  1.00  0.00    -0.248 NA
ATOM     57  C   UNL A   1      44.113  25.720  29.473  1.00  0.00     0.031 C 
ATOM     58  C   UNL A   1      44.772  31.092  31.404  1.00  0.00     0.029 A 
ATOM     59  C   UNL A   1      44.833  29.780  30.935  1.00  0.00     0.049 A 
ATOM     60  H   UNL A   1      44.422  28.031  31.987  1.00  0.00     0.167 HD
ATOM     61  C   UNL A   1      44.976  27.871  29.329  1.00  0.00     0.074 A 
ATOM     62  C   UNL A   1      44.721  26.694  30.158  1.00  0.00     0.031 C 
ATOM     63  C   UNL A   1      45.061  29.203  29.629  1.00  0.00     0.037 A 
BRANCH  50  64
ATOM     64  C   UNL A   1      43.339  27.882  34.640  1.00  0.00     0.064 A 
ATOM     65  C   UNL A   1      43.820  28.121  35.948  1.00  0.00     0.173 A 
ATOM     66  C   UNL A   1      43.601  26.587  34.141  1.00  0.00     0.173 A 
ATOM     67  F   UNL A   1      43.622  29.306  36.545  1.00  0.00    -0.203 F 
ATOM     68  C   UNL A   1      44.600  27.188  36.640  1.00  0.00     0.198 A 
ATOM     69  C   UNL A   1      44.349  25.647  34.849  1.00  0.00     0.198 A 
ATOM     70  F   UNL A   1      43.235  26.190  32.920  1.00  0.00    -0.203 F 
ATOM     71  F   UNL A   1      45.141  27.517  37.820  1.00  0.00    -0.200 F 
ATOM     72  C   UNL A   1      44.878  25.957  36.081  1.00  0.00     0.200 A 
ATOM     73  F   UNL A   1      44.617  24.460  34.282  1.00  0.00    -0.200 F 
ATOM     74  F   UNL A   1      45.681  25.087  36.706  1.00  0.00    -0.200 F 
ENDBRANCH  50  64
BRANCH  51  75
ATOM     75  C   UNL A   1      42.708  24.731  26.646  1.00  0.00     0.064 A 
ATOM     76  C   UNL A   1      43.360  24.466  25.426  1.00  0.00     0.173 A 
ATOM     77  C   UNL A   1      42.220  23.610  27.343  1.00  0.00     0.173 A 
ATOM     78  F   UNL A   1      43.903  25.469  24.722  1.00  0.00    -0.203 F 
ATOM     79  C   UNL A   1      43.536  23.159  24.950  1.00  0.00     0.198 A 
ATOM     80  C   UNL A   1      42.400  22.306  26.870  1.00  0.00     0.198 A 
ATOM     81  F   UNL A   1      41.654  23.756  28.550  1.00  0.00    -0.203 F 
ATOM     82  F   UNL A   1      44.217  22.942  23.815  1.00  0.00    -0.200 F 
ATOM     83  C   UNL A   1      43.067  22.079  25.679  1.00  0.00     0.200 A 
ATOM     84  F   UNL A   1      41.986  21.268  27.609  1.00  0.00    -0.200 F 
ATOM     85  F   UNL A   1      43.297  20.825  25.263  1.00  0.00    -0.200 F 
ENDBRANCH  51  75
BRANCH  63  86
ATOM     86  C   UNL A   1      45.295  30.158  28.496  1.00  0.00     0.064 A 
ATOM     87  C   UNL A   1      44.289  30.829  27.782  1.00  0.00     0.173 A 
ATOM     88  C   UNL A   1      46.625  30.495  28.215  1.00  0.00     0.173 A 
ATOM     89  F   UNL A   1      42.994  30.612  28.043  1.00  0.00    -0.203 F 
ATOM     90  C   UNL A   1      44.611  31.783  26.814  1.00  0.00     0.198 A 
ATOM     91  C   UNL A   1      46.942  31.470  27.278  1.00  0.00     0.198 A 
ATOM     92  F   UNL A   1      47.621  29.911  28.899  1.00  0.00    -0.203 F 
ATOM     93  F   UNL A   1      43.638  32.414  26.140  1.00  0.00    -0.200 F 
ATOM     94  C   UNL A   1      45.936  32.109  26.571  1.00  0.00     0.200 A 
ATOM     95  F   UNL A   1      48.222  31.811  27.083  1.00  0.00    -0.200 F 
ATOM     96  F   UNL A   1      46.245  33.055  25.674  1.00  0.00    -0.200 F 
ENDBRANCH  63  86
ENDBRANCH  37  38
ENDBRANCH  29  32
ENDBRANCH  27  28
ENDBRANCH  26  27
ENDBRANCH  25  26
ENDBRANCH  24  25
ENDBRANCH   3  24
TORSDOF 18
ENDMDL
