MODEL 1
REMARK VINA RESULT:     -13.9      0.000      0.000
REMARK SMILES COc1ccc(/C=N/NC(=O)c2cc(C)nc3ccccc23)c(C(=O)NCCCCNC(=O)c2ccc(-c3c4nc(c(-c5c(F)c(F)c(F)c(F)c5F)c5ccc([nH]5)c(-c5c(F)c(F)c(F)c(F)c5F)c5nc(c(-c6c(F)c(F)c(F)c(F)c6F)c6ccc3[nH]6)C=C5)C=C4)cc2)c1OC
REMARK SMILES IDX 28 1 27 2 26 3 24 4 25 5 23 7 3 8 4 9 97 10 5 11 6 12 2 13
REMARK SMILES IDX 1 14 98 15 99 16 7 17 8 18 9 19 10 20 11 22 12 23 13 24
REMARK SMILES IDX 22 25 14 26 17 27 21 28 15 29 16 30 18 31 20 32 19 33 29 34
REMARK SMILES IDX 30 35 31 36 32 37 33 39 34 40 35 41 96 42 36 43 95 44 37 45
REMARK SMILES IDX 38 46 39 47 89 48 40 49 94 50 88 51 90 52 41 53 93 54 87 55
REMARK SMILES IDX 86 56 42 58 74 59 54 60 73 61 55 62 58 63 72 64 91 65 56 66
REMARK SMILES IDX 57 67 71 69 92 70 59 71 43 72 44 73 52 74 45 75 46 76 50 77
REMARK SMILES IDX 53 78 47 79 48 80 51 81 49 82 75 83 76 84 84 85 77 86 78 87
REMARK SMILES IDX 82 88 85 89 79 90 80 91 83 92 81 93 60 94 61 95 69 96 62 97
REMARK SMILES IDX 63 98 67 99 70 100 64 101 65 102 68 103 66 104
REMARK H PARENT 26 6 9 21 31 38 90 57 58 68
REMARK Flexibility Score: inf
ROOT
ATOM      1  C   UNL A   1      31.746  30.819  26.045  1.00  0.00     0.023 C 
ENDROOT
BRANCH   1   2
ATOM      2  C   UNL A   1      31.847  29.607  26.949  1.00  0.00     0.116 C 
BRANCH   2   3
ATOM      3  N   UNL A   1      32.796  28.549  26.733  1.00  0.00    -0.352 N 
ATOM      4  C   UNL A   1      32.978  27.884  25.521  1.00  0.00     0.255 C 
ATOM      5  O   UNL A   1      34.062  27.337  25.326  1.00  0.00    -0.269 OA
ATOM      6  H   UNL A   1      33.356  28.274  27.495  1.00  0.00     0.163 HD
BRANCH   4   7
ATOM      7  C   UNL A   1      31.858  27.709  24.528  1.00  0.00     0.094 A 
ATOM      8  C   UNL A   1      30.524  28.601  22.659  1.00  0.00     0.161 A 
ATOM      9  C   UNL A   1      29.495  27.733  23.048  1.00  0.00     0.051 A 
ATOM     10  C   UNL A   1      31.751  28.535  23.342  1.00  0.00     0.174 A 
ATOM     11  C   UNL A   1      29.665  26.797  24.084  1.00  0.00     0.015 A 
ATOM     12  C   UNL A   1      30.836  26.774  24.860  1.00  0.00     0.011 A 
BRANCH   8  13
ATOM     13  O   UNL A   1      30.096  29.585  21.805  1.00  0.00    -0.493 OA
ATOM     14  C   UNL A   1      28.748  30.030  21.847  1.00  0.00     0.278 C 
ENDBRANCH   8  13
BRANCH  10  15
ATOM     15  O   UNL A   1      32.926  29.098  22.893  1.00  0.00    -0.492 OA
ATOM     16  C   UNL A   1      33.850  28.341  22.110  1.00  0.00     0.278 C 
ENDBRANCH  10  15
BRANCH  12  17
ATOM     17  C   UNL A   1      30.922  25.744  25.996  1.00  0.00     0.142 C 
ATOM     18  N   UNL A   1      31.816  24.813  25.963  1.00  0.00    -0.180 NA
BRANCH  18  19
ATOM     19  N   UNL A   1      32.125  23.809  26.829  1.00  0.00    -0.243 N 
ATOM     20  C   UNL A   1      32.747  22.598  27.104  1.00  0.00     0.272 C 
ATOM     21  H   UNL A   1      31.700  24.071  27.678  1.00  0.00     0.194 HD
ATOM     22  O   UNL A   1      32.522  22.274  28.284  1.00  0.00    -0.267 OA
BRANCH  20  23
ATOM     23  C   UNL A   1      33.602  21.631  26.318  1.00  0.00     0.052 A 
ATOM     24  C   UNL A   1      33.092  20.428  25.833  1.00  0.00     0.038 A 
ATOM     25  C   UNL A   1      34.994  21.981  25.965  1.00  0.00     0.013 A 
ATOM     26  C   UNL A   1      33.917  19.588  25.089  1.00  0.00     0.039 A 
ATOM     27  C   UNL A   1      35.703  21.034  25.191  1.00  0.00     0.071 A 
ATOM     28  C   UNL A   1      35.768  23.159  26.264  1.00  0.00     0.011 A 
ATOM     29  C   UNL A   1      33.467  18.309  24.461  1.00  0.00     0.067 C 
ATOM     30  N   UNL A   1      35.191  19.885  24.793  1.00  0.00    -0.253 NA
ATOM     31  C   UNL A   1      37.003  21.241  24.750  1.00  0.00     0.029 A 
ATOM     32  C   UNL A   1      37.083  23.366  25.803  1.00  0.00     0.001 A 
ATOM     33  C   UNL A   1      37.704  22.402  25.034  1.00  0.00     0.002 A 
ENDBRANCH  20  23
ENDBRANCH  18  19
ENDBRANCH  12  17
ENDBRANCH   4   7
ENDBRANCH   2   3
ENDBRANCH   1   2
BRANCH   1  34
ATOM     34  C   UNL A   1      31.445  32.143  26.724  1.00  0.00     0.023 C 
BRANCH  34  35
ATOM     35  C   UNL A   1      32.637  32.865  27.347  1.00  0.00     0.116 C 
BRANCH  35  36
ATOM     36  N   UNL A   1      32.372  34.253  27.708  1.00  0.00    -0.352 N 
ATOM     37  C   UNL A   1      32.989  35.059  28.645  1.00  0.00     0.251 C 
ATOM     38  H   UNL A   1      31.641  34.681  27.206  1.00  0.00     0.163 HD
ATOM     39  O   UNL A   1      32.550  36.168  28.894  1.00  0.00    -0.269 OA
BRANCH  37  40
ATOM     40  C   UNL A   1      34.169  34.546  29.379  1.00  0.00     0.039 A 
ATOM     41  C   UNL A   1      33.982  33.913  30.610  1.00  0.00     0.014 A 
ATOM     42  C   UNL A   1      35.446  34.646  28.828  1.00  0.00     0.014 A 
ATOM     43  C   UNL A   1      35.066  33.290  31.233  1.00  0.00     0.010 A 
ATOM     44  C   UNL A   1      36.495  33.927  29.388  1.00  0.00     0.010 A 
ATOM     45  C   UNL A   1      36.320  33.241  30.598  1.00  0.00    -0.014 A 
BRANCH  45  46
ATOM     46  C   UNL A   1      37.453  32.478  31.184  1.00  0.00     0.031 A 
ATOM     47  C   UNL A   1      37.988  32.843  32.541  1.00  0.00     0.074 A 
ATOM     48  C   UNL A   1      38.035  31.491  30.472  1.00  0.00     0.049 A 
ATOM     49  N   UNL A   1      39.001  32.335  33.195  1.00  0.00    -0.248 NA
ATOM     50  C   UNL A   1      37.312  33.943  33.248  1.00  0.00     0.031 C 
ATOM     51  C   UNL A   1      37.641  31.073  29.124  1.00  0.00     0.029 A 
ATOM     52  N   UNL A   1      39.087  30.663  30.779  1.00  0.00    -0.354 N 
ATOM     53  C   UNL A   1      39.081  33.050  34.382  1.00  0.00     0.074 A 
ATOM     54  C   UNL A   1      38.065  34.077  34.329  1.00  0.00     0.031 C 
ATOM     55  C   UNL A   1      38.416  30.048  28.737  1.00  0.00     0.029 A 
ATOM     56  C   UNL A   1      39.399  29.773  29.779  1.00  0.00     0.049 A 
ATOM     57  H   UNL A   1      39.573  30.704  31.634  1.00  0.00     0.167 HD
ATOM     58  C   UNL A   1      39.906  32.850  35.437  1.00  0.00     0.037 A 
ATOM     59  C   UNL A   1      40.379  28.850  29.703  1.00  0.00     0.037 A 
ATOM     60  C   UNL A   1      40.915  31.825  35.487  1.00  0.00     0.049 A 
ATOM     61  C   UNL A   1      41.317  28.686  30.871  1.00  0.00     0.074 A 
ATOM     62  C   UNL A   1      41.777  31.517  36.526  1.00  0.00     0.029 A 
ATOM     63  N   UNL A   1      41.205  30.948  34.453  1.00  0.00    -0.354 N 
ATOM     64  N   UNL A   1      41.336  29.322  32.017  1.00  0.00    -0.248 NA
ATOM     65  C   UNL A   1      42.369  27.668  30.736  1.00  0.00     0.031 C 
ATOM     66  C   UNL A   1      42.639  30.506  36.092  1.00  0.00     0.029 A 
ATOM     67  C   UNL A   1      42.257  30.121  34.817  1.00  0.00     0.049 A 
ATOM     68  H   UNL A   1      40.734  30.917  33.590  1.00  0.00     0.167 HD
ATOM     69  C   UNL A   1      42.371  28.758  32.751  1.00  0.00     0.074 A 
ATOM     70  C   UNL A   1      42.943  27.714  31.928  1.00  0.00     0.031 C 
ATOM     71  C   UNL A   1      42.810  29.076  33.993  1.00  0.00     0.037 A 
BRANCH  58  72
ATOM     72  C   UNL A   1      39.756  33.757  36.625  1.00  0.00     0.064 A 
ATOM     73  C   UNL A   1      40.391  35.008  36.684  1.00  0.00     0.173 A 
ATOM     74  C   UNL A   1      38.921  33.397  37.695  1.00  0.00     0.173 A 
ATOM     75  F   UNL A   1      41.208  35.398  35.695  1.00  0.00    -0.203 F 
ATOM     76  C   UNL A   1      40.218  35.849  37.780  1.00  0.00     0.198 A 
ATOM     77  C   UNL A   1      38.719  34.258  38.771  1.00  0.00     0.198 A 
ATOM     78  F   UNL A   1      38.284  32.216  37.688  1.00  0.00    -0.203 F 
ATOM     79  F   UNL A   1      40.877  37.015  37.837  1.00  0.00    -0.200 F 
ATOM     80  C   UNL A   1      39.375  35.479  38.816  1.00  0.00     0.200 A 
ATOM     81  F   UNL A   1      37.888  33.906  39.761  1.00  0.00    -0.200 F 
ATOM     82  F   UNL A   1      39.197  36.297  39.862  1.00  0.00    -0.200 F 
ENDBRANCH  58  72
BRANCH  59  83
ATOM     83  C   UNL A   1      40.535  28.015  28.480  1.00  0.00     0.064 A 
ATOM     84  C   UNL A   1      39.966  26.736  28.394  1.00  0.00     0.173 A 
ATOM     85  C   UNL A   1      41.297  28.459  27.388  1.00  0.00     0.173 A 
ATOM     86  F   UNL A   1      39.242  26.256  29.416  1.00  0.00    -0.203 F 
ATOM     87  C   UNL A   1      40.188  25.919  27.287  1.00  0.00     0.198 A 
ATOM     88  C   UNL A   1      41.483  27.658  26.263  1.00  0.00     0.198 A 
ATOM     89  F   UNL A   1      41.860  29.676  27.410  1.00  0.00    -0.203 F 
ATOM     90  F   UNL A   1      39.696  24.673  27.267  1.00  0.00    -0.200 F 
ATOM     91  C   UNL A   1      40.943  26.383  26.220  1.00  0.00     0.200 A 
ATOM     92  F   UNL A   1      42.194  28.120  25.225  1.00  0.00    -0.200 F 
ATOM     93  F   UNL A   1      41.160  25.595  25.158  1.00  0.00    -0.200 F 
ENDBRANCH  59  83
BRANCH  71  94
ATOM     94  C   UNL A   1      43.928  28.251  34.569  1.00  0.00     0.064 A 
ATOM     95  C   UNL A   1      45.273  28.631  34.446  1.00  0.00     0.173 A 
ATOM     96  C   UNL A   1      43.642  27.079  35.288  1.00  0.00     0.173 A 
ATOM     97  F   UNL A   1      45.604  29.736  33.762  1.00  0.00    -0.203 F 
ATOM     98  C   UNL A   1      46.291  27.850  34.989  1.00  0.00     0.198 A 
ATOM     99  C   UNL A   1      44.659  26.325  35.866  1.00  0.00     0.198 A 
ATOM    100  F   UNL A   1      42.374  26.674  35.446  1.00  0.00    -0.203 F 
ATOM    101  F   UNL A   1      47.571  28.198  34.802  1.00  0.00    -0.200 F 
ATOM    102  C   UNL A   1      45.982  26.703  35.705  1.00  0.00     0.200 A 
ATOM    103  F   UNL A   1      44.356  25.230  36.578  1.00  0.00    -0.200 F 
ATOM    104  F   UNL A   1      46.962  25.959  36.235  1.00  0.00    -0.200 F 
ENDBRANCH  71  94
ENDBRANCH  45  46
ENDBRANCH  37  40
ENDBRANCH  35  36
ENDBRANCH  34  35
ENDBRANCH   1  34
TORSDOF 16
ENDMDL
MODEL 2
REMARK VINA RESULT:     -13.8      5.000     10.943
REMARK SMILES COc1ccc(/C=N/NC(=O)c2cc(C)nc3ccccc23)c(C(=O)NCCCCNC(=O)c2ccc(-c3c4nc(c(-c5c(F)c(F)c(F)c(F)c5F)c5ccc([nH]5)c(-c5c(F)c(F)c(F)c(F)c5F)c5nc(c(-c6c(F)c(F)c(F)c(F)c6F)c6ccc3[nH]6)C=C5)C=C4)cc2)c1OC
REMARK SMILES IDX 28 1 27 2 26 3 24 4 25 5 23 7 3 8 4 9 97 10 5 11 6 12 2 13
REMARK SMILES IDX 1 14 98 15 99 16 7 17 8 18 9 19 10 20 11 22 12 23 13 24
REMARK SMILES IDX 22 25 14 26 17 27 21 28 15 29 16 30 18 31 20 32 19 33 29 34
REMARK SMILES IDX 30 35 31 36 32 37 33 39 34 40 35 41 96 42 36 43 95 44 37 45
REMARK SMILES IDX 38 46 39 47 89 48 40 49 94 50 88 51 90 52 41 53 93 54 87 55
REMARK SMILES IDX 86 56 42 58 74 59 54 60 73 61 55 62 58 63 72 64 91 65 56 66
REMARK SMILES IDX 57 67 71 69 92 70 59 71 43 72 44 73 52 74 45 75 46 76 50 77
REMARK SMILES IDX 53 78 47 79 48 80 51 81 49 82 75 83 76 84 84 85 77 86 78 87
REMARK SMILES IDX 82 88 85 89 79 90 80 91 83 92 81 93 60 94 61 95 69 96 62 97
REMARK SMILES IDX 63 98 67 99 70 100 64 101 65 102 68 103 66 104
REMARK H PARENT 26 6 9 21 31 38 90 57 58 68
REMARK Flexibility Score: inf
ROOT
ATOM      1  C   UNL A   1      37.125  20.539  25.165  1.00  0.00     0.023 C 
ENDROOT
BRANCH   1   2
ATOM      2  C   UNL A   1      36.994  21.758  24.275  1.00  0.00     0.116 C 
BRANCH   2   3
ATOM      3  N   UNL A   1      36.467  23.012  24.740  1.00  0.00    -0.352 N 
ATOM      4  C   UNL A   1      35.195  23.182  25.286  1.00  0.00     0.255 C 
ATOM      5  O   UNL A   1      35.016  24.148  26.026  1.00  0.00    -0.269 OA
ATOM      6  H   UNL A   1      37.044  23.807  24.666  1.00  0.00     0.163 HD
BRANCH   4   7
ATOM      7  C   UNL A   1      34.031  22.310  24.891  1.00  0.00     0.094 A 
ATOM      8  C   UNL A   1      32.759  20.219  25.172  1.00  0.00     0.161 A 
ATOM      9  C   UNL A   1      32.278  20.400  23.869  1.00  0.00     0.051 A 
ATOM     10  C   UNL A   1      33.573  21.221  25.730  1.00  0.00     0.174 A 
ATOM     11  C   UNL A   1      32.573  21.552  23.120  1.00  0.00     0.015 A 
ATOM     12  C   UNL A   1      33.468  22.523  23.600  1.00  0.00     0.011 A 
BRANCH   8  13
ATOM     13  O   UNL A   1      32.562  18.946  25.641  1.00  0.00    -0.493 OA
ATOM     14  C   UNL A   1      32.660  17.836  24.759  1.00  0.00     0.278 C 
ENDBRANCH   8  13
BRANCH  10  15
ATOM     15  O   UNL A   1      33.871  21.327  27.072  1.00  0.00    -0.492 OA
ATOM     16  C   UNL A   1      33.077  22.140  27.937  1.00  0.00     0.278 C 
ENDBRANCH  10  15
BRANCH  12  17
ATOM     17  C   UNL A   1      33.764  23.732  22.702  1.00  0.00     0.142 C 
ATOM     18  N   UNL A   1      33.478  24.926  23.102  1.00  0.00    -0.180 NA
BRANCH  18  19
ATOM     19  N   UNL A   1      33.652  26.150  22.533  1.00  0.00    -0.243 N 
ATOM     20  C   UNL A   1      33.331  27.498  22.441  1.00  0.00     0.272 C 
ATOM     21  H   UNL A   1      34.350  26.012  21.851  1.00  0.00     0.194 HD
ATOM     22  O   UNL A   1      34.000  28.024  21.534  1.00  0.00    -0.267 OA
BRANCH  20  23
ATOM     23  C   UNL A   1      32.389  28.425  23.173  1.00  0.00     0.052 A 
ATOM     24  C   UNL A   1      31.178  28.831  22.614  1.00  0.00     0.038 A 
ATOM     25  C   UNL A   1      32.691  28.862  24.553  1.00  0.00     0.013 A 
ATOM     26  C   UNL A   1      30.334  29.664  23.346  1.00  0.00     0.039 A 
ATOM     27  C   UNL A   1      31.731  29.694  25.173  1.00  0.00     0.071 A 
ATOM     28  C   UNL A   1      33.814  28.563  25.404  1.00  0.00     0.011 A 
ATOM     29  C   UNL A   1      28.985  30.110  22.882  1.00  0.00     0.067 C 
ATOM     30  N   UNL A   1      30.617  30.090  24.585  1.00  0.00    -0.253 NA
ATOM     31  C   UNL A   1      31.858  30.149  26.479  1.00  0.00     0.029 A 
ATOM     32  C   UNL A   1      33.930  29.021  26.731  1.00  0.00     0.001 A 
ATOM     33  C   UNL A   1      32.940  29.815  27.275  1.00  0.00     0.002 A 
ENDBRANCH  20  23
ENDBRANCH  18  19
ENDBRANCH  12  17
ENDBRANCH   4   7
ENDBRANCH   2   3
ENDBRANCH   1   2
BRANCH   1  34
ATOM     34  C   UNL A   1      38.362  19.683  24.959  1.00  0.00     0.023 C 
BRANCH  34  35
ATOM     35  C   UNL A   1      39.531  19.954  25.902  1.00  0.00     0.116 C 
BRANCH  35  36
ATOM     36  N   UNL A   1      40.558  18.917  25.892  1.00  0.00    -0.352 N 
ATOM     37  C   UNL A   1      41.919  19.015  26.105  1.00  0.00     0.251 C 
ATOM     38  H   UNL A   1      40.230  18.008  25.705  1.00  0.00     0.163 HD
ATOM     39  O   UNL A   1      42.644  18.050  25.938  1.00  0.00    -0.269 OA
BRANCH  37  40
ATOM     40  C   UNL A   1      42.500  20.320  26.499  1.00  0.00     0.039 A 
ATOM     41  C   UNL A   1      43.198  21.069  25.548  1.00  0.00     0.014 A 
ATOM     42  C   UNL A   1      42.310  20.821  27.786  1.00  0.00     0.014 A 
ATOM     43  C   UNL A   1      43.613  22.364  25.865  1.00  0.00     0.010 A 
ATOM     44  C   UNL A   1      42.618  22.149  28.059  1.00  0.00     0.010 A 
ATOM     45  C   UNL A   1      43.274  22.937  27.103  1.00  0.00    -0.014 A 
BRANCH  45  46
ATOM     46  C   UNL A   1      43.596  24.355  27.413  1.00  0.00     0.031 A 
ATOM     47  C   UNL A   1      45.027  24.815  27.440  1.00  0.00     0.074 A 
ATOM     48  C   UNL A   1      42.604  25.216  27.721  1.00  0.00     0.049 A 
ATOM     49  N   UNL A   1      45.512  25.993  27.741  1.00  0.00    -0.248 NA
ATOM     50  C   UNL A   1      46.054  23.814  27.111  1.00  0.00     0.031 C 
ATOM     51  C   UNL A   1      41.179  24.880  27.777  1.00  0.00     0.029 A 
ATOM     52  N   UNL A   1      42.642  26.548  28.052  1.00  0.00    -0.354 N 
ATOM     53  C   UNL A   1      46.891  25.872  27.637  1.00  0.00     0.074 A 
ATOM     54  C   UNL A   1      47.173  24.491  27.319  1.00  0.00     0.031 C 
ATOM     55  C   UNL A   1      40.479  25.983  28.087  1.00  0.00     0.029 A 
ATOM     56  C   UNL A   1      41.405  27.089  28.310  1.00  0.00     0.049 A 
ATOM     57  H   UNL A   1      43.477  27.067  28.101  1.00  0.00     0.167 HD
ATOM     58  C   UNL A   1      47.837  26.832  27.763  1.00  0.00     0.037 A 
ATOM     59  C   UNL A   1      41.057  28.331  28.699  1.00  0.00     0.037 A 
ATOM     60  C   UNL A   1      47.552  28.208  28.077  1.00  0.00     0.049 A 
ATOM     61  C   UNL A   1      42.136  29.366  28.884  1.00  0.00     0.074 A 
ATOM     62  C   UNL A   1      48.438  29.265  28.191  1.00  0.00     0.029 A 
ATOM     63  N   UNL A   1      46.287  28.715  28.337  1.00  0.00    -0.354 N 
ATOM     64  N   UNL A   1      43.431  29.256  28.712  1.00  0.00    -0.248 NA
ATOM     65  C   UNL A   1      41.703  30.705  29.312  1.00  0.00     0.031 C 
ATOM     66  C   UNL A   1      47.720  30.394  28.594  1.00  0.00     0.029 A 
ATOM     67  C   UNL A   1      46.376  30.064  28.645  1.00  0.00     0.049 A 
ATOM     68  H   UNL A   1      45.453  28.194  28.308  1.00  0.00     0.167 HD
ATOM     69  C   UNL A   1      43.961  30.513  28.973  1.00  0.00     0.074 A 
ATOM     70  C   UNL A   1      42.844  31.376  29.293  1.00  0.00     0.031 C 
ATOM     71  C   UNL A   1      45.254  30.916  28.950  1.00  0.00     0.037 A 
BRANCH  58  72
ATOM     72  C   UNL A   1      49.272  26.433  27.563  1.00  0.00     0.064 A 
ATOM     73  C   UNL A   1      49.827  26.294  26.281  1.00  0.00     0.173 A 
ATOM     74  C   UNL A   1      50.118  26.241  28.666  1.00  0.00     0.173 A 
ATOM     75  F   UNL A   1      49.061  26.457  25.192  1.00  0.00    -0.203 F 
ATOM     76  C   UNL A   1      51.166  25.952  26.112  1.00  0.00     0.198 A 
ATOM     77  C   UNL A   1      51.466  25.938  28.493  1.00  0.00     0.198 A 
ATOM     78  F   UNL A   1      49.642  26.367  29.914  1.00  0.00    -0.203 F 
ATOM     79  F   UNL A   1      51.659  25.774  24.879  1.00  0.00    -0.200 F 
ATOM     80  C   UNL A   1      51.987  25.785  27.217  1.00  0.00     0.200 A 
ATOM     81  F   UNL A   1      52.262  25.796  29.562  1.00  0.00    -0.200 F 
ATOM     82  F   UNL A   1      53.278  25.471  27.052  1.00  0.00    -0.200 F 
ENDBRANCH  58  72
BRANCH  59  83
ATOM     83  C   UNL A   1      39.628  28.671  28.950  1.00  0.00     0.064 A 
ATOM     84  C   UNL A   1      38.824  29.225  27.944  1.00  0.00     0.173 A 
ATOM     85  C   UNL A   1      39.050  28.491  30.217  1.00  0.00     0.173 A 
ATOM     86  F   UNL A   1      39.331  29.433  26.720  1.00  0.00    -0.203 F 
ATOM     87  C   UNL A   1      37.515  29.626  28.206  1.00  0.00     0.198 A 
ATOM     88  C   UNL A   1      37.727  28.852  30.465  1.00  0.00     0.198 A 
ATOM     89  F   UNL A   1      39.769  27.958  31.216  1.00  0.00    -0.203 F 
ATOM     90  F   UNL A   1      36.796  30.223  27.246  1.00  0.00    -0.200 F 
ATOM     91  C   UNL A   1      36.966  29.435  29.465  1.00  0.00     0.200 A 
ATOM     92  F   UNL A   1      37.195  28.644  31.677  1.00  0.00    -0.200 F 
ATOM     93  F   UNL A   1      35.709  29.824  29.716  1.00  0.00    -0.200 F 
ENDBRANCH  59  83
BRANCH  71  94
ATOM     94  C   UNL A   1      45.535  32.368  29.224  1.00  0.00     0.064 A 
ATOM     95  C   UNL A   1      45.855  32.836  30.508  1.00  0.00     0.173 A 
ATOM     96  C   UNL A   1      45.520  33.300  28.173  1.00  0.00     0.173 A 
ATOM     97  F   UNL A   1      45.874  31.991  31.550  1.00  0.00    -0.203 F 
ATOM     98  C   UNL A   1      46.111  34.186  30.735  1.00  0.00     0.198 A 
ATOM     99  C   UNL A   1      45.820  34.640  28.397  1.00  0.00     0.198 A 
ATOM    100  F   UNL A   1      45.231  32.907  26.924  1.00  0.00    -0.203 F 
ATOM    101  F   UNL A   1      46.350  34.619  31.980  1.00  0.00    -0.200 F 
ATOM    102  C   UNL A   1      46.102  35.085  29.679  1.00  0.00     0.200 A 
ATOM    103  F   UNL A   1      45.834  35.502  27.370  1.00  0.00    -0.200 F 
ATOM    104  F   UNL A   1      46.360  36.381  29.898  1.00  0.00    -0.200 F 
ENDBRANCH  71  94
ENDBRANCH  45  46
ENDBRANCH  37  40
ENDBRANCH  35  36
ENDBRANCH  34  35
ENDBRANCH   1  34
TORSDOF 16
ENDMDL
MODEL 3
REMARK VINA RESULT:     -13.7      5.221     10.386
REMARK SMILES COc1ccc(/C=N/NC(=O)c2cc(C)nc3ccccc23)c(C(=O)NCCCCNC(=O)c2ccc(-c3c4nc(c(-c5c(F)c(F)c(F)c(F)c5F)c5ccc([nH]5)c(-c5c(F)c(F)c(F)c(F)c5F)c5nc(c(-c6c(F)c(F)c(F)c(F)c6F)c6ccc3[nH]6)C=C5)C=C4)cc2)c1OC
REMARK SMILES IDX 28 1 27 2 26 3 24 4 25 5 23 7 3 8 4 9 97 10 5 11 6 12 2 13
REMARK SMILES IDX 1 14 98 15 99 16 7 17 8 18 9 19 10 20 11 22 12 23 13 24
REMARK SMILES IDX 22 25 14 26 17 27 21 28 15 29 16 30 18 31 20 32 19 33 29 34
REMARK SMILES IDX 30 35 31 36 32 37 33 39 34 40 35 41 96 42 36 43 95 44 37 45
REMARK SMILES IDX 38 46 39 47 89 48 40 49 94 50 88 51 90 52 41 53 93 54 87 55
REMARK SMILES IDX 86 56 42 58 74 59 54 60 73 61 55 62 58 63 72 64 91 65 56 66
REMARK SMILES IDX 57 67 71 69 92 70 59 71 43 72 44 73 52 74 45 75 46 76 50 77
REMARK SMILES IDX 53 78 47 79 48 80 51 81 49 82 75 83 76 84 84 85 77 86 78 87
REMARK SMILES IDX 82 88 85 89 79 90 80 91 83 92 81 93 60 94 61 95 69 96 62 97
REMARK SMILES IDX 63 98 67 99 70 100 64 101 65 102 68 103 66 104
REMARK H PARENT 26 6 9 21 31 38 90 57 58 68
REMARK Flexibility Score: inf
ROOT
ATOM      1  C   UNL A   1      37.209  20.695  25.246  1.00  0.00     0.023 C 
ENDROOT
BRANCH   1   2
ATOM      2  C   UNL A   1      37.056  21.901  24.342  1.00  0.00     0.116 C 
BRANCH   2   3
ATOM      3  N   UNL A   1      36.494  23.145  24.790  1.00  0.00    -0.352 N 
ATOM      4  C   UNL A   1      35.216  23.289  25.330  1.00  0.00     0.255 C 
ATOM      5  O   UNL A   1      35.008  24.258  26.057  1.00  0.00    -0.269 OA
ATOM      6  H   UNL A   1      37.050  23.954  24.708  1.00  0.00     0.163 HD
BRANCH   4   7
ATOM      7  C   UNL A   1      34.077  22.381  24.941  1.00  0.00     0.094 A 
ATOM      8  C   UNL A   1      32.855  20.265  25.249  1.00  0.00     0.161 A 
ATOM      9  C   UNL A   1      32.379  20.410  23.939  1.00  0.00     0.051 A 
ATOM     10  C   UNL A   1      33.639  21.296  25.796  1.00  0.00     0.174 A 
ATOM     11  C   UNL A   1      32.653  21.557  23.172  1.00  0.00     0.015 A 
ATOM     12  C   UNL A   1      33.519  22.557  23.642  1.00  0.00     0.011 A 
BRANCH   8  13
ATOM     13  O   UNL A   1      32.685  18.996  25.739  1.00  0.00    -0.493 OA
ATOM     14  C   UNL A   1      32.540  17.899  24.847  1.00  0.00     0.278 C 
ENDBRANCH   8  13
BRANCH  10  15
ATOM     15  O   UNL A   1      33.923  21.434  27.137  1.00  0.00    -0.492 OA
ATOM     16  C   UNL A   1      33.076  22.203  27.991  1.00  0.00     0.278 C 
ENDBRANCH  10  15
BRANCH  12  17
ATOM     17  C   UNL A   1      33.792  23.758  22.725  1.00  0.00     0.142 C 
ATOM     18  N   UNL A   1      33.484  24.952  23.106  1.00  0.00    -0.180 NA
BRANCH  18  19
ATOM     19  N   UNL A   1      33.636  26.170  22.518  1.00  0.00    -0.243 N 
ATOM     20  C   UNL A   1      33.308  27.516  22.422  1.00  0.00     0.272 C 
ATOM     21  H   UNL A   1      34.310  26.026  21.814  1.00  0.00     0.194 HD
ATOM     22  O   UNL A   1      33.944  28.034  21.487  1.00  0.00    -0.267 OA
BRANCH  20  23
ATOM     23  C   UNL A   1      32.388  28.449  23.174  1.00  0.00     0.052 A 
ATOM     24  C   UNL A   1      31.163  28.856  22.647  1.00  0.00     0.038 A 
ATOM     25  C   UNL A   1      32.729  28.892  24.544  1.00  0.00     0.013 A 
ATOM     26  C   UNL A   1      30.341  29.694  23.397  1.00  0.00     0.039 A 
ATOM     27  C   UNL A   1      31.788  29.729  25.186  1.00  0.00     0.071 A 
ATOM     28  C   UNL A   1      33.874  28.594  25.366  1.00  0.00     0.011 A 
ATOM     29  C   UNL A   1      28.981  30.141  22.969  1.00  0.00     0.067 C 
ATOM     30  N   UNL A   1      30.659  30.125  24.627  1.00  0.00    -0.253 NA
ATOM     31  C   UNL A   1      31.951  30.190  26.485  1.00  0.00     0.029 A 
ATOM     32  C   UNL A   1      34.026  29.057  26.687  1.00  0.00     0.001 A 
ATOM     33  C   UNL A   1      33.053  29.857  27.254  1.00  0.00     0.002 A 
ENDBRANCH  20  23
ENDBRANCH  18  19
ENDBRANCH  12  17
ENDBRANCH   4   7
ENDBRANCH   2   3
ENDBRANCH   1   2
BRANCH   1  34
ATOM     34  C   UNL A   1      38.422  19.815  24.997  1.00  0.00     0.023 C 
BRANCH  34  35
ATOM     35  C   UNL A   1      39.631  20.068  25.893  1.00  0.00     0.116 C 
BRANCH  35  36
ATOM     36  N   UNL A   1      40.592  18.971  25.922  1.00  0.00    -0.352 N 
ATOM     37  C   UNL A   1      41.963  18.996  26.090  1.00  0.00     0.251 C 
ATOM     38  H   UNL A   1      40.204  18.074  25.803  1.00  0.00     0.163 HD
ATOM     39  O   UNL A   1      42.622  17.979  25.966  1.00  0.00    -0.269 OA
BRANCH  37  40
ATOM     40  C   UNL A   1      42.634  20.285  26.382  1.00  0.00     0.039 A 
ATOM     41  C   UNL A   1      43.248  20.983  25.339  1.00  0.00     0.014 A 
ATOM     42  C   UNL A   1      42.611  20.821  27.668  1.00  0.00     0.014 A 
ATOM     43  C   UNL A   1      43.746  22.267  25.573  1.00  0.00     0.010 A 
ATOM     44  C   UNL A   1      42.998  22.141  27.870  1.00  0.00     0.010 A 
ATOM     45  C   UNL A   1      43.571  22.880  26.826  1.00  0.00    -0.014 A 
BRANCH  45  46
ATOM     46  C   UNL A   1      43.981  24.290  27.060  1.00  0.00     0.031 A 
ATOM     47  C   UNL A   1      42.961  25.312  27.482  1.00  0.00     0.074 A 
ATOM     48  C   UNL A   1      45.259  24.662  26.842  1.00  0.00     0.049 A 
ATOM     49  N   UNL A   1      43.112  26.597  27.682  1.00  0.00    -0.248 NA
ATOM     50  C   UNL A   1      41.584  24.834  27.683  1.00  0.00     0.031 C 
ATOM     51  C   UNL A   1      46.331  23.776  26.384  1.00  0.00     0.029 A 
ATOM     52  N   UNL A   1      45.873  25.883  26.969  1.00  0.00    -0.354 N 
ATOM     53  C   UNL A   1      41.855  27.075  28.028  1.00  0.00     0.074 A 
ATOM     54  C   UNL A   1      40.938  25.961  27.941  1.00  0.00     0.031 C 
ATOM     55  C   UNL A   1      47.475  24.474  26.303  1.00  0.00     0.029 A 
ATOM     56  C   UNL A   1      47.209  25.867  26.644  1.00  0.00     0.049 A 
ATOM     57  H   UNL A   1      45.401  26.695  27.265  1.00  0.00     0.167 HD
ATOM     58  C   UNL A   1      41.501  28.323  28.417  1.00  0.00     0.037 A 
ATOM     59  C   UNL A   1      48.112  26.866  26.608  1.00  0.00     0.037 A 
ATOM     60  C   UNL A   1      42.418  29.429  28.506  1.00  0.00     0.049 A 
ATOM     61  C   UNL A   1      47.678  28.257  26.993  1.00  0.00     0.074 A 
ATOM     62  C   UNL A   1      42.166  30.724  28.924  1.00  0.00     0.029 A 
ATOM     63  N   UNL A   1      43.761  29.374  28.162  1.00  0.00    -0.354 N 
ATOM     64  N   UNL A   1      46.502  28.679  27.388  1.00  0.00    -0.248 NA
ATOM     65  C   UNL A   1      48.702  29.310  26.934  1.00  0.00     0.031 C 
ATOM     66  C   UNL A   1      43.335  31.471  28.761  1.00  0.00     0.029 A 
ATOM     67  C   UNL A   1      44.340  30.623  28.326  1.00  0.00     0.049 A 
ATOM     68  H   UNL A   1      44.231  28.569  27.848  1.00  0.00     0.167 HD
ATOM     69  C   UNL A   1      46.653  30.033  27.660  1.00  0.00     0.074 A 
ATOM     70  C   UNL A   1      48.041  30.356  27.405  1.00  0.00     0.031 C 
ATOM     71  C   UNL A   1      45.727  30.929  28.081  1.00  0.00     0.037 A 
BRANCH  58  72
ATOM     72  C   UNL A   1      40.063  28.563  28.775  1.00  0.00     0.064 A 
ATOM     73  C   UNL A   1      39.577  28.332  30.072  1.00  0.00     0.173 A 
ATOM     74  C   UNL A   1      39.170  29.086  27.826  1.00  0.00     0.173 A 
ATOM     75  F   UNL A   1      40.383  27.824  31.015  1.00  0.00    -0.203 F 
ATOM     76  C   UNL A   1      38.247  28.587  30.396  1.00  0.00     0.198 A 
ATOM     77  C   UNL A   1      37.851  29.378  28.165  1.00  0.00     0.198 A 
ATOM     78  F   UNL A   1      39.582  29.333  26.574  1.00  0.00    -0.203 F 
ATOM     79  F   UNL A   1      37.794  28.308  31.626  1.00  0.00    -0.200 F 
ATOM     80  C   UNL A   1      37.389  29.120  29.447  1.00  0.00     0.200 A 
ATOM     81  F   UNL A   1      37.029  29.912  27.251  1.00  0.00    -0.200 F 
ATOM     82  F   UNL A   1      36.114  29.381  29.765  1.00  0.00    -0.200 F 
ENDBRANCH  58  72
BRANCH  59  83
ATOM     83  C   UNL A   1      49.515  26.599  26.184  1.00  0.00     0.064 A 
ATOM     84  C   UNL A   1      50.495  26.216  27.111  1.00  0.00     0.173 A 
ATOM     85  C   UNL A   1      49.916  26.766  24.849  1.00  0.00     0.173 A 
ATOM     86  F   UNL A   1      50.170  26.057  28.402  1.00  0.00    -0.203 F 
ATOM     87  C   UNL A   1      51.826  26.054  26.729  1.00  0.00     0.198 A 
ATOM     88  C   UNL A   1      51.239  26.562  24.461  1.00  0.00     0.198 A 
ATOM     89  F   UNL A   1      49.021  27.125  23.917  1.00  0.00    -0.203 F 
ATOM     90  F   UNL A   1      52.754  25.764  27.651  1.00  0.00    -0.200 F 
ATOM     91  C   UNL A   1      52.196  26.223  25.403  1.00  0.00     0.200 A 
ATOM     92  F   UNL A   1      51.586  26.705  23.174  1.00  0.00    -0.200 F 
ATOM     93  F   UNL A   1      53.476  26.072  25.038  1.00  0.00    -0.200 F 
ENDBRANCH  59  83
BRANCH  71  94
ATOM     94  C   UNL A   1      46.190  32.334  28.350  1.00  0.00     0.064 A 
ATOM     95  C   UNL A   1      46.148  33.334  27.366  1.00  0.00     0.173 A 
ATOM     96  C   UNL A   1      46.649  32.693  29.628  1.00  0.00     0.173 A 
ATOM     97  F   UNL A   1      45.728  33.044  26.125  1.00  0.00    -0.203 F 
ATOM     98  C   UNL A   1      46.583  34.628  27.641  1.00  0.00     0.198 A 
ATOM     99  C   UNL A   1      47.041  33.998  29.911  1.00  0.00     0.198 A 
ATOM    100  F   UNL A   1      46.700  31.781  30.610  1.00  0.00    -0.203 F 
ATOM    101  F   UNL A   1      46.595  35.548  26.667  1.00  0.00    -0.200 F 
ATOM    102  C   UNL A   1      47.020  34.961  28.914  1.00  0.00     0.200 A 
ATOM    103  F   UNL A   1      47.440  34.322  31.148  1.00  0.00    -0.200 F 
ATOM    104  F   UNL A   1      47.427  36.209  29.179  1.00  0.00    -0.200 F 
ENDBRANCH  71  94
ENDBRANCH  45  46
ENDBRANCH  37  40
ENDBRANCH  35  36
ENDBRANCH  34  35
ENDBRANCH   1  34
TORSDOF 16
ENDMDL
