MODEL 1
REMARK VINA RESULT:     -12.9      0.000      0.000
REMARK SMILES C[C@H]1OCC[C@@H]1C(=O)Nc1ccc(Cl)c(C(=O)NCCCCNC(=O)c2ccc(-c3c4nc(c(-c5c(F)c(F)c(F)c(F)c5F)c5ccc([nH]5)c(-c5c(F)c(F)c(F)c(F)c5F)c5nc(c(-c6c(F)c(F)c(F)c(F)c6F)c6ccc3[nH]6)C=C5)C=C4)cc2)c1
REMARK SMILES IDX 20 1 19 2 18 3 16 4 17 5 15 7 10 8 11 9 89 10 12 11 13 12
REMARK SMILES IDX 14 13 9 14 7 15 8 16 6 18 1 19 2 20 3 21 4 22 5 23 21 24
REMARK SMILES IDX 22 25 23 26 24 27 25 29 26 30 27 31 88 32 28 33 87 34 29 35
REMARK SMILES IDX 30 36 31 37 81 38 32 39 86 40 80 41 82 42 33 43 85 44 79 45
REMARK SMILES IDX 78 46 34 48 66 49 46 50 65 51 47 52 50 53 64 54 83 55 48 56
REMARK SMILES IDX 49 57 63 59 84 60 51 61 35 62 36 63 44 64 37 65 38 66 42 67
REMARK SMILES IDX 45 68 39 69 40 70 43 71 41 72 67 73 68 74 76 75 69 76 70 77
REMARK SMILES IDX 74 78 77 79 71 80 72 81 75 82 73 83 52 84 53 85 61 86 54 87
REMARK SMILES IDX 55 88 59 89 62 90 56 91 57 92 60 93 58 94
REMARK H PARENT 18 6 9 17 23 28 82 47 50 58
REMARK Flexibility Score: inf
ROOT
ATOM      1  C   UNL A   1      32.304  30.218  25.765  1.00  0.00     0.023 C 
ENDROOT
BRANCH   1   2
ATOM      2  C   UNL A   1      33.305  29.136  26.131  1.00  0.00     0.116 C 
BRANCH   2   3
ATOM      3  N   UNL A   1      32.778  27.994  26.856  1.00  0.00    -0.352 N 
ATOM      4  C   UNL A   1      32.087  26.899  26.375  1.00  0.00     0.252 C 
ATOM      5  O   UNL A   1      31.788  25.994  27.153  1.00  0.00    -0.269 OA
ATOM      6  H   UNL A   1      32.935  28.001  27.828  1.00  0.00     0.163 HD
BRANCH   4   7
ATOM      7  C   UNL A   1      31.581  26.851  24.980  1.00  0.00     0.060 A 
ATOM      8  C   UNL A   1      29.836  27.485  23.432  1.00  0.00     0.042 A 
ATOM      9  C   UNL A   1      30.692  27.219  22.373  1.00  0.00     0.028 A 
ATOM     10  C   UNL A   1      30.331  27.451  24.734  1.00  0.00     0.041 A 
ATOM     11  C   UNL A   1      31.887  26.555  22.610  1.00  0.00     0.023 A 
ATOM     12  C   UNL A   1      32.248  26.240  23.915  1.00  0.00     0.053 A 
ATOM     13  Cl  UNL A   1      33.389  24.956  24.106  1.00  0.00    -0.083 Cl
BRANCH   8  14
ATOM     14  N   UNL A   1      28.483  27.743  23.203  1.00  0.00    -0.326 N 
ATOM     15  C   UNL A   1      27.867  28.950  22.990  1.00  0.00     0.230 C 
ATOM     16  O   UNL A   1      26.628  28.954  22.989  1.00  0.00    -0.274 OA
ATOM     17  H   UNL A   1      27.894  26.955  23.193  1.00  0.00     0.169 HD
BRANCH  15  18
ATOM     18  C   UNL A   1      28.606  30.262  22.649  1.00  0.00     0.110 C 
ATOM     19  C   UNL A   1      29.526  32.097  24.156  1.00  0.00     0.039 C 
ATOM     20  C   UNL A   1      28.281  31.441  23.564  1.00  0.00     0.127 C 
ATOM     21  O   UNL A   1      27.620  32.422  22.749  1.00  0.00    -0.378 OA
ATOM     22  C   UNL A   1      28.056  32.248  21.399  1.00  0.00     0.161 C 
ATOM     23  C   UNL A   1      28.464  30.795  21.238  1.00  0.00     0.044 C 
ENDBRANCH  15  18
ENDBRANCH   8  14
ENDBRANCH   4   7
ENDBRANCH   2   3
ENDBRANCH   1   2
BRANCH   1  24
ATOM     24  C   UNL A   1      31.937  31.200  26.872  1.00  0.00     0.023 C 
BRANCH  24  25
ATOM     25  C   UNL A   1      33.026  32.171  27.319  1.00  0.00     0.116 C 
BRANCH  25  26
ATOM     26  N   UNL A   1      32.565  33.536  27.538  1.00  0.00    -0.352 N 
ATOM     27  C   UNL A   1      33.049  34.519  28.370  1.00  0.00     0.251 C 
ATOM     28  H   UNL A   1      31.780  33.797  27.004  1.00  0.00     0.163 HD
ATOM     29  O   UNL A   1      32.477  35.602  28.447  1.00  0.00    -0.269 OA
BRANCH  27  30
ATOM     30  C   UNL A   1      34.227  34.253  29.224  1.00  0.00     0.039 A 
ATOM     31  C   UNL A   1      34.024  33.706  30.494  1.00  0.00     0.014 A 
ATOM     32  C   UNL A   1      35.522  34.486  28.759  1.00  0.00     0.014 A 
ATOM     33  C   UNL A   1      35.120  33.270  31.242  1.00  0.00     0.010 A 
ATOM     34  C   UNL A   1      36.606  33.975  29.465  1.00  0.00     0.010 A 
ATOM     35  C   UNL A   1      36.412  33.335  30.700  1.00  0.00    -0.014 A 
BRANCH  35  36
ATOM     36  C   UNL A   1      37.570  32.690  31.373  1.00  0.00     0.031 A 
ATOM     37  C   UNL A   1      38.257  31.513  30.742  1.00  0.00     0.074 A 
ATOM     38  C   UNL A   1      37.931  33.101  32.606  1.00  0.00     0.049 A 
ATOM     39  N   UNL A   1      39.192  30.740  31.235  1.00  0.00    -0.248 NA
ATOM     40  C   UNL A   1      37.811  31.136  29.393  1.00  0.00     0.031 C 
ATOM     41  C   UNL A   1      37.308  34.197  33.350  1.00  0.00     0.029 A 
ATOM     42  N   UNL A   1      38.897  32.630  33.461  1.00  0.00    -0.354 N 
ATOM     43  C   UNL A   1      39.431  29.776  30.265  1.00  0.00     0.074 A 
ATOM     44  C   UNL A   1      38.513  30.033  29.176  1.00  0.00     0.031 C 
ATOM     45  C   UNL A   1      37.916  34.324  34.540  1.00  0.00     0.029 A 
ATOM     46  C   UNL A   1      38.941  33.293  34.663  1.00  0.00     0.049 A 
ATOM     47  H   UNL A   1      39.501  31.886  33.234  1.00  0.00     0.167 HD
ATOM     48  C   UNL A   1      40.348  28.779  30.276  1.00  0.00     0.037 A 
ATOM     49  C   UNL A   1      39.708  33.084  35.750  1.00  0.00     0.037 A 
ATOM     50  C   UNL A   1      41.282  28.546  31.345  1.00  0.00     0.049 A 
ATOM     51  C   UNL A   1      40.713  31.965  35.737  1.00  0.00     0.074 A 
ATOM     52  C   UNL A   1      42.301  27.612  31.411  1.00  0.00     0.029 A 
ATOM     53  N   UNL A   1      41.307  29.251  32.539  1.00  0.00    -0.354 N 
ATOM     54  N   UNL A   1      40.978  31.105  34.786  1.00  0.00    -0.248 NA
ATOM     55  C   UNL A   1      41.523  31.788  36.951  1.00  0.00     0.031 C 
ATOM     56  C   UNL A   1      42.917  27.724  32.662  1.00  0.00     0.029 A 
ATOM     57  C   UNL A   1      42.309  28.756  33.358  1.00  0.00     0.049 A 
ATOM     58  H   UNL A   1      40.703  29.993  32.769  1.00  0.00     0.167 HD
ATOM     59  C   UNL A   1      41.996  30.298  35.275  1.00  0.00     0.074 A 
ATOM     60  C   UNL A   1      42.312  30.781  36.603  1.00  0.00     0.031 C 
ATOM     61  C   UNL A   1      42.612  29.249  34.677  1.00  0.00     0.037 A 
BRANCH  48  62
ATOM     62  C   UNL A   1      40.391  27.866  29.085  1.00  0.00     0.064 A 
ATOM     63  C   UNL A   1      39.641  26.681  29.044  1.00  0.00     0.173 A 
ATOM     64  C   UNL A   1      41.157  28.198  27.960  1.00  0.00     0.173 A 
ATOM     65  F   UNL A   1      38.901  26.312  30.100  1.00  0.00    -0.203 F 
ATOM     66  C   UNL A   1      39.681  25.848  27.930  1.00  0.00     0.198 A 
ATOM     67  C   UNL A   1      41.172  27.377  26.835  1.00  0.00     0.198 A 
ATOM     68  F   UNL A   1      41.887  29.324  27.946  1.00  0.00    -0.203 F 
ATOM     69  F   UNL A   1      38.993  24.697  27.931  1.00  0.00    -0.200 F 
ATOM     70  C   UNL A   1      40.440  26.199  26.824  1.00  0.00     0.200 A 
ATOM     71  F   UNL A   1      41.897  27.724  25.762  1.00  0.00    -0.200 F 
ATOM     72  F   UNL A   1      40.472  25.400  25.749  1.00  0.00    -0.200 F 
ENDBRANCH  48  62
BRANCH  49  73
ATOM     73  C   UNL A   1      39.565  33.963  36.940  1.00  0.00     0.064 A 
ATOM     74  C   UNL A   1      38.780  33.568  38.031  1.00  0.00     0.173 A 
ATOM     75  C   UNL A   1      40.204  35.209  37.011  1.00  0.00     0.173 A 
ATOM     76  F   UNL A   1      38.131  32.395  38.000  1.00  0.00    -0.203 F 
ATOM     77  C   UNL A   1      38.627  34.393  39.143  1.00  0.00     0.198 A 
ATOM     78  C   UNL A   1      40.072  36.021  38.135  1.00  0.00     0.198 A 
ATOM     79  F   UNL A   1      40.970  35.630  35.993  1.00  0.00    -0.203 F 
ATOM     80  F   UNL A   1      37.839  34.010  40.157  1.00  0.00    -0.200 F 
ATOM     81  C   UNL A   1      39.278  35.617  39.197  1.00  0.00     0.200 A 
ATOM     82  F   UNL A   1      40.712  37.198  38.188  1.00  0.00    -0.200 F 
ATOM     83  F   UNL A   1      39.136  36.408  40.268  1.00  0.00    -0.200 F 
ENDBRANCH  49  73
BRANCH  61  84
ATOM     84  C   UNL A   1      43.703  28.565  35.444  1.00  0.00     0.064 A 
ATOM     85  C   UNL A   1      43.427  27.518  36.336  1.00  0.00     0.173 A 
ATOM     86  C   UNL A   1      45.045  28.926  35.247  1.00  0.00     0.173 A 
ATOM     87  F   UNL A   1      42.159  27.149  36.569  1.00  0.00    -0.203 F 
ATOM     88  C   UNL A   1      44.454  26.868  37.014  1.00  0.00     0.198 A 
ATOM     89  C   UNL A   1      46.071  28.257  35.908  1.00  0.00     0.198 A 
ATOM     90  F   UNL A   1      45.361  29.919  34.403  1.00  0.00    -0.203 F 
ATOM     91  F   UNL A   1      44.165  25.895  37.889  1.00  0.00    -0.200 F 
ATOM     92  C   UNL A   1      45.774  27.231  36.794  1.00  0.00     0.200 A 
ATOM     93  F   UNL A   1      47.346  28.602  35.687  1.00  0.00    -0.200 F 
ATOM     94  F   UNL A   1      46.761  26.598  37.441  1.00  0.00    -0.200 F 
ENDBRANCH  61  84
ENDBRANCH  35  36
ENDBRANCH  27  30
ENDBRANCH  25  26
ENDBRANCH  24  25
ENDBRANCH   1  24
TORSDOF 13
ENDMDL
MODEL 2
REMARK VINA RESULT:     -12.8      0.171      1.601
REMARK SMILES C[C@H]1OCC[C@@H]1C(=O)Nc1ccc(Cl)c(C(=O)NCCCCNC(=O)c2ccc(-c3c4nc(c(-c5c(F)c(F)c(F)c(F)c5F)c5ccc([nH]5)c(-c5c(F)c(F)c(F)c(F)c5F)c5nc(c(-c6c(F)c(F)c(F)c(F)c6F)c6ccc3[nH]6)C=C5)C=C4)cc2)c1
REMARK SMILES IDX 20 1 19 2 18 3 16 4 17 5 15 7 10 8 11 9 89 10 12 11 13 12
REMARK SMILES IDX 14 13 9 14 7 15 8 16 6 18 1 19 2 20 3 21 4 22 5 23 21 24
REMARK SMILES IDX 22 25 23 26 24 27 25 29 26 30 27 31 88 32 28 33 87 34 29 35
REMARK SMILES IDX 30 36 31 37 81 38 32 39 86 40 80 41 82 42 33 43 85 44 79 45
REMARK SMILES IDX 78 46 34 48 66 49 46 50 65 51 47 52 50 53 64 54 83 55 48 56
REMARK SMILES IDX 49 57 63 59 84 60 51 61 35 62 36 63 44 64 37 65 38 66 42 67
REMARK SMILES IDX 45 68 39 69 40 70 43 71 41 72 67 73 68 74 76 75 69 76 70 77
REMARK SMILES IDX 74 78 77 79 71 80 72 81 75 82 73 83 52 84 53 85 61 86 54 87
REMARK SMILES IDX 55 88 59 89 62 90 56 91 57 92 60 93 58 94
REMARK H PARENT 18 6 9 17 23 28 82 47 50 58
REMARK Flexibility Score: inf
ROOT
ATOM      1  C   UNL A   1      32.221  30.271  25.920  1.00  0.00     0.023 C 
ENDROOT
BRANCH   1   2
ATOM      2  C   UNL A   1      33.271  29.246  26.312  1.00  0.00     0.116 C 
BRANCH   2   3
ATOM      3  N   UNL A   1      32.781  28.039  26.953  1.00  0.00    -0.352 N 
ATOM      4  C   UNL A   1      32.163  26.941  26.388  1.00  0.00     0.252 C 
ATOM      5  O   UNL A   1      31.886  25.978  27.102  1.00  0.00    -0.269 OA
ATOM      6  H   UNL A   1      32.906  27.998  27.929  1.00  0.00     0.163 HD
BRANCH   4   7
ATOM      7  C   UNL A   1      31.706  26.948  24.975  1.00  0.00     0.060 A 
ATOM      8  C   UNL A   1      29.979  27.577  23.405  1.00  0.00     0.042 A 
ATOM      9  C   UNL A   1      30.883  27.421  22.364  1.00  0.00     0.028 A 
ATOM     10  C   UNL A   1      30.433  27.492  24.719  1.00  0.00     0.041 A 
ATOM     11  C   UNL A   1      32.105  26.810  22.604  1.00  0.00     0.023 A 
ATOM     12  C   UNL A   1      32.441  26.438  23.901  1.00  0.00     0.053 A 
ATOM     13  Cl  UNL A   1      33.645  25.209  24.058  1.00  0.00    -0.083 Cl
BRANCH   8  14
ATOM     14  N   UNL A   1      28.622  27.775  23.143  1.00  0.00    -0.326 N 
ATOM     15  C   UNL A   1      27.956  28.954  22.920  1.00  0.00     0.230 C 
ATOM     16  O   UNL A   1      26.720  28.901  22.888  1.00  0.00    -0.274 OA
ATOM     17  H   UNL A   1      28.070  26.961  23.115  1.00  0.00     0.169 HD
BRANCH  15  18
ATOM     18  C   UNL A   1      28.643  30.300  22.604  1.00  0.00     0.110 C 
ATOM     19  C   UNL A   1      29.518  32.128  24.146  1.00  0.00     0.039 C 
ATOM     20  C   UNL A   1      28.289  31.443  23.553  1.00  0.00     0.127 C 
ATOM     21  O   UNL A   1      27.582  32.419  22.772  1.00  0.00    -0.378 OA
ATOM     22  C   UNL A   1      28.005  32.295  21.413  1.00  0.00     0.161 C 
ATOM     23  C   UNL A   1      28.463  30.863  21.209  1.00  0.00     0.044 C 
ENDBRANCH  15  18
ENDBRANCH   8  14
ENDBRANCH   4   7
ENDBRANCH   2   3
ENDBRANCH   1   2
BRANCH   1  24
ATOM     24  C   UNL A   1      31.885  31.326  26.967  1.00  0.00     0.023 C 
BRANCH  24  25
ATOM     25  C   UNL A   1      32.988  32.318  27.324  1.00  0.00     0.116 C 
BRANCH  25  26
ATOM     26  N   UNL A   1      32.521  33.673  27.588  1.00  0.00    -0.352 N 
ATOM     27  C   UNL A   1      33.015  34.638  28.435  1.00  0.00     0.251 C 
ATOM     28  H   UNL A   1      31.722  33.940  27.078  1.00  0.00     0.163 HD
ATOM     29  O   UNL A   1      32.435  35.713  28.552  1.00  0.00    -0.269 OA
BRANCH  27  30
ATOM     30  C   UNL A   1      34.213  34.361  29.256  1.00  0.00     0.039 A 
ATOM     31  C   UNL A   1      34.039  33.829  30.536  1.00  0.00     0.014 A 
ATOM     32  C   UNL A   1      35.497  34.568  28.751  1.00  0.00     0.014 A 
ATOM     33  C   UNL A   1      35.149  33.381  31.256  1.00  0.00     0.010 A 
ATOM     34  C   UNL A   1      36.593  34.046  29.431  1.00  0.00     0.010 A 
ATOM     35  C   UNL A   1      36.426  33.421  30.676  1.00  0.00    -0.014 A 
BRANCH  35  36
ATOM     36  C   UNL A   1      37.592  32.763  31.321  1.00  0.00     0.031 A 
ATOM     37  C   UNL A   1      38.257  31.585  30.669  1.00  0.00     0.074 A 
ATOM     38  C   UNL A   1      37.982  33.164  32.549  1.00  0.00     0.049 A 
ATOM     39  N   UNL A   1      39.197  30.803  31.137  1.00  0.00    -0.248 NA
ATOM     40  C   UNL A   1      37.781  31.220  29.327  1.00  0.00     0.031 C 
ATOM     41  C   UNL A   1      37.383  34.260  33.313  1.00  0.00     0.029 A 
ATOM     42  N   UNL A   1      38.962  32.680  33.381  1.00  0.00    -0.354 N 
ATOM     43  C   UNL A   1      39.409  29.843  30.157  1.00  0.00     0.074 A 
ATOM     44  C   UNL A   1      38.471  30.113  29.088  1.00  0.00     0.031 C 
ATOM     45  C   UNL A   1      38.016  34.375  34.491  1.00  0.00     0.029 A 
ATOM     46  C   UNL A   1      39.036  33.336  34.586  1.00  0.00     0.049 A 
ATOM     47  H   UNL A   1      39.555  31.934  33.136  1.00  0.00     0.167 HD
ATOM     48  C   UNL A   1      40.319  28.840  30.142  1.00  0.00     0.037 A 
ATOM     49  C   UNL A   1      39.823  33.114  35.656  1.00  0.00     0.037 A 
ATOM     50  C   UNL A   1      41.272  28.593  31.191  1.00  0.00     0.049 A 
ATOM     51  C   UNL A   1      40.820  31.989  35.615  1.00  0.00     0.074 A 
ATOM     52  C   UNL A   1      42.286  27.651  31.230  1.00  0.00     0.029 A 
ATOM     53  N   UNL A   1      41.328  29.290  32.388  1.00  0.00    -0.354 N 
ATOM     54  N   UNL A   1      41.059  31.132  34.653  1.00  0.00    -0.248 NA
ATOM     55  C   UNL A   1      41.653  31.798  36.810  1.00  0.00     0.031 C 
ATOM     56  C   UNL A   1      42.929  27.752  32.468  1.00  0.00     0.029 A 
ATOM     57  C   UNL A   1      42.342  28.783  33.184  1.00  0.00     0.049 A 
ATOM     58  H   UNL A   1      40.734  30.036  32.635  1.00  0.00     0.167 HD
ATOM     59  C   UNL A   1      42.080  30.315  35.116  1.00  0.00     0.074 A 
ATOM     60  C   UNL A   1      42.428  30.788  36.440  1.00  0.00     0.031 C 
ATOM     61  C   UNL A   1      42.676  29.266  34.499  1.00  0.00     0.037 A 
BRANCH  48  62
ATOM     62  C   UNL A   1      40.330  27.934  28.946  1.00  0.00     0.064 A 
ATOM     63  C   UNL A   1      41.071  28.247  27.796  1.00  0.00     0.173 A 
ATOM     64  C   UNL A   1      39.627  26.721  28.964  1.00  0.00     0.173 A 
ATOM     65  F   UNL A   1      41.752  29.400  27.724  1.00  0.00    -0.203 F 
ATOM     66  C   UNL A   1      41.082  27.392  26.698  1.00  0.00     0.198 A 
ATOM     67  C   UNL A   1      39.664  25.855  27.875  1.00  0.00     0.198 A 
ATOM     68  F   UNL A   1      38.909  26.372  30.043  1.00  0.00    -0.203 F 
ATOM     69  F   UNL A   1      41.759  27.733  25.593  1.00  0.00    -0.200 F 
ATOM     70  C   UNL A   1      40.385  26.194  26.740  1.00  0.00     0.200 A 
ATOM     71  F   UNL A   1      38.999  24.692  27.922  1.00  0.00    -0.200 F 
ATOM     72  F   UNL A   1      40.403  25.369  25.685  1.00  0.00    -0.200 F 
ENDBRANCH  48  62
BRANCH  49  73
ATOM     73  C   UNL A   1      39.711  33.987  36.853  1.00  0.00     0.064 A 
ATOM     74  C   UNL A   1      38.902  33.616  37.936  1.00  0.00     0.173 A 
ATOM     75  C   UNL A   1      40.404  35.203  36.941  1.00  0.00     0.173 A 
ATOM     76  F   UNL A   1      38.203  32.473  37.889  1.00  0.00    -0.203 F 
ATOM     77  C   UNL A   1      38.779  34.435  39.056  1.00  0.00     0.198 A 
ATOM     78  C   UNL A   1      40.300  36.009  38.072  1.00  0.00     0.198 A 
ATOM     79  F   UNL A   1      41.194  35.600  35.932  1.00  0.00    -0.203 F 
ATOM     80  F   UNL A   1      37.968  34.076  40.061  1.00  0.00    -0.200 F 
ATOM     81  C   UNL A   1      39.482  35.629  39.126  1.00  0.00     0.200 A 
ATOM     82  F   UNL A   1      40.991  37.156  38.142  1.00  0.00    -0.200 F 
ATOM     83  F   UNL A   1      39.367  36.415  40.205  1.00  0.00    -0.200 F 
ENDBRANCH  49  73
BRANCH  61  84
ATOM     84  C   UNL A   1      43.778  28.569  35.239  1.00  0.00     0.064 A 
ATOM     85  C   UNL A   1      45.109  29.003  35.148  1.00  0.00     0.173 A 
ATOM     86  C   UNL A   1      43.494  27.489  36.088  1.00  0.00     0.173 A 
ATOM     87  F   UNL A   1      45.432  30.021  34.337  1.00  0.00    -0.203 F 
ATOM     88  C   UNL A   1      46.118  28.370  35.869  1.00  0.00     0.198 A 
ATOM     89  C   UNL A   1      44.501  26.874  36.826  1.00  0.00     0.198 A 
ATOM     90  F   UNL A   1      42.237  27.039  36.212  1.00  0.00    -0.203 F 
ATOM     91  F   UNL A   1      47.388  28.776  35.738  1.00  0.00    -0.200 F 
ATOM     92  C   UNL A   1      45.813  27.312  36.712  1.00  0.00     0.200 A 
ATOM     93  F   UNL A   1      44.203  25.860  37.649  1.00  0.00    -0.200 F 
ATOM     94  F   UNL A   1      46.783  26.710  37.413  1.00  0.00    -0.200 F 
ENDBRANCH  61  84
ENDBRANCH  35  36
ENDBRANCH  27  30
ENDBRANCH  25  26
ENDBRANCH  24  25
ENDBRANCH   1  24
TORSDOF 13
ENDMDL
MODEL 3
REMARK VINA RESULT:     -12.7      0.969      7.375
REMARK SMILES C[C@H]1OCC[C@@H]1C(=O)Nc1ccc(Cl)c(C(=O)NCCCCNC(=O)c2ccc(-c3c4nc(c(-c5c(F)c(F)c(F)c(F)c5F)c5ccc([nH]5)c(-c5c(F)c(F)c(F)c(F)c5F)c5nc(c(-c6c(F)c(F)c(F)c(F)c6F)c6ccc3[nH]6)C=C5)C=C4)cc2)c1
REMARK SMILES IDX 20 1 19 2 18 3 16 4 17 5 15 7 10 8 11 9 89 10 12 11 13 12
REMARK SMILES IDX 14 13 9 14 7 15 8 16 6 18 1 19 2 20 3 21 4 22 5 23 21 24
REMARK SMILES IDX 22 25 23 26 24 27 25 29 26 30 27 31 88 32 28 33 87 34 29 35
REMARK SMILES IDX 30 36 31 37 81 38 32 39 86 40 80 41 82 42 33 43 85 44 79 45
REMARK SMILES IDX 78 46 34 48 66 49 46 50 65 51 47 52 50 53 64 54 83 55 48 56
REMARK SMILES IDX 49 57 63 59 84 60 51 61 35 62 36 63 44 64 37 65 38 66 42 67
REMARK SMILES IDX 45 68 39 69 40 70 43 71 41 72 67 73 68 74 76 75 69 76 70 77
REMARK SMILES IDX 74 78 77 79 71 80 72 81 75 82 73 83 52 84 53 85 61 86 54 87
REMARK SMILES IDX 55 88 59 89 62 90 56 91 57 92 60 93 58 94
REMARK H PARENT 18 6 9 17 23 28 82 47 50 58
REMARK Flexibility Score: inf
ROOT
ATOM      1  C   UNL A   1      31.624  30.748  26.079  1.00  0.00     0.023 C 
ENDROOT
BRANCH   1   2
ATOM      2  C   UNL A   1      32.834  29.845  25.919  1.00  0.00     0.116 C 
BRANCH   2   3
ATOM      3  N   UNL A   1      33.322  29.660  24.564  1.00  0.00    -0.352 N 
ATOM      4  C   UNL A   1      32.841  28.832  23.569  1.00  0.00     0.252 C 
ATOM      5  O   UNL A   1      33.358  28.877  22.453  1.00  0.00    -0.269 OA
ATOM      6  H   UNL A   1      34.107  30.202  24.320  1.00  0.00     0.163 HD
BRANCH   4   7
ATOM      7  C   UNL A   1      31.812  27.798  23.849  1.00  0.00     0.060 A 
ATOM      8  C   UNL A   1      29.517  27.093  23.569  1.00  0.00     0.042 A 
ATOM      9  C   UNL A   1      29.883  25.800  23.916  1.00  0.00     0.028 A 
ATOM     10  C   UNL A   1      30.508  28.055  23.385  1.00  0.00     0.041 A 
ATOM     11  C   UNL A   1      31.142  25.564  24.449  1.00  0.00     0.023 A 
ATOM     12  C   UNL A   1      32.049  26.613  24.551  1.00  0.00     0.053 A 
ATOM     13  Cl  UNL A   1      33.318  26.418  25.708  1.00  0.00    -0.083 Cl
BRANCH   8  14
ATOM     14  N   UNL A   1      28.171  27.441  23.447  1.00  0.00    -0.326 N 
ATOM     15  C   UNL A   1      27.624  28.679  23.221  1.00  0.00     0.230 C 
ATOM     16  O   UNL A   1      26.395  28.776  23.330  1.00  0.00    -0.274 OA
ATOM     17  H   UNL A   1      27.529  26.701  23.535  1.00  0.00     0.169 HD
BRANCH  15  18
ATOM     18  C   UNL A   1      28.420  29.912  22.741  1.00  0.00     0.110 C 
ATOM     19  C   UNL A   1      29.273  31.945  24.015  1.00  0.00     0.039 C 
ATOM     20  C   UNL A   1      28.059  31.223  23.437  1.00  0.00     0.127 C 
ATOM     21  O   UNL A   1      27.485  32.074  22.432  1.00  0.00    -0.378 OA
ATOM     22  C   UNL A   1      28.014  31.688  21.163  1.00  0.00     0.161 C 
ATOM     23  C   UNL A   1      28.396  30.222  21.258  1.00  0.00     0.044 C 
ENDBRANCH  15  18
ENDBRANCH   8  14
ENDBRANCH   4   7
ENDBRANCH   2   3
ENDBRANCH   1   2
BRANCH   1  24
ATOM     24  C   UNL A   1      31.673  31.745  27.231  1.00  0.00     0.023 C 
BRANCH  24  25
ATOM     25  C   UNL A   1      32.831  32.739  27.232  1.00  0.00     0.116 C 
BRANCH  25  26
ATOM     26  N   UNL A   1      32.459  34.099  27.599  1.00  0.00    -0.352 N 
ATOM     27  C   UNL A   1      33.003  34.953  28.530  1.00  0.00     0.251 C 
ATOM     28  H   UNL A   1      31.695  34.467  27.098  1.00  0.00     0.163 HD
ATOM     29  O   UNL A   1      32.502  36.056  28.726  1.00  0.00    -0.269 OA
BRANCH  27  30
ATOM     30  C   UNL A   1      34.158  34.520  29.347  1.00  0.00     0.039 A 
ATOM     31  C   UNL A   1      33.919  33.985  30.615  1.00  0.00     0.014 A 
ATOM     32  C   UNL A   1      35.459  34.586  28.847  1.00  0.00     0.014 A 
ATOM     33  C   UNL A   1      34.967  33.395  31.326  1.00  0.00     0.010 A 
ATOM     34  C   UNL A   1      36.485  33.925  29.516  1.00  0.00     0.010 A 
ATOM     35  C   UNL A   1      36.242  33.298  30.748  1.00  0.00    -0.014 A 
BRANCH  35  36
ATOM     36  C   UNL A   1      37.321  32.494  31.379  1.00  0.00     0.031 A 
ATOM     37  C   UNL A   1      37.841  32.855  32.741  1.00  0.00     0.074 A 
ATOM     38  C   UNL A   1      37.906  31.503  30.674  1.00  0.00     0.049 A 
ATOM     39  N   UNL A   1      38.860  32.357  33.395  1.00  0.00    -0.248 NA
ATOM     40  C   UNL A   1      37.141  33.938  33.447  1.00  0.00     0.031 C 
ATOM     41  C   UNL A   1      37.530  31.090  29.320  1.00  0.00     0.029 A 
ATOM     42  N   UNL A   1      38.956  30.677  30.991  1.00  0.00    -0.354 N 
ATOM     43  C   UNL A   1      38.936  33.081  34.577  1.00  0.00     0.074 A 
ATOM     44  C   UNL A   1      37.889  34.079  34.532  1.00  0.00     0.031 C 
ATOM     45  C   UNL A   1      38.324  30.082  28.930  1.00  0.00     0.029 A 
ATOM     46  C   UNL A   1      39.294  29.804  29.985  1.00  0.00     0.049 A 
ATOM     47  H   UNL A   1      39.423  30.708  31.857  1.00  0.00     0.167 HD
ATOM     48  C   UNL A   1      39.789  32.912  35.615  1.00  0.00     0.037 A 
ATOM     49  C   UNL A   1      40.284  28.894  29.912  1.00  0.00     0.037 A 
ATOM     50  C   UNL A   1      40.808  31.898  35.672  1.00  0.00     0.049 A 
ATOM     51  C   UNL A   1      41.222  28.733  31.076  1.00  0.00     0.074 A 
ATOM     52  C   UNL A   1      41.668  31.597  36.715  1.00  0.00     0.029 A 
ATOM     53  N   UNL A   1      41.108  31.020  34.641  1.00  0.00    -0.354 N 
ATOM     54  N   UNL A   1      41.239  29.376  32.218  1.00  0.00    -0.248 NA
ATOM     55  C   UNL A   1      42.281  27.723  30.940  1.00  0.00     0.031 C 
ATOM     56  C   UNL A   1      42.515  30.565  36.299  1.00  0.00     0.029 A 
ATOM     57  C   UNL A   1      42.156  30.195  35.013  1.00  0.00     0.049 A 
ATOM     58  H   UNL A   1      40.643  30.990  33.773  1.00  0.00     0.167 HD
ATOM     59  C   UNL A   1      42.292  28.836  32.943  1.00  0.00     0.074 A 
ATOM     60  C   UNL A   1      42.882  27.802  32.119  1.00  0.00     0.031 C 
ATOM     61  C   UNL A   1      42.731  29.169  34.181  1.00  0.00     0.037 A 
BRANCH  48  62
ATOM     62  C   UNL A   1      39.653  33.846  36.782  1.00  0.00     0.064 A 
ATOM     63  C   UNL A   1      38.860  33.520  37.893  1.00  0.00     0.173 A 
ATOM     64  C   UNL A   1      40.352  35.060  36.808  1.00  0.00     0.173 A 
ATOM     65  F   UNL A   1      38.162  32.374  37.912  1.00  0.00    -0.203 F 
ATOM     66  C   UNL A   1      38.752  34.389  38.974  1.00  0.00     0.198 A 
ATOM     67  C   UNL A   1      40.265  35.915  37.904  1.00  0.00     0.198 A 
ATOM     68  F   UNL A   1      41.130  35.416  35.774  1.00  0.00    -0.203 F 
ATOM     69  F   UNL A   1      37.952  34.078  40.004  1.00  0.00    -0.200 F 
ATOM     70  C   UNL A   1      39.458  35.582  38.983  1.00  0.00     0.200 A 
ATOM     71  F   UNL A   1      40.957  37.063  37.916  1.00  0.00    -0.200 F 
ATOM     72  F   UNL A   1      39.358  36.416  40.027  1.00  0.00    -0.200 F 
ENDBRANCH  48  62
BRANCH  49  73
ATOM     73  C   UNL A   1      40.432  28.054  28.695  1.00  0.00     0.064 A 
ATOM     74  C   UNL A   1      39.801  26.806  28.606  1.00  0.00     0.173 A 
ATOM     75  C   UNL A   1      41.202  28.477  27.602  1.00  0.00     0.173 A 
ATOM     76  F   UNL A   1      39.072  26.349  29.634  1.00  0.00    -0.203 F 
ATOM     77  C   UNL A   1      39.946  26.006  27.475  1.00  0.00     0.198 A 
ATOM     78  C   UNL A   1      41.325  27.687  26.462  1.00  0.00     0.198 A 
ATOM     79  F   UNL A   1      41.823  29.666  27.638  1.00  0.00    -0.203 F 
ATOM     80  F   UNL A   1      39.365  24.799  27.431  1.00  0.00    -0.200 F 
ATOM     81  C   UNL A   1      40.705  26.449  26.401  1.00  0.00     0.200 A 
ATOM     82  F   UNL A   1      42.049  28.125  25.421  1.00  0.00    -0.200 F 
ATOM     83  F   UNL A   1      40.841  25.682  25.312  1.00  0.00    -0.200 F 
ENDBRANCH  49  73
BRANCH  61  84
ATOM     84  C   UNL A   1      43.893  28.396  34.729  1.00  0.00     0.064 A 
ATOM     85  C   UNL A   1      45.211  28.853  34.580  1.00  0.00     0.173 A 
ATOM     86  C   UNL A   1      43.683  27.214  35.453  1.00  0.00     0.173 A 
ATOM     87  F   UNL A   1      45.463  29.969  33.881  1.00  0.00    -0.203 F 
ATOM     88  C   UNL A   1      46.278  28.144  35.125  1.00  0.00     0.198 A 
ATOM     89  C   UNL A   1      44.750  26.521  36.018  1.00  0.00     0.198 A 
ATOM     90  F   UNL A   1      42.441  26.738  35.626  1.00  0.00    -0.203 F 
ATOM     91  F   UNL A   1      47.533  28.578  34.941  1.00  0.00    -0.200 F 
ATOM     92  C   UNL A   1      46.047  26.984  35.850  1.00  0.00     0.200 A 
ATOM     93  F   UNL A   1      44.524  25.407  36.728  1.00  0.00    -0.200 F 
ATOM     94  F   UNL A   1      47.074  26.309  36.382  1.00  0.00    -0.200 F 
ENDBRANCH  61  84
ENDBRANCH  35  36
ENDBRANCH  27  30
ENDBRANCH  25  26
ENDBRANCH  24  25
ENDBRANCH   1  24
TORSDOF 13
ENDMDL
