MODEL 1
REMARK VINA RESULT:     -13.0      0.000      0.000
REMARK SMILES CC(C)Oc1ccc(-c2ccc(/C(=C\c3ccc(S(C)(=O)=O)cc3)C(=O)NCCCCNC(=O)c3ccc(-c4c5nc(c(-c6c(F)c(F)c(F)c(F)c6F)c6ccc([nH]6)c(-c6c(F)c(F)c(F)c(F)c6F)c6nc(c(-c7c(F)c(F)c(F)c(F)c7F)c7ccc4[nH]7)C=C6)C=C5)cc3)cc2)cc1
REMARK SMILES IDX 28 1 27 2 25 3 26 4 13 6 14 7 12 8 9 9 10 10 99 11 11 12
REMARK SMILES IDX 98 13 8 14 5 15 6 16 101 17 7 18 100 19 4 20 2 21 1 22 3 23
REMARK SMILES IDX 15 24 16 25 24 26 17 27 23 28 18 29 19 30 20 31 21 32 22 33
REMARK SMILES IDX 29 34 30 35 31 36 32 37 33 38 34 40 35 41 36 42 97 43 37 44
REMARK SMILES IDX 96 45 38 46 39 47 40 48 90 49 41 50 95 51 89 52 91 53 42 54
REMARK SMILES IDX 94 55 88 56 87 57 43 59 75 60 55 61 74 62 56 63 59 64 73 65
REMARK SMILES IDX 92 66 57 67 58 68 72 70 93 71 60 72 44 73 45 74 53 75 46 76
REMARK SMILES IDX 47 77 51 78 54 79 48 80 49 81 52 82 50 83 76 84 77 85 85 86
REMARK SMILES IDX 78 87 79 88 83 89 86 90 80 91 81 92 84 93 82 94 61 95 62 96
REMARK SMILES IDX 70 97 63 98 64 99 68 100 71 101 65 102 66 103 69 104 67 105
REMARK H PARENT 27 5 32 39 91 58 59 69
REMARK Flexibility Score: inf
ROOT
ATOM      1  C   UNL A   1      39.905  21.582  27.005  1.00  0.00     0.116 C 
ENDROOT
BRANCH   1   2
ATOM      2  N   UNL A   1      39.479  22.941  26.748  1.00  0.00    -0.352 N 
ATOM      3  C   UNL A   1      38.387  23.512  26.172  1.00  0.00     0.251 C 
ATOM      4  O   UNL A   1      38.427  24.745  26.155  1.00  0.00    -0.269 OA
ATOM      5  H   UNL A   1      40.131  23.607  27.063  1.00  0.00     0.163 HD
BRANCH   3   6
ATOM      6  C   UNL A   1      37.175  22.743  25.647  1.00  0.00     0.047 C 
ATOM      7  C   UNL A   1      37.302  21.425  25.357  1.00  0.00     0.022 C 
BRANCH   6   8
ATOM      8  C   UNL A   1      35.918  23.499  25.287  1.00  0.00    -0.013 A 
ATOM      9  C   UNL A   1      33.774  25.348  24.750  1.00  0.00    -0.018 A 
ATOM     10  C   UNL A   1      34.626  24.892  23.736  1.00  0.00     0.009 A 
ATOM     11  C   UNL A   1      33.945  24.764  26.010  1.00  0.00     0.009 A 
ATOM     12  C   UNL A   1      35.634  23.946  23.989  1.00  0.00     0.009 A 
ATOM     13  C   UNL A   1      35.010  23.893  26.279  1.00  0.00     0.009 A 
BRANCH   9  14
ATOM     14  C   UNL A   1      32.772  26.416  24.521  1.00  0.00    -0.018 A 
ATOM     15  C   UNL A   1      30.829  28.450  24.127  1.00  0.00     0.119 A 
ATOM     16  C   UNL A   1      32.171  28.691  23.849  1.00  0.00     0.047 A 
ATOM     17  C   UNL A   1      30.444  27.193  24.570  1.00  0.00     0.047 A 
ATOM     18  C   UNL A   1      33.130  27.688  24.044  1.00  0.00     0.012 A 
ATOM     19  C   UNL A   1      31.405  26.201  24.786  1.00  0.00     0.012 A 
BRANCH  15  20
ATOM     20  O   UNL A   1      29.944  29.441  23.822  1.00  0.00    -0.491 OA
BRANCH  20  21
ATOM     21  C   UNL A   1      29.137  29.298  22.641  1.00  0.00     0.167 C 
ATOM     22  C   UNL A   1      27.646  29.173  22.936  1.00  0.00     0.052 C 
ATOM     23  C   UNL A   1      29.437  30.325  21.550  1.00  0.00     0.052 C 
ENDBRANCH  20  21
ENDBRANCH  15  20
ENDBRANCH   9  14
ENDBRANCH   6   8
BRANCH   7  24
ATOM     24  C   UNL A   1      36.270  20.443  24.990  1.00  0.00    -0.025 A 
ATOM     25  C   UNL A   1      36.670  19.109  24.801  1.00  0.00     0.009 A 
ATOM     26  C   UNL A   1      34.918  20.782  24.906  1.00  0.00     0.009 A 
ATOM     27  C   UNL A   1      35.719  18.108  24.597  1.00  0.00     0.021 A 
ATOM     28  C   UNL A   1      33.961  19.784  24.702  1.00  0.00     0.021 A 
ATOM     29  C   UNL A   1      34.366  18.453  24.559  1.00  0.00     0.067 A 
BRANCH  29  30
ATOM     30  S   UNL A   1      33.152  17.158  24.448  1.00  0.00     0.175 S 
ATOM     31  C   UNL A   1      33.872  15.822  25.362  1.00  0.00     0.163 C 
ATOM     32  O   UNL A   1      31.976  17.616  25.161  1.00  0.00    -0.224 OA
ATOM     33  O   UNL A   1      33.068  16.753  23.057  1.00  0.00    -0.224 OA
ENDBRANCH  29  30
ENDBRANCH   7  24
ENDBRANCH   3   6
ENDBRANCH   1   2
BRANCH   1  34
ATOM     34  C   UNL A   1      41.122  21.234  26.143  1.00  0.00     0.023 C 
BRANCH  34  35
ATOM     35  C   UNL A   1      41.333  19.732  25.927  1.00  0.00     0.023 C 
BRANCH  35  36
ATOM     36  C   UNL A   1      42.729  19.228  26.266  1.00  0.00     0.116 C 
BRANCH  36  37
ATOM     37  N   UNL A   1      43.499  18.849  25.091  1.00  0.00    -0.352 N 
ATOM     38  C   UNL A   1      44.344  19.621  24.335  1.00  0.00     0.251 C 
ATOM     39  H   UNL A   1      43.403  17.913  24.801  1.00  0.00     0.163 HD
ATOM     40  O   UNL A   1      44.828  19.183  23.299  1.00  0.00    -0.269 OA
BRANCH  38  41
ATOM     41  C   UNL A   1      44.632  21.002  24.767  1.00  0.00     0.039 A 
ATOM     42  C   UNL A   1      44.193  22.060  23.970  1.00  0.00     0.014 A 
ATOM     43  C   UNL A   1      45.308  21.249  25.966  1.00  0.00     0.014 A 
ATOM     44  C   UNL A   1      44.389  23.372  24.402  1.00  0.00     0.010 A 
ATOM     45  C   UNL A   1      45.428  22.551  26.434  1.00  0.00     0.010 A 
ATOM     46  C   UNL A   1      44.981  23.625  25.651  1.00  0.00    -0.014 A 
BRANCH  46  47
ATOM     47  C   UNL A   1      45.159  25.015  26.141  1.00  0.00     0.031 A 
ATOM     48  C   UNL A   1      46.512  25.666  26.079  1.00  0.00     0.074 A 
ATOM     49  C   UNL A   1      44.112  25.669  26.679  1.00  0.00     0.049 A 
ATOM     50  N   UNL A   1      46.875  26.860  26.478  1.00  0.00    -0.248 NA
ATOM     51  C   UNL A   1      47.610  24.862  25.522  1.00  0.00     0.031 C 
ATOM     52  C   UNL A   1      42.764  25.120  26.843  1.00  0.00     0.029 A 
ATOM     53  N   UNL A   1      44.018  26.939  27.190  1.00  0.00    -0.354 N 
ATOM     54  C   UNL A   1      48.239  26.942  26.227  1.00  0.00     0.074 A 
ATOM     55  C   UNL A   1      48.652  25.657  25.707  1.00  0.00     0.031 C 
ATOM     56  C   UNL A   1      41.970  26.059  27.383  1.00  0.00     0.029 A 
ATOM     57  C   UNL A   1      42.760  27.259  27.639  1.00  0.00     0.049 A 
ATOM     58  H   UNL A   1      44.780  27.561  27.231  1.00  0.00     0.167 HD
ATOM     59  C   UNL A   1      49.065  28.002  26.388  1.00  0.00     0.037 A 
ATOM     60  C   UNL A   1      42.298  28.397  28.192  1.00  0.00     0.037 A 
ATOM     61  C   UNL A   1      48.643  29.283  26.890  1.00  0.00     0.049 A 
ATOM     62  C   UNL A   1      43.239  29.559  28.364  1.00  0.00     0.074 A 
ATOM     63  C   UNL A   1      49.389  30.437  27.047  1.00  0.00     0.029 A 
ATOM     64  N   UNL A   1      47.356  29.577  27.319  1.00  0.00    -0.354 N 
ATOM     65  N   UNL A   1      44.511  29.650  28.055  1.00  0.00    -0.248 NA
ATOM     66  C   UNL A   1      42.676  30.782  28.950  1.00  0.00     0.031 C 
ATOM     67  C   UNL A   1      48.567  31.414  27.621  1.00  0.00     0.029 A 
ATOM     68  C   UNL A   1      47.293  30.889  27.760  1.00  0.00     0.049 A 
ATOM     69  H   UNL A   1      46.600  28.947  27.312  1.00  0.00     0.167 HD
ATOM     70  C   UNL A   1      44.889  30.947  28.373  1.00  0.00     0.074 A 
ATOM     71  C   UNL A   1      43.708  31.611  28.883  1.00  0.00     0.031 C 
ATOM     72  C   UNL A   1      46.104  31.537  28.254  1.00  0.00     0.037 A 
BRANCH  59  73
ATOM     73  C   UNL A   1      50.509  27.820  26.012  1.00  0.00     0.064 A 
ATOM     74  C   UNL A   1      50.947  27.955  24.685  1.00  0.00     0.173 A 
ATOM     75  C   UNL A   1      51.471  27.536  26.992  1.00  0.00     0.173 A 
ATOM     76  F   UNL A   1      50.067  28.213  23.705  1.00  0.00    -0.203 F 
ATOM     77  C   UNL A   1      52.287  27.780  24.349  1.00  0.00     0.198 A 
ATOM     78  C   UNL A   1      52.816  27.397  26.659  1.00  0.00     0.198 A 
ATOM     79  F   UNL A   1      51.109  27.401  28.277  1.00  0.00    -0.203 F 
ATOM     80  F   UNL A   1      52.671  27.858  23.068  1.00  0.00    -0.200 F 
ATOM     81  C   UNL A   1      53.221  27.509  25.337  1.00  0.00     0.200 A 
ATOM     82  F   UNL A   1      53.720  27.149  27.616  1.00  0.00    -0.200 F 
ATOM     83  F   UNL A   1      54.512  27.350  25.014  1.00  0.00    -0.200 F 
ENDBRANCH  59  73
BRANCH  60  84
ATOM     84  C   UNL A   1      40.871  28.507  28.592  1.00  0.00     0.064 A 
ATOM     85  C   UNL A   1      39.903  28.978  27.691  1.00  0.00     0.173 A 
ATOM     86  C   UNL A   1      40.444  28.160  29.881  1.00  0.00     0.173 A 
ATOM     87  F   UNL A   1      40.264  29.340  26.451  1.00  0.00    -0.203 F 
ATOM     88  C   UNL A   1      38.573  29.127  28.075  1.00  0.00     0.198 A 
ATOM     89  C   UNL A   1      39.107  28.278  30.255  1.00  0.00     0.198 A 
ATOM     90  F   UNL A   1      41.325  27.696  30.780  1.00  0.00    -0.203 F 
ATOM     91  F   UNL A   1      37.681  29.632  27.212  1.00  0.00    -0.200 F 
ATOM     92  C   UNL A   1      38.173  28.772  29.355  1.00  0.00     0.200 A 
ATOM     93  F   UNL A   1      38.722  27.918  31.487  1.00  0.00    -0.200 F 
ATOM     94  F   UNL A   1      36.894  28.914  29.724  1.00  0.00    -0.200 F 
ENDBRANCH  60  84
BRANCH  72  95
ATOM     95  C   UNL A   1      46.204  32.988  28.633  1.00  0.00     0.064 A 
ATOM     96  C   UNL A   1      46.540  33.395  29.933  1.00  0.00     0.173 A 
ATOM     97  C   UNL A   1      45.979  33.986  27.671  1.00  0.00     0.173 A 
ATOM     98  F   UNL A   1      46.752  32.482  30.893  1.00  0.00    -0.203 F 
ATOM     99  C   UNL A   1      46.609  34.746  30.264  1.00  0.00     0.198 A 
ATOM    100  C   UNL A   1      46.085  35.334  27.997  1.00  0.00     0.198 A 
ATOM    101  F   UNL A   1      45.663  33.652  26.411  1.00  0.00    -0.203 F 
ATOM    102  F   UNL A   1      46.870  35.110  31.528  1.00  0.00    -0.200 F 
ATOM    103  C   UNL A   1      46.389  35.713  29.297  1.00  0.00     0.200 A 
ATOM    104  F   UNL A   1      45.889  36.268  27.056  1.00  0.00    -0.200 F 
ATOM    105  F   UNL A   1      46.458  37.012  29.617  1.00  0.00    -0.200 F 
ENDBRANCH  72  95
ENDBRANCH  46  47
ENDBRANCH  38  41
ENDBRANCH  36  37
ENDBRANCH  35  36
ENDBRANCH  34  35
ENDBRANCH   1  34
TORSDOF 17
ENDMDL
MODEL 2
REMARK VINA RESULT:     -12.8      5.654     13.272
REMARK SMILES CC(C)Oc1ccc(-c2ccc(/C(=C\c3ccc(S(C)(=O)=O)cc3)C(=O)NCCCCNC(=O)c3ccc(-c4c5nc(c(-c6c(F)c(F)c(F)c(F)c6F)c6ccc([nH]6)c(-c6c(F)c(F)c(F)c(F)c6F)c6nc(c(-c7c(F)c(F)c(F)c(F)c7F)c7ccc4[nH]7)C=C6)C=C5)cc3)cc2)cc1
REMARK SMILES IDX 28 1 27 2 25 3 26 4 13 6 14 7 12 8 9 9 10 10 99 11 11 12
REMARK SMILES IDX 98 13 8 14 5 15 6 16 101 17 7 18 100 19 4 20 2 21 1 22 3 23
REMARK SMILES IDX 15 24 16 25 24 26 17 27 23 28 18 29 19 30 20 31 21 32 22 33
REMARK SMILES IDX 29 34 30 35 31 36 32 37 33 38 34 40 35 41 36 42 97 43 37 44
REMARK SMILES IDX 96 45 38 46 39 47 40 48 90 49 41 50 95 51 89 52 91 53 42 54
REMARK SMILES IDX 94 55 88 56 87 57 43 59 75 60 55 61 74 62 56 63 59 64 73 65
REMARK SMILES IDX 92 66 57 67 58 68 72 70 93 71 60 72 44 73 45 74 53 75 46 76
REMARK SMILES IDX 47 77 51 78 54 79 48 80 49 81 52 82 50 83 76 84 77 85 85 86
REMARK SMILES IDX 78 87 79 88 83 89 86 90 80 91 81 92 84 93 82 94 61 95 62 96
REMARK SMILES IDX 70 97 63 98 64 99 68 100 71 101 65 102 66 103 69 104 67 105
REMARK H PARENT 27 5 32 39 91 58 59 69
REMARK Flexibility Score: inf
ROOT
ATOM      1  C   UNL A   1      43.012  37.234  33.879  1.00  0.00     0.116 C 
ENDROOT
BRANCH   1   2
ATOM      2  N   UNL A   1      43.357  36.545  35.103  1.00  0.00    -0.352 N 
ATOM      3  C   UNL A   1      43.378  35.244  35.499  1.00  0.00     0.251 C 
ATOM      4  O   UNL A   1      43.749  35.090  36.666  1.00  0.00    -0.269 OA
ATOM      5  H   UNL A   1      43.646  37.160  35.815  1.00  0.00     0.163 HD
BRANCH   3   6
ATOM      6  C   UNL A   1      43.048  34.052  34.600  1.00  0.00     0.047 C 
ATOM      7  C   UNL A   1      44.057  33.276  34.134  1.00  0.00     0.022 C 
BRANCH   6   8
ATOM      8  C   UNL A   1      41.634  33.871  34.101  1.00  0.00    -0.013 A 
ATOM      9  C   UNL A   1      38.835  33.936  33.420  1.00  0.00    -0.018 A 
ATOM     10  C   UNL A   1      39.815  34.453  32.562  1.00  0.00     0.009 A 
ATOM     11  C   UNL A   1      39.299  33.281  34.565  1.00  0.00     0.009 A 
ATOM     12  C   UNL A   1      41.184  34.368  32.870  1.00  0.00     0.009 A 
ATOM     13  C   UNL A   1      40.657  33.281  34.914  1.00  0.00     0.009 A 
BRANCH   9  14
ATOM     14  C   UNL A   1      37.385  34.105  33.157  1.00  0.00    -0.018 A 
ATOM     15  C   UNL A   1      34.607  34.463  32.696  1.00  0.00     0.119 A 
ATOM     16  C   UNL A   1      35.496  34.387  31.628  1.00  0.00     0.047 A 
ATOM     17  C   UNL A   1      35.087  34.330  33.990  1.00  0.00     0.047 A 
ATOM     18  C   UNL A   1      36.868  34.211  31.856  1.00  0.00     0.012 A 
ATOM     19  C   UNL A   1      36.459  34.179  34.216  1.00  0.00     0.012 A 
BRANCH  15  20
ATOM     20  O   UNL A   1      33.280  34.538  32.393  1.00  0.00    -0.491 OA
BRANCH  20  21
ATOM     21  C   UNL A   1      32.709  35.830  32.130  1.00  0.00     0.167 C 
ATOM     22  C   UNL A   1      32.652  36.179  30.645  1.00  0.00     0.052 C 
ATOM     23  C   UNL A   1      31.384  36.086  32.846  1.00  0.00     0.052 C 
ENDBRANCH  20  21
ENDBRANCH  15  20
ENDBRANCH   9  14
ENDBRANCH   6   8
BRANCH   7  24
ATOM     24  C   UNL A   1      43.995  32.007  33.392  1.00  0.00    -0.025 A 
ATOM     25  C   UNL A   1      44.962  31.779  32.398  1.00  0.00     0.009 A 
ATOM     26  C   UNL A   1      43.067  31.010  33.700  1.00  0.00     0.009 A 
ATOM     27  C   UNL A   1      45.046  30.539  31.764  1.00  0.00     0.021 A 
ATOM     28  C   UNL A   1      43.145  29.766  33.068  1.00  0.00     0.021 A 
ATOM     29  C   UNL A   1      44.140  29.534  32.112  1.00  0.00     0.067 A 
BRANCH  29  30
ATOM     30  S   UNL A   1      44.344  27.913  31.412  1.00  0.00     0.175 S 
ATOM     31  C   UNL A   1      45.054  26.967  32.730  1.00  0.00     0.163 C 
ATOM     32  O   UNL A   1      43.016  27.396  31.143  1.00  0.00    -0.224 OA
ATOM     33  O   UNL A   1      45.331  28.013  30.352  1.00  0.00    -0.224 OA
ENDBRANCH  29  30
ENDBRANCH   7  24
ENDBRANCH   3   6
ENDBRANCH   1   2
BRANCH   1  34
ATOM     34  C   UNL A   1      44.144  37.102  32.855  1.00  0.00     0.023 C 
BRANCH  34  35
ATOM     35  C   UNL A   1      44.356  38.343  31.984  1.00  0.00     0.023 C 
BRANCH  35  36
ATOM     36  C   UNL A   1      44.210  38.106  30.487  1.00  0.00     0.116 C 
BRANCH  36  37
ATOM     37  N   UNL A   1      45.469  38.218  29.767  1.00  0.00    -0.352 N 
ATOM     38  C   UNL A   1      46.181  37.233  29.131  1.00  0.00     0.251 C 
ATOM     39  H   UNL A   1      45.861  39.120  29.730  1.00  0.00     0.163 HD
ATOM     40  O   UNL A   1      47.292  37.468  28.669  1.00  0.00    -0.269 OA
BRANCH  38  41
ATOM     41  C   UNL A   1      45.608  35.877  29.042  1.00  0.00     0.039 A 
ATOM     42  C   UNL A   1      44.799  35.560  27.949  1.00  0.00     0.014 A 
ATOM     43  C   UNL A   1      45.891  34.917  30.018  1.00  0.00     0.014 A 
ATOM     44  C   UNL A   1      44.313  34.260  27.810  1.00  0.00     0.010 A 
ATOM     45  C   UNL A   1      45.476  33.604  29.834  1.00  0.00     0.010 A 
ATOM     46  C   UNL A   1      44.673  33.266  28.735  1.00  0.00    -0.014 A 
BRANCH  46  47
ATOM     47  C   UNL A   1      44.196  31.870  28.576  1.00  0.00     0.031 A 
ATOM     48  C   UNL A   1      42.872  31.458  29.154  1.00  0.00     0.074 A 
ATOM     49  C   UNL A   1      44.976  30.968  27.950  1.00  0.00     0.049 A 
ATOM     50  N   UNL A   1      42.293  30.283  29.143  1.00  0.00    -0.248 NA
ATOM     51  C   UNL A   1      42.107  32.494  29.865  1.00  0.00     0.031 C 
ATOM     52  C   UNL A   1      46.304  31.238  27.395  1.00  0.00     0.029 A 
ATOM     53  N   UNL A   1      44.765  29.641  27.676  1.00  0.00    -0.354 N 
ATOM     54  C   UNL A   1      41.107  30.441  29.848  1.00  0.00     0.074 A 
ATOM     55  C   UNL A   1      41.080  31.803  30.333  1.00  0.00     0.031 C 
ATOM     56  C   UNL A   1      46.775  30.120  26.818  1.00  0.00     0.029 A 
ATOM     57  C   UNL A   1      45.800  29.048  26.994  1.00  0.00     0.049 A 
ATOM     58  H   UNL A   1      43.949  29.158  27.941  1.00  0.00     0.167 HD
ATOM     59  C   UNL A   1      40.116  29.539  30.048  1.00  0.00     0.037 A 
ATOM     60  C   UNL A   1      45.942  27.782  26.560  1.00  0.00     0.037 A 
ATOM     61  C   UNL A   1      40.142  28.190  29.548  1.00  0.00     0.049 A 
ATOM     62  C   UNL A   1      44.828  26.798  26.799  1.00  0.00     0.074 A 
ATOM     63  C   UNL A   1      39.170  27.212  29.653  1.00  0.00     0.029 A 
ATOM     64  N   UNL A   1      41.200  27.629  28.846  1.00  0.00    -0.354 N 
ATOM     65  N   UNL A   1      43.678  26.978  27.404  1.00  0.00    -0.248 NA
ATOM     66  C   UNL A   1      45.027  25.438  26.282  1.00  0.00     0.031 C 
ATOM     67  C   UNL A   1      39.662  26.043  29.062  1.00  0.00     0.029 A 
ATOM     68  C   UNL A   1      40.912  26.311  28.531  1.00  0.00     0.049 A 
ATOM     69  H   UNL A   1      42.033  28.098  28.609  1.00  0.00     0.167 HD
ATOM     70  C   UNL A   1      43.004  25.769  27.308  1.00  0.00     0.074 A 
ATOM     71  C   UNL A   1      43.866  24.868  26.572  1.00  0.00     0.031 C 
ATOM     72  C   UNL A   1      41.779  25.433  27.786  1.00  0.00     0.037 A 
BRANCH  59  73
ATOM     73  C   UNL A   1      38.919  29.988  30.839  1.00  0.00     0.064 A 
ATOM     74  C   UNL A   1      37.740  30.419  30.210  1.00  0.00     0.173 A 
ATOM     75  C   UNL A   1      38.939  29.959  32.241  1.00  0.00     0.173 A 
ATOM     76  F   UNL A   1      37.671  30.478  28.871  1.00  0.00    -0.203 F 
ATOM     77  C   UNL A   1      36.640  30.835  30.954  1.00  0.00     0.198 A 
ATOM     78  C   UNL A   1      37.825  30.343  32.983  1.00  0.00     0.198 A 
ATOM     79  F   UNL A   1      40.038  29.553  32.894  1.00  0.00    -0.203 F 
ATOM     80  F   UNL A   1      35.546  31.295  30.332  1.00  0.00    -0.200 F 
ATOM     81  C   UNL A   1      36.680  30.789  32.340  1.00  0.00     0.200 A 
ATOM     82  F   UNL A   1      37.860  30.285  34.321  1.00  0.00    -0.200 F 
ATOM     83  F   UNL A   1      35.617  31.182  33.055  1.00  0.00    -0.200 F 
ENDBRANCH  59  73
BRANCH  60  84
ATOM     84  C   UNL A   1      47.170  27.378  25.825  1.00  0.00     0.064 A 
ATOM     85  C   UNL A   1      48.259  26.805  26.499  1.00  0.00     0.173 A 
ATOM     86  C   UNL A   1      47.289  27.567  24.441  1.00  0.00     0.173 A 
ATOM     87  F   UNL A   1      48.202  26.620  27.826  1.00  0.00    -0.203 F 
ATOM     88  C   UNL A   1      49.429  26.468  25.823  1.00  0.00     0.198 A 
ATOM     89  C   UNL A   1      48.447  27.199  23.759  1.00  0.00     0.198 A 
ATOM     90  F   UNL A   1      46.274  28.103  23.746  1.00  0.00    -0.203 F 
ATOM     91  F   UNL A   1      50.475  25.975  26.501  1.00  0.00    -0.200 F 
ATOM     92  C   UNL A   1      49.521  26.660  24.452  1.00  0.00     0.200 A 
ATOM     93  F   UNL A   1      48.525  27.371  22.433  1.00  0.00    -0.200 F 
ATOM     94  F   UNL A   1      50.646  26.335  23.802  1.00  0.00    -0.200 F 
ENDBRANCH  60  84
BRANCH  72  95
ATOM     95  C   UNL A   1      41.279  24.049  27.481  1.00  0.00     0.064 A 
ATOM     96  C   UNL A   1      41.834  22.909  28.080  1.00  0.00     0.173 A 
ATOM     97  C   UNL A   1      40.211  23.866  26.588  1.00  0.00     0.173 A 
ATOM     98  F   UNL A   1      42.866  23.028  28.930  1.00  0.00    -0.203 F 
ATOM     99  C   UNL A   1      41.365  21.636  27.768  1.00  0.00     0.198 A 
ATOM    100  C   UNL A   1      39.720  22.594  26.307  1.00  0.00     0.198 A 
ATOM    101  F   UNL A   1      39.636  24.923  25.994  1.00  0.00    -0.203 F 
ATOM    102  F   UNL A   1      41.954  20.557  28.305  1.00  0.00    -0.200 F 
ATOM    103  C   UNL A   1      40.306  21.479  26.888  1.00  0.00     0.200 A 
ATOM    104  F   UNL A   1      38.684  22.447  25.470  1.00  0.00    -0.200 F 
ATOM    105  F   UNL A   1      39.854  20.254  26.591  1.00  0.00    -0.200 F 
ENDBRANCH  72  95
ENDBRANCH  46  47
ENDBRANCH  38  41
ENDBRANCH  36  37
ENDBRANCH  35  36
ENDBRANCH  34  35
ENDBRANCH   1  34
TORSDOF 17
ENDMDL
MODEL 3
REMARK VINA RESULT:     -12.7      5.948     12.106
REMARK SMILES CC(C)Oc1ccc(-c2ccc(/C(=C\c3ccc(S(C)(=O)=O)cc3)C(=O)NCCCCNC(=O)c3ccc(-c4c5nc(c(-c6c(F)c(F)c(F)c(F)c6F)c6ccc([nH]6)c(-c6c(F)c(F)c(F)c(F)c6F)c6nc(c(-c7c(F)c(F)c(F)c(F)c7F)c7ccc4[nH]7)C=C6)C=C5)cc3)cc2)cc1
REMARK SMILES IDX 28 1 27 2 25 3 26 4 13 6 14 7 12 8 9 9 10 10 99 11 11 12
REMARK SMILES IDX 98 13 8 14 5 15 6 16 101 17 7 18 100 19 4 20 2 21 1 22 3 23
REMARK SMILES IDX 15 24 16 25 24 26 17 27 23 28 18 29 19 30 20 31 21 32 22 33
REMARK SMILES IDX 29 34 30 35 31 36 32 37 33 38 34 40 35 41 36 42 97 43 37 44
REMARK SMILES IDX 96 45 38 46 39 47 40 48 90 49 41 50 95 51 89 52 91 53 42 54
REMARK SMILES IDX 94 55 88 56 87 57 43 59 75 60 55 61 74 62 56 63 59 64 73 65
REMARK SMILES IDX 92 66 57 67 58 68 72 70 93 71 60 72 44 73 45 74 53 75 46 76
REMARK SMILES IDX 47 77 51 78 54 79 48 80 49 81 52 82 50 83 76 84 77 85 85 86
REMARK SMILES IDX 78 87 79 88 83 89 86 90 80 91 81 92 84 93 82 94 61 95 62 96
REMARK SMILES IDX 70 97 63 98 64 99 68 100 71 101 65 102 66 103 69 104 67 105
REMARK H PARENT 27 5 32 39 91 58 59 69
REMARK Flexibility Score: inf
ROOT
ATOM      1  C   UNL A   1      49.939  26.852  33.202  1.00  0.00     0.116 C 
ENDROOT
BRANCH   1   2
ATOM      2  N   UNL A   1      50.637  26.813  31.935  1.00  0.00    -0.352 N 
ATOM      3  C   UNL A   1      50.311  27.117  30.650  1.00  0.00     0.251 C 
ATOM      4  O   UNL A   1      51.233  26.930  29.851  1.00  0.00    -0.269 OA
ATOM      5  H   UNL A   1      51.563  26.493  32.024  1.00  0.00     0.163 HD
BRANCH   3   6
ATOM      6  C   UNL A   1      48.971  27.699  30.204  1.00  0.00     0.047 C 
ATOM      7  C   UNL A   1      48.521  28.842  30.779  1.00  0.00     0.022 C 
BRANCH   6   8
ATOM      8  C   UNL A   1      48.090  26.901  29.272  1.00  0.00    -0.013 A 
ATOM      9  C   UNL A   1      46.800  25.059  27.471  1.00  0.00    -0.018 A 
ATOM     10  C   UNL A   1      46.552  25.037  28.849  1.00  0.00     0.009 A 
ATOM     11  C   UNL A   1      47.612  26.098  27.004  1.00  0.00     0.009 A 
ATOM     12  C   UNL A   1      47.139  25.974  29.718  1.00  0.00     0.009 A 
ATOM     13  C   UNL A   1      48.268  26.971  27.883  1.00  0.00     0.009 A 
BRANCH   9  14
ATOM     14  C   UNL A   1      46.269  24.020  26.556  1.00  0.00    -0.018 A 
ATOM     15  C   UNL A   1      45.301  22.023  24.784  1.00  0.00     0.119 A 
ATOM     16  C   UNL A   1      44.840  22.087  26.095  1.00  0.00     0.047 A 
ATOM     17  C   UNL A   1      46.216  22.966  24.340  1.00  0.00     0.047 A 
ATOM     18  C   UNL A   1      45.318  23.073  26.970  1.00  0.00     0.012 A 
ATOM     19  C   UNL A   1      46.710  23.933  25.221  1.00  0.00     0.012 A 
BRANCH  15  20
ATOM     20  O   UNL A   1      44.719  21.100  23.967  1.00  0.00    -0.491 OA
BRANCH  20  21
ATOM     21  C   UNL A   1      45.103  19.722  24.108  1.00  0.00     0.167 C 
ATOM     22  C   UNL A   1      46.524  19.539  24.633  1.00  0.00     0.052 C 
ATOM     23  C   UNL A   1      44.085  18.861  24.852  1.00  0.00     0.052 C 
ENDBRANCH  20  21
ENDBRANCH  15  20
ENDBRANCH   9  14
ENDBRANCH   6   8
BRANCH   7  24
ATOM     24  C   UNL A   1      47.359  29.673  30.426  1.00  0.00    -0.025 A 
ATOM     25  C   UNL A   1      47.475  30.529  29.318  1.00  0.00     0.009 A 
ATOM     26  C   UNL A   1      46.142  29.574  31.103  1.00  0.00     0.009 A 
ATOM     27  C   UNL A   1      46.365  31.230  28.847  1.00  0.00     0.021 A 
ATOM     28  C   UNL A   1      45.026  30.273  30.637  1.00  0.00     0.021 A 
ATOM     29  C   UNL A   1      45.141  31.088  29.505  1.00  0.00     0.067 A 
BRANCH  29  30
ATOM     30  S   UNL A   1      43.698  31.864  28.814  1.00  0.00     0.175 S 
ATOM     31  C   UNL A   1      43.779  33.527  29.420  1.00  0.00     0.163 C 
ATOM     32  O   UNL A   1      43.880  31.894  27.376  1.00  0.00    -0.224 OA
ATOM     33  O   UNL A   1      42.533  31.231  29.403  1.00  0.00    -0.224 OA
ENDBRANCH  29  30
ENDBRANCH   7  24
ENDBRANCH   3   6
ENDBRANCH   1   2
BRANCH   1  34
ATOM     34  C   UNL A   1      50.179  25.556  33.983  1.00  0.00     0.023 C 
BRANCH  34  35
ATOM     35  C   UNL A   1      49.362  24.360  33.486  1.00  0.00     0.023 C 
BRANCH  35  36
ATOM     36  C   UNL A   1      48.057  24.123  34.234  1.00  0.00     0.116 C 
BRANCH  36  37
ATOM     37  N   UNL A   1      48.151  24.425  35.654  1.00  0.00    -0.352 N 
ATOM     38  C   UNL A   1      47.418  25.321  36.389  1.00  0.00     0.251 C 
ATOM     39  H   UNL A   1      48.830  23.917  36.155  1.00  0.00     0.163 HD
ATOM     40  O   UNL A   1      47.702  25.546  37.560  1.00  0.00    -0.269 OA
BRANCH  38  41
ATOM     41  C   UNL A   1      46.305  26.040  35.740  1.00  0.00     0.039 A 
ATOM     42  C   UNL A   1      46.573  27.246  35.090  1.00  0.00     0.014 A 
ATOM     43  C   UNL A   1      45.011  25.512  35.752  1.00  0.00     0.014 A 
ATOM     44  C   UNL A   1      45.549  27.899  34.406  1.00  0.00     0.010 A 
ATOM     45  C   UNL A   1      44.013  26.119  35.002  1.00  0.00     0.010 A 
ATOM     46  C   UNL A   1      44.268  27.325  34.332  1.00  0.00    -0.014 A 
BRANCH  46  47
ATOM     47  C   UNL A   1      43.180  27.989  33.574  1.00  0.00     0.031 A 
ATOM     48  C   UNL A   1      42.988  27.687  32.114  1.00  0.00     0.074 A 
ATOM     49  C   UNL A   1      42.396  28.895  34.190  1.00  0.00     0.049 A 
ATOM     50  N   UNL A   1      42.113  28.181  31.274  1.00  0.00    -0.248 NA
ATOM     51  C   UNL A   1      43.919  26.722  31.509  1.00  0.00     0.031 C 
ATOM     52  C   UNL A   1      42.522  29.311  35.588  1.00  0.00     0.029 A 
ATOM     53  N   UNL A   1      41.339  29.631  33.718  1.00  0.00    -0.354 N 
ATOM     54  C   UNL A   1      42.396  27.594  30.047  1.00  0.00     0.074 A 
ATOM     55  C   UNL A   1      43.563  26.762  30.234  1.00  0.00     0.031 C 
ATOM     56  C   UNL A   1      41.558  30.202  35.870  1.00  0.00     0.029 A 
ATOM     57  C   UNL A   1      40.772  30.448  34.666  1.00  0.00     0.049 A 
ATOM     58  H   UNL A   1      41.016  29.578  32.790  1.00  0.00     0.167 HD
ATOM     59  C   UNL A   1      41.724  27.716  28.878  1.00  0.00     0.037 A 
ATOM     60  C   UNL A   1      39.732  31.298  34.570  1.00  0.00     0.037 A 
ATOM     61  C   UNL A   1      40.552  28.532  28.703  1.00  0.00     0.049 A 
ATOM     62  C   UNL A   1      39.005  31.418  33.257  1.00  0.00     0.074 A 
ATOM     63  C   UNL A   1      39.768  28.689  27.574  1.00  0.00     0.029 A 
ATOM     64  N   UNL A   1      39.995  29.334  29.690  1.00  0.00    -0.354 N 
ATOM     65  N   UNL A   1      39.236  30.802  32.121  1.00  0.00    -0.248 NA
ATOM     66  C   UNL A   1      37.864  32.341  33.217  1.00  0.00     0.031 C 
ATOM     67  C   UNL A   1      38.769  29.625  27.861  1.00  0.00     0.029 A 
ATOM     68  C   UNL A   1      38.890  30.003  29.188  1.00  0.00     0.049 A 
ATOM     69  H   UNL A   1      40.335  29.416  30.610  1.00  0.00     0.167 HD
ATOM     70  C   UNL A   1      38.250  31.235  31.246  1.00  0.00     0.074 A 
ATOM     71  C   UNL A   1      37.409  32.151  31.986  1.00  0.00     0.031 C 
ATOM     72  C   UNL A   1      38.057  30.903  29.945  1.00  0.00     0.037 A 
BRANCH  59  73
ATOM     73  C   UNL A   1      42.240  26.942  27.697  1.00  0.00     0.064 A 
ATOM     74  C   UNL A   1      41.730  25.677  27.364  1.00  0.00     0.173 A 
ATOM     75  C   UNL A   1      43.237  27.483  26.872  1.00  0.00     0.173 A 
ATOM     76  F   UNL A   1      40.785  25.108  28.128  1.00  0.00    -0.203 F 
ATOM     77  C   UNL A   1      42.220  24.970  26.270  1.00  0.00     0.198 A 
ATOM     78  C   UNL A   1      43.701  26.788  25.757  1.00  0.00     0.198 A 
ATOM     79  F   UNL A   1      43.758  28.689  27.140  1.00  0.00    -0.203 F 
ATOM     80  F   UNL A   1      41.757  23.741  26.006  1.00  0.00    -0.200 F 
ATOM     81  C   UNL A   1      43.199  25.529  25.463  1.00  0.00     0.200 A 
ATOM     82  F   UNL A   1      44.637  27.335  24.970  1.00  0.00    -0.200 F 
ATOM     83  F   UNL A   1      43.664  24.851  24.405  1.00  0.00    -0.200 F 
ENDBRANCH  59  73
BRANCH  60  84
ATOM     84  C   UNL A   1      39.292  32.077  35.757  1.00  0.00     0.064 A 
ATOM     85  C   UNL A   1      38.401  31.527  36.692  1.00  0.00     0.173 A 
ATOM     86  C   UNL A   1      39.738  33.388  35.978  1.00  0.00     0.173 A 
ATOM     87  F   UNL A   1      37.932  30.283  36.516  1.00  0.00    -0.203 F 
ATOM     88  C   UNL A   1      37.950  32.269  37.781  1.00  0.00     0.198 A 
ATOM     89  C   UNL A   1      39.311  34.118  37.085  1.00  0.00     0.198 A 
ATOM     90  F   UNL A   1      40.597  33.959  35.121  1.00  0.00    -0.203 F 
ATOM     91  F   UNL A   1      37.055  31.738  38.626  1.00  0.00    -0.200 F 
ATOM     92  C   UNL A   1      38.409  33.562  37.981  1.00  0.00     0.200 A 
ATOM     93  F   UNL A   1      39.770  35.361  37.284  1.00  0.00    -0.200 F 
ATOM     94  F   UNL A   1      37.976  34.274  39.028  1.00  0.00    -0.200 F 
ENDBRANCH  60  84
BRANCH  72  95
ATOM     95  C   UNL A   1      36.859  31.495  29.256  1.00  0.00     0.064 A 
ATOM     96  C   UNL A   1      36.801  32.851  28.901  1.00  0.00     0.173 A 
ATOM     97  C   UNL A   1      35.761  30.683  28.927  1.00  0.00     0.173 A 
ATOM     98  F   UNL A   1      37.817  33.672  29.204  1.00  0.00    -0.203 F 
ATOM     99  C   UNL A   1      35.673  33.379  28.279  1.00  0.00     0.198 A 
ATOM    100  C   UNL A   1      34.652  31.207  28.272  1.00  0.00     0.198 A 
ATOM    101  F   UNL A   1      35.770  29.377  29.235  1.00  0.00    -0.203 F 
ATOM    102  F   UNL A   1      35.613  34.691  28.007  1.00  0.00    -0.200 F 
ATOM    103  C   UNL A   1      34.603  32.558  27.959  1.00  0.00     0.200 A 
ATOM    104  F   UNL A   1      33.627  30.407  27.948  1.00  0.00    -0.200 F 
ATOM    105  F   UNL A   1      33.520  33.068  27.358  1.00  0.00    -0.200 F 
ENDBRANCH  72  95
ENDBRANCH  46  47
ENDBRANCH  38  41
ENDBRANCH  36  37
ENDBRANCH  35  36
ENDBRANCH  34  35
ENDBRANCH   1  34
TORSDOF 17
ENDMDL
