MODEL 1
REMARK VINA RESULT:     -12.1      0.000      0.000
REMARK SMILES CC(C)[N@@H+]1CC[C@@H]([N@@H+]2CC[C@@H](C(=O)NCCCCNC(=O)c3ccc(-c4c5nc(c(-c6c(F)c(F)c(F)c(F)c6F)c6ccc([nH]6)c(-c6c(F)c(F)c(F)c(F)c6F)c6nc(c(-c7c(F)c(F)c(F)c(F)c7F)c7ccc4[nH]7)C=C6)C=C5)cc3)[C@H]2C)C1
REMARK SMILES IDX 16 1 15 2 14 3 12 4 13 5 11 7 8 8 9 9 85 10 10 12 86 13 7 14
REMARK SMILES IDX 4 15 5 16 87 17 6 19 2 20 1 21 3 22 17 23 18 24 19 25 20 26
REMARK SMILES IDX 21 28 22 29 23 30 84 31 24 32 83 33 25 34 26 35 27 36 77 37
REMARK SMILES IDX 28 38 82 39 76 40 78 41 29 42 81 43 75 44 74 45 30 47 62 48
REMARK SMILES IDX 42 49 61 50 43 51 46 52 60 53 79 54 44 55 45 56 59 58 80 59
REMARK SMILES IDX 47 60 31 61 32 62 40 63 33 64 34 65 38 66 41 67 35 68 36 69
REMARK SMILES IDX 39 70 37 71 63 72 64 73 72 74 65 75 66 76 70 77 73 78 67 79
REMARK SMILES IDX 68 80 71 81 69 82 48 83 49 84 57 85 50 86 51 87 55 88 58 89
REMARK SMILES IDX 52 90 53 91 56 92 54 93
REMARK H PARENT 14 6 8 11 4 18 19 27 78 46 46 57
REMARK Flexibility Score: inf
ROOT
ATOM      1  C   UNL A   1      31.898  30.276  26.768  1.00  0.00     0.023 C 
ENDROOT
BRANCH   1   2
ATOM      2  C   UNL A   1      33.170  29.810  26.058  1.00  0.00     0.116 C 
BRANCH   2   3
ATOM      3  N   UNL A   1      33.005  29.810  24.616  1.00  0.00    -0.356 N 
ATOM      4  C   UNL A   1      33.036  28.774  23.731  1.00  0.00     0.229 C 
ATOM      5  O   UNL A   1      33.055  29.049  22.530  1.00  0.00    -0.275 OA
ATOM      6  H   UNL A   1      32.847  30.695  24.216  1.00  0.00     0.163 HD
BRANCH   4   7
ATOM      7  C   UNL A   1      33.028  27.347  24.242  1.00  0.00     0.142 C 
ATOM      8  N   UNL A   1      31.526  25.470  23.934  1.00  0.00    -0.325 N 
ATOM      9  C   UNL A   1      32.445  25.509  22.794  1.00  0.00     0.263 C 
ATOM     10  C   UNL A   1      31.630  26.791  24.594  1.00  0.00     0.194 C 
ATOM     11  H   UNL A   1      30.587  25.295  23.576  1.00  0.00     0.348 HD
ATOM     12  C   UNL A   1      33.607  26.386  23.207  1.00  0.00     0.081 C 
ATOM     13  C   UNL A   1      30.430  27.643  24.174  1.00  0.00     0.076 C 
BRANCH   8  14
ATOM     14  C   UNL A   1      31.634  24.326  24.860  1.00  0.00     0.245 C 
ATOM     15  N   UNL A   1      33.624  22.986  25.364  1.00  0.00    -0.328 N 
ATOM     16  C   UNL A   1      33.569  24.127  26.276  1.00  0.00     0.269 C 
ATOM     17  C   UNL A   1      32.534  23.154  24.381  1.00  0.00     0.328 C 
ATOM     18  H   UNL A   1      34.529  22.998  24.893  1.00  0.00     0.348 HD
ATOM     19  C   UNL A   1      32.130  24.593  26.278  1.00  0.00     0.132 C 
BRANCH  15  20
ATOM     20  C   UNL A   1      33.676  21.657  25.990  1.00  0.00     0.177 C 
ATOM     21  C   UNL A   1      34.567  20.718  25.163  1.00  0.00     0.075 C 
ATOM     22  C   UNL A   1      34.119  21.637  27.458  1.00  0.00     0.075 C 
ENDBRANCH  15  20
ENDBRANCH   8  14
ENDBRANCH   4   7
ENDBRANCH   2   3
ENDBRANCH   1   2
BRANCH   1  23
ATOM     23  C   UNL A   1      31.673  31.792  26.755  1.00  0.00     0.023 C 
BRANCH  23  24
ATOM     24  C   UNL A   1      32.843  32.633  27.256  1.00  0.00     0.116 C 
BRANCH  24  25
ATOM     25  N   UNL A   1      32.463  33.992  27.607  1.00  0.00    -0.352 N 
ATOM     26  C   UNL A   1      33.009  34.814  28.563  1.00  0.00     0.251 C 
ATOM     27  H   UNL A   1      31.716  34.373  27.091  1.00  0.00     0.163 HD
ATOM     28  O   UNL A   1      32.502  35.902  28.812  1.00  0.00    -0.269 OA
BRANCH  26  29
ATOM     29  C   UNL A   1      34.194  34.358  29.322  1.00  0.00     0.039 A 
ATOM     30  C   UNL A   1      34.002  33.670  30.522  1.00  0.00     0.014 A 
ATOM     31  C   UNL A   1      35.484  34.581  28.834  1.00  0.00     0.014 A 
ATOM     32  C   UNL A   1      35.102  33.142  31.199  1.00  0.00     0.010 A 
ATOM     33  C   UNL A   1      36.573  33.996  29.473  1.00  0.00     0.010 A 
ATOM     34  C   UNL A   1      36.393  33.269  30.660  1.00  0.00    -0.014 A 
BRANCH  34  35
ATOM     35  C   UNL A   1      37.570  32.649  31.320  1.00  0.00     0.031 A 
ATOM     36  C   UNL A   1      38.296  31.516  30.652  1.00  0.00     0.074 A 
ATOM     37  C   UNL A   1      37.940  33.057  32.550  1.00  0.00     0.049 A 
ATOM     38  N   UNL A   1      39.277  30.777  31.104  1.00  0.00    -0.248 NA
ATOM     39  C   UNL A   1      37.838  31.146  29.303  1.00  0.00     0.031 C 
ATOM     40  C   UNL A   1      37.294  34.121  33.319  1.00  0.00     0.029 A 
ATOM     41  N   UNL A   1      38.943  32.613  33.376  1.00  0.00    -0.354 N 
ATOM     42  C   UNL A   1      39.545  29.852  30.104  1.00  0.00     0.074 A 
ATOM     43  C   UNL A   1      38.589  30.085  29.045  1.00  0.00     0.031 C 
ATOM     44  C   UNL A   1      37.924  34.259  34.496  1.00  0.00     0.029 A 
ATOM     45  C   UNL A   1      38.993  33.268  34.583  1.00  0.00     0.049 A 
ATOM     46  H   UNL A   1      39.568  31.894  33.127  1.00  0.00     0.167 HD
ATOM     47  C   UNL A   1      40.518  28.911  30.063  1.00  0.00     0.037 A 
ATOM     48  C   UNL A   1      39.801  33.080  35.644  1.00  0.00     0.037 A 
ATOM     49  C   UNL A   1      41.481  28.694  31.110  1.00  0.00     0.049 A 
ATOM     50  C   UNL A   1      40.860  32.010  35.580  1.00  0.00     0.074 A 
ATOM     51  C   UNL A   1      42.529  27.792  31.145  1.00  0.00     0.029 A 
ATOM     52  N   UNL A   1      41.511  29.390  32.309  1.00  0.00    -0.354 N 
ATOM     53  N   UNL A   1      41.140  31.179  34.606  1.00  0.00    -0.248 NA
ATOM     54  C   UNL A   1      41.716  31.856  36.764  1.00  0.00     0.031 C 
ATOM     55  C   UNL A   1      43.170  27.914  32.382  1.00  0.00     0.029 A 
ATOM     56  C   UNL A   1      42.551  28.927  33.098  1.00  0.00     0.049 A 
ATOM     57  H   UNL A   1      40.885  30.107  32.562  1.00  0.00     0.167 HD
ATOM     58  C   UNL A   1      42.223  30.430  35.043  1.00  0.00     0.074 A 
ATOM     59  C   UNL A   1      42.557  30.911  36.367  1.00  0.00     0.031 C 
ATOM     60  C   UNL A   1      42.882  29.431  34.406  1.00  0.00     0.037 A 
BRANCH  47  61
ATOM     61  C   UNL A   1      40.594  28.049  28.836  1.00  0.00     0.064 A 
ATOM     62  C   UNL A   1      39.877  26.847  28.739  1.00  0.00     0.173 A 
ATOM     63  C   UNL A   1      41.363  28.444  27.730  1.00  0.00     0.173 A 
ATOM     64  F   UNL A   1      39.136  26.418  29.772  1.00  0.00    -0.203 F 
ATOM     65  C   UNL A   1      39.950  26.058  27.594  1.00  0.00     0.198 A 
ATOM     66  C   UNL A   1      41.409  27.668  26.575  1.00  0.00     0.198 A 
ATOM     67  F   UNL A   1      42.064  29.587  27.768  1.00  0.00    -0.203 F 
ATOM     68  F   UNL A   1      39.295  24.889  27.545  1.00  0.00    -0.200 F 
ATOM     69  C   UNL A   1      40.709  26.473  26.510  1.00  0.00     0.200 A 
ATOM     70  F   UNL A   1      42.133  28.076  25.524  1.00  0.00    -0.200 F 
ATOM     71  F   UNL A   1      40.772  25.716  25.406  1.00  0.00    -0.200 F 
ENDBRANCH  47  61
BRANCH  48  72
ATOM     72  C   UNL A   1      39.659  33.933  36.853  1.00  0.00     0.064 A 
ATOM     73  C   UNL A   1      38.860  33.523  37.930  1.00  0.00     0.173 A 
ATOM     74  C   UNL A   1      40.296  35.178  36.949  1.00  0.00     0.173 A 
ATOM     75  F   UNL A   1      38.213  32.350  37.875  1.00  0.00    -0.203 F 
ATOM     76  C   UNL A   1      38.684  34.338  39.046  1.00  0.00     0.198 A 
ATOM     77  C   UNL A   1      40.144  35.978  38.079  1.00  0.00     0.198 A 
ATOM     78  F   UNL A   1      41.075  35.614  35.948  1.00  0.00    -0.203 F 
ATOM     79  F   UNL A   1      37.874  33.945  40.039  1.00  0.00    -0.200 F 
ATOM     80  C   UNL A   1      39.330  35.563  39.123  1.00  0.00     0.200 A 
ATOM     81  F   UNL A   1      40.780  37.156  38.155  1.00  0.00    -0.200 F 
ATOM     82  F   UNL A   1      39.160  36.346  40.197  1.00  0.00    -0.200 F 
ENDBRANCH  48  72
BRANCH  60  83
ATOM     83  C   UNL A   1      44.061  28.824  35.109  1.00  0.00     0.064 A 
ATOM     84  C   UNL A   1      45.361  29.314  34.925  1.00  0.00     0.173 A 
ATOM     85  C   UNL A   1      43.877  27.768  36.015  1.00  0.00     0.173 A 
ATOM     86  F   UNL A   1      45.591  30.312  34.057  1.00  0.00    -0.203 F 
ATOM     87  C   UNL A   1      46.440  28.754  35.606  1.00  0.00     0.198 A 
ATOM     88  C   UNL A   1      44.952  27.231  36.716  1.00  0.00     0.198 A 
ATOM     89  F   UNL A   1      42.651  27.268  36.232  1.00  0.00    -0.203 F 
ATOM     90  F   UNL A   1      47.680  29.208  35.382  1.00  0.00    -0.200 F 
ATOM     91  C   UNL A   1      46.233  27.719  36.506  1.00  0.00     0.200 A 
ATOM     92  F   UNL A   1      44.750  26.241  37.596  1.00  0.00    -0.200 F 
ATOM     93  F   UNL A   1      47.271  27.188  37.168  1.00  0.00    -0.200 F 
ENDBRANCH  60  83
ENDBRANCH  34  35
ENDBRANCH  26  29
ENDBRANCH  24  25
ENDBRANCH  23  24
ENDBRANCH   1  23
TORSDOF 13
ENDMDL
MODEL 2
REMARK VINA RESULT:     -12.0      0.945      2.212
REMARK SMILES CC(C)[N@@H+]1CC[C@@H]([N@@H+]2CC[C@@H](C(=O)NCCCCNC(=O)c3ccc(-c4c5nc(c(-c6c(F)c(F)c(F)c(F)c6F)c6ccc([nH]6)c(-c6c(F)c(F)c(F)c(F)c6F)c6nc(c(-c7c(F)c(F)c(F)c(F)c7F)c7ccc4[nH]7)C=C6)C=C5)cc3)[C@H]2C)C1
REMARK SMILES IDX 16 1 15 2 14 3 12 4 13 5 11 7 8 8 9 9 85 10 10 12 86 13 7 14
REMARK SMILES IDX 4 15 5 16 87 17 6 19 2 20 1 21 3 22 17 23 18 24 19 25 20 26
REMARK SMILES IDX 21 28 22 29 23 30 84 31 24 32 83 33 25 34 26 35 27 36 77 37
REMARK SMILES IDX 28 38 82 39 76 40 78 41 29 42 81 43 75 44 74 45 30 47 62 48
REMARK SMILES IDX 42 49 61 50 43 51 46 52 60 53 79 54 44 55 45 56 59 58 80 59
REMARK SMILES IDX 47 60 31 61 32 62 40 63 33 64 34 65 38 66 41 67 35 68 36 69
REMARK SMILES IDX 39 70 37 71 63 72 64 73 72 74 65 75 66 76 70 77 73 78 67 79
REMARK SMILES IDX 68 80 71 81 69 82 48 83 49 84 57 85 50 86 51 87 55 88 58 89
REMARK SMILES IDX 52 90 53 91 56 92 54 93
REMARK H PARENT 14 6 8 11 4 18 19 27 78 46 46 57
REMARK Flexibility Score: inf
ROOT
ATOM      1  C   UNL A   1      31.047  31.460  25.745  1.00  0.00     0.023 C 
ENDROOT
BRANCH   1   2
ATOM      2  C   UNL A   1      31.408  30.079  25.195  1.00  0.00     0.116 C 
BRANCH   2   3
ATOM      3  N   UNL A   1      30.687  29.788  23.970  1.00  0.00    -0.356 N 
ATOM      4  C   UNL A   1      30.840  28.764  23.084  1.00  0.00     0.229 C 
ATOM      5  O   UNL A   1      30.230  28.836  22.017  1.00  0.00    -0.275 OA
ATOM      6  H   UNL A   1      29.977  30.432  23.743  1.00  0.00     0.163 HD
BRANCH   4   7
ATOM      7  C   UNL A   1      31.725  27.586  23.442  1.00  0.00     0.142 C 
ATOM      8  N   UNL A   1      31.420  25.184  23.369  1.00  0.00    -0.325 N 
ATOM      9  C   UNL A   1      31.825  25.632  22.035  1.00  0.00     0.263 C 
ATOM     10  C   UNL A   1      30.989  26.397  24.099  1.00  0.00     0.194 C 
ATOM     11  H   UNL A   1      30.658  24.514  23.258  1.00  0.00     0.348 HD
ATOM     12  C   UNL A   1      32.412  27.016  22.205  1.00  0.00     0.081 C 
ATOM     13  C   UNL A   1      29.460  26.454  24.095  1.00  0.00     0.076 C 
BRANCH   8  14
ATOM     14  C   UNL A   1      32.363  24.333  24.120  1.00  0.00     0.245 C 
ATOM     15  N   UNL A   1      34.813  24.400  24.068  1.00  0.00    -0.328 N 
ATOM     16  C   UNL A   1      34.329  25.320  25.095  1.00  0.00     0.269 C 
ATOM     17  C   UNL A   1      33.631  23.885  23.345  1.00  0.00     0.328 C 
ATOM     18  H   UNL A   1      35.417  24.922  23.432  1.00  0.00     0.348 HD
ATOM     19  C   UNL A   1      32.925  24.869  25.433  1.00  0.00     0.132 C 
BRANCH  15  20
ATOM     20  C   UNL A   1      35.749  23.360  24.518  1.00  0.00     0.177 C 
ATOM     21  C   UNL A   1      36.583  22.850  23.332  1.00  0.00     0.075 C 
ATOM     22  C   UNL A   1      36.675  23.760  25.672  1.00  0.00     0.075 C 
ENDBRANCH  15  20
ENDBRANCH   8  14
ENDBRANCH   4   7
ENDBRANCH   2   3
ENDBRANCH   1   2
BRANCH   1  23
ATOM     23  C   UNL A   1      31.610  31.764  27.138  1.00  0.00     0.023 C 
BRANCH  23  24
ATOM     24  C   UNL A   1      32.792  32.727  27.172  1.00  0.00     0.116 C 
BRANCH  24  25
ATOM     25  N   UNL A   1      32.415  34.083  27.537  1.00  0.00    -0.352 N 
ATOM     26  C   UNL A   1      32.961  34.892  28.506  1.00  0.00     0.251 C 
ATOM     27  H   UNL A   1      31.672  34.474  27.023  1.00  0.00     0.163 HD
ATOM     28  O   UNL A   1      32.456  35.979  28.766  1.00  0.00    -0.269 OA
BRANCH  26  29
ATOM     29  C   UNL A   1      34.141  34.423  29.263  1.00  0.00     0.039 A 
ATOM     30  C   UNL A   1      33.942  33.734  30.462  1.00  0.00     0.014 A 
ATOM     31  C   UNL A   1      35.434  34.634  28.776  1.00  0.00     0.014 A 
ATOM     32  C   UNL A   1      35.037  33.194  31.138  1.00  0.00     0.010 A 
ATOM     33  C   UNL A   1      36.516  34.038  29.414  1.00  0.00     0.010 A 
ATOM     34  C   UNL A   1      36.330  33.309  30.599  1.00  0.00    -0.014 A 
BRANCH  34  35
ATOM     35  C   UNL A   1      37.500  32.676  31.258  1.00  0.00     0.031 A 
ATOM     36  C   UNL A   1      38.210  31.533  30.590  1.00  0.00     0.074 A 
ATOM     37  C   UNL A   1      37.879  33.083  32.485  1.00  0.00     0.049 A 
ATOM     38  N   UNL A   1      39.183  30.783  31.041  1.00  0.00    -0.248 NA
ATOM     39  C   UNL A   1      37.745  31.165  29.243  1.00  0.00     0.031 C 
ATOM     40  C   UNL A   1      37.247  34.156  33.254  1.00  0.00     0.029 A 
ATOM     41  N   UNL A   1      38.877  32.628  33.311  1.00  0.00    -0.354 N 
ATOM     42  C   UNL A   1      39.437  29.853  30.043  1.00  0.00     0.074 A 
ATOM     43  C   UNL A   1      38.481  30.095  28.986  1.00  0.00     0.031 C 
ATOM     44  C   UNL A   1      37.882  34.289  34.429  1.00  0.00     0.029 A 
ATOM     45  C   UNL A   1      38.939  33.286  34.515  1.00  0.00     0.049 A 
ATOM     46  H   UNL A   1      39.493  31.901  33.061  1.00  0.00     0.167 HD
ATOM     47  C   UNL A   1      40.399  28.899  30.002  1.00  0.00     0.037 A 
ATOM     48  C   UNL A   1      39.747  33.090  35.575  1.00  0.00     0.037 A 
ATOM     49  C   UNL A   1      41.361  28.673  31.047  1.00  0.00     0.049 A 
ATOM     50  C   UNL A   1      40.792  32.007  35.511  1.00  0.00     0.074 A 
ATOM     51  C   UNL A   1      42.398  27.758  31.082  1.00  0.00     0.029 A 
ATOM     52  N   UNL A   1      41.403  29.371  32.245  1.00  0.00    -0.354 N 
ATOM     53  N   UNL A   1      41.060  31.171  34.538  1.00  0.00    -0.248 NA
ATOM     54  C   UNL A   1      41.650  31.845  36.693  1.00  0.00     0.031 C 
ATOM     55  C   UNL A   1      43.044  27.875  32.317  1.00  0.00     0.029 A 
ATOM     56  C   UNL A   1      42.440  28.897  33.032  1.00  0.00     0.049 A 
ATOM     57  H   UNL A   1      40.787  30.097  32.498  1.00  0.00     0.167 HD
ATOM     58  C   UNL A   1      42.135  30.409  34.975  1.00  0.00     0.074 A 
ATOM     59  C   UNL A   1      42.478  30.889  36.296  1.00  0.00     0.031 C 
ATOM     60  C   UNL A   1      42.780  29.400  34.338  1.00  0.00     0.037 A 
BRANCH  47  61
ATOM     61  C   UNL A   1      40.461  28.033  28.777  1.00  0.00     0.064 A 
ATOM     62  C   UNL A   1      41.223  28.401  27.658  1.00  0.00     0.173 A 
ATOM     63  C   UNL A   1      39.782  26.806  28.733  1.00  0.00     0.173 A 
ATOM     64  F   UNL A   1      41.882  29.569  27.644  1.00  0.00    -0.203 F 
ATOM     65  C   UNL A   1      41.279  27.587  26.529  1.00  0.00     0.198 A 
ATOM     66  C   UNL A   1      39.865  25.981  27.614  1.00  0.00     0.198 A 
ATOM     67  F   UNL A   1      39.043  26.404  29.778  1.00  0.00    -0.203 F 
ATOM     68  F   UNL A   1      41.973  27.984  25.453  1.00  0.00    -0.200 F 
ATOM     69  C   UNL A   1      40.606  26.375  26.512  1.00  0.00     0.200 A 
ATOM     70  F   UNL A   1      39.225  24.804  27.604  1.00  0.00    -0.200 F 
ATOM     71  F   UNL A   1      40.667  25.590  25.427  1.00  0.00    -0.200 F 
ENDBRANCH  47  61
BRANCH  48  72
ATOM     72  C   UNL A   1      39.618  33.948  36.782  1.00  0.00     0.064 A 
ATOM     73  C   UNL A   1      40.315  35.161  36.878  1.00  0.00     0.173 A 
ATOM     74  C   UNL A   1      38.817  33.567  37.868  1.00  0.00     0.173 A 
ATOM     75  F   UNL A   1      41.111  35.557  35.874  1.00  0.00    -0.203 F 
ATOM     76  C   UNL A   1      40.235  35.948  38.025  1.00  0.00     0.198 A 
ATOM     77  C   UNL A   1      38.714  34.370  39.002  1.00  0.00     0.198 A 
ATOM     78  F   UNL A   1      38.127  32.418  37.824  1.00  0.00    -0.203 F 
ATOM     79  F   UNL A   1      40.952  37.077  38.111  1.00  0.00    -0.200 F 
ATOM     80  C   UNL A   1      39.431  35.555  39.084  1.00  0.00     0.200 A 
ATOM     81  F   UNL A   1      37.926  33.993  40.018  1.00  0.00    -0.200 F 
ATOM     82  F   UNL A   1      39.355  36.312  40.187  1.00  0.00    -0.200 F 
ENDBRANCH  48  72
BRANCH  60  83
ATOM     83  C   UNL A   1      43.953  28.781  35.040  1.00  0.00     0.064 A 
ATOM     84  C   UNL A   1      43.807  27.666  35.877  1.00  0.00     0.173 A 
ATOM     85  C   UNL A   1      45.247  29.283  34.831  1.00  0.00     0.173 A 
ATOM     86  F   UNL A   1      42.589  27.159  36.121  1.00  0.00    -0.203 F 
ATOM     87  C   UNL A   1      44.912  27.090  36.499  1.00  0.00     0.198 A 
ATOM     88  C   UNL A   1      46.352  28.687  35.430  1.00  0.00     0.198 A 
ATOM     89  F   UNL A   1      45.441  30.344  34.032  1.00  0.00    -0.203 F 
ATOM     90  F   UNL A   1      44.745  26.053  37.332  1.00  0.00    -0.200 F 
ATOM     91  C   UNL A   1      46.183  27.596  36.269  1.00  0.00     0.200 A 
ATOM     92  F   UNL A   1      47.581  29.167  35.196  1.00  0.00    -0.200 F 
ATOM     93  F   UNL A   1      47.246  27.034  36.861  1.00  0.00    -0.200 F 
ENDBRANCH  60  83
ENDBRANCH  34  35
ENDBRANCH  26  29
ENDBRANCH  24  25
ENDBRANCH  23  24
ENDBRANCH   1  23
TORSDOF 13
ENDMDL
MODEL 3
REMARK VINA RESULT:     -12.0      5.747     11.226
REMARK SMILES CC(C)[N@@H+]1CC[C@@H]([N@@H+]2CC[C@@H](C(=O)NCCCCNC(=O)c3ccc(-c4c5nc(c(-c6c(F)c(F)c(F)c(F)c6F)c6ccc([nH]6)c(-c6c(F)c(F)c(F)c(F)c6F)c6nc(c(-c7c(F)c(F)c(F)c(F)c7F)c7ccc4[nH]7)C=C6)C=C5)cc3)[C@H]2C)C1
REMARK SMILES IDX 16 1 15 2 14 3 12 4 13 5 11 7 8 8 9 9 85 10 10 12 86 13 7 14
REMARK SMILES IDX 4 15 5 16 87 17 6 19 2 20 1 21 3 22 17 23 18 24 19 25 20 26
REMARK SMILES IDX 21 28 22 29 23 30 84 31 24 32 83 33 25 34 26 35 27 36 77 37
REMARK SMILES IDX 28 38 82 39 76 40 78 41 29 42 81 43 75 44 74 45 30 47 62 48
REMARK SMILES IDX 42 49 61 50 43 51 46 52 60 53 79 54 44 55 45 56 59 58 80 59
REMARK SMILES IDX 47 60 31 61 32 62 40 63 33 64 34 65 38 66 41 67 35 68 36 69
REMARK SMILES IDX 39 70 37 71 63 72 64 73 72 74 65 75 66 76 70 77 73 78 67 79
REMARK SMILES IDX 68 80 71 81 69 82 48 83 49 84 57 85 50 86 51 87 55 88 58 89
REMARK SMILES IDX 52 90 53 91 56 92 54 93
REMARK H PARENT 14 6 8 11 4 18 19 27 78 46 46 57
REMARK Flexibility Score: inf
ROOT
ATOM      1  C   UNL A   1      37.075  21.147  24.557  1.00  0.00     0.023 C 
ENDROOT
BRANCH   1   2
ATOM      2  C   UNL A   1      36.630  22.074  25.690  1.00  0.00     0.116 C 
BRANCH   2   3
ATOM      3  N   UNL A   1      35.594  21.464  26.501  1.00  0.00    -0.356 N 
ATOM      4  C   UNL A   1      34.290  21.822  26.673  1.00  0.00     0.229 C 
ATOM      5  O   UNL A   1      33.654  21.254  27.562  1.00  0.00    -0.275 OA
ATOM      6  H   UNL A   1      35.876  20.667  27.006  1.00  0.00     0.163 HD
BRANCH   4   7
ATOM      7  C   UNL A   1      33.674  22.874  25.772  1.00  0.00     0.142 C 
ATOM      8  N   UNL A   1      31.786  22.875  24.252  1.00  0.00    -0.325 N 
ATOM      9  C   UNL A   1      31.282  23.124  25.604  1.00  0.00     0.263 C 
ATOM     10  C   UNL A   1      33.159  22.345  24.414  1.00  0.00     0.194 C 
ATOM     11  H   UNL A   1      31.167  22.200  23.805  1.00  0.00     0.348 HD
ATOM     12  C   UNL A   1      32.474  23.539  26.439  1.00  0.00     0.081 C 
ATOM     13  C   UNL A   1      33.120  20.825  24.244  1.00  0.00     0.076 C 
BRANCH   8  14
ATOM     14  C   UNL A   1      31.677  23.971  23.270  1.00  0.00     0.245 C 
ATOM     15  N   UNL A   1      31.541  26.378  23.714  1.00  0.00    -0.328 N 
ATOM     16  C   UNL A   1      32.945  25.989  23.600  1.00  0.00     0.269 C 
ATOM     17  C   UNL A   1      30.736  25.140  23.665  1.00  0.00     0.328 C 
ATOM     18  H   UNL A   1      31.412  26.848  24.611  1.00  0.00     0.348 HD
ATOM     19  C   UNL A   1      32.958  24.681  22.840  1.00  0.00     0.132 C 
BRANCH  15  20
ATOM     20  C   UNL A   1      31.085  27.434  22.800  1.00  0.00     0.177 C 
ATOM     21  C   UNL A   1      29.635  27.826  23.127  1.00  0.00     0.075 C 
ATOM     22  C   UNL A   1      31.964  28.690  22.751  1.00  0.00     0.075 C 
ENDBRANCH  15  20
ENDBRANCH   8  14
ENDBRANCH   4   7
ENDBRANCH   2   3
ENDBRANCH   1   2
BRANCH   1  23
ATOM     23  C   UNL A   1      37.925  19.951  25.001  1.00  0.00     0.023 C 
BRANCH  23  24
ATOM     24  C   UNL A   1      39.179  20.298  25.797  1.00  0.00     0.116 C 
BRANCH  24  25
ATOM     25  N   UNL A   1      40.124  19.197  25.886  1.00  0.00    -0.352 N 
ATOM     26  C   UNL A   1      41.476  19.246  26.126  1.00  0.00     0.251 C 
ATOM     27  H   UNL A   1      39.745  18.297  25.757  1.00  0.00     0.163 HD
ATOM     28  O   UNL A   1      42.157  18.228  26.063  1.00  0.00    -0.269 OA
BRANCH  26  29
ATOM     29  C   UNL A   1      42.115  20.546  26.422  1.00  0.00     0.039 A 
ATOM     30  C   UNL A   1      42.575  21.328  25.360  1.00  0.00     0.014 A 
ATOM     31  C   UNL A   1      42.228  21.004  27.738  1.00  0.00     0.014 A 
ATOM     32  C   UNL A   1      43.085  22.603  25.611  1.00  0.00     0.010 A 
ATOM     33  C   UNL A   1      42.674  22.299  27.980  1.00  0.00     0.010 A 
ATOM     34  C   UNL A   1      43.104  23.113  26.920  1.00  0.00    -0.014 A 
BRANCH  34  35
ATOM     35  C   UNL A   1      43.569  24.494  27.204  1.00  0.00     0.031 A 
ATOM     36  C   UNL A   1      42.604  25.517  27.734  1.00  0.00     0.074 A 
ATOM     37  C   UNL A   1      44.838  24.846  26.919  1.00  0.00     0.049 A 
ATOM     38  N   UNL A   1      42.785  26.795  27.950  1.00  0.00    -0.248 NA
ATOM     39  C   UNL A   1      41.243  25.045  28.036  1.00  0.00     0.031 C 
ATOM     40  C   UNL A   1      45.859  23.955  26.366  1.00  0.00     0.029 A 
ATOM     41  N   UNL A   1      45.481  26.053  27.039  1.00  0.00    -0.354 N 
ATOM     42  C   UNL A   1      41.565  27.279  28.400  1.00  0.00     0.074 A 
ATOM     43  C   UNL A   1      40.635  26.172  28.375  1.00  0.00     0.031 C 
ATOM     44  C   UNL A   1      47.003  24.640  26.211  1.00  0.00     0.029 A 
ATOM     45  C   UNL A   1      46.787  26.026  26.614  1.00  0.00     0.049 A 
ATOM     46  H   UNL A   1      45.047  26.861  27.398  1.00  0.00     0.167 HD
ATOM     47  C   UNL A   1      41.255  28.529  28.822  1.00  0.00     0.037 A 
ATOM     48  C   UNL A   1      47.701  27.013  26.544  1.00  0.00     0.037 A 
ATOM     49  C   UNL A   1      42.187  29.624  28.865  1.00  0.00     0.049 A 
ATOM     50  C   UNL A   1      47.323  28.398  26.998  1.00  0.00     0.074 A 
ATOM     51  C   UNL A   1      41.980  30.917  29.313  1.00  0.00     0.029 A 
ATOM     52  N   UNL A   1      43.506  29.553  28.443  1.00  0.00    -0.354 N 
ATOM     53  N   UNL A   1      46.181  28.830  27.475  1.00  0.00    -0.248 NA
ATOM     54  C   UNL A   1      48.363  29.432  26.906  1.00  0.00     0.031 C 
ATOM     55  C   UNL A   1      43.162  31.639  29.125  1.00  0.00     0.029 A 
ATOM     56  C   UNL A   1      44.121  30.784  28.607  1.00  0.00     0.049 A 
ATOM     57  H   UNL A   1      43.941  28.747  28.082  1.00  0.00     0.167 HD
ATOM     58  C   UNL A   1      46.375  30.173  27.772  1.00  0.00     0.074 A 
ATOM     59  C   UNL A   1      47.747  30.482  27.431  1.00  0.00     0.031 C 
ATOM     60  C   UNL A   1      45.494  31.070  28.280  1.00  0.00     0.037 A 
BRANCH  47  61
ATOM     61  C   UNL A   1      39.846  28.774  29.281  1.00  0.00     0.064 A 
ATOM     62  C   UNL A   1      38.854  29.217  28.395  1.00  0.00     0.173 A 
ATOM     63  C   UNL A   1      39.475  28.529  30.612  1.00  0.00     0.173 A 
ATOM     64  F   UNL A   1      39.159  29.476  27.114  1.00  0.00    -0.203 F 
ATOM     65  C   UNL A   1      37.549  29.435  28.830  1.00  0.00     0.198 A 
ATOM     66  C   UNL A   1      38.163  28.719  31.036  1.00  0.00     0.198 A 
ATOM     67  F   UNL A   1      40.384  28.099  31.500  1.00  0.00    -0.203 F 
ATOM     68  F   UNL A   1      36.630  29.906  27.975  1.00  0.00    -0.200 F 
ATOM     69  C   UNL A   1      37.203  29.178  30.148  1.00  0.00     0.200 A 
ATOM     70  F   UNL A   1      37.826  28.459  32.307  1.00  0.00    -0.200 F 
ATOM     71  F   UNL A   1      35.945  29.382  30.563  1.00  0.00    -0.200 F 
ENDBRANCH  47  61
BRANCH  48  72
ATOM     72  C   UNL A   1      49.072  26.728  26.043  1.00  0.00     0.064 A 
ATOM     73  C   UNL A   1      50.060  26.229  26.903  1.00  0.00     0.173 A 
ATOM     74  C   UNL A   1      49.426  26.965  24.708  1.00  0.00     0.173 A 
ATOM     75  F   UNL A   1      49.775  26.007  28.194  1.00  0.00    -0.203 F 
ATOM     76  C   UNL A   1      51.359  26.003  26.451  1.00  0.00     0.198 A 
ATOM     77  C   UNL A   1      50.717  26.710  24.250  1.00  0.00     0.198 A 
ATOM     78  F   UNL A   1      48.516  27.437  23.843  1.00  0.00    -0.203 F 
ATOM     79  F   UNL A   1      52.299  25.576  27.307  1.00  0.00    -0.200 F 
ATOM     80  C   UNL A   1      51.686  26.239  25.124  1.00  0.00     0.200 A 
ATOM     81  F   UNL A   1      51.026  26.927  22.964  1.00  0.00    -0.200 F 
ATOM     82  F   UNL A   1      52.935  26.022  24.691  1.00  0.00    -0.200 F 
ENDBRANCH  48  72
BRANCH  60  83
ATOM     83  C   UNL A   1      46.000  32.457  28.546  1.00  0.00     0.064 A 
ATOM     84  C   UNL A   1      46.603  32.802  29.764  1.00  0.00     0.173 A 
ATOM     85  C   UNL A   1      45.921  33.441  27.548  1.00  0.00     0.173 A 
ATOM     86  F   UNL A   1      46.687  31.901  30.755  1.00  0.00    -0.203 F 
ATOM     87  C   UNL A   1      47.088  34.089  29.982  1.00  0.00     0.198 A 
ATOM     88  C   UNL A   1      46.435  34.718  27.759  1.00  0.00     0.198 A 
ATOM     89  F   UNL A   1      45.360  33.160  26.363  1.00  0.00    -0.203 F 
ATOM     90  F   UNL A   1      47.621  34.409  31.170  1.00  0.00    -0.200 F 
ATOM     91  C   UNL A   1      47.011  35.042  28.978  1.00  0.00     0.200 A 
ATOM     92  F   UNL A   1      46.372  35.633  26.783  1.00  0.00    -0.200 F 
ATOM     93  F   UNL A   1      47.488  36.277  29.186  1.00  0.00    -0.200 F 
ENDBRANCH  60  83
ENDBRANCH  34  35
ENDBRANCH  26  29
ENDBRANCH  24  25
ENDBRANCH  23  24
ENDBRANCH   1  23
TORSDOF 13
ENDMDL
