MODEL 1
REMARK VINA RESULT:     -14.0      0.000      0.000
REMARK SMILES COc1ccc(-n2c(=O)[nH]c3cc(C(=O)NCCCCNC(=O)c4ccc(-c5c6nc(c(-c7c(F)c(F)c(F)c(F)c7F)c7ccc([nH]7)c(-c7c(F)c(F)c(F)c(F)c7F)c7nc(c(-c8c(F)c(F)c(F)c(F)c8F)c8ccc5[nH]8)C=C7)C=C6)cc4)ccc3c2=O)cc1
REMARK SMILES IDX 18 1 17 2 16 3 14 4 15 5 13 7 7 8 8 9 90 10 9 11 10 12 89 13
REMARK SMILES IDX 91 14 11 15 88 17 12 18 87 19 6 20 3 21 4 22 93 23 5 24
REMARK SMILES IDX 92 25 2 26 1 27 19 28 20 29 21 30 22 31 23 33 24 34 25 35
REMARK SMILES IDX 86 36 26 37 85 38 27 39 28 40 29 41 79 42 30 43 84 44 78 45
REMARK SMILES IDX 80 46 31 47 83 48 77 49 76 50 32 52 64 53 44 54 63 55 45 56
REMARK SMILES IDX 48 57 62 58 81 59 46 60 47 61 61 63 82 64 49 65 33 66 34 67
REMARK SMILES IDX 42 68 35 69 36 70 40 71 43 72 37 73 38 74 41 75 39 76 65 77
REMARK SMILES IDX 66 78 74 79 67 80 68 81 72 82 75 83 69 84 70 85 73 86 71 87
REMARK SMILES IDX 50 88 51 89 59 90 52 91 53 92 57 93 60 94 54 95 55 96 58 97
REMARK SMILES IDX 56 98
REMARK H PARENT 16 6 10 16 21 32 80 51 48 62
REMARK Flexibility Score: inf
ROOT
ATOM      1  C   UNL A   1      31.773  30.395  26.652  1.00  0.00     0.023 C 
ENDROOT
BRANCH   1   2
ATOM      2  C   UNL A   1      32.023  29.747  25.294  1.00  0.00     0.116 C 
BRANCH   2   3
ATOM      3  N   UNL A   1      30.903  29.871  24.378  1.00  0.00    -0.352 N 
ATOM      4  C   UNL A   1      30.394  28.974  23.470  1.00  0.00     0.251 C 
ATOM      5  O   UNL A   1      29.488  29.331  22.719  1.00  0.00    -0.269 OA
ATOM      6  H   UNL A   1      30.435  30.736  24.411  1.00  0.00     0.163 HD
BRANCH   4   7
ATOM      7  C   UNL A   1      30.925  27.594  23.353  1.00  0.00     0.041 A 
ATOM      8  N   UNL A   1      32.013  22.747  24.202  1.00  0.00    -0.228 N 
ATOM      9  C   UNL A   1      30.970  23.056  25.086  1.00  0.00     0.333 A 
ATOM     10  C   UNL A   1      32.269  23.571  23.096  1.00  0.00     0.268 A 
ATOM     11  O   UNL A   1      30.496  22.339  25.967  1.00  0.00    -0.247 OA
ATOM     12  N   UNL A   1      30.416  24.312  24.981  1.00  0.00    -0.306 N 
ATOM     13  C   UNL A   1      31.845  24.972  23.193  1.00  0.00     0.064 A 
ATOM     14  O   UNL A   1      32.768  23.232  22.022  1.00  0.00    -0.268 OA
ATOM     15  C   UNL A   1      30.873  25.300  24.120  1.00  0.00     0.056 A 
ATOM     16  H   UNL A   1      29.645  24.524  25.556  1.00  0.00     0.171 HD
ATOM     17  C   UNL A   1      32.410  25.952  22.376  1.00  0.00     0.017 A 
ATOM     18  C   UNL A   1      30.385  26.604  24.192  1.00  0.00     0.040 A 
ATOM     19  C   UNL A   1      31.980  27.271  22.492  1.00  0.00     0.015 A 
BRANCH   8  20
ATOM     20  C   UNL A   1      32.800  21.529  24.343  1.00  0.00     0.054 A 
ATOM     21  C   UNL A   1      34.294  19.104  24.535  1.00  0.00     0.119 A 
ATOM     22  C   UNL A   1      33.030  19.109  23.966  1.00  0.00     0.048 A 
ATOM     23  C   UNL A   1      34.835  20.306  24.977  1.00  0.00     0.048 A 
ATOM     24  C   UNL A   1      32.300  20.299  23.870  1.00  0.00     0.031 A 
ATOM     25  C   UNL A   1      34.095  21.500  24.882  1.00  0.00     0.031 A 
BRANCH  21  26
ATOM     26  O   UNL A   1      34.915  17.889  24.571  1.00  0.00    -0.497 OA
ATOM     27  C   UNL A   1      34.236  16.836  23.895  1.00  0.00     0.278 C 
ENDBRANCH  21  26
ENDBRANCH   8  20
ENDBRANCH   4   7
ENDBRANCH   2   3
ENDBRANCH   1   2
BRANCH   1  28
ATOM     28  C   UNL A   1      31.642  31.915  26.654  1.00  0.00     0.023 C 
BRANCH  28  29
ATOM     29  C   UNL A   1      32.773  32.678  27.332  1.00  0.00     0.116 C 
BRANCH  29  30
ATOM     30  N   UNL A   1      32.432  34.054  27.659  1.00  0.00    -0.352 N 
ATOM     31  C   UNL A   1      32.991  34.908  28.582  1.00  0.00     0.251 C 
ATOM     32  H   UNL A   1      31.686  34.433  27.141  1.00  0.00     0.163 HD
ATOM     33  O   UNL A   1      32.494  36.007  28.784  1.00  0.00    -0.269 OA
BRANCH  31  34
ATOM     34  C   UNL A   1      34.172  34.479  29.363  1.00  0.00     0.039 A 
ATOM     35  C   UNL A   1      33.973  33.898  30.618  1.00  0.00     0.014 A 
ATOM     36  C   UNL A   1      35.464  34.621  28.853  1.00  0.00     0.014 A 
ATOM     37  C   UNL A   1      35.063  33.375  31.319  1.00  0.00     0.010 A 
ATOM     38  C   UNL A   1      36.535  34.023  29.510  1.00  0.00     0.010 A 
ATOM     39  C   UNL A   1      36.345  33.389  30.747  1.00  0.00    -0.014 A 
BRANCH  39  40
ATOM     40  C   UNL A   1      37.499  32.738  31.420  1.00  0.00     0.031 A 
ATOM     41  C   UNL A   1      38.210  31.592  30.756  1.00  0.00     0.074 A 
ATOM     42  C   UNL A   1      37.857  33.127  32.659  1.00  0.00     0.049 A 
ATOM     43  N   UNL A   1      39.179  30.840  31.216  1.00  0.00    -0.248 NA
ATOM     44  C   UNL A   1      37.751  31.220  29.410  1.00  0.00     0.031 C 
ATOM     45  C   UNL A   1      37.211  34.190  33.433  1.00  0.00     0.029 A 
ATOM     46  N   UNL A   1      38.844  32.665  33.494  1.00  0.00    -0.354 N 
ATOM     47  C   UNL A   1      39.429  29.899  30.226  1.00  0.00     0.074 A 
ATOM     48  C   UNL A   1      38.475  30.138  29.165  1.00  0.00     0.031 C 
ATOM     49  C   UNL A   1      37.832  34.314  34.616  1.00  0.00     0.029 A 
ATOM     50  C   UNL A   1      38.894  33.316  34.703  1.00  0.00     0.049 A 
ATOM     51  H   UNL A   1      39.457  31.935  33.249  1.00  0.00     0.167 HD
ATOM     52  C   UNL A   1      40.386  28.941  30.191  1.00  0.00     0.037 A 
ATOM     53  C   UNL A   1      39.703  33.125  35.763  1.00  0.00     0.037 A 
ATOM     54  C   UNL A   1      41.353  28.727  31.234  1.00  0.00     0.049 A 
ATOM     55  C   UNL A   1      40.759  32.056  35.698  1.00  0.00     0.074 A 
ATOM     56  C   UNL A   1      42.402  27.823  31.266  1.00  0.00     0.029 A 
ATOM     57  N   UNL A   1      41.389  29.424  32.433  1.00  0.00    -0.354 N 
ATOM     58  N   UNL A   1      41.032  31.220  34.726  1.00  0.00    -0.248 NA
ATOM     59  C   UNL A   1      41.625  31.909  36.876  1.00  0.00     0.031 C 
ATOM     60  C   UNL A   1      43.047  27.946  32.502  1.00  0.00     0.029 A 
ATOM     61  C   UNL A   1      42.432  28.959  33.219  1.00  0.00     0.049 A 
ATOM     62  H   UNL A   1      40.768  30.144  32.686  1.00  0.00     0.167 HD
ATOM     63  C   UNL A   1      42.116  30.469  35.161  1.00  0.00     0.074 A 
ATOM     64  C   UNL A   1      42.459  30.958  36.480  1.00  0.00     0.031 C 
ATOM     65  C   UNL A   1      42.767  29.464  34.526  1.00  0.00     0.037 A 
BRANCH  52  66
ATOM     66  C   UNL A   1      40.435  28.056  28.980  1.00  0.00     0.064 A 
ATOM     67  C   UNL A   1      39.722  26.848  28.923  1.00  0.00     0.173 A 
ATOM     68  C   UNL A   1      41.177  28.432  27.851  1.00  0.00     0.173 A 
ATOM     69  F   UNL A   1      39.005  26.436  29.980  1.00  0.00    -0.203 F 
ATOM     70  C   UNL A   1      39.777  26.036  27.793  1.00  0.00     0.198 A 
ATOM     71  C   UNL A   1      41.205  27.633  26.711  1.00  0.00     0.198 A 
ATOM     72  F   UNL A   1      41.873  29.579  27.849  1.00  0.00    -0.203 F 
ATOM     73  F   UNL A   1      39.131  24.861  27.783  1.00  0.00    -0.200 F 
ATOM     74  C   UNL A   1      40.512  26.431  26.686  1.00  0.00     0.200 A 
ATOM     75  F   UNL A   1      41.905  28.023  25.637  1.00  0.00    -0.200 F 
ATOM     76  F   UNL A   1      40.560  25.651  25.598  1.00  0.00    -0.200 F 
ENDBRANCH  52  66
BRANCH  53  77
ATOM     77  C   UNL A   1      39.565  33.986  36.968  1.00  0.00     0.064 A 
ATOM     78  C   UNL A   1      38.799  33.567  38.065  1.00  0.00     0.173 A 
ATOM     79  C   UNL A   1      40.186  35.241  37.046  1.00  0.00     0.173 A 
ATOM     80  F   UNL A   1      38.169  32.384  38.028  1.00  0.00    -0.203 F 
ATOM     81  C   UNL A   1      38.642  34.379  39.186  1.00  0.00     0.198 A 
ATOM     82  C   UNL A   1      40.052  36.040  38.179  1.00  0.00     0.198 A 
ATOM     83  F   UNL A   1      40.934  35.685  36.026  1.00  0.00    -0.203 F 
ATOM     84  F   UNL A   1      37.868  33.974  40.201  1.00  0.00    -0.200 F 
ATOM     85  C   UNL A   1      39.274  35.613  39.245  1.00  0.00     0.200 A 
ATOM     86  F   UNL A   1      40.674  37.226  38.238  1.00  0.00    -0.200 F 
ATOM     87  F   UNL A   1      39.124  36.393  40.324  1.00  0.00    -0.200 F 
ENDBRANCH  53  77
BRANCH  65  88
ATOM     88  C   UNL A   1      43.942  28.851  35.231  1.00  0.00     0.064 A 
ATOM     89  C   UNL A   1      43.797  27.748  36.083  1.00  0.00     0.173 A 
ATOM     90  C   UNL A   1      45.236  29.352  35.017  1.00  0.00     0.173 A 
ATOM     91  F   UNL A   1      42.579  27.243  36.331  1.00  0.00    -0.203 F 
ATOM     92  C   UNL A   1      44.901  27.182  36.716  1.00  0.00     0.198 A 
ATOM     93  C   UNL A   1      46.341  28.766  35.628  1.00  0.00     0.198 A 
ATOM     94  F   UNL A   1      45.429  30.403  34.206  1.00  0.00    -0.203 F 
ATOM     95  F   UNL A   1      44.733  26.158  37.563  1.00  0.00    -0.200 F 
ATOM     96  C   UNL A   1      46.172  27.687  36.481  1.00  0.00     0.200 A 
ATOM     97  F   UNL A   1      47.568  29.245  35.389  1.00  0.00    -0.200 F 
ATOM     98  F   UNL A   1      47.234  27.136  37.085  1.00  0.00    -0.200 F 
ENDBRANCH  65  88
ENDBRANCH  39  40
ENDBRANCH  31  34
ENDBRANCH  29  30
ENDBRANCH  28  29
ENDBRANCH   1  28
TORSDOF 13
ENDMDL
MODEL 2
REMARK VINA RESULT:     -13.9      5.476     11.352
REMARK SMILES COc1ccc(-n2c(=O)[nH]c3cc(C(=O)NCCCCNC(=O)c4ccc(-c5c6nc(c(-c7c(F)c(F)c(F)c(F)c7F)c7ccc([nH]7)c(-c7c(F)c(F)c(F)c(F)c7F)c7nc(c(-c8c(F)c(F)c(F)c(F)c8F)c8ccc5[nH]8)C=C7)C=C6)cc4)ccc3c2=O)cc1
REMARK SMILES IDX 18 1 17 2 16 3 14 4 15 5 13 7 7 8 8 9 90 10 9 11 10 12 89 13
REMARK SMILES IDX 91 14 11 15 88 17 12 18 87 19 6 20 3 21 4 22 93 23 5 24
REMARK SMILES IDX 92 25 2 26 1 27 19 28 20 29 21 30 22 31 23 33 24 34 25 35
REMARK SMILES IDX 86 36 26 37 85 38 27 39 28 40 29 41 79 42 30 43 84 44 78 45
REMARK SMILES IDX 80 46 31 47 83 48 77 49 76 50 32 52 64 53 44 54 63 55 45 56
REMARK SMILES IDX 48 57 62 58 81 59 46 60 47 61 61 63 82 64 49 65 33 66 34 67
REMARK SMILES IDX 42 68 35 69 36 70 40 71 43 72 37 73 38 74 41 75 39 76 65 77
REMARK SMILES IDX 66 78 74 79 67 80 68 81 72 82 75 83 69 84 70 85 73 86 71 87
REMARK SMILES IDX 50 88 51 89 59 90 52 91 53 92 57 93 60 94 54 95 55 96 58 97
REMARK SMILES IDX 56 98
REMARK H PARENT 16 6 10 16 21 32 80 51 48 62
REMARK Flexibility Score: inf
ROOT
ATOM      1  C   UNL A   1      37.127  20.985  24.683  1.00  0.00     0.023 C 
ENDROOT
BRANCH   1   2
ATOM      2  C   UNL A   1      35.940  21.155  25.626  1.00  0.00     0.116 C 
BRANCH   2   3
ATOM      3  N   UNL A   1      34.874  20.196  25.394  1.00  0.00    -0.352 N 
ATOM      4  C   UNL A   1      33.593  20.384  24.936  1.00  0.00     0.251 C 
ATOM      5  O   UNL A   1      32.820  19.429  24.909  1.00  0.00    -0.269 OA
ATOM      6  H   UNL A   1      35.106  19.261  25.599  1.00  0.00     0.163 HD
BRANCH   4   7
ATOM      7  C   UNL A   1      33.107  21.716  24.499  1.00  0.00     0.041 A 
ATOM      8  N   UNL A   1      30.998  26.291  24.379  1.00  0.00    -0.228 N 
ATOM      9  C   UNL A   1      31.092  25.958  25.738  1.00  0.00     0.333 A 
ATOM     10  C   UNL A   1      31.766  25.603  23.429  1.00  0.00     0.268 A 
ATOM     11  O   UNL A   1      30.649  26.589  26.697  1.00  0.00    -0.247 OA
ATOM     12  N   UNL A   1      31.735  24.781  26.047  1.00  0.00    -0.306 N 
ATOM     13  C   UNL A   1      32.199  24.245  23.774  1.00  0.00     0.064 A 
ATOM     14  O   UNL A   1      32.167  26.039  22.349  1.00  0.00    -0.268 OA
ATOM     15  C   UNL A   1      32.218  23.882  25.107  1.00  0.00     0.056 A 
ATOM     16  H   UNL A   1      31.860  24.562  27.000  1.00  0.00     0.171 HD
ATOM     17  C   UNL A   1      32.577  23.338  22.783  1.00  0.00     0.017 A 
ATOM     18  C   UNL A   1      32.695  22.628  25.485  1.00  0.00     0.040 A 
ATOM     19  C   UNL A   1      32.986  22.058  23.146  1.00  0.00     0.015 A 
BRANCH   8  20
ATOM     20  C   UNL A   1      30.179  27.405  23.920  1.00  0.00     0.054 A 
ATOM     21  C   UNL A   1      28.488  29.536  23.054  1.00  0.00     0.119 A 
ATOM     22  C   UNL A   1      28.007  28.238  23.119  1.00  0.00     0.048 A 
ATOM     23  C   UNL A   1      29.796  29.787  23.452  1.00  0.00     0.048 A 
ATOM     24  C   UNL A   1      28.836  27.194  23.546  1.00  0.00     0.031 A 
ATOM     25  C   UNL A   1      30.628  28.734  23.877  1.00  0.00     0.031 A 
BRANCH  21  26
ATOM     26  O   UNL A   1      27.590  30.473  22.629  1.00  0.00    -0.497 OA
ATOM     27  C   UNL A   1      27.870  31.811  23.023  1.00  0.00     0.278 C 
ENDBRANCH  21  26
ENDBRANCH   8  20
ENDBRANCH   4   7
ENDBRANCH   2   3
ENDBRANCH   1   2
BRANCH   1  28
ATOM     28  C   UNL A   1      38.065  19.823  24.992  1.00  0.00     0.023 C 
BRANCH  28  29
ATOM     29  C   UNL A   1      39.316  20.172  25.790  1.00  0.00     0.116 C 
BRANCH  29  30
ATOM     30  N   UNL A   1      40.281  19.085  25.865  1.00  0.00    -0.352 N 
ATOM     31  C   UNL A   1      41.633  19.119  26.116  1.00  0.00     0.251 C 
ATOM     32  H   UNL A   1      39.908  18.187  25.712  1.00  0.00     0.163 HD
ATOM     33  O   UNL A   1      42.300  18.097  26.036  1.00  0.00    -0.269 OA
BRANCH  31  34
ATOM     34  C   UNL A   1      42.290  20.405  26.441  1.00  0.00     0.039 A 
ATOM     35  C   UNL A   1      42.900  21.127  25.412  1.00  0.00     0.014 A 
ATOM     36  C   UNL A   1      42.283  20.908  27.743  1.00  0.00     0.014 A 
ATOM     37  C   UNL A   1      43.419  22.398  25.672  1.00  0.00     0.010 A 
ATOM     38  C   UNL A   1      42.721  22.207  27.982  1.00  0.00     0.010 A 
ATOM     39  C   UNL A   1      43.288  22.967  26.949  1.00  0.00    -0.014 A 
BRANCH  39  40
ATOM     40  C   UNL A   1      43.728  24.360  27.223  1.00  0.00     0.031 A 
ATOM     41  C   UNL A   1      42.744  25.375  27.736  1.00  0.00     0.074 A 
ATOM     42  C   UNL A   1      44.991  24.731  26.936  1.00  0.00     0.049 A 
ATOM     43  N   UNL A   1      42.912  26.655  27.954  1.00  0.00    -0.248 NA
ATOM     44  C   UNL A   1      41.382  24.894  28.011  1.00  0.00     0.031 C 
ATOM     45  C   UNL A   1      46.026  23.855  26.382  1.00  0.00     0.029 A 
ATOM     46  N   UNL A   1      45.619  25.945  27.059  1.00  0.00    -0.354 N 
ATOM     47  C   UNL A   1      41.676  27.132  28.371  1.00  0.00     0.074 A 
ATOM     48  C   UNL A   1      40.755  26.018  28.323  1.00  0.00     0.031 C 
ATOM     49  C   UNL A   1      47.163  24.553  26.235  1.00  0.00     0.029 A 
ATOM     50  C   UNL A   1      46.929  25.934  26.647  1.00  0.00     0.049 A 
ATOM     51  H   UNL A   1      45.171  26.750  27.408  1.00  0.00     0.167 HD
ATOM     52  C   UNL A   1      41.346  28.379  28.784  1.00  0.00     0.037 A 
ATOM     53  C   UNL A   1      47.838  26.927  26.602  1.00  0.00     0.037 A 
ATOM     54  C   UNL A   1      42.272  29.477  28.860  1.00  0.00     0.049 A 
ATOM     55  C   UNL A   1      47.447  28.303  27.069  1.00  0.00     0.074 A 
ATOM     56  C   UNL A   1      42.051  30.763  29.325  1.00  0.00     0.029 A 
ATOM     57  N   UNL A   1      43.599  29.420  28.459  1.00  0.00    -0.354 N 
ATOM     58  N   UNL A   1      46.294  28.724  27.529  1.00  0.00    -0.248 NA
ATOM     59  C   UNL A   1      48.487  29.340  27.016  1.00  0.00     0.031 C 
ATOM     60  C   UNL A   1      43.233  31.494  29.166  1.00  0.00     0.029 A 
ATOM     61  C   UNL A   1      44.204  30.652  28.649  1.00  0.00     0.049 A 
ATOM     62  H   UNL A   1      44.046  28.621  28.096  1.00  0.00     0.167 HD
ATOM     63  C   UNL A   1      46.476  30.063  27.848  1.00  0.00     0.074 A 
ATOM     64  C   UNL A   1      47.855  30.381  27.541  1.00  0.00     0.031 C 
ATOM     65  C   UNL A   1      45.581  30.949  28.349  1.00  0.00     0.037 A 
BRANCH  52  66
ATOM     66  C   UNL A   1      39.921  28.618  29.191  1.00  0.00     0.064 A 
ATOM     67  C   UNL A   1      39.488  28.405  30.510  1.00  0.00     0.173 A 
ATOM     68  C   UNL A   1      38.984  29.097  28.263  1.00  0.00     0.173 A 
ATOM     69  F   UNL A   1      40.341  27.937  31.433  1.00  0.00    -0.203 F 
ATOM     70  C   UNL A   1      38.164  28.630  30.874  1.00  0.00     0.198 A 
ATOM     71  C   UNL A   1      37.668  29.351  28.639  1.00  0.00     0.198 A 
ATOM     72  F   UNL A   1      39.346  29.323  26.991  1.00  0.00    -0.203 F 
ATOM     73  F   UNL A   1      37.761  28.368  32.125  1.00  0.00    -0.200 F 
ATOM     74  C   UNL A   1      37.256  29.109  29.942  1.00  0.00     0.200 A 
ATOM     75  F   UNL A   1      36.796  29.827  27.740  1.00  0.00    -0.200 F 
ATOM     76  F   UNL A   1      35.983  29.331  30.295  1.00  0.00    -0.200 F 
ENDBRANCH  52  66
BRANCH  53  77
ATOM     77  C   UNL A   1      49.219  26.651  26.123  1.00  0.00     0.064 A 
ATOM     78  C   UNL A   1      50.196  26.153  26.997  1.00  0.00     0.173 A 
ATOM     79  C   UNL A   1      49.593  26.885  24.792  1.00  0.00     0.173 A 
ATOM     80  F   UNL A   1      49.891  25.934  28.285  1.00  0.00    -0.203 F 
ATOM     81  C   UNL A   1      51.498  25.918  26.564  1.00  0.00     0.198 A 
ATOM     82  C   UNL A   1      50.888  26.623  24.353  1.00  0.00     0.198 A 
ATOM     83  F   UNL A   1      48.694  27.356  23.915  1.00  0.00    -0.203 F 
ATOM     84  F   UNL A   1      52.423  25.486  27.431  1.00  0.00    -0.200 F 
ATOM     85  C   UNL A   1      51.842  26.149  25.240  1.00  0.00     0.200 A 
ATOM     86  F   UNL A   1      51.214  26.834  23.070  1.00  0.00    -0.200 F 
ATOM     87  F   UNL A   1      53.096  25.921  24.823  1.00  0.00    -0.200 F 
ENDBRANCH  53  77
BRANCH  65  88
ATOM     88  C   UNL A   1      46.074  32.338  28.634  1.00  0.00     0.064 A 
ATOM     89  C   UNL A   1      46.640  32.681  29.870  1.00  0.00     0.173 A 
ATOM     90  C   UNL A   1      46.014  33.328  27.641  1.00  0.00     0.173 A 
ATOM     91  F   UNL A   1      46.705  31.774  30.856  1.00  0.00    -0.203 F 
ATOM     92  C   UNL A   1      47.106  33.971  30.111  1.00  0.00     0.198 A 
ATOM     93  C   UNL A   1      46.509  34.608  27.874  1.00  0.00     0.198 A 
ATOM     94  F   UNL A   1      45.487  33.049  26.439  1.00  0.00    -0.203 F 
ATOM     95  F   UNL A   1      47.601  34.288  31.315  1.00  0.00    -0.200 F 
ATOM     96  C   UNL A   1      47.047  34.930  29.110  1.00  0.00     0.200 A 
ATOM     97  F   UNL A   1      46.464  35.529  26.903  1.00  0.00    -0.200 F 
ATOM     98  F   UNL A   1      47.504  36.168  29.341  1.00  0.00    -0.200 F 
ENDBRANCH  65  88
ENDBRANCH  39  40
ENDBRANCH  31  34
ENDBRANCH  29  30
ENDBRANCH  28  29
ENDBRANCH   1  28
TORSDOF 13
ENDMDL
MODEL 3
REMARK VINA RESULT:     -13.8      3.764      8.586
REMARK SMILES COc1ccc(-n2c(=O)[nH]c3cc(C(=O)NCCCCNC(=O)c4ccc(-c5c6nc(c(-c7c(F)c(F)c(F)c(F)c7F)c7ccc([nH]7)c(-c7c(F)c(F)c(F)c(F)c7F)c7nc(c(-c8c(F)c(F)c(F)c(F)c8F)c8ccc5[nH]8)C=C7)C=C6)cc4)ccc3c2=O)cc1
REMARK SMILES IDX 18 1 17 2 16 3 14 4 15 5 13 7 7 8 8 9 90 10 9 11 10 12 89 13
REMARK SMILES IDX 91 14 11 15 88 17 12 18 87 19 6 20 3 21 4 22 93 23 5 24
REMARK SMILES IDX 92 25 2 26 1 27 19 28 20 29 21 30 22 31 23 33 24 34 25 35
REMARK SMILES IDX 86 36 26 37 85 38 27 39 28 40 29 41 79 42 30 43 84 44 78 45
REMARK SMILES IDX 80 46 31 47 83 48 77 49 76 50 32 52 64 53 44 54 63 55 45 56
REMARK SMILES IDX 48 57 62 58 81 59 46 60 47 61 61 63 82 64 49 65 33 66 34 67
REMARK SMILES IDX 42 68 35 69 36 70 40 71 43 72 37 73 38 74 41 75 39 76 65 77
REMARK SMILES IDX 66 78 74 79 67 80 68 81 72 82 75 83 69 84 70 85 73 86 71 87
REMARK SMILES IDX 50 88 51 89 59 90 52 91 53 92 57 93 60 94 54 95 55 96 58 97
REMARK SMILES IDX 56 98
REMARK H PARENT 16 6 10 16 21 32 80 51 48 62
REMARK Flexibility Score: inf
ROOT
ATOM      1  C   UNL A   1      32.917  29.662  25.020  1.00  0.00     0.023 C 
ENDROOT
BRANCH   1   2
ATOM      2  C   UNL A   1      31.403  29.788  25.148  1.00  0.00     0.116 C 
BRANCH   2   3
ATOM      3  N   UNL A   1      30.706  29.726  23.875  1.00  0.00    -0.352 N 
ATOM      4  C   UNL A   1      30.426  28.653  23.065  1.00  0.00     0.251 C 
ATOM      5  O   UNL A   1      29.904  28.849  21.970  1.00  0.00    -0.269 OA
ATOM      6  H   UNL A   1      30.384  30.594  23.537  1.00  0.00     0.163 HD
BRANCH   4   7
ATOM      7  C   UNL A   1      30.762  27.265  23.465  1.00  0.00     0.041 A 
ATOM      8  N   UNL A   1      32.876  22.699  23.764  1.00  0.00    -0.228 N 
ATOM      9  C   UNL A   1      33.745  23.462  22.973  1.00  0.00     0.333 A 
ATOM     10  C   UNL A   1      31.922  23.330  24.576  1.00  0.00     0.268 A 
ATOM     11  O   UNL A   1      34.750  23.076  22.377  1.00  0.00    -0.247 OA
ATOM     12  N   UNL A   1      33.440  24.796  22.820  1.00  0.00    -0.306 N 
ATOM     13  C   UNL A   1      31.486  24.673  24.177  1.00  0.00     0.064 A 
ATOM     14  O   UNL A   1      31.446  22.900  25.627  1.00  0.00    -0.268 OA
ATOM     15  C   UNL A   1      32.301  25.402  23.331  1.00  0.00     0.056 A 
ATOM     16  H   UNL A   1      34.072  25.358  22.315  1.00  0.00     0.171 HD
ATOM     17  C   UNL A   1      30.278  25.200  24.633  1.00  0.00     0.017 A 
ATOM     18  C   UNL A   1      31.962  26.710  22.988  1.00  0.00     0.040 A 
ATOM     19  C   UNL A   1      29.896  26.480  24.236  1.00  0.00     0.015 A 
BRANCH   8  20
ATOM     20  C   UNL A   1      32.986  21.248  23.841  1.00  0.00     0.054 A 
ATOM     21  C   UNL A   1      33.166  18.399  23.893  1.00  0.00     0.119 A 
ATOM     22  C   UNL A   1      32.239  19.032  23.078  1.00  0.00     0.048 A 
ATOM     23  C   UNL A   1      34.029  19.178  24.654  1.00  0.00     0.048 A 
ATOM     24  C   UNL A   1      32.153  20.428  23.052  1.00  0.00     0.031 A 
ATOM     25  C   UNL A   1      33.937  20.582  24.628  1.00  0.00     0.031 A 
BRANCH  21  26
ATOM     26  O   UNL A   1      33.163  17.036  23.833  1.00  0.00    -0.497 OA
ATOM     27  C   UNL A   1      32.933  16.370  25.069  1.00  0.00     0.278 C 
ENDBRANCH  21  26
ENDBRANCH   8  20
ENDBRANCH   4   7
ENDBRANCH   2   3
ENDBRANCH   1   2
BRANCH   1  28
ATOM     28  C   UNL A   1      33.552  28.474  25.737  1.00  0.00     0.023 C 
BRANCH  28  29
ATOM     29  C   UNL A   1      33.695  28.610  27.249  1.00  0.00     0.116 C 
BRANCH  29  30
ATOM     30  N   UNL A   1      33.705  29.991  27.710  1.00  0.00    -0.352 N 
ATOM     31  C   UNL A   1      34.709  30.714  28.311  1.00  0.00     0.251 C 
ATOM     32  H   UNL A   1      32.864  30.483  27.569  1.00  0.00     0.163 HD
ATOM     33  O   UNL A   1      34.491  31.845  28.723  1.00  0.00    -0.269 OA
BRANCH  31  34
ATOM     34  C   UNL A   1      36.045  30.106  28.500  1.00  0.00     0.039 A 
ATOM     35  C   UNL A   1      36.963  30.161  27.449  1.00  0.00     0.014 A 
ATOM     36  C   UNL A   1      36.400  29.511  29.712  1.00  0.00     0.014 A 
ATOM     37  C   UNL A   1      38.268  29.703  27.647  1.00  0.00     0.010 A 
ATOM     38  C   UNL A   1      37.721  29.137  29.935  1.00  0.00     0.010 A 
ATOM     39  C   UNL A   1      38.670  29.234  28.907  1.00  0.00    -0.014 A 
BRANCH  39  40
ATOM     40  C   UNL A   1      40.081  28.849  29.176  1.00  0.00     0.031 A 
ATOM     41  C   UNL A   1      40.999  29.800  29.890  1.00  0.00     0.074 A 
ATOM     42  C   UNL A   1      40.554  27.678  28.708  1.00  0.00     0.049 A 
ATOM     43  N   UNL A   1      42.279  29.685  30.142  1.00  0.00    -0.248 NA
ATOM     44  C   UNL A   1      40.408  31.063  30.357  1.00  0.00     0.031 C 
ATOM     45  C   UNL A   1      39.779  26.692  27.951  1.00  0.00     0.029 A 
ATOM     46  N   UNL A   1      41.807  27.121  28.788  1.00  0.00    -0.354 N 
ATOM     47  C   UNL A   1      42.647  30.865  30.776  1.00  0.00     0.074 A 
ATOM     48  C   UNL A   1      41.470  31.705  30.821  1.00  0.00     0.031 C 
ATOM     49  C   UNL A   1      40.565  25.644  27.658  1.00  0.00     0.029 A 
ATOM     50  C   UNL A   1      41.908  25.899  28.170  1.00  0.00     0.049 A 
ATOM     51  H   UNL A   1      42.562  27.558  29.244  1.00  0.00     0.167 HD
ATOM     52  C   UNL A   1      43.849  31.206  31.298  1.00  0.00     0.037 A 
ATOM     53  C   UNL A   1      42.967  25.078  28.028  1.00  0.00     0.037 A 
ATOM     54  C   UNL A   1      45.009  30.354  31.279  1.00  0.00     0.049 A 
ATOM     55  C   UNL A   1      44.291  25.478  28.621  1.00  0.00     0.074 A 
ATOM     56  C   UNL A   1      46.256  30.582  31.836  1.00  0.00     0.029 A 
ATOM     57  N   UNL A   1      45.066  29.110  30.667  1.00  0.00    -0.354 N 
ATOM     58  N   UNL A   1      44.608  26.565  29.281  1.00  0.00    -0.248 NA
ATOM     59  C   UNL A   1      45.404  24.533  28.452  1.00  0.00     0.031 C 
ATOM     60  C   UNL A   1      47.079  29.494  31.525  1.00  0.00     0.029 A 
ATOM     61  C   UNL A   1      46.331  28.566  30.818  1.00  0.00     0.049 A 
ATOM     62  H   UNL A   1      44.317  28.678  30.197  1.00  0.00     0.167 HD
ATOM     63  C   UNL A   1      45.943  26.423  29.632  1.00  0.00     0.074 A 
ATOM     64  C   UNL A   1      46.374  25.138  29.123  1.00  0.00     0.031 C 
ATOM     65  C   UNL A   1      46.741  27.281  30.314  1.00  0.00     0.037 A 
BRANCH  52  66
ATOM     66  C   UNL A   1      43.967  32.557  31.941  1.00  0.00     0.064 A 
ATOM     67  C   UNL A   1      44.353  33.689  31.207  1.00  0.00     0.173 A 
ATOM     68  C   UNL A   1      43.660  32.729  33.299  1.00  0.00     0.173 A 
ATOM     69  F   UNL A   1      44.668  33.577  29.908  1.00  0.00    -0.203 F 
ATOM     70  C   UNL A   1      44.459  34.936  31.817  1.00  0.00     0.198 A 
ATOM     71  C   UNL A   1      43.736  33.984  33.898  1.00  0.00     0.198 A 
ATOM     72  F   UNL A   1      43.281  31.681  34.046  1.00  0.00    -0.203 F 
ATOM     73  F   UNL A   1      44.882  35.992  31.108  1.00  0.00    -0.200 F 
ATOM     74  C   UNL A   1      44.145  35.085  33.159  1.00  0.00     0.200 A 
ATOM     75  F   UNL A   1      43.420  34.128  35.192  1.00  0.00    -0.200 F 
ATOM     76  F   UNL A   1      44.241  36.286  33.743  1.00  0.00    -0.200 F 
ENDBRANCH  52  66
BRANCH  53  77
ATOM     77  C   UNL A   1      42.812  23.779  27.320  1.00  0.00     0.064 A 
ATOM     78  C   UNL A   1      42.284  22.660  27.979  1.00  0.00     0.173 A 
ATOM     79  C   UNL A   1      43.194  23.626  25.980  1.00  0.00     0.173 A 
ATOM     80  F   UNL A   1      41.924  22.752  29.269  1.00  0.00    -0.203 F 
ATOM     81  C   UNL A   1      42.162  21.433  27.332  1.00  0.00     0.198 A 
ATOM     82  C   UNL A   1      43.045  22.406  25.325  1.00  0.00     0.198 A 
ATOM     83  F   UNL A   1      43.700  24.667  25.303  1.00  0.00    -0.203 F 
ATOM     84  F   UNL A   1      41.697  20.369  27.999  1.00  0.00    -0.200 F 
ATOM     85  C   UNL A   1      42.538  21.308  26.003  1.00  0.00     0.200 A 
ATOM     86  F   UNL A   1      43.397  22.292  24.036  1.00  0.00    -0.200 F 
ATOM     87  F   UNL A   1      42.419  20.128  25.379  1.00  0.00    -0.200 F 
ENDBRANCH  53  77
BRANCH  65  88
ATOM     88  C   UNL A   1      48.151  26.842  30.585  1.00  0.00     0.064 A 
ATOM     89  C   UNL A   1      48.471  26.022  31.676  1.00  0.00     0.173 A 
ATOM     90  C   UNL A   1      49.188  27.216  29.715  1.00  0.00     0.173 A 
ATOM     91  F   UNL A   1      47.518  25.652  32.544  1.00  0.00    -0.203 F 
ATOM     92  C   UNL A   1      49.783  25.612  31.902  1.00  0.00     0.198 A 
ATOM     93  C   UNL A   1      50.492  26.779  29.927  1.00  0.00     0.198 A 
ATOM     94  F   UNL A   1      48.932  27.994  28.653  1.00  0.00    -0.203 F 
ATOM     95  F   UNL A   1      50.074  24.867  32.977  1.00  0.00    -0.200 F 
ATOM     96  C   UNL A   1      50.790  25.984  31.023  1.00  0.00     0.200 A 
ATOM     97  F   UNL A   1      51.461  27.127  29.070  1.00  0.00    -0.200 F 
ATOM     98  F   UNL A   1      52.050  25.581  31.237  1.00  0.00    -0.200 F 
ENDBRANCH  65  88
ENDBRANCH  39  40
ENDBRANCH  31  34
ENDBRANCH  29  30
ENDBRANCH  28  29
ENDBRANCH   1  28
TORSDOF 13
ENDMDL
