MODEL 1
REMARK VINA RESULT:     -13.7      0.000      0.000
REMARK SMILES Cc1n[nH]c(C[N@H+]2CCC[C@H](c3cccc(C(=O)NCCCCNC(=O)c4ccc(-c5c6nc(c(-c7c(F)c(F)c(F)c(F)c7F)c7ccc([nH]7)c(-c7c(F)c(F)c(F)c(F)c7F)c7nc(c(-c8c(F)c(F)c(F)c(F)c8F)c8ccc5[nH]8)C=C7)C=C6)cc4)c3)C2)n1
REMARK SMILES IDX 21 1 20 2 19 3 17 4 18 5 16 7 12 8 13 9 90 10 14 11 15 12
REMARK SMILES IDX 11 13 7 14 8 15 91 16 9 18 10 19 6 20 5 21 1 22 2 23 3 24
REMARK SMILES IDX 92 25 4 26 22 28 23 29 24 30 25 31 26 33 27 34 28 35 89 36
REMARK SMILES IDX 29 37 88 38 30 39 31 40 32 41 82 42 33 43 87 44 81 45 83 46
REMARK SMILES IDX 34 47 86 48 80 49 79 50 35 52 67 53 47 54 66 55 48 56 51 57
REMARK SMILES IDX 65 58 84 59 49 60 50 61 64 63 85 64 52 65 36 66 37 67 45 68
REMARK SMILES IDX 38 69 39 70 43 71 46 72 40 73 41 74 44 75 42 76 68 77 69 78
REMARK SMILES IDX 77 79 70 80 71 81 75 82 78 83 72 84 73 85 76 86 74 87 53 88
REMARK SMILES IDX 54 89 62 90 55 91 56 92 60 93 63 94 57 95 58 96 61 97 59 98
REMARK H PARENT 19 6 7 17 4 27 24 32 83 51 51 62
REMARK Flexibility Score: inf
ROOT
ATOM      1  C   UNL A   1      36.539  20.408  25.050  1.00  0.00     0.023 C 
ENDROOT
BRANCH   1   2
ATOM      2  C   UNL A   1      36.505  21.680  25.894  1.00  0.00     0.116 C 
BRANCH   2   3
ATOM      3  N   UNL A   1      35.410  21.777  26.858  1.00  0.00    -0.352 N 
ATOM      4  C   UNL A   1      34.323  22.631  26.971  1.00  0.00     0.251 C 
ATOM      5  O   UNL A   1      33.543  22.457  27.906  1.00  0.00    -0.269 OA
ATOM      6  H   UNL A   1      35.453  21.099  27.570  1.00  0.00     0.163 HD
BRANCH   4   7
ATOM      7  C   UNL A   1      34.105  23.785  26.054  1.00  0.00     0.040 A 
ATOM      8  C   UNL A   1      32.680  25.642  25.401  1.00  0.00    -0.039 A 
ATOM      9  C   UNL A   1      33.297  25.647  24.144  1.00  0.00     0.004 A 
ATOM     10  C   UNL A   1      33.227  24.809  26.382  1.00  0.00     0.018 A 
ATOM     11  C   UNL A   1      34.360  24.781  23.869  1.00  0.00     0.001 A 
ATOM     12  C   UNL A   1      34.731  23.814  24.805  1.00  0.00     0.014 A 
BRANCH   8  13
ATOM     13  C   UNL A   1      31.333  26.310  25.684  1.00  0.00     0.074 C 
ATOM     14  N   UNL A   1      31.037  27.675  23.626  1.00  0.00    -0.328 N 
ATOM     15  C   UNL A   1      31.188  28.925  24.385  1.00  0.00     0.262 C 
ATOM     16  C   UNL A   1      30.456  26.604  24.456  1.00  0.00     0.270 C 
ATOM     17  H   UNL A   1      31.980  27.393  23.359  1.00  0.00     0.348 HD
ATOM     18  C   UNL A   1      31.986  28.735  25.679  1.00  0.00     0.062 C 
ATOM     19  C   UNL A   1      31.398  27.607  26.517  1.00  0.00     0.020 C 
BRANCH  14  20
ATOM     20  C   UNL A   1      30.280  27.848  22.371  1.00  0.00     0.340 C 
BRANCH  20  21
ATOM     21  C   UNL A   1      29.432  29.077  22.330  1.00  0.00     0.179 A 
ATOM     22  C   UNL A   1      28.126  32.060  20.992  1.00  0.00     0.092 C 
ATOM     23  C   UNL A   1      28.437  30.849  21.773  1.00  0.00     0.147 A 
ATOM     24  N   UNL A   1      27.591  30.302  22.654  1.00  0.00    -0.159 NA
ATOM     25  N   UNL A   1      29.601  30.156  21.593  1.00  0.00    -0.211 NA
ATOM     26  N   UNL A   1      28.255  29.189  23.009  1.00  0.00    -0.258 N 
ATOM     27  H   UNL A   1      27.933  28.539  23.673  1.00  0.00     0.192 HD
ENDBRANCH  20  21
ENDBRANCH  14  20
ENDBRANCH   8  13
ENDBRANCH   4   7
ENDBRANCH   2   3
ENDBRANCH   1   2
BRANCH   1  28
ATOM     28  C   UNL A   1      37.908  19.829  24.702  1.00  0.00     0.023 C 
BRANCH  28  29
ATOM     29  C   UNL A   1      39.019  20.149  25.693  1.00  0.00     0.116 C 
BRANCH  29  30
ATOM     30  N   UNL A   1      40.044  19.110  25.803  1.00  0.00    -0.352 N 
ATOM     31  C   UNL A   1      41.412  19.290  25.970  1.00  0.00     0.251 C 
ATOM     32  H   UNL A   1      39.730  18.178  25.752  1.00  0.00     0.163 HD
ATOM     33  O   UNL A   1      42.215  18.419  25.689  1.00  0.00    -0.269 OA
BRANCH  31  34
ATOM     34  C   UNL A   1      41.872  20.576  26.526  1.00  0.00     0.039 A 
ATOM     35  C   UNL A   1      42.428  21.581  25.727  1.00  0.00     0.014 A 
ATOM     36  C   UNL A   1      41.674  20.770  27.887  1.00  0.00     0.014 A 
ATOM     37  C   UNL A   1      42.697  22.825  26.299  1.00  0.00     0.010 A 
ATOM     38  C   UNL A   1      41.775  22.031  28.403  1.00  0.00     0.010 A 
ATOM     39  C   UNL A   1      42.347  23.046  27.638  1.00  0.00    -0.014 A 
BRANCH  39  40
ATOM     40  C   UNL A   1      42.427  24.367  28.257  1.00  0.00     0.031 A 
ATOM     41  C   UNL A   1      41.200  25.205  28.099  1.00  0.00     0.074 A 
ATOM     42  C   UNL A   1      43.402  24.631  29.159  1.00  0.00     0.049 A 
ATOM     43  N   UNL A   1      41.112  26.412  27.642  1.00  0.00    -0.248 NA
ATOM     44  C   UNL A   1      39.888  24.588  28.378  1.00  0.00     0.031 C 
ATOM     45  C   UNL A   1      44.483  23.733  29.594  1.00  0.00     0.029 A 
ATOM     46  N   UNL A   1      43.552  25.688  30.003  1.00  0.00    -0.354 N 
ATOM     47  C   UNL A   1      39.771  26.776  27.766  1.00  0.00     0.074 A 
ATOM     48  C   UNL A   1      39.046  25.566  28.040  1.00  0.00     0.031 C 
ATOM     49  C   UNL A   1      44.993  24.164  30.766  1.00  0.00     0.029 A 
ATOM     50  C   UNL A   1      44.396  25.445  31.086  1.00  0.00     0.049 A 
ATOM     51  H   UNL A   1      43.102  26.552  29.860  1.00  0.00     0.167 HD
ATOM     52  C   UNL A   1      39.409  28.084  27.896  1.00  0.00     0.037 A 
ATOM     53  C   UNL A   1      44.558  26.223  32.187  1.00  0.00     0.037 A 
ATOM     54  C   UNL A   1      40.471  28.954  27.457  1.00  0.00     0.049 A 
ATOM     55  C   UNL A   1      44.021  27.565  31.852  1.00  0.00     0.074 A 
ATOM     56  C   UNL A   1      41.147  29.131  26.266  1.00  0.00     0.029 A 
ATOM     57  N   UNL A   1      41.247  29.551  28.418  1.00  0.00    -0.354 N 
ATOM     58  N   UNL A   1      44.572  28.363  30.981  1.00  0.00    -0.248 NA
ATOM     59  C   UNL A   1      42.614  27.811  32.128  1.00  0.00     0.031 C 
ATOM     60  C   UNL A   1      42.500  29.370  26.644  1.00  0.00     0.029 A 
ATOM     61  C   UNL A   1      42.556  29.412  28.038  1.00  0.00     0.049 A 
ATOM     62  H   UNL A   1      40.924  29.998  29.233  1.00  0.00     0.167 HD
ATOM     63  C   UNL A   1      43.504  28.901  30.279  1.00  0.00     0.074 A 
ATOM     64  C   UNL A   1      42.323  28.591  31.082  1.00  0.00     0.031 C 
ATOM     65  C   UNL A   1      43.645  29.274  28.974  1.00  0.00     0.037 A 
BRANCH  52  66
ATOM     66  C   UNL A   1      38.286  28.581  28.783  1.00  0.00     0.064 A 
ATOM     67  C   UNL A   1      37.424  29.584  28.290  1.00  0.00     0.173 A 
ATOM     68  C   UNL A   1      38.216  28.359  30.175  1.00  0.00     0.173 A 
ATOM     69  F   UNL A   1      37.404  29.888  26.983  1.00  0.00    -0.203 F 
ATOM     70  C   UNL A   1      36.642  30.373  29.139  1.00  0.00     0.198 A 
ATOM     71  C   UNL A   1      37.394  29.112  31.013  1.00  0.00     0.198 A 
ATOM     72  F   UNL A   1      39.014  27.491  30.805  1.00  0.00    -0.203 F 
ATOM     73  F   UNL A   1      35.953  31.406  28.639  1.00  0.00    -0.200 F 
ATOM     74  C   UNL A   1      36.637  30.143  30.501  1.00  0.00     0.200 A 
ATOM     75  F   UNL A   1      37.414  28.881  32.333  1.00  0.00    -0.200 F 
ATOM     76  F   UNL A   1      35.946  30.941  31.326  1.00  0.00    -0.200 F 
ENDBRANCH  52  66
BRANCH  53  77
ATOM     77  C   UNL A   1      44.878  25.819  33.581  1.00  0.00     0.064 A 
ATOM     78  C   UNL A   1      45.793  26.550  34.356  1.00  0.00     0.173 A 
ATOM     79  C   UNL A   1      44.094  24.873  34.271  1.00  0.00     0.173 A 
ATOM     80  F   UNL A   1      46.550  27.501  33.789  1.00  0.00    -0.203 F 
ATOM     81  C   UNL A   1      45.900  26.366  35.740  1.00  0.00     0.198 A 
ATOM     82  C   UNL A   1      44.207  24.684  35.650  1.00  0.00     0.198 A 
ATOM     83  F   UNL A   1      43.139  24.179  33.638  1.00  0.00    -0.203 F 
ATOM     84  F   UNL A   1      46.742  27.126  36.455  1.00  0.00    -0.200 F 
ATOM     85  C   UNL A   1      45.099  25.441  36.388  1.00  0.00     0.200 A 
ATOM     86  F   UNL A   1      43.402  23.808  36.268  1.00  0.00    -0.200 F 
ATOM     87  F   UNL A   1      45.157  25.305  37.720  1.00  0.00    -0.200 F 
ENDBRANCH  53  77
BRANCH  65  88
ATOM     88  C   UNL A   1      45.036  29.321  28.403  1.00  0.00     0.064 A 
ATOM     89  C   UNL A   1      45.651  28.253  27.725  1.00  0.00     0.173 A 
ATOM     90  C   UNL A   1      45.712  30.547  28.411  1.00  0.00     0.173 A 
ATOM     91  F   UNL A   1      45.030  27.078  27.580  1.00  0.00    -0.203 F 
ATOM     92  C   UNL A   1      46.901  28.396  27.127  1.00  0.00     0.198 A 
ATOM     93  C   UNL A   1      46.942  30.699  27.779  1.00  0.00     0.198 A 
ATOM     94  F   UNL A   1      45.149  31.619  28.992  1.00  0.00    -0.203 F 
ATOM     95  F   UNL A   1      47.468  27.355  26.496  1.00  0.00    -0.200 F 
ATOM     96  C   UNL A   1      47.542  29.622  27.147  1.00  0.00     0.200 A 
ATOM     97  F   UNL A   1      47.534  31.901  27.757  1.00  0.00    -0.200 F 
ATOM     98  F   UNL A   1      48.724  29.773  26.533  1.00  0.00    -0.200 F 
ENDBRANCH  65  88
ENDBRANCH  39  40
ENDBRANCH  31  34
ENDBRANCH  29  30
ENDBRANCH  28  29
ENDBRANCH   1  28
TORSDOF 14
ENDMDL
MODEL 2
REMARK VINA RESULT:     -13.6      3.586      7.970
REMARK SMILES Cc1n[nH]c(C[N@H+]2CCC[C@H](c3cccc(C(=O)NCCCCNC(=O)c4ccc(-c5c6nc(c(-c7c(F)c(F)c(F)c(F)c7F)c7ccc([nH]7)c(-c7c(F)c(F)c(F)c(F)c7F)c7nc(c(-c8c(F)c(F)c(F)c(F)c8F)c8ccc5[nH]8)C=C7)C=C6)cc4)c3)C2)n1
REMARK SMILES IDX 21 1 20 2 19 3 17 4 18 5 16 7 12 8 13 9 90 10 14 11 15 12
REMARK SMILES IDX 11 13 7 14 8 15 91 16 9 18 10 19 6 20 5 21 1 22 2 23 3 24
REMARK SMILES IDX 92 25 4 26 22 28 23 29 24 30 25 31 26 33 27 34 28 35 89 36
REMARK SMILES IDX 29 37 88 38 30 39 31 40 32 41 82 42 33 43 87 44 81 45 83 46
REMARK SMILES IDX 34 47 86 48 80 49 79 50 35 52 67 53 47 54 66 55 48 56 51 57
REMARK SMILES IDX 65 58 84 59 49 60 50 61 64 63 85 64 52 65 36 66 37 67 45 68
REMARK SMILES IDX 38 69 39 70 43 71 46 72 40 73 41 74 44 75 42 76 68 77 69 78
REMARK SMILES IDX 77 79 70 80 71 81 75 82 78 83 72 84 73 85 76 86 74 87 53 88
REMARK SMILES IDX 54 89 62 90 55 91 56 92 60 93 63 94 57 95 58 96 61 97 59 98
REMARK H PARENT 19 6 7 17 4 27 24 32 83 51 51 62
REMARK Flexibility Score: inf
ROOT
ATOM      1  C   UNL A   1      40.808  20.688  26.813  1.00  0.00     0.023 C 
ENDROOT
BRANCH   1   2
ATOM      2  C   UNL A   1      39.706  21.448  26.077  1.00  0.00     0.116 C 
BRANCH   2   3
ATOM      3  N   UNL A   1      39.520  22.843  26.472  1.00  0.00    -0.352 N 
ATOM      4  C   UNL A   1      38.479  23.743  26.299  1.00  0.00     0.251 C 
ATOM      5  O   UNL A   1      38.607  24.875  26.764  1.00  0.00    -0.269 OA
ATOM      6  H   UNL A   1      40.287  23.219  26.960  1.00  0.00     0.163 HD
BRANCH   4   7
ATOM      7  C   UNL A   1      37.254  23.418  25.516  1.00  0.00     0.040 A 
ATOM      8  C   UNL A   1      35.101  22.292  25.452  1.00  0.00    -0.039 A 
ATOM      9  C   UNL A   1      35.156  22.310  24.053  1.00  0.00     0.004 A 
ATOM     10  C   UNL A   1      36.086  23.004  26.143  1.00  0.00     0.018 A 
ATOM     11  C   UNL A   1      36.211  22.944  23.389  1.00  0.00     0.001 A 
ATOM     12  C   UNL A   1      37.287  23.452  24.119  1.00  0.00     0.014 A 
BRANCH   8  13
ATOM     13  C   UNL A   1      34.178  21.368  26.250  1.00  0.00     0.074 C 
ATOM     14  N   UNL A   1      32.611  20.611  24.473  1.00  0.00    -0.328 N 
ATOM     15  C   UNL A   1      31.494  21.343  25.091  1.00  0.00     0.262 C 
ATOM     16  C   UNL A   1      33.594  20.173  25.480  1.00  0.00     0.270 C 
ATOM     17  H   UNL A   1      33.070  21.274  23.850  1.00  0.00     0.348 HD
ATOM     18  C   UNL A   1      31.967  22.519  25.951  1.00  0.00     0.062 C 
ATOM     19  C   UNL A   1      33.004  22.064  26.969  1.00  0.00     0.020 C 
BRANCH  14  20
ATOM     20  C   UNL A   1      32.167  19.483  23.632  1.00  0.00     0.340 C 
BRANCH  20  21
ATOM     21  C   UNL A   1      32.675  18.150  24.074  1.00  0.00     0.179 A 
ATOM     22  C   UNL A   1      32.550  14.998  25.638  1.00  0.00     0.092 C 
ATOM     23  C   UNL A   1      32.884  16.207  24.862  1.00  0.00     0.147 A 
ATOM     24  N   UNL A   1      33.803  16.229  23.890  1.00  0.00    -0.159 NA
ATOM     25  N   UNL A   1      32.214  17.385  25.042  1.00  0.00    -0.211 NA
ATOM     26  N   UNL A   1      33.667  17.480  23.419  1.00  0.00    -0.258 N 
ATOM     27  H   UNL A   1      34.211  17.863  22.695  1.00  0.00     0.192 HD
ENDBRANCH  20  21
ENDBRANCH  14  20
ENDBRANCH   8  13
ENDBRANCH   4   7
ENDBRANCH   2   3
ENDBRANCH   1   2
BRANCH   1  28
ATOM     28  C   UNL A   1      41.484  19.535  26.077  1.00  0.00     0.023 C 
BRANCH  28  29
ATOM     29  C   UNL A   1      42.947  19.307  26.432  1.00  0.00     0.116 C 
BRANCH  29  30
ATOM     30  N   UNL A   1      43.829  19.150  25.274  1.00  0.00    -0.352 N 
ATOM     31  C   UNL A   1      44.341  20.155  24.463  1.00  0.00     0.251 C 
ATOM     32  H   UNL A   1      44.090  18.229  25.044  1.00  0.00     0.163 HD
ATOM     33  O   UNL A   1      44.749  19.929  23.339  1.00  0.00    -0.269 OA
BRANCH  31  34
ATOM     34  C   UNL A   1      44.398  21.521  25.014  1.00  0.00     0.039 A 
ATOM     35  C   UNL A   1      43.439  22.493  24.709  1.00  0.00     0.014 A 
ATOM     36  C   UNL A   1      45.428  21.787  25.908  1.00  0.00     0.014 A 
ATOM     37  C   UNL A   1      43.474  23.711  25.389  1.00  0.00     0.010 A 
ATOM     38  C   UNL A   1      45.360  22.904  26.692  1.00  0.00     0.010 A 
ATOM     39  C   UNL A   1      44.431  23.899  26.396  1.00  0.00    -0.014 A 
BRANCH  39  40
ATOM     40  C   UNL A   1      44.419  25.067  27.274  1.00  0.00     0.031 A 
ATOM     41  C   UNL A   1      45.480  26.077  26.983  1.00  0.00     0.074 A 
ATOM     42  C   UNL A   1      43.331  25.324  28.038  1.00  0.00     0.049 A 
ATOM     43  N   UNL A   1      46.341  26.587  27.802  1.00  0.00    -0.248 NA
ATOM     44  C   UNL A   1      45.688  26.493  25.582  1.00  0.00     0.031 C 
ATOM     45  C   UNL A   1      42.106  24.518  28.148  1.00  0.00     0.029 A 
ATOM     46  N   UNL A   1      43.008  26.434  28.758  1.00  0.00    -0.354 N 
ATOM     47  C   UNL A   1      47.061  27.532  27.069  1.00  0.00     0.074 A 
ATOM     48  C   UNL A   1      46.749  27.295  25.687  1.00  0.00     0.031 C 
ATOM     49  C   UNL A   1      41.106  25.269  28.656  1.00  0.00     0.029 A 
ATOM     50  C   UNL A   1      41.651  26.550  29.058  1.00  0.00     0.049 A 
ATOM     51  H   UNL A   1      43.677  27.098  29.041  1.00  0.00     0.167 HD
ATOM     52  C   UNL A   1      47.645  28.600  27.684  1.00  0.00     0.037 A 
ATOM     53  C   UNL A   1      41.016  27.640  29.562  1.00  0.00     0.037 A 
ATOM     54  C   UNL A   1      47.784  28.361  29.098  1.00  0.00     0.049 A 
ATOM     55  C   UNL A   1      42.061  28.523  30.135  1.00  0.00     0.074 A 
ATOM     56  C   UNL A   1      48.433  27.411  29.861  1.00  0.00     0.029 A 
ATOM     57  N   UNL A   1      46.878  28.958  29.940  1.00  0.00    -0.354 N 
ATOM     58  N   UNL A   1      42.764  28.217  31.189  1.00  0.00    -0.248 NA
ATOM     59  C   UNL A   1      42.650  29.521  29.254  1.00  0.00     0.031 C 
ATOM     60  C   UNL A   1      47.550  27.147  30.949  1.00  0.00     0.029 A 
ATOM     61  C   UNL A   1      46.460  28.010  30.836  1.00  0.00     0.049 A 
ATOM     62  H   UNL A   1      46.581  29.896  29.905  1.00  0.00     0.167 HD
ATOM     63  C   UNL A   1      44.051  28.628  30.878  1.00  0.00     0.074 A 
ATOM     64  C   UNL A   1      43.906  29.497  29.712  1.00  0.00     0.031 C 
ATOM     65  C   UNL A   1      45.134  27.984  31.404  1.00  0.00     0.037 A 
BRANCH  52  66
ATOM     66  C   UNL A   1      47.715  29.995  27.099  1.00  0.00     0.064 A 
ATOM     67  C   UNL A   1      48.927  30.711  27.194  1.00  0.00     0.173 A 
ATOM     68  C   UNL A   1      46.586  30.768  26.751  1.00  0.00     0.173 A 
ATOM     69  F   UNL A   1      50.068  30.086  27.522  1.00  0.00    -0.203 F 
ATOM     70  C   UNL A   1      48.979  32.102  27.059  1.00  0.00     0.198 A 
ATOM     71  C   UNL A   1      46.651  32.148  26.564  1.00  0.00     0.198 A 
ATOM     72  F   UNL A   1      45.354  30.252  26.686  1.00  0.00    -0.203 F 
ATOM     73  F   UNL A   1      50.126  32.750  27.300  1.00  0.00    -0.200 F 
ATOM     74  C   UNL A   1      47.839  32.820  26.755  1.00  0.00     0.200 A 
ATOM     75  F   UNL A   1      45.531  32.827  26.283  1.00  0.00    -0.200 F 
ATOM     76  F   UNL A   1      47.870  34.158  26.697  1.00  0.00    -0.200 F 
ENDBRANCH  52  66
BRANCH  53  77
ATOM     77  C   UNL A   1      39.622  28.099  29.336  1.00  0.00     0.064 A 
ATOM     78  C   UNL A   1      38.714  28.217  30.402  1.00  0.00     0.173 A 
ATOM     79  C   UNL A   1      39.230  28.688  28.118  1.00  0.00     0.173 A 
ATOM     80  F   UNL A   1      39.023  27.722  31.610  1.00  0.00    -0.203 F 
ATOM     81  C   UNL A   1      37.502  28.905  30.266  1.00  0.00     0.198 A 
ATOM     82  C   UNL A   1      38.017  29.367  27.981  1.00  0.00     0.198 A 
ATOM     83  F   UNL A   1      40.055  28.698  27.062  1.00  0.00    -0.203 F 
ATOM     84  F   UNL A   1      36.690  29.048  31.323  1.00  0.00    -0.200 F 
ATOM     85  C   UNL A   1      37.159  29.489  29.058  1.00  0.00     0.200 A 
ATOM     86  F   UNL A   1      37.714  29.955  26.815  1.00  0.00    -0.200 F 
ATOM     87  F   UNL A   1      36.028  30.198  28.943  1.00  0.00    -0.200 F 
ENDBRANCH  53  77
BRANCH  65  88
ATOM     88  C   UNL A   1      44.894  26.994  32.512  1.00  0.00     0.064 A 
ATOM     89  C   UNL A   1      44.661  25.622  32.311  1.00  0.00     0.173 A 
ATOM     90  C   UNL A   1      45.056  27.429  33.832  1.00  0.00     0.173 A 
ATOM     91  F   UNL A   1      44.596  25.105  31.080  1.00  0.00    -0.203 F 
ATOM     92  C   UNL A   1      44.551  24.739  33.383  1.00  0.00     0.198 A 
ATOM     93  C   UNL A   1      44.986  26.540  34.900  1.00  0.00     0.198 A 
ATOM     94  F   UNL A   1      45.338  28.718  34.084  1.00  0.00    -0.203 F 
ATOM     95  F   UNL A   1      44.318  23.436  33.162  1.00  0.00    -0.200 F 
ATOM     96  C   UNL A   1      44.723  25.198  34.678  1.00  0.00     0.200 A 
ATOM     97  F   UNL A   1      45.204  26.980  36.147  1.00  0.00    -0.200 F 
ATOM     98  F   UNL A   1      44.662  24.343  35.708  1.00  0.00    -0.200 F 
ENDBRANCH  65  88
ENDBRANCH  39  40
ENDBRANCH  31  34
ENDBRANCH  29  30
ENDBRANCH  28  29
ENDBRANCH   1  28
TORSDOF 14
ENDMDL
MODEL 3
REMARK VINA RESULT:     -13.5      3.369      8.091
REMARK SMILES Cc1n[nH]c(C[N@H+]2CCC[C@H](c3cccc(C(=O)NCCCCNC(=O)c4ccc(-c5c6nc(c(-c7c(F)c(F)c(F)c(F)c7F)c7ccc([nH]7)c(-c7c(F)c(F)c(F)c(F)c7F)c7nc(c(-c8c(F)c(F)c(F)c(F)c8F)c8ccc5[nH]8)C=C7)C=C6)cc4)c3)C2)n1
REMARK SMILES IDX 21 1 20 2 19 3 17 4 18 5 16 7 12 8 13 9 90 10 14 11 15 12
REMARK SMILES IDX 11 13 7 14 8 15 91 16 9 18 10 19 6 20 5 21 1 22 2 23 3 24
REMARK SMILES IDX 92 25 4 26 22 28 23 29 24 30 25 31 26 33 27 34 28 35 89 36
REMARK SMILES IDX 29 37 88 38 30 39 31 40 32 41 82 42 33 43 87 44 81 45 83 46
REMARK SMILES IDX 34 47 86 48 80 49 79 50 35 52 67 53 47 54 66 55 48 56 51 57
REMARK SMILES IDX 65 58 84 59 49 60 50 61 64 63 85 64 52 65 36 66 37 67 45 68
REMARK SMILES IDX 38 69 39 70 43 71 46 72 40 73 41 74 44 75 42 76 68 77 69 78
REMARK SMILES IDX 77 79 70 80 71 81 75 82 78 83 72 84 73 85 76 86 74 87 53 88
REMARK SMILES IDX 54 89 62 90 55 91 56 92 60 93 63 94 57 95 58 96 61 97 59 98
REMARK H PARENT 19 6 7 17 4 27 24 32 83 51 51 62
REMARK Flexibility Score: inf
ROOT
ATOM      1  C   UNL A   1      33.199  29.329  25.035  1.00  0.00     0.023 C 
ENDROOT
BRANCH   1   2
ATOM      2  C   UNL A   1      31.756  29.659  24.657  1.00  0.00     0.116 C 
BRANCH   2   3
ATOM      3  N   UNL A   1      31.277  29.080  23.403  1.00  0.00    -0.352 N 
ATOM      4  C   UNL A   1      30.913  27.793  23.036  1.00  0.00     0.251 C 
ATOM      5  O   UNL A   1      30.528  27.605  21.882  1.00  0.00    -0.269 OA
ATOM      6  H   UNL A   1      31.196  29.735  22.673  1.00  0.00     0.163 HD
BRANCH   4   7
ATOM      7  C   UNL A   1      31.038  26.626  23.953  1.00  0.00     0.040 A 
ATOM      8  C   UNL A   1      31.647  24.288  24.225  1.00  0.00    -0.039 A 
ATOM      9  C   UNL A   1      30.865  24.240  25.385  1.00  0.00     0.004 A 
ATOM     10  C   UNL A   1      31.842  25.540  23.633  1.00  0.00     0.018 A 
ATOM     11  C   UNL A   1      30.237  25.392  25.869  1.00  0.00     0.001 A 
ATOM     12  C   UNL A   1      30.280  26.573  25.126  1.00  0.00     0.014 A 
BRANCH   8  13
ATOM     13  C   UNL A   1      32.100  23.044  23.457  1.00  0.00     0.074 C 
ATOM     14  N   UNL A   1      33.697  22.042  25.078  1.00  0.00    -0.328 N 
ATOM     15  C   UNL A   1      34.836  22.322  24.190  1.00  0.00     0.262 C 
ATOM     16  C   UNL A   1      32.457  21.819  24.314  1.00  0.00     0.270 C 
ATOM     17  H   UNL A   1      33.573  22.878  25.648  1.00  0.00     0.348 HD
ATOM     18  C   UNL A   1      34.561  23.485  23.232  1.00  0.00     0.062 C 
ATOM     19  C   UNL A   1      33.262  23.262  22.467  1.00  0.00     0.020 C 
BRANCH  14  20
ATOM     20  C   UNL A   1      33.955  20.931  26.015  1.00  0.00     0.340 C 
BRANCH  20  21
ATOM     21  C   UNL A   1      33.474  19.600  25.537  1.00  0.00     0.179 A 
ATOM     22  C   UNL A   1      33.531  16.629  23.648  1.00  0.00     0.092 C 
ATOM     23  C   UNL A   1      33.265  17.725  24.598  1.00  0.00     0.147 A 
ATOM     24  N   UNL A   1      32.558  17.570  25.724  1.00  0.00    -0.159 NA
ATOM     25  N   UNL A   1      33.793  18.974  24.422  1.00  0.00    -0.211 NA
ATOM     26  N   UNL A   1      32.687  18.781  26.292  1.00  0.00    -0.258 N 
ATOM     27  H   UNL A   1      32.270  19.042  27.143  1.00  0.00     0.192 HD
ENDBRANCH  20  21
ENDBRANCH  14  20
ENDBRANCH   8  13
ENDBRANCH   4   7
ENDBRANCH   2   3
ENDBRANCH   1   2
BRANCH   1  28
ATOM     28  C   UNL A   1      33.429  28.546  26.324  1.00  0.00     0.023 C 
BRANCH  28  29
ATOM     29  C   UNL A   1      33.891  29.377  27.514  1.00  0.00     0.116 C 
BRANCH  29  30
ATOM     30  N   UNL A   1      34.188  30.774  27.192  1.00  0.00    -0.352 N 
ATOM     31  C   UNL A   1      35.252  31.538  27.658  1.00  0.00     0.251 C 
ATOM     32  H   UNL A   1      33.565  31.224  26.576  1.00  0.00     0.163 HD
ATOM     33  O   UNL A   1      35.226  32.754  27.641  1.00  0.00    -0.269 OA
BRANCH  31  34
ATOM     34  C   UNL A   1      36.441  30.825  28.159  1.00  0.00     0.039 A 
ATOM     35  C   UNL A   1      36.705  29.489  27.837  1.00  0.00     0.014 A 
ATOM     36  C   UNL A   1      37.329  31.565  28.931  1.00  0.00     0.014 A 
ATOM     37  C   UNL A   1      37.924  28.932  28.223  1.00  0.00     0.010 A 
ATOM     38  C   UNL A   1      38.585  31.076  29.156  1.00  0.00     0.010 A 
ATOM     39  C   UNL A   1      38.868  29.743  28.867  1.00  0.00    -0.014 A 
BRANCH  39  40
ATOM     40  C   UNL A   1      40.231  29.289  29.139  1.00  0.00     0.031 A 
ATOM     41  C   UNL A   1      40.549  29.103  30.585  1.00  0.00     0.074 A 
ATOM     42  C   UNL A   1      40.983  28.777  28.135  1.00  0.00     0.049 A 
ATOM     43  N   UNL A   1      41.540  29.599  31.254  1.00  0.00    -0.248 NA
ATOM     44  C   UNL A   1      39.587  28.364  31.427  1.00  0.00     0.031 C 
ATOM     45  C   UNL A   1      40.613  28.650  26.717  1.00  0.00     0.029 A 
ATOM     46  N   UNL A   1      42.170  28.113  28.181  1.00  0.00    -0.354 N 
ATOM     47  C   UNL A   1      41.439  29.074  32.543  1.00  0.00     0.074 A 
ATOM     48  C   UNL A   1      40.132  28.485  32.639  1.00  0.00     0.031 C 
ATOM     49  C   UNL A   1      41.411  27.745  26.114  1.00  0.00     0.029 A 
ATOM     50  C   UNL A   1      42.447  27.349  27.048  1.00  0.00     0.049 A 
ATOM     51  H   UNL A   1      42.782  28.169  28.950  1.00  0.00     0.167 HD
ATOM     52  C   UNL A   1      42.542  28.935  33.332  1.00  0.00     0.037 A 
ATOM     53  C   UNL A   1      43.431  26.425  26.905  1.00  0.00     0.037 A 
ATOM     54  C   UNL A   1      43.620  29.763  32.852  1.00  0.00     0.049 A 
ATOM     55  C   UNL A   1      44.415  26.671  27.988  1.00  0.00     0.074 A 
ATOM     56  C   UNL A   1      43.783  31.119  32.649  1.00  0.00     0.029 A 
ATOM     57  N   UNL A   1      44.622  29.157  32.136  1.00  0.00    -0.354 N 
ATOM     58  N   UNL A   1      45.169  27.733  28.048  1.00  0.00    -0.248 NA
ATOM     59  C   UNL A   1      44.213  25.971  29.248  1.00  0.00     0.031 C 
ATOM     60  C   UNL A   1      44.540  31.222  31.446  1.00  0.00     0.029 A 
ATOM     61  C   UNL A   1      44.869  29.931  31.033  1.00  0.00     0.049 A 
ATOM     62  H   UNL A   1      45.080  28.318  32.371  1.00  0.00     0.167 HD
ATOM     63  C   UNL A   1      45.160  28.088  29.389  1.00  0.00     0.074 A 
ATOM     64  C   UNL A   1      44.627  26.922  30.091  1.00  0.00     0.031 C 
ATOM     65  C   UNL A   1      45.297  29.393  29.765  1.00  0.00     0.037 A 
BRANCH  52  66
ATOM     66  C   UNL A   1      42.787  27.773  34.271  1.00  0.00     0.064 A 
ATOM     67  C   UNL A   1      43.242  26.549  33.733  1.00  0.00     0.173 A 
ATOM     68  C   UNL A   1      42.299  27.703  35.594  1.00  0.00     0.173 A 
ATOM     69  F   UNL A   1      43.725  26.489  32.483  1.00  0.00    -0.203 F 
ATOM     70  C   UNL A   1      43.113  25.342  34.426  1.00  0.00     0.198 A 
ATOM     71  C   UNL A   1      42.222  26.504  36.302  1.00  0.00     0.198 A 
ATOM     72  F   UNL A   1      41.771  28.759  36.221  1.00  0.00    -0.203 F 
ATOM     73  F   UNL A   1      43.425  24.190  33.817  1.00  0.00    -0.200 F 
ATOM     74  C   UNL A   1      42.593  25.319  35.706  1.00  0.00     0.200 A 
ATOM     75  F   UNL A   1      41.702  26.503  37.537  1.00  0.00    -0.200 F 
ATOM     76  F   UNL A   1      42.401  24.158  36.344  1.00  0.00    -0.200 F 
ENDBRANCH  52  66
BRANCH  53  77
ATOM     77  C   UNL A   1      43.441  25.185  26.088  1.00  0.00     0.064 A 
ATOM     78  C   UNL A   1      44.486  24.917  25.188  1.00  0.00     0.173 A 
ATOM     79  C   UNL A   1      42.571  24.113  26.367  1.00  0.00     0.173 A 
ATOM     80  F   UNL A   1      45.387  25.868  24.896  1.00  0.00    -0.203 F 
ATOM     81  C   UNL A   1      44.666  23.648  24.622  1.00  0.00     0.198 A 
ATOM     82  C   UNL A   1      42.746  22.850  25.796  1.00  0.00     0.198 A 
ATOM     83  F   UNL A   1      41.588  24.242  27.269  1.00  0.00    -0.203 F 
ATOM     84  F   UNL A   1      45.711  23.416  23.815  1.00  0.00    -0.200 F 
ATOM     85  C   UNL A   1      43.802  22.613  24.936  1.00  0.00     0.200 A 
ATOM     86  F   UNL A   1      41.922  21.849  26.135  1.00  0.00    -0.200 F 
ATOM     87  F   UNL A   1      44.008  21.383  24.443  1.00  0.00    -0.200 F 
ENDBRANCH  53  77
BRANCH  65  88
ATOM     88  C   UNL A   1      45.706  30.388  28.713  1.00  0.00     0.064 A 
ATOM     89  C   UNL A   1      44.804  31.104  27.906  1.00  0.00     0.173 A 
ATOM     90  C   UNL A   1      47.058  30.739  28.627  1.00  0.00     0.173 A 
ATOM     91  F   UNL A   1      43.485  30.905  28.000  1.00  0.00    -0.203 F 
ATOM     92  C   UNL A   1      45.242  32.089  27.025  1.00  0.00     0.198 A 
ATOM     93  C   UNL A   1      47.490  31.751  27.775  1.00  0.00     0.198 A 
ATOM     94  F   UNL A   1      47.961  30.132  29.414  1.00  0.00    -0.203 F 
ATOM     95  F   UNL A   1      44.358  32.748  26.259  1.00  0.00    -0.200 F 
ATOM     96  C   UNL A   1      46.585  32.418  26.966  1.00  0.00     0.200 A 
ATOM     97  F   UNL A   1      48.784  32.101  27.759  1.00  0.00    -0.200 F 
ATOM     98  F   UNL A   1      47.003  33.397  26.150  1.00  0.00    -0.200 F 
ENDBRANCH  65  88
ENDBRANCH  39  40
ENDBRANCH  31  34
ENDBRANCH  29  30
ENDBRANCH  28  29
ENDBRANCH   1  28
TORSDOF 14
ENDMDL
