MODEL 1
REMARK VINA RESULT:     -12.5      0.000      0.000
REMARK SMILES COc1ccccc1-c1ccc(C(=O)NCCCCNC(=O)c2ccc(-c3c4nc(c(-c5c(F)c(F)c(F)c(F)c5F)c5ccc([nH]5)c(-c5c(F)c(F)c(F)c(F)c5F)c5nc(c(-c6c(F)c(F)c(F)c(F)c6F)c6ccc3[nH]6)C=C5)C=C4)cc2)c(O)c1
REMARK SMILES IDX 17 1 16 2 15 3 13 4 14 5 12 7 9 8 10 9 88 10 11 11 86 12
REMARK SMILES IDX 8 13 3 14 4 15 5 16 7 17 6 18 2 19 1 20 87 21 18 23 19 24
REMARK SMILES IDX 20 25 21 26 22 28 23 29 24 30 85 31 25 32 84 33 26 34 27 35
REMARK SMILES IDX 28 36 78 37 29 38 83 39 77 40 79 41 30 42 82 43 76 44 75 45
REMARK SMILES IDX 31 47 63 48 43 49 62 50 44 51 47 52 61 53 80 54 45 55 46 56
REMARK SMILES IDX 60 58 81 59 48 60 32 61 33 62 41 63 34 64 35 65 39 66 42 67
REMARK SMILES IDX 36 68 37 69 40 70 38 71 64 72 65 73 73 74 66 75 67 76 71 77
REMARK SMILES IDX 74 78 68 79 69 80 72 81 70 82 49 83 50 84 58 85 51 86 52 87
REMARK SMILES IDX 56 88 59 89 53 90 54 91 57 92 55 93
REMARK H PARENT 15 6 87 22 20 27 79 46 47 57
REMARK Flexibility Score: inf
ROOT
ATOM      1  C   UNL A   1      32.082  30.272  26.770  1.00  0.00     0.023 C 
ENDROOT
BRANCH   1   2
ATOM      2  C   UNL A   1      32.888  29.806  25.554  1.00  0.00     0.116 C 
BRANCH   2   3
ATOM      3  N   UNL A   1      32.009  29.540  24.436  1.00  0.00    -0.352 N 
ATOM      4  C   UNL A   1      31.945  28.472  23.575  1.00  0.00     0.255 C 
ATOM      5  O   UNL A   1      31.101  28.523  22.676  1.00  0.00    -0.269 OA
ATOM      6  H   UNL A   1      31.345  30.245  24.262  1.00  0.00     0.163 HD
BRANCH   4   7
ATOM      7  C   UNL A   1      32.745  27.224  23.731  1.00  0.00     0.081 A 
ATOM      8  C   UNL A   1      34.199  24.863  24.323  1.00  0.00    -0.011 A 
ATOM      9  C   UNL A   1      33.450  25.500  25.318  1.00  0.00     0.010 A 
ATOM     10  C   UNL A   1      34.169  25.386  23.026  1.00  0.00     0.055 A 
ATOM     11  C   UNL A   1      32.743  26.671  25.025  1.00  0.00     0.018 A 
ATOM     12  C   UNL A   1      33.429  26.533  22.727  1.00  0.00     0.128 A 
BRANCH   8  13
ATOM     13  C   UNL A   1      35.004  23.671  24.594  1.00  0.00     0.024 A 
ATOM     14  C   UNL A   1      34.489  22.365  24.468  1.00  0.00     0.126 A 
ATOM     15  C   UNL A   1      35.237  21.261  24.889  1.00  0.00     0.047 A 
ATOM     16  C   UNL A   1      36.519  21.438  25.407  1.00  0.00     0.004 A 
ATOM     17  C   UNL A   1      36.304  23.825  25.108  1.00  0.00     0.012 A 
ATOM     18  C   UNL A   1      37.055  22.719  25.512  1.00  0.00     0.001 A 
BRANCH  14  19
ATOM     19  O   UNL A   1      33.214  22.082  24.042  1.00  0.00    -0.496 OA
ATOM     20  C   UNL A   1      32.349  21.673  25.101  1.00  0.00     0.278 C 
ENDBRANCH  14  19
ENDBRANCH   8  13
BRANCH  12  21
ATOM     21  O   UNL A   1      33.375  26.902  21.417  1.00  0.00    -0.507 OA
ATOM     22  H   UNL A   1      32.905  27.672  21.166  1.00  0.00     0.293 HD
ENDBRANCH  12  21
ENDBRANCH   4   7
ENDBRANCH   2   3
ENDBRANCH   1   2
BRANCH   1  23
ATOM     23  C   UNL A   1      31.758  31.762  26.801  1.00  0.00     0.023 C 
BRANCH  23  24
ATOM     24  C   UNL A   1      32.883  32.643  27.313  1.00  0.00     0.116 C 
BRANCH  24  25
ATOM     25  N   UNL A   1      32.465  34.004  27.618  1.00  0.00    -0.352 N 
ATOM     26  C   UNL A   1      32.992  34.865  28.551  1.00  0.00     0.251 C 
ATOM     27  H   UNL A   1      31.710  34.352  27.089  1.00  0.00     0.163 HD
ATOM     28  O   UNL A   1      32.485  35.959  28.759  1.00  0.00    -0.269 OA
BRANCH  26  29
ATOM     29  C   UNL A   1      34.159  34.422  29.338  1.00  0.00     0.039 A 
ATOM     30  C   UNL A   1      33.944  33.742  30.538  1.00  0.00     0.014 A 
ATOM     31  C   UNL A   1      35.454  34.617  28.850  1.00  0.00     0.014 A 
ATOM     32  C   UNL A   1      35.031  33.190  31.217  1.00  0.00     0.010 A 
ATOM     33  C   UNL A   1      36.525  34.004  29.487  1.00  0.00     0.010 A 
ATOM     34  C   UNL A   1      36.322  33.287  30.677  1.00  0.00    -0.014 A 
BRANCH  34  35
ATOM     35  C   UNL A   1      37.489  32.668  31.345  1.00  0.00     0.031 A 
ATOM     36  C   UNL A   1      38.213  31.538  30.670  1.00  0.00     0.074 A 
ATOM     37  C   UNL A   1      37.841  33.061  32.583  1.00  0.00     0.049 A 
ATOM     38  N   UNL A   1      39.175  30.780  31.127  1.00  0.00    -0.248 NA
ATOM     39  C   UNL A   1      37.766  31.192  29.311  1.00  0.00     0.031 C 
ATOM     40  C   UNL A   1      37.184  34.114  33.358  1.00  0.00     0.029 A 
ATOM     41  N   UNL A   1      38.833  32.606  33.416  1.00  0.00    -0.354 N 
ATOM     42  C   UNL A   1      39.431  29.855  30.124  1.00  0.00     0.074 A 
ATOM     43  C   UNL A   1      38.493  30.114  29.054  1.00  0.00     0.031 C 
ATOM     44  C   UNL A   1      37.801  34.238  34.544  1.00  0.00     0.029 A 
ATOM     45  C   UNL A   1      38.873  33.251  34.627  1.00  0.00     0.049 A 
ATOM     46  H   UNL A   1      39.456  31.886  33.167  1.00  0.00     0.167 HD
ATOM     47  C   UNL A   1      40.379  28.889  30.090  1.00  0.00     0.037 A 
ATOM     48  C   UNL A   1      39.685  33.061  35.684  1.00  0.00     0.037 A 
ATOM     49  C   UNL A   1      41.336  28.662  31.138  1.00  0.00     0.049 A 
ATOM     50  C   UNL A   1      40.748  31.999  35.610  1.00  0.00     0.074 A 
ATOM     51  C   UNL A   1      42.373  27.747  31.179  1.00  0.00     0.029 A 
ATOM     52  N   UNL A   1      41.377  29.369  32.331  1.00  0.00    -0.354 N 
ATOM     53  N   UNL A   1      41.015  31.164  34.637  1.00  0.00    -0.248 NA
ATOM     54  C   UNL A   1      41.626  31.859  36.780  1.00  0.00     0.031 C 
ATOM     55  C   UNL A   1      43.027  27.883  32.408  1.00  0.00     0.029 A 
ATOM     56  C   UNL A   1      42.419  28.907  33.117  1.00  0.00     0.049 A 
ATOM     57  H   UNL A   1      40.758  30.093  32.581  1.00  0.00     0.167 HD
ATOM     58  C   UNL A   1      42.109  30.422  35.060  1.00  0.00     0.074 A 
ATOM     59  C   UNL A   1      42.460  30.909  36.378  1.00  0.00     0.031 C 
ATOM     60  C   UNL A   1      42.763  29.425  34.417  1.00  0.00     0.037 A 
BRANCH  47  61
ATOM     61  C   UNL A   1      40.428  28.015  28.873  1.00  0.00     0.064 A 
ATOM     62  C   UNL A   1      41.195  28.363  27.752  1.00  0.00     0.173 A 
ATOM     63  C   UNL A   1      39.716  26.807  28.836  1.00  0.00     0.173 A 
ATOM     64  F   UNL A   1      41.880  29.516  27.735  1.00  0.00    -0.203 F 
ATOM     65  C   UNL A   1      41.224  27.547  26.624  1.00  0.00     0.198 A 
ATOM     66  C   UNL A   1      39.771  25.980  27.716  1.00  0.00     0.198 A 
ATOM     67  F   UNL A   1      38.969  26.427  29.882  1.00  0.00    -0.203 F 
ATOM     68  F   UNL A   1      41.925  27.925  25.545  1.00  0.00    -0.200 F 
ATOM     69  C   UNL A   1      40.518  26.354  26.610  1.00  0.00     0.200 A 
ATOM     70  F   UNL A   1      39.094  24.824  27.706  1.00  0.00    -0.200 F 
ATOM     71  F   UNL A   1      40.550  25.569  25.524  1.00  0.00    -0.200 F 
ENDBRANCH  47  61
BRANCH  48  72
ATOM     72  C   UNL A   1      39.548  33.919  36.889  1.00  0.00     0.064 A 
ATOM     73  C   UNL A   1      38.790  33.492  37.987  1.00  0.00     0.173 A 
ATOM     74  C   UNL A   1      40.165  35.176  36.967  1.00  0.00     0.173 A 
ATOM     75  F   UNL A   1      38.166  32.305  37.948  1.00  0.00    -0.203 F 
ATOM     76  C   UNL A   1      38.638  34.297  39.114  1.00  0.00     0.198 A 
ATOM     77  C   UNL A   1      40.031  35.971  38.104  1.00  0.00     0.198 A 
ATOM     78  F   UNL A   1      40.904  35.627  35.944  1.00  0.00    -0.203 F 
ATOM     79  F   UNL A   1      37.875  33.881  40.133  1.00  0.00    -0.200 F 
ATOM     80  C   UNL A   1      39.261  35.534  39.173  1.00  0.00     0.200 A 
ATOM     81  F   UNL A   1      40.643  37.161  38.163  1.00  0.00    -0.200 F 
ATOM     82  F   UNL A   1      39.116  36.309  40.257  1.00  0.00    -0.200 F 
ENDBRANCH  48  72
BRANCH  60  83
ATOM     83  C   UNL A   1      43.953  28.829  35.104  1.00  0.00     0.064 A 
ATOM     84  C   UNL A   1      45.245  29.335  34.906  1.00  0.00     0.173 A 
ATOM     85  C   UNL A   1      43.788  27.774  36.014  1.00  0.00     0.173 A 
ATOM     86  F   UNL A   1      45.451  30.333  34.034  1.00  0.00    -0.203 F 
ATOM     87  C   UNL A   1      46.334  28.793  35.582  1.00  0.00     0.198 A 
ATOM     88  C   UNL A   1      44.876  27.250  36.706  1.00  0.00     0.198 A 
ATOM     89  F   UNL A   1      42.570  27.260  36.241  1.00  0.00    -0.203 F 
ATOM     90  F   UNL A   1      47.566  29.268  35.353  1.00  0.00    -0.200 F 
ATOM     91  C   UNL A   1      46.148  27.757  36.487  1.00  0.00     0.200 A 
ATOM     92  F   UNL A   1      44.693  26.257  37.586  1.00  0.00    -0.200 F 
ATOM     93  F   UNL A   1      47.197  27.243  37.143  1.00  0.00    -0.200 F 
ENDBRANCH  60  83
ENDBRANCH  34  35
ENDBRANCH  26  29
ENDBRANCH  24  25
ENDBRANCH  23  24
ENDBRANCH   1  23
TORSDOF 14
ENDMDL
MODEL 2
REMARK VINA RESULT:     -12.5      0.141      1.608
REMARK SMILES COc1ccccc1-c1ccc(C(=O)NCCCCNC(=O)c2ccc(-c3c4nc(c(-c5c(F)c(F)c(F)c(F)c5F)c5ccc([nH]5)c(-c5c(F)c(F)c(F)c(F)c5F)c5nc(c(-c6c(F)c(F)c(F)c(F)c6F)c6ccc3[nH]6)C=C5)C=C4)cc2)c(O)c1
REMARK SMILES IDX 17 1 16 2 15 3 13 4 14 5 12 7 9 8 10 9 88 10 11 11 86 12
REMARK SMILES IDX 8 13 3 14 4 15 5 16 7 17 6 18 2 19 1 20 87 21 18 23 19 24
REMARK SMILES IDX 20 25 21 26 22 28 23 29 24 30 85 31 25 32 84 33 26 34 27 35
REMARK SMILES IDX 28 36 78 37 29 38 83 39 77 40 79 41 30 42 82 43 76 44 75 45
REMARK SMILES IDX 31 47 63 48 43 49 62 50 44 51 47 52 61 53 80 54 45 55 46 56
REMARK SMILES IDX 60 58 81 59 48 60 32 61 33 62 41 63 34 64 35 65 39 66 42 67
REMARK SMILES IDX 36 68 37 69 40 70 38 71 64 72 65 73 73 74 66 75 67 76 71 77
REMARK SMILES IDX 74 78 68 79 69 80 72 81 70 82 49 83 50 84 58 85 51 86 52 87
REMARK SMILES IDX 56 88 59 89 53 90 54 91 57 92 55 93
REMARK H PARENT 15 6 87 22 20 27 79 46 47 57
REMARK Flexibility Score: inf
ROOT
ATOM      1  C   UNL A   1      32.086  30.287  26.870  1.00  0.00     0.023 C 
ENDROOT
BRANCH   1   2
ATOM      2  C   UNL A   1      32.888  29.802  25.658  1.00  0.00     0.116 C 
BRANCH   2   3
ATOM      3  N   UNL A   1      32.017  29.608  24.519  1.00  0.00    -0.352 N 
ATOM      4  C   UNL A   1      31.927  28.576  23.619  1.00  0.00     0.255 C 
ATOM      5  O   UNL A   1      31.099  28.689  22.711  1.00  0.00    -0.269 OA
ATOM      6  H   UNL A   1      31.380  30.342  24.362  1.00  0.00     0.163 HD
BRANCH   4   7
ATOM      7  C   UNL A   1      32.681  27.295  23.739  1.00  0.00     0.081 A 
ATOM      8  C   UNL A   1      34.049  24.868  24.264  1.00  0.00    -0.011 A 
ATOM      9  C   UNL A   1      33.335  25.510  25.280  1.00  0.00     0.010 A 
ATOM     10  C   UNL A   1      34.028  25.421  22.980  1.00  0.00     0.055 A 
ATOM     11  C   UNL A   1      32.670  26.714  25.021  1.00  0.00     0.018 A 
ATOM     12  C   UNL A   1      33.329  26.601  22.713  1.00  0.00     0.128 A 
BRANCH   8  13
ATOM     13  C   UNL A   1      34.812  23.640  24.501  1.00  0.00     0.024 A 
ATOM     14  C   UNL A   1      34.242  22.359  24.364  1.00  0.00     0.126 A 
ATOM     15  C   UNL A   1      34.953  21.219  24.753  1.00  0.00     0.047 A 
ATOM     16  C   UNL A   1      36.250  21.336  25.249  1.00  0.00     0.004 A 
ATOM     17  C   UNL A   1      36.126  23.735  24.993  1.00  0.00     0.012 A 
ATOM     18  C   UNL A   1      36.839  22.593  25.364  1.00  0.00     0.001 A 
BRANCH  14  19
ATOM     19  O   UNL A   1      32.950  22.133  23.958  1.00  0.00    -0.496 OA
ATOM     20  C   UNL A   1      32.132  21.567  24.983  1.00  0.00     0.278 C 
ENDBRANCH  14  19
ENDBRANCH   8  13
BRANCH  12  21
ATOM     21  O   UNL A   1      33.278  27.002  21.412  1.00  0.00    -0.507 OA
ATOM     22  H   UNL A   1      32.460  27.255  21.032  1.00  0.00     0.293 HD
ENDBRANCH  12  21
ENDBRANCH   4   7
ENDBRANCH   2   3
ENDBRANCH   1   2
BRANCH   1  23
ATOM     23  C   UNL A   1      31.759  31.777  26.876  1.00  0.00     0.023 C 
BRANCH  23  24
ATOM     24  C   UNL A   1      32.907  32.675  27.298  1.00  0.00     0.116 C 
BRANCH  24  25
ATOM     25  N   UNL A   1      32.498  34.039  27.604  1.00  0.00    -0.352 N 
ATOM     26  C   UNL A   1      33.027  34.893  28.543  1.00  0.00     0.251 C 
ATOM     27  H   UNL A   1      31.749  34.394  27.073  1.00  0.00     0.163 HD
ATOM     28  O   UNL A   1      32.528  35.990  28.751  1.00  0.00    -0.269 OA
BRANCH  26  29
ATOM     29  C   UNL A   1      34.186  34.438  29.335  1.00  0.00     0.039 A 
ATOM     30  C   UNL A   1      33.959  33.802  30.558  1.00  0.00     0.014 A 
ATOM     31  C   UNL A   1      35.482  34.578  28.833  1.00  0.00     0.014 A 
ATOM     32  C   UNL A   1      35.034  33.239  31.246  1.00  0.00     0.010 A 
ATOM     33  C   UNL A   1      36.539  33.952  29.481  1.00  0.00     0.010 A 
ATOM     34  C   UNL A   1      36.323  33.279  30.694  1.00  0.00    -0.014 A 
BRANCH  34  35
ATOM     35  C   UNL A   1      37.476  32.644  31.373  1.00  0.00     0.031 A 
ATOM     36  C   UNL A   1      38.193  31.508  30.703  1.00  0.00     0.074 A 
ATOM     37  C   UNL A   1      37.819  33.030  32.616  1.00  0.00     0.049 A 
ATOM     38  N   UNL A   1      39.143  30.738  31.168  1.00  0.00    -0.248 NA
ATOM     39  C   UNL A   1      37.758  31.170  29.338  1.00  0.00     0.031 C 
ATOM     40  C   UNL A   1      37.166  34.090  33.386  1.00  0.00     0.029 A 
ATOM     41  N   UNL A   1      38.796  32.562  33.458  1.00  0.00    -0.354 N 
ATOM     42  C   UNL A   1      39.398  29.812  30.166  1.00  0.00     0.074 A 
ATOM     43  C   UNL A   1      38.474  30.084  29.087  1.00  0.00     0.031 C 
ATOM     44  C   UNL A   1      37.771  34.203  34.579  1.00  0.00     0.029 A 
ATOM     45  C   UNL A   1      38.831  33.204  34.671  1.00  0.00     0.049 A 
ATOM     46  H   UNL A   1      39.414  31.835  33.214  1.00  0.00     0.167 HD
ATOM     47  C   UNL A   1      40.335  28.835  30.140  1.00  0.00     0.037 A 
ATOM     48  C   UNL A   1      39.630  33.002  35.736  1.00  0.00     0.037 A 
ATOM     49  C   UNL A   1      41.279  28.595  31.197  1.00  0.00     0.049 A 
ATOM     50  C   UNL A   1      40.681  31.928  35.671  1.00  0.00     0.074 A 
ATOM     51  C   UNL A   1      42.304  27.668  31.247  1.00  0.00     0.029 A 
ATOM     52  N   UNL A   1      41.315  29.299  32.392  1.00  0.00    -0.354 N 
ATOM     53  N   UNL A   1      40.949  31.092  34.698  1.00  0.00    -0.248 NA
ATOM     54  C   UNL A   1      41.545  31.775  36.850  1.00  0.00     0.031 C 
ATOM     55  C   UNL A   1      42.946  27.794  32.483  1.00  0.00     0.029 A 
ATOM     56  C   UNL A   1      42.343  28.823  33.188  1.00  0.00     0.049 A 
ATOM     57  H   UNL A   1      40.701  30.029  32.637  1.00  0.00     0.167 HD
ATOM     58  C   UNL A   1      42.029  30.336  35.131  1.00  0.00     0.074 A 
ATOM     59  C   UNL A   1      42.372  30.817  36.454  1.00  0.00     0.031 C 
ATOM     60  C   UNL A   1      42.679  29.333  34.493  1.00  0.00     0.037 A 
BRANCH  47  61
ATOM     61  C   UNL A   1      40.387  27.963  28.921  1.00  0.00     0.064 A 
ATOM     62  C   UNL A   1      39.651  26.773  28.840  1.00  0.00     0.173 A 
ATOM     63  C   UNL A   1      41.166  28.332  27.815  1.00  0.00     0.173 A 
ATOM     64  F   UNL A   1      38.903  26.369  29.879  1.00  0.00    -0.203 F 
ATOM     65  C   UNL A   1      39.716  25.967  27.707  1.00  0.00     0.198 A 
ATOM     66  C   UNL A   1      41.207  27.538  26.673  1.00  0.00     0.198 A 
ATOM     67  F   UNL A   1      41.888  29.463  27.841  1.00  0.00    -0.203 F 
ATOM     68  F   UNL A   1      39.043  24.807  27.672  1.00  0.00    -0.200 F 
ATOM     69  C   UNL A   1      40.489  26.353  26.622  1.00  0.00     0.200 A 
ATOM     70  F   UNL A   1      41.948  27.915  25.622  1.00  0.00    -0.200 F 
ATOM     71  F   UNL A   1      40.548  25.577  25.531  1.00  0.00    -0.200 F 
ENDBRANCH  47  61
BRANCH  48  72
ATOM     72  C   UNL A   1      39.490  33.859  36.941  1.00  0.00     0.064 A 
ATOM     73  C   UNL A   1      38.718  33.436  38.032  1.00  0.00     0.173 A 
ATOM     74  C   UNL A   1      40.118  35.109  37.028  1.00  0.00     0.173 A 
ATOM     75  F   UNL A   1      38.083  32.255  37.985  1.00  0.00    -0.203 F 
ATOM     76  C   UNL A   1      38.563  34.241  39.159  1.00  0.00     0.198 A 
ATOM     77  C   UNL A   1      39.981  35.903  38.165  1.00  0.00     0.198 A 
ATOM     78  F   UNL A   1      40.870  35.556  36.013  1.00  0.00    -0.203 F 
ATOM     79  F   UNL A   1      37.787  33.830  40.170  1.00  0.00    -0.200 F 
ATOM     80  C   UNL A   1      39.198  35.472  39.226  1.00  0.00     0.200 A 
ATOM     81  F   UNL A   1      40.604  37.088  38.232  1.00  0.00    -0.200 F 
ATOM     82  F   UNL A   1      39.050  36.245  40.311  1.00  0.00    -0.200 F 
ENDBRANCH  48  72
BRANCH  60  83
ATOM     83  C   UNL A   1      43.854  28.722  35.191  1.00  0.00     0.064 A 
ATOM     84  C   UNL A   1      43.708  27.622  36.048  1.00  0.00     0.173 A 
ATOM     85  C   UNL A   1      45.148  29.209  34.956  1.00  0.00     0.173 A 
ATOM     86  F   UNL A   1      42.488  27.132  36.314  1.00  0.00    -0.203 F 
ATOM     87  C   UNL A   1      44.816  27.043  36.660  1.00  0.00     0.198 A 
ATOM     88  C   UNL A   1      46.256  28.613  35.551  1.00  0.00     0.198 A 
ATOM     89  F   UNL A   1      45.338  30.256  34.139  1.00  0.00    -0.203 F 
ATOM     90  F   UNL A   1      44.652  26.014  37.503  1.00  0.00    -0.200 F 
ATOM     91  C   UNL A   1      46.089  27.533  36.405  1.00  0.00     0.200 A 
ATOM     92  F   UNL A   1      47.485  29.081  35.296  1.00  0.00    -0.200 F 
ATOM     93  F   UNL A   1      47.155  26.968  36.988  1.00  0.00    -0.200 F 
ENDBRANCH  60  83
ENDBRANCH  34  35
ENDBRANCH  26  29
ENDBRANCH  24  25
ENDBRANCH  23  24
ENDBRANCH   1  23
TORSDOF 14
ENDMDL
MODEL 3
REMARK VINA RESULT:     -12.5      0.688      1.463
REMARK SMILES COc1ccccc1-c1ccc(C(=O)NCCCCNC(=O)c2ccc(-c3c4nc(c(-c5c(F)c(F)c(F)c(F)c5F)c5ccc([nH]5)c(-c5c(F)c(F)c(F)c(F)c5F)c5nc(c(-c6c(F)c(F)c(F)c(F)c6F)c6ccc3[nH]6)C=C5)C=C4)cc2)c(O)c1
REMARK SMILES IDX 17 1 16 2 15 3 13 4 14 5 12 7 9 8 10 9 88 10 11 11 86 12
REMARK SMILES IDX 8 13 3 14 4 15 5 16 7 17 6 18 2 19 1 20 87 21 18 23 19 24
REMARK SMILES IDX 20 25 21 26 22 28 23 29 24 30 85 31 25 32 84 33 26 34 27 35
REMARK SMILES IDX 28 36 78 37 29 38 83 39 77 40 79 41 30 42 82 43 76 44 75 45
REMARK SMILES IDX 31 47 63 48 43 49 62 50 44 51 47 52 61 53 80 54 45 55 46 56
REMARK SMILES IDX 60 58 81 59 48 60 32 61 33 62 41 63 34 64 35 65 39 66 42 67
REMARK SMILES IDX 36 68 37 69 40 70 38 71 64 72 65 73 73 74 66 75 67 76 71 77
REMARK SMILES IDX 74 78 68 79 69 80 72 81 70 82 49 83 50 84 58 85 51 86 52 87
REMARK SMILES IDX 56 88 59 89 53 90 54 91 57 92 55 93
REMARK H PARENT 15 6 87 22 20 27 79 46 47 57
REMARK Flexibility Score: inf
ROOT
ATOM      1  C   UNL A   1      32.045  30.333  26.888  1.00  0.00     0.023 C 
ENDROOT
BRANCH   1   2
ATOM      2  C   UNL A   1      32.390  29.757  25.512  1.00  0.00     0.116 C 
BRANCH   2   3
ATOM      3  N   UNL A   1      31.243  29.084  24.941  1.00  0.00    -0.352 N 
ATOM      4  C   UNL A   1      31.077  27.789  24.517  1.00  0.00     0.255 C 
ATOM      5  O   UNL A   1      29.981  27.489  24.036  1.00  0.00    -0.269 OA
ATOM      6  H   UNL A   1      30.445  29.652  24.840  1.00  0.00     0.163 HD
BRANCH   4   7
ATOM      7  C   UNL A   1      32.090  26.712  24.707  1.00  0.00     0.081 A 
ATOM      8  C   UNL A   1      34.115  24.729  24.789  1.00  0.00    -0.011 A 
ATOM      9  C   UNL A   1      34.021  25.597  23.697  1.00  0.00     0.010 A 
ATOM     10  C   UNL A   1      33.225  24.896  25.855  1.00  0.00     0.055 A 
ATOM     11  C   UNL A   1      33.013  26.567  23.654  1.00  0.00     0.018 A 
ATOM     12  C   UNL A   1      32.246  25.892  25.829  1.00  0.00     0.128 A 
BRANCH   8  13
ATOM     13  C   UNL A   1      35.112  23.658  24.852  1.00  0.00     0.024 A 
ATOM     14  C   UNL A   1      34.808  22.321  24.525  1.00  0.00     0.126 A 
ATOM     15  C   UNL A   1      35.739  21.304  24.751  1.00  0.00     0.047 A 
ATOM     16  C   UNL A   1      36.998  21.606  25.270  1.00  0.00     0.004 A 
ATOM     17  C   UNL A   1      36.391  23.942  25.363  1.00  0.00     0.012 A 
ATOM     18  C   UNL A   1      37.325  22.925  25.571  1.00  0.00     0.001 A 
BRANCH  14  19
ATOM     19  O   UNL A   1      33.578  21.902  24.080  1.00  0.00    -0.496 OA
ATOM     20  C   UNL A   1      33.226  20.601  24.551  1.00  0.00     0.278 C 
ENDBRANCH  14  19
ENDBRANCH   8  13
BRANCH  12  21
ATOM     21  O   UNL A   1      31.499  26.046  26.957  1.00  0.00    -0.507 OA
ATOM     22  H   UNL A   1      31.539  26.849  27.439  1.00  0.00     0.293 HD
ENDBRANCH  12  21
ENDBRANCH   4   7
ENDBRANCH   2   3
ENDBRANCH   1   2
BRANCH   1  23
ATOM     23  C   UNL A   1      31.731  31.826  26.905  1.00  0.00     0.023 C 
BRANCH  23  24
ATOM     24  C   UNL A   1      32.871  32.706  27.383  1.00  0.00     0.116 C 
BRANCH  24  25
ATOM     25  N   UNL A   1      32.466  34.073  27.684  1.00  0.00    -0.352 N 
ATOM     26  C   UNL A   1      33.001  34.931  28.615  1.00  0.00     0.251 C 
ATOM     27  H   UNL A   1      31.715  34.426  27.153  1.00  0.00     0.163 HD
ATOM     28  O   UNL A   1      32.505  36.030  28.819  1.00  0.00    -0.269 OA
BRANCH  26  29
ATOM     29  C   UNL A   1      34.163  34.479  29.404  1.00  0.00     0.039 A 
ATOM     30  C   UNL A   1      33.941  33.846  30.629  1.00  0.00     0.014 A 
ATOM     31  C   UNL A   1      35.458  34.618  28.897  1.00  0.00     0.014 A 
ATOM     32  C   UNL A   1      35.018  33.284  31.315  1.00  0.00     0.010 A 
ATOM     33  C   UNL A   1      36.517  33.994  29.543  1.00  0.00     0.010 A 
ATOM     34  C   UNL A   1      36.306  33.323  30.758  1.00  0.00    -0.014 A 
BRANCH  34  35
ATOM     35  C   UNL A   1      37.461  32.691  31.435  1.00  0.00     0.031 A 
ATOM     36  C   UNL A   1      38.156  31.532  30.780  1.00  0.00     0.074 A 
ATOM     37  C   UNL A   1      37.826  33.100  32.664  1.00  0.00     0.049 A 
ATOM     38  N   UNL A   1      39.103  30.762  31.248  1.00  0.00    -0.248 NA
ATOM     39  C   UNL A   1      37.697  31.169  29.430  1.00  0.00     0.031 C 
ATOM     40  C   UNL A   1      37.196  34.184  33.419  1.00  0.00     0.029 A 
ATOM     41  N   UNL A   1      38.810  32.640  33.502  1.00  0.00    -0.354 N 
ATOM     42  C   UNL A   1      39.334  29.812  30.264  1.00  0.00     0.074 A 
ATOM     43  C   UNL A   1      38.398  30.070  29.192  1.00  0.00     0.031 C 
ATOM     44  C   UNL A   1      37.820  34.317  34.600  1.00  0.00     0.029 A 
ATOM     45  C   UNL A   1      38.870  33.309  34.700  1.00  0.00     0.049 A 
ATOM     46  H   UNL A   1      39.416  31.901  33.265  1.00  0.00     0.167 HD
ATOM     47  C   UNL A   1      40.259  28.823  30.246  1.00  0.00     0.037 A 
ATOM     48  C   UNL A   1      39.681  33.121  35.758  1.00  0.00     0.037 A 
ATOM     49  C   UNL A   1      41.216  28.596  31.295  1.00  0.00     0.049 A 
ATOM     50  C   UNL A   1      40.720  32.034  35.701  1.00  0.00     0.074 A 
ATOM     51  C   UNL A   1      42.231  27.659  31.351  1.00  0.00     0.029 A 
ATOM     52  N   UNL A   1      41.277  29.326  32.474  1.00  0.00    -0.354 N 
ATOM     53  N   UNL A   1      40.965  31.174  34.744  1.00  0.00    -0.248 NA
ATOM     54  C   UNL A   1      41.599  31.897  36.871  1.00  0.00     0.031 C 
ATOM     55  C   UNL A   1      42.893  27.805  32.575  1.00  0.00     0.029 A 
ATOM     56  C   UNL A   1      42.311  28.856  33.265  1.00  0.00     0.049 A 
ATOM     57  H   UNL A   1      40.675  30.068  32.711  1.00  0.00     0.167 HD
ATOM     58  C   UNL A   1      42.042  30.415  35.178  1.00  0.00     0.074 A 
ATOM     59  C   UNL A   1      42.410  30.921  36.485  1.00  0.00     0.031 C 
ATOM     60  C   UNL A   1      42.672  29.391  34.553  1.00  0.00     0.037 A 
BRANCH  47  61
ATOM     61  C   UNL A   1      40.284  27.924  29.047  1.00  0.00     0.064 A 
ATOM     62  C   UNL A   1      41.044  28.239  27.911  1.00  0.00     0.173 A 
ATOM     63  C   UNL A   1      39.556  26.726  29.041  1.00  0.00     0.173 A 
ATOM     64  F   UNL A   1      41.744  29.382  27.863  1.00  0.00    -0.203 F 
ATOM     65  C   UNL A   1      41.051  27.400  26.800  1.00  0.00     0.198 A 
ATOM     66  C   UNL A   1      39.588  25.876  27.938  1.00  0.00     0.198 A 
ATOM     67  F   UNL A   1      38.814  26.377  30.103  1.00  0.00    -0.203 F 
ATOM     68  F   UNL A   1      41.745  27.746  25.706  1.00  0.00    -0.200 F 
ATOM     69  C   UNL A   1      40.328  26.217  26.817  1.00  0.00     0.200 A 
ATOM     70  F   UNL A   1      38.895  24.729  27.958  1.00  0.00    -0.200 F 
ATOM     71  F   UNL A   1      40.338  25.409  25.747  1.00  0.00    -0.200 F 
ENDBRANCH  47  61
BRANCH  48  72
ATOM     72  C   UNL A   1      39.569  34.006  36.945  1.00  0.00     0.064 A 
ATOM     73  C   UNL A   1      38.800  33.621  38.052  1.00  0.00     0.173 A 
ATOM     74  C   UNL A   1      40.219  35.247  36.999  1.00  0.00     0.173 A 
ATOM     75  F   UNL A   1      38.144  32.451  38.036  1.00  0.00    -0.203 F 
ATOM     76  C   UNL A   1      38.671  34.452  39.162  1.00  0.00     0.198 A 
ATOM     77  C   UNL A   1      40.107  36.067  38.120  1.00  0.00     0.198 A 
ATOM     78  F   UNL A   1      40.969  35.658  35.967  1.00  0.00    -0.203 F 
ATOM     79  F   UNL A   1      37.897  34.077  40.190  1.00  0.00    -0.200 F 
ATOM     80  C   UNL A   1      39.327  35.673  39.197  1.00  0.00     0.200 A 
ATOM     81  F   UNL A   1      40.752  37.242  38.155  1.00  0.00    -0.200 F 
ATOM     82  F   UNL A   1      39.204  36.472  40.266  1.00  0.00    -0.200 F 
ENDBRANCH  48  72
BRANCH  60  83
ATOM     83  C   UNL A   1      43.850  28.782  35.248  1.00  0.00     0.064 A 
ATOM     84  C   UNL A   1      43.704  27.706  36.134  1.00  0.00     0.173 A 
ATOM     85  C   UNL A   1      45.146  29.247  34.982  1.00  0.00     0.173 A 
ATOM     86  F   UNL A   1      42.482  27.237  36.430  1.00  0.00    -0.203 F 
ATOM     87  C   UNL A   1      44.814  27.128  36.743  1.00  0.00     0.198 A 
ATOM     88  C   UNL A   1      46.256  28.652  35.573  1.00  0.00     0.198 A 
ATOM     89  F   UNL A   1      45.336  30.271  34.136  1.00  0.00    -0.203 F 
ATOM     90  F   UNL A   1      44.650  26.122  37.614  1.00  0.00    -0.200 F 
ATOM     91  C   UNL A   1      46.089  27.595  36.456  1.00  0.00     0.200 A 
ATOM     92  F   UNL A   1      47.486  29.098  35.288  1.00  0.00    -0.200 F 
ATOM     93  F   UNL A   1      47.157  27.031  37.036  1.00  0.00    -0.200 F 
ENDBRANCH  60  83
ENDBRANCH  34  35
ENDBRANCH  26  29
ENDBRANCH  24  25
ENDBRANCH  23  24
ENDBRANCH   1  23
TORSDOF 14
ENDMDL
