MODEL 1
REMARK VINA RESULT:     -13.4      0.000      0.000
REMARK SMILES O=C(C[C@@H](NC(=O)c1ccco1)c1ccc(OC2CCCC2)cc1)NCCCCNC(=O)c1ccc(-c2c3nc(c(-c4c(F)c(F)c(F)c(F)c4F)c4ccc([nH]4)c(-c4c(F)c(F)c(F)c(F)c4F)c4nc(c(-c5c(F)c(F)c(F)c(F)c5F)c5ccc2[nH]5)C=C4)C=C3)cc1
REMARK SMILES IDX 26 1 25 2 1 3 2 4 3 6 4 7 5 8 6 9 7 11 8 12 9 13 12 14 10 15
REMARK SMILES IDX 11 16 13 17 14 18 24 19 15 20 23 21 16 22 17 23 18 24 19 25
REMARK SMILES IDX 22 26 20 27 21 28 27 29 28 30 29 31 30 32 31 33 32 35 33 36
REMARK SMILES IDX 34 37 95 38 35 39 94 40 36 41 37 42 38 43 88 44 39 45 93 46
REMARK SMILES IDX 87 47 89 48 40 49 92 50 86 51 85 52 41 54 73 55 53 56 72 57
REMARK SMILES IDX 54 58 57 59 71 60 90 61 55 62 56 63 70 65 91 66 58 67 42 68
REMARK SMILES IDX 43 69 51 70 44 71 45 72 49 73 52 74 46 75 47 76 50 77 48 78
REMARK SMILES IDX 74 79 75 80 83 81 76 82 77 83 81 84 84 85 78 86 79 87 82 88
REMARK SMILES IDX 80 89 59 90 60 91 68 92 61 93 62 94 66 95 69 96 63 97 64 98
REMARK SMILES IDX 67 99 65 100
REMARK H PARENT 25 5 5 10 30 34 89 53 57 64
REMARK Flexibility Score: inf
ROOT
ATOM      1  C   UNL A   1      32.588  30.071  27.094  1.00  0.00     0.116 C 
ENDROOT
BRANCH   1   2
ATOM      2  N   UNL A   1      32.984  28.825  26.469  1.00  0.00    -0.356 N 
ATOM      3  O   UNL A   1      31.480  27.519  27.606  1.00  0.00    -0.275 OA
ATOM      4  C   UNL A   1      32.407  27.628  26.810  1.00  0.00     0.222 C 
ATOM      5  H   UNL A   1      33.688  28.838  25.781  1.00  0.00     0.163 HD
BRANCH   4   6
ATOM      6  C   UNL A   1      32.997  26.428  26.111  1.00  0.00     0.129 C 
BRANCH   6   7
ATOM      7  C   UNL A   1      31.897  25.596  25.423  1.00  0.00     0.122 C 
BRANCH   7   8
ATOM      8  N   UNL A   1      31.116  24.874  26.457  1.00  0.00    -0.342 N 
ATOM      9  C   UNL A   1      31.048  23.576  26.908  1.00  0.00     0.287 C 
ATOM     10  H   UNL A   1      30.494  25.469  26.937  1.00  0.00     0.164 HD
ATOM     11  O   UNL A   1      29.987  23.264  27.457  1.00  0.00    -0.266 OA
BRANCH   9  12
ATOM     12  C   UNL A   1      32.193  22.700  26.890  1.00  0.00     0.191 A 
ATOM     13  C   UNL A   1      32.881  22.167  25.811  1.00  0.00     0.056 A 
ATOM     14  O   UNL A   1      32.844  22.375  28.049  1.00  0.00    -0.459 OA
ATOM     15  C   UNL A   1      33.969  21.432  26.338  1.00  0.00     0.043 A 
ATOM     16  C   UNL A   1      33.914  21.607  27.701  1.00  0.00     0.196 A 
ENDBRANCH   9  12
ENDBRANCH   7   8
BRANCH   7  17
ATOM     17  C   UNL A   1      31.070  26.339  24.391  1.00  0.00    -0.025 A 
ATOM     18  C   UNL A   1      29.672  26.274  24.426  1.00  0.00     0.010 A 
ATOM     19  C   UNL A   1      31.645  27.097  23.363  1.00  0.00     0.010 A 
ATOM     20  C   UNL A   1      28.902  27.142  23.645  1.00  0.00     0.047 A 
ATOM     21  C   UNL A   1      30.866  27.890  22.521  1.00  0.00     0.047 A 
ATOM     22  C   UNL A   1      29.505  28.015  22.741  1.00  0.00     0.119 A 
BRANCH  22  23
ATOM     23  O   UNL A   1      28.679  28.961  22.211  1.00  0.00    -0.490 OA
BRANCH  23  24
ATOM     24  C   UNL A   1      29.039  30.335  22.131  1.00  0.00     0.173 C 
ATOM     25  C   UNL A   1      28.310  31.234  21.132  1.00  0.00     0.045 C 
ATOM     26  C   UNL A   1      29.016  31.021  23.489  1.00  0.00     0.045 C 
ATOM     27  C   UNL A   1      28.348  32.628  21.748  1.00  0.00     0.004 C 
ATOM     28  C   UNL A   1      28.689  32.480  23.229  1.00  0.00     0.004 C 
ENDBRANCH  23  24
ENDBRANCH  22  23
ENDBRANCH   7  17
ENDBRANCH   6   7
ENDBRANCH   4   6
ENDBRANCH   1   2
BRANCH   1  29
ATOM     29  C   UNL A   1      31.556  30.815  26.251  1.00  0.00     0.023 C 
BRANCH  29  30
ATOM     30  C   UNL A   1      31.391  32.295  26.605  1.00  0.00     0.023 C 
BRANCH  30  31
ATOM     31  C   UNL A   1      32.583  32.921  27.322  1.00  0.00     0.116 C 
BRANCH  31  32
ATOM     32  N   UNL A   1      32.362  34.321  27.646  1.00  0.00    -0.352 N 
ATOM     33  C   UNL A   1      32.969  35.098  28.603  1.00  0.00     0.251 C 
ATOM     34  H   UNL A   1      31.679  34.777  27.103  1.00  0.00     0.163 HD
ATOM     35  O   UNL A   1      32.533  36.213  28.860  1.00  0.00    -0.269 OA
BRANCH  33  36
ATOM     36  C   UNL A   1      34.135  34.572  29.347  1.00  0.00     0.039 A 
ATOM     37  C   UNL A   1      33.924  33.971  30.591  1.00  0.00     0.014 A 
ATOM     38  C   UNL A   1      35.427  34.666  28.824  1.00  0.00     0.014 A 
ATOM     39  C   UNL A   1      35.001  33.406  31.278  1.00  0.00     0.010 A 
ATOM     40  C   UNL A   1      36.485  34.035  29.471  1.00  0.00     0.010 A 
ATOM     41  C   UNL A   1      36.284  33.399  30.706  1.00  0.00    -0.014 A 
BRANCH  41  42
ATOM     42  C   UNL A   1      37.424  32.726  31.382  1.00  0.00     0.031 A 
ATOM     43  C   UNL A   1      38.121  31.570  30.721  1.00  0.00     0.074 A 
ATOM     44  C   UNL A   1      37.791  33.117  32.617  1.00  0.00     0.049 A 
ATOM     45  N   UNL A   1      39.095  30.821  31.174  1.00  0.00    -0.248 NA
ATOM     46  C   UNL A   1      37.646  31.189  29.382  1.00  0.00     0.031 C 
ATOM     47  C   UNL A   1      37.164  34.195  33.384  1.00  0.00     0.029 A 
ATOM     48  N   UNL A   1      38.773  32.645  33.452  1.00  0.00    -0.354 N 
ATOM     49  C   UNL A   1      39.336  29.875  30.186  1.00  0.00     0.074 A 
ATOM     50  C   UNL A   1      38.373  30.110  29.132  1.00  0.00     0.031 C 
ATOM     51  C   UNL A   1      37.794  34.320  34.562  1.00  0.00     0.029 A 
ATOM     52  C   UNL A   1      38.837  33.303  34.656  1.00  0.00     0.049 A 
ATOM     53  H   UNL A   1      39.376  31.904  33.211  1.00  0.00     0.167 HD
ATOM     54  C   UNL A   1      40.288  28.910  30.152  1.00  0.00     0.037 A 
ATOM     55  C   UNL A   1      39.640  33.103  35.719  1.00  0.00     0.037 A 
ATOM     56  C   UNL A   1      41.255  28.691  31.196  1.00  0.00     0.049 A 
ATOM     57  C   UNL A   1      40.673  32.011  35.664  1.00  0.00     0.074 A 
ATOM     58  C   UNL A   1      42.299  27.784  31.226  1.00  0.00     0.029 A 
ATOM     59  N   UNL A   1      41.291  29.381  32.398  1.00  0.00    -0.354 N 
ATOM     60  N   UNL A   1      40.944  31.174  34.692  1.00  0.00    -0.248 NA
ATOM     61  C   UNL A   1      41.518  31.839  36.853  1.00  0.00     0.031 C 
ATOM     62  C   UNL A   1      42.928  27.883  32.471  1.00  0.00     0.029 A 
ATOM     63  C   UNL A   1      42.319  28.897  33.192  1.00  0.00     0.049 A 
ATOM     64  H   UNL A   1      40.675  30.107  32.652  1.00  0.00     0.167 HD
ATOM     65  C   UNL A   1      42.008  30.401  35.139  1.00  0.00     0.074 A 
ATOM     66  C   UNL A   1      42.344  30.879  36.464  1.00  0.00     0.031 C 
ATOM     67  C   UNL A   1      42.650  29.387  34.507  1.00  0.00     0.037 A 
BRANCH  54  68
ATOM     68  C   UNL A   1      40.327  28.014  28.947  1.00  0.00     0.064 A 
ATOM     69  C   UNL A   1      39.632  26.794  28.910  1.00  0.00     0.173 A 
ATOM     70  C   UNL A   1      41.038  28.397  27.799  1.00  0.00     0.173 A 
ATOM     71  F   UNL A   1      38.944  26.376  29.982  1.00  0.00    -0.203 F 
ATOM     72  C   UNL A   1      39.675  25.979  27.781  1.00  0.00     0.198 A 
ATOM     73  C   UNL A   1      41.050  27.595  26.661  1.00  0.00     0.198 A 
ATOM     74  F   UNL A   1      41.714  29.555  27.776  1.00  0.00    -0.203 F 
ATOM     75  F   UNL A   1      39.047  24.795  27.789  1.00  0.00    -0.200 F 
ATOM     76  C   UNL A   1      40.376  26.383  26.655  1.00  0.00     0.200 A 
ATOM     77  F   UNL A   1      41.715  27.996  25.568  1.00  0.00    -0.200 F 
ATOM     78  F   UNL A   1      40.409  25.601  25.567  1.00  0.00    -0.200 F 
ENDBRANCH  54  68
BRANCH  55  79
ATOM     79  C   UNL A   1      39.514  33.970  36.920  1.00  0.00     0.064 A 
ATOM     80  C   UNL A   1      38.773  33.551  38.035  1.00  0.00     0.173 A 
ATOM     81  C   UNL A   1      40.118  35.235  36.978  1.00  0.00     0.173 A 
ATOM     82  F   UNL A   1      38.158  32.360  38.019  1.00  0.00    -0.203 F 
ATOM     83  C   UNL A   1      38.621  34.373  39.150  1.00  0.00     0.198 A 
ATOM     84  C   UNL A   1      39.992  36.042  38.107  1.00  0.00     0.198 A 
ATOM     85  F   UNL A   1      40.840  35.683  35.941  1.00  0.00    -0.203 F 
ATOM     86  F   UNL A   1      37.864  33.968  40.178  1.00  0.00    -0.200 F 
ATOM     87  C   UNL A   1      39.236  35.615  39.188  1.00  0.00     0.200 A 
ATOM     88  F   UNL A   1      40.600  37.236  38.146  1.00  0.00    -0.200 F 
ATOM     89  F   UNL A   1      39.092  36.404  40.261  1.00  0.00    -0.200 F 
ENDBRANCH  55  79
BRANCH  67  90
ATOM     90  C   UNL A   1      43.810  28.753  35.219  1.00  0.00     0.064 A 
ATOM     91  C   UNL A   1      45.122  29.224  35.062  1.00  0.00     0.173 A 
ATOM     92  C   UNL A   1      43.600  27.682  36.101  1.00  0.00     0.173 A 
ATOM     93  F   UNL A   1      45.380  30.235  34.219  1.00  0.00    -0.203 F 
ATOM     94  C   UNL A   1      46.182  28.628  35.740  1.00  0.00     0.198 A 
ATOM     95  C   UNL A   1      44.658  27.112  36.804  1.00  0.00     0.198 A 
ATOM     96  F   UNL A   1      42.364  27.197  36.295  1.00  0.00    -0.203 F 
ATOM     97  F   UNL A   1      47.434  29.060  35.533  1.00  0.00    -0.200 F 
ATOM     98  C   UNL A   1      45.949  27.579  36.616  1.00  0.00     0.200 A 
ATOM     99  F   UNL A   1      44.426  26.109  37.663  1.00  0.00    -0.200 F 
ATOM    100  F   UNL A   1      46.970  27.013  37.274  1.00  0.00    -0.200 F 
ENDBRANCH  67  90
ENDBRANCH  41  42
ENDBRANCH  33  36
ENDBRANCH  31  32
ENDBRANCH  30  31
ENDBRANCH  29  30
ENDBRANCH   1  29
TORSDOF 17
ENDMDL
MODEL 2
REMARK VINA RESULT:     -13.3      0.573      7.183
REMARK SMILES O=C(C[C@@H](NC(=O)c1ccco1)c1ccc(OC2CCCC2)cc1)NCCCCNC(=O)c1ccc(-c2c3nc(c(-c4c(F)c(F)c(F)c(F)c4F)c4ccc([nH]4)c(-c4c(F)c(F)c(F)c(F)c4F)c4nc(c(-c5c(F)c(F)c(F)c(F)c5F)c5ccc2[nH]5)C=C4)C=C3)cc1
REMARK SMILES IDX 26 1 25 2 1 3 2 4 3 6 4 7 5 8 6 9 7 11 8 12 9 13 12 14 10 15
REMARK SMILES IDX 11 16 13 17 14 18 24 19 15 20 23 21 16 22 17 23 18 24 19 25
REMARK SMILES IDX 22 26 20 27 21 28 27 29 28 30 29 31 30 32 31 33 32 35 33 36
REMARK SMILES IDX 34 37 95 38 35 39 94 40 36 41 37 42 38 43 88 44 39 45 93 46
REMARK SMILES IDX 87 47 89 48 40 49 92 50 86 51 85 52 41 54 73 55 53 56 72 57
REMARK SMILES IDX 54 58 57 59 71 60 90 61 55 62 56 63 70 65 91 66 58 67 42 68
REMARK SMILES IDX 43 69 51 70 44 71 45 72 49 73 52 74 46 75 47 76 50 77 48 78
REMARK SMILES IDX 74 79 75 80 83 81 76 82 77 83 81 84 84 85 78 86 79 87 82 88
REMARK SMILES IDX 80 89 59 90 60 91 68 92 61 93 62 94 66 95 69 96 63 97 64 98
REMARK SMILES IDX 67 99 65 100
REMARK H PARENT 25 5 5 10 30 34 89 53 57 64
REMARK Flexibility Score: inf
ROOT
ATOM      1  C   UNL A   1      32.457  30.080  27.127  1.00  0.00     0.116 C 
ENDROOT
BRANCH   1   2
ATOM      2  N   UNL A   1      32.855  28.829  26.513  1.00  0.00    -0.356 N 
ATOM      3  O   UNL A   1      31.391  27.523  27.701  1.00  0.00    -0.275 OA
ATOM      4  C   UNL A   1      32.299  27.631  26.884  1.00  0.00     0.222 C 
ATOM      5  H   UNL A   1      33.544  28.839  25.809  1.00  0.00     0.163 HD
BRANCH   4   6
ATOM      6  C   UNL A   1      32.889  26.427  26.190  1.00  0.00     0.129 C 
BRANCH   6   7
ATOM      7  C   UNL A   1      31.792  25.610  25.479  1.00  0.00     0.122 C 
BRANCH   7   8
ATOM      8  N   UNL A   1      31.036  24.830  26.488  1.00  0.00    -0.342 N 
ATOM      9  C   UNL A   1      31.012  23.517  26.898  1.00  0.00     0.287 C 
ATOM     10  H   UNL A   1      30.394  25.389  26.986  1.00  0.00     0.164 HD
ATOM     11  O   UNL A   1      29.961  23.152  27.435  1.00  0.00    -0.266 OA
BRANCH   9  12
ATOM     12  C   UNL A   1      32.185  22.681  26.853  1.00  0.00     0.191 A 
ATOM     13  C   UNL A   1      33.267  22.630  27.718  1.00  0.00     0.056 A 
ATOM     14  O   UNL A   1      32.295  21.678  25.929  1.00  0.00    -0.459 OA
ATOM     15  C   UNL A   1      34.107  21.586  27.266  1.00  0.00     0.043 A 
ATOM     16  C   UNL A   1      33.463  21.026  26.189  1.00  0.00     0.196 A 
ENDBRANCH   9  12
ENDBRANCH   7   8
BRANCH   7  17
ATOM     17  C   UNL A   1      30.941  26.388  24.492  1.00  0.00    -0.025 A 
ATOM     18  C   UNL A   1      29.551  26.217  24.471  1.00  0.00     0.010 A 
ATOM     19  C   UNL A   1      31.485  27.281  23.561  1.00  0.00     0.010 A 
ATOM     20  C   UNL A   1      28.740  27.097  23.748  1.00  0.00     0.047 A 
ATOM     21  C   UNL A   1      30.673  28.093  22.770  1.00  0.00     0.047 A 
ATOM     22  C   UNL A   1      29.300  28.096  22.953  1.00  0.00     0.119 A 
BRANCH  22  23
ATOM     23  O   UNL A   1      28.420  29.025  22.485  1.00  0.00    -0.490 OA
BRANCH  23  24
ATOM     24  C   UNL A   1      28.805  30.361  22.179  1.00  0.00     0.173 C 
ATOM     25  C   UNL A   1      28.070  31.106  21.065  1.00  0.00     0.045 C 
ATOM     26  C   UNL A   1      28.829  31.254  23.411  1.00  0.00     0.045 C 
ATOM     27  C   UNL A   1      28.150  32.579  21.450  1.00  0.00     0.004 C 
ATOM     28  C   UNL A   1      28.523  32.660  22.928  1.00  0.00     0.004 C 
ENDBRANCH  23  24
ENDBRANCH  22  23
ENDBRANCH   7  17
ENDBRANCH   6   7
ENDBRANCH   4   6
ENDBRANCH   1   2
BRANCH   1  29
ATOM     29  C   UNL A   1      31.519  30.873  26.222  1.00  0.00     0.023 C 
BRANCH  29  30
ATOM     30  C   UNL A   1      31.422  32.364  26.556  1.00  0.00     0.023 C 
BRANCH  30  31
ATOM     31  C   UNL A   1      32.661  32.957  27.216  1.00  0.00     0.116 C 
BRANCH  31  32
ATOM     32  N   UNL A   1      32.449  34.323  27.665  1.00  0.00    -0.352 N 
ATOM     33  C   UNL A   1      33.058  35.005  28.692  1.00  0.00     0.251 C 
ATOM     34  H   UNL A   1      31.772  34.832  27.163  1.00  0.00     0.163 HD
ATOM     35  O   UNL A   1      32.630  36.096  29.046  1.00  0.00    -0.269 OA
BRANCH  33  36
ATOM     36  C   UNL A   1      34.217  34.404  29.389  1.00  0.00     0.039 A 
ATOM     37  C   UNL A   1      33.988  33.622  30.523  1.00  0.00     0.014 A 
ATOM     38  C   UNL A   1      35.520  34.607  28.927  1.00  0.00     0.014 A 
ATOM     39  C   UNL A   1      35.060  32.989  31.155  1.00  0.00     0.010 A 
ATOM     40  C   UNL A   1      36.577  33.913  29.510  1.00  0.00     0.010 A 
ATOM     41  C   UNL A   1      36.359  33.098  30.632  1.00  0.00    -0.014 A 
BRANCH  41  42
ATOM     42  C   UNL A   1      37.498  32.361  31.239  1.00  0.00     0.031 A 
ATOM     43  C   UNL A   1      37.996  32.730  32.608  1.00  0.00     0.074 A 
ATOM     44  C   UNL A   1      38.122  31.400  30.532  1.00  0.00     0.049 A 
ATOM     45  N   UNL A   1      39.009  32.242  33.281  1.00  0.00    -0.248 NA
ATOM     46  C   UNL A   1      37.276  33.806  33.306  1.00  0.00     0.031 C 
ATOM     47  C   UNL A   1      37.762  30.980  29.175  1.00  0.00     0.029 A 
ATOM     48  N   UNL A   1      39.197  30.608  30.849  1.00  0.00    -0.354 N 
ATOM     49  C   UNL A   1      39.056  32.961  34.469  1.00  0.00     0.074 A 
ATOM     50  C   UNL A   1      38.004  33.952  34.404  1.00  0.00     0.031 C 
ATOM     51  C   UNL A   1      38.583  29.991  28.789  1.00  0.00     0.029 A 
ATOM     52  C   UNL A   1      39.556  29.738  29.849  1.00  0.00     0.049 A 
ATOM     53  H   UNL A   1      39.667  30.658  31.713  1.00  0.00     0.167 HD
ATOM     54  C   UNL A   1      39.887  32.795  35.526  1.00  0.00     0.037 A 
ATOM     55  C   UNL A   1      40.560  28.842  29.788  1.00  0.00     0.037 A 
ATOM     56  C   UNL A   1      40.921  31.796  35.592  1.00  0.00     0.049 A 
ATOM     57  C   UNL A   1      41.483  28.694  30.968  1.00  0.00     0.074 A 
ATOM     58  C   UNL A   1      41.773  31.504  36.643  1.00  0.00     0.029 A 
ATOM     59  N   UNL A   1      41.252  30.929  34.560  1.00  0.00    -0.354 N 
ATOM     60  N   UNL A   1      41.468  29.324  32.117  1.00  0.00    -0.248 NA
ATOM     61  C   UNL A   1      42.561  27.703  30.843  1.00  0.00     0.031 C 
ATOM     62  C   UNL A   1      42.657  30.505  36.227  1.00  0.00     0.029 A 
ATOM     63  C   UNL A   1      42.316  30.126  34.940  1.00  0.00     0.049 A 
ATOM     64  H   UNL A   1      40.798  30.892  33.687  1.00  0.00     0.167 HD
ATOM     65  C   UNL A   1      42.510  28.786  32.862  1.00  0.00     0.074 A 
ATOM     66  C   UNL A   1      43.126  27.766  32.040  1.00  0.00     0.031 C 
ATOM     67  C   UNL A   1      42.917  29.107  34.115  1.00  0.00     0.037 A 
BRANCH  54  68
ATOM     68  C   UNL A   1      39.717  33.720  36.697  1.00  0.00     0.064 A 
ATOM     69  C   UNL A   1      40.346  34.974  36.748  1.00  0.00     0.173 A 
ATOM     70  C   UNL A   1      38.881  33.364  37.768  1.00  0.00     0.173 A 
ATOM     71  F   UNL A   1      41.162  35.360  35.757  1.00  0.00    -0.203 F 
ATOM     72  C   UNL A   1      40.171  35.820  37.840  1.00  0.00     0.198 A 
ATOM     73  C   UNL A   1      38.681  34.228  38.841  1.00  0.00     0.198 A 
ATOM     74  F   UNL A   1      38.248  32.181  37.768  1.00  0.00    -0.203 F 
ATOM     75  F   UNL A   1      40.823  36.990  37.889  1.00  0.00    -0.200 F 
ATOM     76  C   UNL A   1      39.333  35.451  38.881  1.00  0.00     0.200 A 
ATOM     77  F   UNL A   1      37.857  33.875  39.838  1.00  0.00    -0.200 F 
ATOM     78  F   UNL A   1      39.158  36.271  39.927  1.00  0.00    -0.200 F 
ENDBRANCH  54  68
BRANCH  55  79
ATOM     79  C   UNL A   1      40.735  27.999  28.576  1.00  0.00     0.064 A 
ATOM     80  C   UNL A   1      41.512  28.444  27.498  1.00  0.00     0.173 A 
ATOM     81  C   UNL A   1      40.123  26.742  28.463  1.00  0.00     0.173 A 
ATOM     82  F   UNL A   1      42.100  29.649  27.549  1.00  0.00    -0.203 F 
ATOM     83  C   UNL A   1      41.651  27.676  26.343  1.00  0.00     0.198 A 
ATOM     84  C   UNL A   1      40.290  25.960  27.321  1.00  0.00     0.198 A 
ATOM     85  F   UNL A   1      39.371  26.268  29.467  1.00  0.00    -0.203 F 
ATOM     86  F   UNL A   1      42.358  28.149  25.308  1.00  0.00    -0.200 F 
ATOM     87  C   UNL A   1      41.046  26.431  26.259  1.00  0.00     0.200 A 
ATOM     88  F   UNL A   1      39.714  24.752  27.249  1.00  0.00    -0.200 F 
ATOM     89  F   UNL A   1      41.181  25.692  25.150  1.00  0.00    -0.200 F 
ENDBRANCH  55  79
BRANCH  67  90
ATOM     90  C   UNL A   1      44.056  28.318  34.695  1.00  0.00     0.064 A 
ATOM     91  C   UNL A   1      45.387  28.744  34.576  1.00  0.00     0.173 A 
ATOM     92  C   UNL A   1      43.808  27.138  35.413  1.00  0.00     0.173 A 
ATOM     93  F   UNL A   1      45.681  29.857  33.887  1.00  0.00    -0.203 F 
ATOM     94  C   UNL A   1      46.428  28.004  35.130  1.00  0.00     0.198 A 
ATOM     95  C   UNL A   1      44.848  26.420  35.997  1.00  0.00     0.198 A 
ATOM     96  F   UNL A   1      42.552  26.690  35.564  1.00  0.00    -0.203 F 
ATOM     97  F   UNL A   1      47.696  28.402  34.958  1.00  0.00    -0.200 F 
ATOM     98  C   UNL A   1      46.157  26.848  35.846  1.00  0.00     0.200 A 
ATOM     99  F   UNL A   1      44.581  25.313  36.703  1.00  0.00    -0.200 F 
ATOM    100  F   UNL A   1      47.160  26.142  36.387  1.00  0.00    -0.200 F 
ENDBRANCH  67  90
ENDBRANCH  41  42
ENDBRANCH  33  36
ENDBRANCH  31  32
ENDBRANCH  30  31
ENDBRANCH  29  30
ENDBRANCH   1  29
TORSDOF 17
ENDMDL
MODEL 3
REMARK VINA RESULT:     -12.8      1.113      4.457
REMARK SMILES O=C(C[C@@H](NC(=O)c1ccco1)c1ccc(OC2CCCC2)cc1)NCCCCNC(=O)c1ccc(-c2c3nc(c(-c4c(F)c(F)c(F)c(F)c4F)c4ccc([nH]4)c(-c4c(F)c(F)c(F)c(F)c4F)c4nc(c(-c5c(F)c(F)c(F)c(F)c5F)c5ccc2[nH]5)C=C4)C=C3)cc1
REMARK SMILES IDX 26 1 25 2 1 3 2 4 3 6 4 7 5 8 6 9 7 11 8 12 9 13 12 14 10 15
REMARK SMILES IDX 11 16 13 17 14 18 24 19 15 20 23 21 16 22 17 23 18 24 19 25
REMARK SMILES IDX 22 26 20 27 21 28 27 29 28 30 29 31 30 32 31 33 32 35 33 36
REMARK SMILES IDX 34 37 95 38 35 39 94 40 36 41 37 42 38 43 88 44 39 45 93 46
REMARK SMILES IDX 87 47 89 48 40 49 92 50 86 51 85 52 41 54 73 55 53 56 72 57
REMARK SMILES IDX 54 58 57 59 71 60 90 61 55 62 56 63 70 65 91 66 58 67 42 68
REMARK SMILES IDX 43 69 51 70 44 71 45 72 49 73 52 74 46 75 47 76 50 77 48 78
REMARK SMILES IDX 74 79 75 80 83 81 76 82 77 83 81 84 84 85 78 86 79 87 82 88
REMARK SMILES IDX 80 89 59 90 60 91 68 92 61 93 62 94 66 95 69 96 63 97 64 98
REMARK SMILES IDX 67 99 65 100
REMARK H PARENT 25 5 5 10 30 34 89 53 57 64
REMARK Flexibility Score: inf
ROOT
ATOM      1  C   UNL A   1      32.245  30.074  25.365  1.00  0.00     0.116 C 
ENDROOT
BRANCH   1   2
ATOM      2  N   UNL A   1      31.317  29.219  24.650  1.00  0.00    -0.356 N 
ATOM      3  O   UNL A   1      32.622  28.995  22.777  1.00  0.00    -0.275 OA
ATOM      4  C   UNL A   1      31.577  28.772  23.380  1.00  0.00     0.222 C 
ATOM      5  H   UNL A   1      30.477  28.953  25.089  1.00  0.00     0.163 HD
BRANCH   4   6
ATOM      6  C   UNL A   1      30.466  27.955  22.766  1.00  0.00     0.129 C 
BRANCH   6   7
ATOM      7  C   UNL A   1      29.561  27.349  23.857  1.00  0.00     0.122 C 
BRANCH   7   8
ATOM      8  N   UNL A   1      28.143  27.496  23.449  1.00  0.00    -0.342 N 
ATOM      9  C   UNL A   1      27.295  28.553  23.211  1.00  0.00     0.287 C 
ATOM     10  H   UNL A   1      27.702  26.626  23.315  1.00  0.00     0.164 HD
ATOM     11  O   UNL A   1      26.091  28.298  23.326  1.00  0.00    -0.266 OA
BRANCH   9  12
ATOM     12  C   UNL A   1      27.769  29.816  22.703  1.00  0.00     0.191 A 
ATOM     13  C   UNL A   1      28.130  30.965  23.389  1.00  0.00     0.056 A 
ATOM     14  O   UNL A   1      28.048  29.974  21.373  1.00  0.00    -0.459 OA
ATOM     15  C   UNL A   1      28.595  31.891  22.427  1.00  0.00     0.043 A 
ATOM     16  C   UNL A   1      28.545  31.234  21.220  1.00  0.00     0.196 A 
ENDBRANCH   9  12
ENDBRANCH   7   8
BRANCH   7  17
ATOM     17  C   UNL A   1      29.956  25.964  24.333  1.00  0.00    -0.025 A 
ATOM     18  C   UNL A   1      30.264  24.961  23.406  1.00  0.00     0.010 A 
ATOM     19  C   UNL A   1      30.015  25.616  25.688  1.00  0.00     0.010 A 
ATOM     20  C   UNL A   1      30.862  23.768  23.825  1.00  0.00     0.047 A 
ATOM     21  C   UNL A   1      30.524  24.385  26.103  1.00  0.00     0.047 A 
ATOM     22  C   UNL A   1      31.069  23.509  25.180  1.00  0.00     0.119 A 
BRANCH  22  23
ATOM     23  O   UNL A   1      31.858  22.431  25.449  1.00  0.00    -0.490 OA
BRANCH  23  24
ATOM     24  C   UNL A   1      33.268  22.447  25.258  1.00  0.00     0.173 C 
ATOM     25  C   UNL A   1      34.073  23.634  25.786  1.00  0.00     0.045 C 
ATOM     26  C   UNL A   1      33.934  21.169  25.747  1.00  0.00     0.045 C 
ATOM     27  C   UNL A   1      35.455  23.073  26.099  1.00  0.00     0.004 C 
ATOM     28  C   UNL A   1      35.340  21.552  26.171  1.00  0.00     0.004 C 
ENDBRANCH  23  24
ENDBRANCH  22  23
ENDBRANCH   7  17
ENDBRANCH   6   7
ENDBRANCH   4   6
ENDBRANCH   1   2
BRANCH   1  29
ATOM     29  C   UNL A   1      31.638  30.592  26.666  1.00  0.00     0.023 C 
BRANCH  29  30
ATOM     30  C   UNL A   1      31.483  32.113  26.734  1.00  0.00     0.023 C 
BRANCH  30  31
ATOM     31  C   UNL A   1      32.726  32.866  27.196  1.00  0.00     0.116 C 
BRANCH  31  32
ATOM     32  N   UNL A   1      32.433  34.236  27.584  1.00  0.00    -0.352 N 
ATOM     33  C   UNL A   1      32.981  34.989  28.595  1.00  0.00     0.251 C 
ATOM     34  H   UNL A   1      31.742  34.687  27.047  1.00  0.00     0.163 HD
ATOM     35  O   UNL A   1      32.488  36.069  28.895  1.00  0.00    -0.269 OA
BRANCH  33  36
ATOM     36  C   UNL A   1      34.153  34.479  29.341  1.00  0.00     0.039 A 
ATOM     37  C   UNL A   1      33.950  33.895  30.594  1.00  0.00     0.014 A 
ATOM     38  C   UNL A   1      35.442  34.572  28.810  1.00  0.00     0.014 A 
ATOM     39  C   UNL A   1      35.033  33.345  31.284  1.00  0.00     0.010 A 
ATOM     40  C   UNL A   1      36.506  33.954  29.461  1.00  0.00     0.010 A 
ATOM     41  C   UNL A   1      36.313  33.336  30.707  1.00  0.00    -0.014 A 
BRANCH  41  42
ATOM     42  C   UNL A   1      37.459  32.677  31.386  1.00  0.00     0.031 A 
ATOM     43  C   UNL A   1      38.167  31.523  30.733  1.00  0.00     0.074 A 
ATOM     44  C   UNL A   1      37.822  33.079  32.619  1.00  0.00     0.049 A 
ATOM     45  N   UNL A   1      39.148  30.786  31.191  1.00  0.00    -0.248 NA
ATOM     46  C   UNL A   1      37.695  31.129  29.397  1.00  0.00     0.031 C 
ATOM     47  C   UNL A   1      37.186  34.157  33.379  1.00  0.00     0.029 A 
ATOM     48  N   UNL A   1      38.809  32.621  33.457  1.00  0.00    -0.354 N 
ATOM     49  C   UNL A   1      39.398  29.836  30.209  1.00  0.00     0.074 A 
ATOM     50  C   UNL A   1      38.433  30.056  29.153  1.00  0.00     0.031 C 
ATOM     51  C   UNL A   1      37.814  34.295  34.557  1.00  0.00     0.029 A 
ATOM     52  C   UNL A   1      38.866  33.288  34.657  1.00  0.00     0.049 A 
ATOM     53  H   UNL A   1      39.418  31.885  33.221  1.00  0.00     0.167 HD
ATOM     54  C   UNL A   1      40.358  28.880  30.181  1.00  0.00     0.037 A 
ATOM     55  C   UNL A   1      39.670  33.102  35.721  1.00  0.00     0.037 A 
ATOM     56  C   UNL A   1      41.327  28.677  31.226  1.00  0.00     0.049 A 
ATOM     57  C   UNL A   1      40.714  32.019  35.673  1.00  0.00     0.074 A 
ATOM     58  C   UNL A   1      42.380  27.780  31.263  1.00  0.00     0.029 A 
ATOM     59  N   UNL A   1      41.356  29.374  32.425  1.00  0.00    -0.354 N 
ATOM     60  N   UNL A   1      40.993  31.178  34.707  1.00  0.00    -0.248 NA
ATOM     61  C   UNL A   1      41.560  31.862  36.864  1.00  0.00     0.031 C 
ATOM     62  C   UNL A   1      43.008  27.891  32.507  1.00  0.00     0.029 A 
ATOM     63  C   UNL A   1      42.389  28.905  33.221  1.00  0.00     0.049 A 
ATOM     64  H   UNL A   1      40.734  30.096  32.674  1.00  0.00     0.167 HD
ATOM     65  C   UNL A   1      42.064  30.418  35.159  1.00  0.00     0.074 A 
ATOM     66  C   UNL A   1      42.395  30.907  36.481  1.00  0.00     0.031 C 
ATOM     67  C   UNL A   1      42.715  29.406  34.533  1.00  0.00     0.037 A 
BRANCH  54  68
ATOM     68  C   UNL A   1      40.406  27.976  28.982  1.00  0.00     0.064 A 
ATOM     69  C   UNL A   1      41.188  28.280  27.857  1.00  0.00     0.173 A 
ATOM     70  C   UNL A   1      39.691  26.768  28.974  1.00  0.00     0.173 A 
ATOM     71  F   UNL A   1      41.884  29.426  27.808  1.00  0.00    -0.203 F 
ATOM     72  C   UNL A   1      41.225  27.427  26.757  1.00  0.00     0.198 A 
ATOM     73  C   UNL A   1      39.758  25.901  27.887  1.00  0.00     0.198 A 
ATOM     74  F   UNL A   1      38.934  26.423  30.026  1.00  0.00    -0.203 F 
ATOM     75  F   UNL A   1      41.938  27.765  25.674  1.00  0.00    -0.200 F 
ATOM     76  C   UNL A   1      40.518  26.234  26.776  1.00  0.00     0.200 A 
ATOM     77  F   UNL A   1      39.087  24.741  27.915  1.00  0.00    -0.200 F 
ATOM     78  F   UNL A   1      40.562  25.409  25.721  1.00  0.00    -0.200 F 
ENDBRANCH  54  68
BRANCH  55  79
ATOM     79  C   UNL A   1      39.536  33.976  36.917  1.00  0.00     0.064 A 
ATOM     80  C   UNL A   1      40.177  35.222  36.973  1.00  0.00     0.173 A 
ATOM     81  C   UNL A   1      38.778  33.583  38.030  1.00  0.00     0.173 A 
ATOM     82  F   UNL A   1      40.932  35.632  35.943  1.00  0.00    -0.203 F 
ATOM     83  C   UNL A   1      40.086  36.030  38.105  1.00  0.00     0.198 A 
ATOM     84  C   UNL A   1      38.660  34.407  39.148  1.00  0.00     0.198 A 
ATOM     85  F   UNL A   1      38.142  32.403  38.028  1.00  0.00    -0.203 F 
ATOM     86  F   UNL A   1      40.751  37.191  38.150  1.00  0.00    -0.200 F 
ATOM     87  C   UNL A   1      39.322  35.625  39.188  1.00  0.00     0.200 A 
ATOM     88  F   UNL A   1      37.910  34.019  40.189  1.00  0.00    -0.200 F 
ATOM     89  F   UNL A   1      39.232  36.403  40.275  1.00  0.00    -0.200 F 
ENDBRANCH  55  79
BRANCH  67  90
ATOM     90  C   UNL A   1      43.880  28.787  35.250  1.00  0.00     0.064 A 
ATOM     91  C   UNL A   1      45.192  29.255  35.073  1.00  0.00     0.173 A 
ATOM     92  C   UNL A   1      43.678  27.735  36.156  1.00  0.00     0.173 A 
ATOM     93  F   UNL A   1      45.442  30.249  34.208  1.00  0.00    -0.203 F 
ATOM     94  C   UNL A   1      46.257  28.674  35.755  1.00  0.00     0.198 A 
ATOM     95  C   UNL A   1      44.741  27.180  36.862  1.00  0.00     0.198 A 
ATOM     96  F   UNL A   1      42.444  27.254  36.368  1.00  0.00    -0.203 F 
ATOM     97  F   UNL A   1      47.507  29.102  35.529  1.00  0.00    -0.200 F 
ATOM     98  C   UNL A   1      46.030  27.643  36.654  1.00  0.00     0.200 A 
ATOM     99  F   UNL A   1      44.517  26.195  37.743  1.00  0.00    -0.200 F 
ATOM    100  F   UNL A   1      47.057  27.091  37.316  1.00  0.00    -0.200 F 
ENDBRANCH  67  90
ENDBRANCH  41  42
ENDBRANCH  33  36
ENDBRANCH  31  32
ENDBRANCH  30  31
ENDBRANCH  29  30
ENDBRANCH   1  29
TORSDOF 17
ENDMDL
