MODEL 1
REMARK VINA RESULT:     -11.0      0.000      0.000
REMARK SMILES O=C(NCCCCNC(=O)C1CCN(c2ccnnc2)CC1)c1ccc(-c2c3nc(c(-c4c(F)c(F)c(F)c(F)c4F)c4ccc([nH]4)c(-c4c(F)c(F)c(F)c(F)c4F)c4nc(c(-c5c(F)c(F)c(F)c(F)c5F)c5ccc2[nH]5)C=C4)C=C3)cc1
REMARK SMILES IDX 5 1 4 2 3 3 1 4 2 5 23 7 24 8 85 9 25 10 84 11 26 12 27 13
REMARK SMILES IDX 28 14 78 15 29 16 83 17 77 18 79 19 30 20 82 21 76 22 75 23
REMARK SMILES IDX 31 25 63 26 43 27 62 28 44 29 47 30 61 31 80 32 45 33 46 34
REMARK SMILES IDX 60 36 81 37 48 38 32 39 33 40 41 41 34 42 35 43 39 44 42 45
REMARK SMILES IDX 36 46 37 47 40 48 38 49 64 50 65 51 73 52 66 53 67 54 71 55
REMARK SMILES IDX 74 56 68 57 69 58 72 59 70 60 49 61 50 62 58 63 51 64 52 65
REMARK SMILES IDX 56 66 59 67 53 68 54 69 57 70 55 71 6 72 7 73 8 74 9 75
REMARK SMILES IDX 10 77 11 78 12 79 22 80 13 81 21 82 14 83 15 84 16 85 20 86
REMARK SMILES IDX 17 87 19 88 18 89
REMARK H PARENT 3 6 79 24 47 35 8 76
REMARK Flexibility Score: inf
ROOT
ATOM      1  C   UNL A   1      40.875  20.313  27.129  1.00  0.00     0.023 C 
ENDROOT
BRANCH   1   2
ATOM      2  C   UNL A   1      40.773  21.652  26.411  1.00  0.00     0.116 C 
BRANCH   2   3
ATOM      3  N   UNL A   1      39.442  21.930  25.889  1.00  0.00    -0.352 N 
ATOM      4  O   UNL A   1      37.528  23.102  25.618  1.00  0.00    -0.269 OA
ATOM      5  C   UNL A   1      38.685  23.069  26.027  1.00  0.00     0.251 C 
ATOM      6  H   UNL A   1      39.029  21.204  25.367  1.00  0.00     0.163 HD
BRANCH   5   7
ATOM      7  C   UNL A   1      39.264  24.247  26.705  1.00  0.00     0.039 A 
ATOM      8  C   UNL A   1      39.067  24.438  28.073  1.00  0.00     0.014 A 
ATOM      9  C   UNL A   1      39.985  25.185  25.959  1.00  0.00     0.014 A 
ATOM     10  C   UNL A   1      39.451  25.636  28.662  1.00  0.00     0.010 A 
ATOM     11  C   UNL A   1      40.453  26.350  26.575  1.00  0.00     0.010 A 
ATOM     12  C   UNL A   1      40.161  26.599  27.924  1.00  0.00    -0.014 A 
BRANCH  12  13
ATOM     13  C   UNL A   1      40.635  27.820  28.623  1.00  0.00     0.031 A 
ATOM     14  C   UNL A   1      42.086  28.018  28.963  1.00  0.00     0.074 A 
ATOM     15  C   UNL A   1      39.737  28.788  28.887  1.00  0.00     0.049 A 
ATOM     16  N   UNL A   1      42.667  29.059  29.507  1.00  0.00    -0.248 NA
ATOM     17  C   UNL A   1      43.005  26.910  28.664  1.00  0.00     0.031 C 
ATOM     18  C   UNL A   1      38.300  28.693  28.619  1.00  0.00     0.029 A 
ATOM     19  N   UNL A   1      39.895  30.046  29.405  1.00  0.00    -0.354 N 
ATOM     20  C   UNL A   1      44.010  28.729  29.625  1.00  0.00     0.074 A 
ATOM     21  C   UNL A   1      44.158  27.381  29.120  1.00  0.00     0.031 C 
ATOM     22  C   UNL A   1      37.718  29.863  28.916  1.00  0.00     0.029 A 
ATOM     23  C   UNL A   1      38.728  30.769  29.452  1.00  0.00     0.049 A 
ATOM     24  H   UNL A   1      40.761  30.399  29.715  1.00  0.00     0.167 HD
ATOM     25  C   UNL A   1      45.025  29.489  30.104  1.00  0.00     0.037 A 
ATOM     26  C   UNL A   1      38.492  32.020  29.885  1.00  0.00     0.037 A 
ATOM     27  C   UNL A   1      44.873  30.836  30.594  1.00  0.00     0.049 A 
ATOM     28  C   UNL A   1      39.640  32.836  30.404  1.00  0.00     0.074 A 
ATOM     29  C   UNL A   1      45.844  31.692  31.087  1.00  0.00     0.029 A 
ATOM     30  N   UNL A   1      43.670  31.526  30.649  1.00  0.00    -0.354 N 
ATOM     31  N   UNL A   1      40.908  32.516  30.491  1.00  0.00    -0.248 NA
ATOM     32  C   UNL A   1      39.322  34.185  30.888  1.00  0.00     0.031 C 
ATOM     33  C   UNL A   1      45.224  32.886  31.473  1.00  0.00     0.029 A 
ATOM     34  C   UNL A   1      43.873  32.791  31.181  1.00  0.00     0.049 A 
ATOM     35  H   UNL A   1      42.802  31.171  30.355  1.00  0.00     0.167 HD
ATOM     36  C   UNL A   1      41.540  33.621  31.039  1.00  0.00     0.074 A 
ATOM     37  C   UNL A   1      40.521  34.635  31.227  1.00  0.00     0.031 C 
ATOM     38  C   UNL A   1      42.844  33.779  31.370  1.00  0.00     0.037 A 
BRANCH  25  39
ATOM     39  C   UNL A   1      46.400  28.888  30.131  1.00  0.00     0.064 A 
ATOM     40  C   UNL A   1      47.330  29.137  29.110  1.00  0.00     0.173 A 
ATOM     41  C   UNL A   1      46.821  28.118  31.226  1.00  0.00     0.173 A 
ATOM     42  F   UNL A   1      46.974  29.858  28.036  1.00  0.00    -0.203 F 
ATOM     43  C   UNL A   1      48.626  28.631  29.181  1.00  0.00     0.198 A 
ATOM     44  C   UNL A   1      48.123  27.632  31.305  1.00  0.00     0.198 A 
ATOM     45  F   UNL A   1      45.973  27.856  32.233  1.00  0.00    -0.203 F 
ATOM     46  F   UNL A   1      49.488  28.861  28.182  1.00  0.00    -0.200 F 
ATOM     47  C   UNL A   1      49.024  27.887  30.282  1.00  0.00     0.200 A 
ATOM     48  F   UNL A   1      48.510  26.923  32.375  1.00  0.00    -0.200 F 
ATOM     49  F   UNL A   1      50.276  27.413  30.355  1.00  0.00    -0.200 F 
ENDBRANCH  25  39
BRANCH  26  50
ATOM     50  C   UNL A   1      37.112  32.565  29.849  1.00  0.00     0.064 A 
ATOM     51  C   UNL A   1      36.244  32.413  30.938  1.00  0.00     0.173 A 
ATOM     52  C   UNL A   1      36.637  33.258  28.725  1.00  0.00     0.173 A 
ATOM     53  F   UNL A   1      36.647  31.744  32.028  1.00  0.00    -0.203 F 
ATOM     54  C   UNL A   1      34.947  32.918  30.898  1.00  0.00     0.198 A 
ATOM     55  C   UNL A   1      35.351  33.789  28.699  1.00  0.00     0.198 A 
ATOM     56  F   UNL A   1      37.432  33.435  27.660  1.00  0.00    -0.203 F 
ATOM     57  F   UNL A   1      34.121  32.722  31.935  1.00  0.00    -0.200 F 
ATOM     58  C   UNL A   1      34.503  33.611  29.781  1.00  0.00     0.200 A 
ATOM     59  F   UNL A   1      34.933  34.474  27.626  1.00  0.00    -0.200 F 
ATOM     60  F   UNL A   1      33.257  34.104  29.746  1.00  0.00    -0.200 F 
ENDBRANCH  26  50
BRANCH  38  61
ATOM     61  C   UNL A   1      43.231  35.100  31.967  1.00  0.00     0.064 A 
ATOM     62  C   UNL A   1      43.088  35.348  33.340  1.00  0.00     0.173 A 
ATOM     63  C   UNL A   1      43.749  36.123  31.161  1.00  0.00     0.173 A 
ATOM     64  F   UNL A   1      42.579  34.405  34.147  1.00  0.00    -0.203 F 
ATOM     65  C   UNL A   1      43.417  36.589  33.879  1.00  0.00     0.198 A 
ATOM     66  C   UNL A   1      44.103  37.352  31.708  1.00  0.00     0.198 A 
ATOM     67  F   UNL A   1      43.908  35.931  29.842  1.00  0.00    -0.203 F 
ATOM     68  F   UNL A   1      43.219  36.824  35.183  1.00  0.00    -0.200 F 
ATOM     69  C   UNL A   1      43.928  37.588  33.063  1.00  0.00     0.200 A 
ATOM     70  F   UNL A   1      44.604  38.315  30.921  1.00  0.00    -0.200 F 
ATOM     71  F   UNL A   1      44.240  38.782  33.583  1.00  0.00    -0.200 F 
ENDBRANCH  38  61
ENDBRANCH  12  13
ENDBRANCH   5   7
ENDBRANCH   2   3
ENDBRANCH   1   2
BRANCH   1  72
ATOM     72  C   UNL A   1      42.267  19.686  27.144  1.00  0.00     0.023 C 
BRANCH  72  73
ATOM     73  C   UNL A   1      42.815  19.309  25.771  1.00  0.00     0.116 C 
BRANCH  73  74
ATOM     74  N   UNL A   1      44.260  19.440  25.703  1.00  0.00    -0.356 N 
ATOM     75  C   UNL A   1      45.010  20.535  25.373  1.00  0.00     0.223 C 
ATOM     76  H   UNL A   1      44.770  18.629  25.925  1.00  0.00     0.163 HD
ATOM     77  O   UNL A   1      46.234  20.419  25.350  1.00  0.00    -0.275 OA
BRANCH  75  78
ATOM     78  C   UNL A   1      44.298  21.851  25.087  1.00  0.00     0.082 C 
ATOM     79  C   UNL A   1      44.919  22.605  23.899  1.00  0.00     0.035 C 
ATOM     80  C   UNL A   1      44.258  22.717  26.358  1.00  0.00     0.035 C 
ATOM     81  C   UNL A   1      46.200  23.362  24.249  1.00  0.00     0.117 C 
ATOM     82  C   UNL A   1      45.618  23.352  26.655  1.00  0.00     0.117 C 
ATOM     83  N   UNL A   1      46.031  24.120  25.487  1.00  0.00    -0.370 N 
BRANCH  83  84
ATOM     84  C   UNL A   1      45.822  25.488  25.488  1.00  0.00     0.059 A 
ATOM     85  C   UNL A   1      46.877  26.362  25.737  1.00  0.00     0.049 A 
ATOM     86  C   UNL A   1      44.592  26.093  25.257  1.00  0.00     0.161 A 
ATOM     87  C   UNL A   1      46.646  27.724  25.736  1.00  0.00     0.138 A 
ATOM     88  N   UNL A   1      44.384  27.432  25.280  1.00  0.00    -0.157 NA
ATOM     89  N   UNL A   1      45.428  28.258  25.522  1.00  0.00    -0.159 NA
ENDBRANCH  83  84
ENDBRANCH  75  78
ENDBRANCH  73  74
ENDBRANCH  72  73
ENDBRANCH   1  72
TORSDOF 12
ENDMDL
MODEL 2
REMARK VINA RESULT:     -10.9      5.066     10.771
REMARK SMILES O=C(NCCCCNC(=O)C1CCN(c2ccnnc2)CC1)c1ccc(-c2c3nc(c(-c4c(F)c(F)c(F)c(F)c4F)c4ccc([nH]4)c(-c4c(F)c(F)c(F)c(F)c4F)c4nc(c(-c5c(F)c(F)c(F)c(F)c5F)c5ccc2[nH]5)C=C4)C=C3)cc1
REMARK SMILES IDX 5 1 4 2 3 3 1 4 2 5 23 7 24 8 85 9 25 10 84 11 26 12 27 13
REMARK SMILES IDX 28 14 78 15 29 16 83 17 77 18 79 19 30 20 82 21 76 22 75 23
REMARK SMILES IDX 31 25 63 26 43 27 62 28 44 29 47 30 61 31 80 32 45 33 46 34
REMARK SMILES IDX 60 36 81 37 48 38 32 39 33 40 41 41 34 42 35 43 39 44 42 45
REMARK SMILES IDX 36 46 37 47 40 48 38 49 64 50 65 51 73 52 66 53 67 54 71 55
REMARK SMILES IDX 74 56 68 57 69 58 72 59 70 60 49 61 50 62 58 63 51 64 52 65
REMARK SMILES IDX 56 66 59 67 53 68 54 69 57 70 55 71 6 72 7 73 8 74 9 75
REMARK SMILES IDX 10 77 11 78 12 79 22 80 13 81 21 82 14 83 15 84 16 85 20 86
REMARK SMILES IDX 17 87 19 88 18 89
REMARK H PARENT 3 6 79 24 47 35 8 76
REMARK Flexibility Score: inf
ROOT
ATOM      1  C   UNL A   1      31.449  31.926  26.670  1.00  0.00     0.023 C 
ENDROOT
BRANCH   1   2
ATOM      2  C   UNL A   1      32.685  32.637  27.206  1.00  0.00     0.116 C 
BRANCH   2   3
ATOM      3  N   UNL A   1      32.429  34.008  27.623  1.00  0.00    -0.352 N 
ATOM      4  O   UNL A   1      32.651  35.857  28.906  1.00  0.00    -0.269 OA
ATOM      5  C   UNL A   1      33.064  34.743  28.598  1.00  0.00     0.251 C 
ATOM      6  H   UNL A   1      31.705  34.471  27.144  1.00  0.00     0.163 HD
BRANCH   5   7
ATOM      7  C   UNL A   1      34.230  34.166  29.297  1.00  0.00     0.039 A 
ATOM      8  C   UNL A   1      35.522  34.567  28.958  1.00  0.00     0.014 A 
ATOM      9  C   UNL A   1      34.029  33.191  30.280  1.00  0.00     0.014 A 
ATOM     10  C   UNL A   1      36.613  33.887  29.483  1.00  0.00     0.010 A 
ATOM     11  C   UNL A   1      35.132  32.571  30.877  1.00  0.00     0.010 A 
ATOM     12  C   UNL A   1      36.431  32.892  30.459  1.00  0.00    -0.014 A 
BRANCH  12  13
ATOM     13  C   UNL A   1      37.633  32.263  31.062  1.00  0.00     0.031 A 
ATOM     14  C   UNL A   1      38.079  32.594  32.459  1.00  0.00     0.074 A 
ATOM     15  C   UNL A   1      38.284  31.325  30.346  1.00  0.00     0.049 A 
ATOM     16  N   UNL A   1      39.063  32.078  33.151  1.00  0.00    -0.248 NA
ATOM     17  C   UNL A   1      37.332  33.643  33.171  1.00  0.00     0.031 C 
ATOM     18  C   UNL A   1      37.951  30.939  28.973  1.00  0.00     0.029 A 
ATOM     19  N   UNL A   1      39.331  30.506  30.676  1.00  0.00    -0.354 N 
ATOM     20  C   UNL A   1      39.063  32.742  34.371  1.00  0.00     0.074 A 
ATOM     21  C   UNL A   1      37.996  33.718  34.318  1.00  0.00     0.031 C 
ATOM     22  C   UNL A   1      38.735  29.919  28.600  1.00  0.00     0.029 A 
ATOM     23  C   UNL A   1      39.666  29.619  29.683  1.00  0.00     0.049 A 
ATOM     24  H   UNL A   1      39.800  30.549  31.542  1.00  0.00     0.167 HD
ATOM     25  C   UNL A   1      39.876  32.544  35.437  1.00  0.00     0.037 A 
ATOM     26  C   UNL A   1      40.620  28.673  29.641  1.00  0.00     0.037 A 
ATOM     27  C   UNL A   1      40.929  31.561  35.488  1.00  0.00     0.049 A 
ATOM     28  C   UNL A   1      41.500  28.478  30.842  1.00  0.00     0.074 A 
ATOM     29  C   UNL A   1      41.797  31.276  36.529  1.00  0.00     0.029 A 
ATOM     30  N   UNL A   1      41.254  30.697  34.452  1.00  0.00    -0.354 N 
ATOM     31  N   UNL A   1      41.474  29.100  31.994  1.00  0.00    -0.248 NA
ATOM     32  C   UNL A   1      42.542  27.449  30.733  1.00  0.00     0.031 C 
ATOM     33  C   UNL A   1      42.669  30.265  36.111  1.00  0.00     0.029 A 
ATOM     34  C   UNL A   1      42.318  29.890  34.824  1.00  0.00     0.049 A 
ATOM     35  H   UNL A   1      40.798  30.662  33.581  1.00  0.00     0.167 HD
ATOM     36  C   UNL A   1      42.494  28.542  32.749  1.00  0.00     0.074 A 
ATOM     37  C   UNL A   1      43.094  27.503  31.937  1.00  0.00     0.031 C 
ATOM     38  C   UNL A   1      42.908  28.870  33.997  1.00  0.00     0.037 A 
BRANCH  25  39
ATOM     39  C   UNL A   1      39.670  33.409  36.646  1.00  0.00     0.064 A 
ATOM     40  C   UNL A   1      40.289  34.663  36.764  1.00  0.00     0.173 A 
ATOM     41  C   UNL A   1      38.784  33.017  37.661  1.00  0.00     0.173 A 
ATOM     42  F   UNL A   1      41.152  35.079  35.826  1.00  0.00    -0.203 F 
ATOM     43  C   UNL A   1      40.036  35.487  37.859  1.00  0.00     0.198 A 
ATOM     44  C   UNL A   1      38.515  33.853  38.743  1.00  0.00     0.198 A 
ATOM     45  F   UNL A   1      38.161  31.831  37.594  1.00  0.00    -0.203 F 
ATOM     46  F   UNL A   1      40.658  36.669  37.963  1.00  0.00    -0.200 F 
ATOM     47  C   UNL A   1      39.143  35.086  38.842  1.00  0.00     0.200 A 
ATOM     48  F   UNL A   1      37.644  33.469  39.685  1.00  0.00    -0.200 F 
ATOM     49  F   UNL A   1      38.889  35.887  39.886  1.00  0.00    -0.200 F 
ENDBRANCH  25  39
BRANCH  26  50
ATOM     50  C   UNL A   1      40.792  27.851  28.417  1.00  0.00     0.064 A 
ATOM     51  C   UNL A   1      41.604  28.284  27.361  1.00  0.00     0.173 A 
ATOM     52  C   UNL A   1      40.152  26.609  28.285  1.00  0.00     0.173 A 
ATOM     53  F   UNL A   1      42.222  29.471  27.435  1.00  0.00    -0.203 F 
ATOM     54  C   UNL A   1      41.756  27.514  26.210  1.00  0.00     0.198 A 
ATOM     55  C   UNL A   1      40.330  25.826  27.147  1.00  0.00     0.198 A 
ATOM     56  F   UNL A   1      39.369  26.148  29.271  1.00  0.00    -0.203 F 
ATOM     57  F   UNL A   1      42.503  27.970  25.196  1.00  0.00    -0.200 F 
ATOM     58  C   UNL A   1      41.123  26.284  26.106  1.00  0.00     0.200 A 
ATOM     59  F   UNL A   1      39.733  24.630  27.060  1.00  0.00    -0.200 F 
ATOM     60  F   UNL A   1      41.277  25.539  25.002  1.00  0.00    -0.200 F 
ENDBRANCH  26  50
BRANCH  38  61
ATOM     61  C   UNL A   1      44.062  28.088  34.550  1.00  0.00     0.064 A 
ATOM     62  C   UNL A   1      45.383  28.530  34.390  1.00  0.00     0.173 A 
ATOM     63  C   UNL A   1      43.845  26.889  35.243  1.00  0.00     0.173 A 
ATOM     64  F   UNL A   1      45.641  29.662  33.717  1.00  0.00    -0.203 F 
ATOM     65  C   UNL A   1      46.450  27.780  34.877  1.00  0.00     0.198 A 
ATOM     66  C   UNL A   1      44.913  26.156  35.751  1.00  0.00     0.198 A 
ATOM     67  F   UNL A   1      42.598  26.427  35.424  1.00  0.00    -0.203 F 
ATOM     68  F   UNL A   1      47.708  28.191  34.665  1.00  0.00    -0.200 F 
ATOM     69  C   UNL A   1      46.214  26.596  35.560  1.00  0.00     0.200 A 
ATOM     70  F   UNL A   1      44.684  25.016  36.419  1.00  0.00    -0.200 F 
ATOM     71  F   UNL A   1      47.242  25.873  36.023  1.00  0.00    -0.200 F 
ENDBRANCH  38  61
ENDBRANCH  12  13
ENDBRANCH   5   7
ENDBRANCH   2   3
ENDBRANCH   1   2
BRANCH   1  72
ATOM     72  C   UNL A   1      31.671  30.484  26.219  1.00  0.00     0.023 C 
BRANCH  72  73
ATOM     73  C   UNL A   1      33.129  30.036  26.200  1.00  0.00     0.116 C 
BRANCH  73  74
ATOM     74  N   UNL A   1      33.541  29.569  24.887  1.00  0.00    -0.356 N 
ATOM     75  C   UNL A   1      33.479  28.307  24.364  1.00  0.00     0.223 C 
ATOM     76  H   UNL A   1      33.917  30.256  24.292  1.00  0.00     0.163 HD
ATOM     77  O   UNL A   1      33.913  28.123  23.229  1.00  0.00    -0.275 OA
BRANCH  75  78
ATOM     78  C   UNL A   1      32.842  27.200  25.197  1.00  0.00     0.082 C 
ATOM     79  C   UNL A   1      33.886  26.229  25.773  1.00  0.00     0.035 C 
ATOM     80  C   UNL A   1      31.772  26.467  24.369  1.00  0.00     0.035 C 
ATOM     81  C   UNL A   1      34.392  25.196  24.766  1.00  0.00     0.117 C 
ATOM     82  C   UNL A   1      32.398  25.528  23.337  1.00  0.00     0.117 C 
ATOM     83  N   UNL A   1      33.277  24.597  24.035  1.00  0.00    -0.370 N 
BRANCH  83  84
ATOM     84  C   UNL A   1      32.799  23.333  24.330  1.00  0.00     0.059 A 
ATOM     85  C   UNL A   1      33.024  22.273  23.455  1.00  0.00     0.049 A 
ATOM     86  C   UNL A   1      32.076  23.015  25.474  1.00  0.00     0.161 A 
ATOM     87  C   UNL A   1      32.536  21.018  23.768  1.00  0.00     0.138 A 
ATOM     88  N   UNL A   1      31.591  21.780  25.751  1.00  0.00    -0.157 NA
ATOM     89  N   UNL A   1      31.826  20.769  24.885  1.00  0.00    -0.159 NA
ENDBRANCH  83  84
ENDBRANCH  75  78
ENDBRANCH  73  74
ENDBRANCH  72  73
ENDBRANCH   1  72
TORSDOF 12
ENDMDL
MODEL 3
REMARK VINA RESULT:     -10.9      3.791     11.055
REMARK SMILES O=C(NCCCCNC(=O)C1CCN(c2ccnnc2)CC1)c1ccc(-c2c3nc(c(-c4c(F)c(F)c(F)c(F)c4F)c4ccc([nH]4)c(-c4c(F)c(F)c(F)c(F)c4F)c4nc(c(-c5c(F)c(F)c(F)c(F)c5F)c5ccc2[nH]5)C=C4)C=C3)cc1
REMARK SMILES IDX 5 1 4 2 3 3 1 4 2 5 23 7 24 8 85 9 25 10 84 11 26 12 27 13
REMARK SMILES IDX 28 14 78 15 29 16 83 17 77 18 79 19 30 20 82 21 76 22 75 23
REMARK SMILES IDX 31 25 63 26 43 27 62 28 44 29 47 30 61 31 80 32 45 33 46 34
REMARK SMILES IDX 60 36 81 37 48 38 32 39 33 40 41 41 34 42 35 43 39 44 42 45
REMARK SMILES IDX 36 46 37 47 40 48 38 49 64 50 65 51 73 52 66 53 67 54 71 55
REMARK SMILES IDX 74 56 68 57 69 58 72 59 70 60 49 61 50 62 58 63 51 64 52 65
REMARK SMILES IDX 56 66 59 67 53 68 54 69 57 70 55 71 6 72 7 73 8 74 9 75
REMARK SMILES IDX 10 77 11 78 12 79 22 80 13 81 21 82 14 83 15 84 16 85 20 86
REMARK SMILES IDX 17 87 19 88 18 89
REMARK H PARENT 3 6 79 24 47 35 8 76
REMARK Flexibility Score: inf
ROOT
ATOM      1  C   UNL A   1      33.704  33.874  27.985  1.00  0.00     0.023 C 
ENDROOT
BRANCH   1   2
ATOM      2  C   UNL A   1      34.606  32.662  28.174  1.00  0.00     0.116 C 
BRANCH   2   3
ATOM      3  N   UNL A   1      33.945  31.397  27.885  1.00  0.00    -0.352 N 
ATOM      4  O   UNL A   1      33.808  29.175  27.490  1.00  0.00    -0.269 OA
ATOM      5  C   UNL A   1      34.481  30.131  27.865  1.00  0.00     0.251 C 
ATOM      6  H   UNL A   1      32.984  31.457  27.675  1.00  0.00     0.163 HD
BRANCH   5   7
ATOM      7  C   UNL A   1      35.888  29.933  28.267  1.00  0.00     0.039 A 
ATOM      8  C   UNL A   1      36.921  30.220  27.374  1.00  0.00     0.014 A 
ATOM      9  C   UNL A   1      36.175  29.427  29.539  1.00  0.00     0.014 A 
ATOM     10  C   UNL A   1      38.223  29.855  27.690  1.00  0.00     0.010 A 
ATOM     11  C   UNL A   1      37.500  29.147  29.892  1.00  0.00     0.010 A 
ATOM     12  C   UNL A   1      38.530  29.328  28.957  1.00  0.00    -0.014 A 
BRANCH  12  13
ATOM     13  C   UNL A   1      39.951  29.045  29.283  1.00  0.00     0.031 A 
ATOM     14  C   UNL A   1      40.741  29.938  30.198  1.00  0.00     0.074 A 
ATOM     15  C   UNL A   1      40.502  27.920  28.789  1.00  0.00     0.049 A 
ATOM     16  N   UNL A   1      41.967  29.788  30.635  1.00  0.00    -0.248 NA
ATOM     17  C   UNL A   1      40.080  31.160  30.681  1.00  0.00     0.031 C 
ATOM     18  C   UNL A   1      39.833  26.991  27.874  1.00  0.00     0.029 A 
ATOM     19  N   UNL A   1      41.727  27.347  29.006  1.00  0.00    -0.354 N 
ATOM     20  C   UNL A   1      42.228  30.894  31.432  1.00  0.00     0.074 A 
ATOM     21  C   UNL A   1      41.042  31.723  31.400  1.00  0.00     0.031 C 
ATOM     22  C   UNL A   1      40.630  25.937  27.657  1.00  0.00     0.029 A 
ATOM     23  C   UNL A   1      41.888  26.142  28.367  1.00  0.00     0.049 A 
ATOM     24  H   UNL A   1      42.426  27.759  29.565  1.00  0.00     0.167 HD
ATOM     25  C   UNL A   1      43.352  31.181  32.131  1.00  0.00     0.037 A 
ATOM     26  C   UNL A   1      42.933  25.297  28.346  1.00  0.00     0.037 A 
ATOM     27  C   UNL A   1      44.525  30.344  32.169  1.00  0.00     0.049 A 
ATOM     28  C   UNL A   1      44.162  25.644  29.136  1.00  0.00     0.074 A 
ATOM     29  C   UNL A   1      45.709  30.544  32.859  1.00  0.00     0.029 A 
ATOM     30  N   UNL A   1      44.660  29.142  31.488  1.00  0.00    -0.354 N 
ATOM     31  N   UNL A   1      44.385  26.685  29.900  1.00  0.00    -0.248 NA
ATOM     32  C   UNL A   1      45.283  24.699  29.057  1.00  0.00     0.031 C 
ATOM     33  C   UNL A   1      46.572  29.482  32.569  1.00  0.00     0.029 A 
ATOM     34  C   UNL A   1      45.912  28.598  31.731  1.00  0.00     0.049 A 
ATOM     35  H   UNL A   1      43.970  28.737  30.917  1.00  0.00     0.167 HD
ATOM     36  C   UNL A   1      45.670  26.523  30.394  1.00  0.00     0.074 A 
ATOM     37  C   UNL A   1      46.162  25.264  29.873  1.00  0.00     0.031 C 
ATOM     38  C   UNL A   1      46.386  27.350  31.194  1.00  0.00     0.037 A 
BRANCH  25  39
ATOM     39  C   UNL A   1      43.382  32.460  32.917  1.00  0.00     0.064 A 
ATOM     40  C   UNL A   1      43.104  32.483  34.292  1.00  0.00     0.173 A 
ATOM     41  C   UNL A   1      43.770  33.663  32.307  1.00  0.00     0.173 A 
ATOM     42  F   UNL A   1      42.719  31.362  34.920  1.00  0.00    -0.203 F 
ATOM     43  C   UNL A   1      43.203  33.663  35.024  1.00  0.00     0.198 A 
ATOM     44  C   UNL A   1      43.890  34.837  33.046  1.00  0.00     0.198 A 
ATOM     45  F   UNL A   1      44.053  33.695  30.996  1.00  0.00    -0.203 F 
ATOM     46  F   UNL A   1      42.908  33.666  36.331  1.00  0.00    -0.200 F 
ATOM     47  C   UNL A   1      43.605  34.837  34.403  1.00  0.00     0.200 A 
ATOM     48  F   UNL A   1      44.289  35.967  32.447  1.00  0.00    -0.200 F 
ATOM     49  F   UNL A   1      43.715  35.969  35.113  1.00  0.00    -0.200 F 
ENDBRANCH  25  39
BRANCH  26  50
ATOM     50  C   UNL A   1      42.860  24.051  27.543  1.00  0.00     0.064 A 
ATOM     51  C   UNL A   1      43.187  24.045  26.182  1.00  0.00     0.173 A 
ATOM     52  C   UNL A   1      42.467  22.837  28.128  1.00  0.00     0.173 A 
ATOM     53  F   UNL A   1      43.552  25.183  25.575  1.00  0.00    -0.203 F 
ATOM     54  C   UNL A   1      43.108  22.875  25.429  1.00  0.00     0.198 A 
ATOM     55  C   UNL A   1      42.419  21.662  27.382  1.00  0.00     0.198 A 
ATOM     56  F   UNL A   1      42.149  22.789  29.429  1.00  0.00    -0.203 F 
ATOM     57  F   UNL A   1      43.385  22.904  24.119  1.00  0.00    -0.200 F 
ATOM     58  C   UNL A   1      42.730  21.684  26.031  1.00  0.00     0.200 A 
ATOM     59  F   UNL A   1      42.071  20.511  27.972  1.00  0.00    -0.200 F 
ATOM     60  F   UNL A   1      42.662  20.557  25.308  1.00  0.00    -0.200 F 
ENDBRANCH  26  50
BRANCH  38  61
ATOM     61  C   UNL A   1      47.773  26.906  31.550  1.00  0.00     0.064 A 
ATOM     62  C   UNL A   1      48.010  26.066  32.648  1.00  0.00     0.173 A 
ATOM     63  C   UNL A   1      48.874  27.323  30.788  1.00  0.00     0.173 A 
ATOM     64  F   UNL A   1      46.990  25.657  33.418  1.00  0.00    -0.203 F 
ATOM     65  C   UNL A   1      49.305  25.687  32.992  1.00  0.00     0.198 A 
ATOM     66  C   UNL A   1      50.164  26.920  31.119  1.00  0.00     0.198 A 
ATOM     67  F   UNL A   1      48.698  28.123  29.726  1.00  0.00    -0.203 F 
ATOM     68  F   UNL A   1      49.514  24.931  34.078  1.00  0.00    -0.200 F 
ATOM     69  C   UNL A   1      50.380  26.111  32.224  1.00  0.00     0.200 A 
ATOM     70  F   UNL A   1      51.202  27.323  30.373  1.00  0.00    -0.200 F 
ATOM     71  F   UNL A   1      51.625  25.750  32.560  1.00  0.00    -0.200 F 
ENDBRANCH  38  61
ENDBRANCH  12  13
ENDBRANCH   5   7
ENDBRANCH   2   3
ENDBRANCH   1   2
BRANCH   1  72
ATOM     72  C   UNL A   1      34.033  35.075  28.869  1.00  0.00     0.023 C 
BRANCH  72  73
ATOM     73  C   UNL A   1      33.178  35.198  30.126  1.00  0.00     0.116 C 
BRANCH  73  74
ATOM     74  N   UNL A   1      33.865  35.915  31.188  1.00  0.00    -0.356 N 
ATOM     75  C   UNL A   1      34.537  35.415  32.268  1.00  0.00     0.223 C 
ATOM     76  H   UNL A   1      33.843  36.896  31.119  1.00  0.00     0.163 HD
ATOM     77  O   UNL A   1      35.026  36.208  33.070  1.00  0.00    -0.275 OA
BRANCH  75  78
ATOM     78  C   UNL A   1      34.678  33.903  32.408  1.00  0.00     0.082 C 
ATOM     79  C   UNL A   1      34.787  33.460  33.876  1.00  0.00     0.035 C 
ATOM     80  C   UNL A   1      35.867  33.405  31.568  1.00  0.00     0.035 C 
ATOM     81  C   UNL A   1      36.177  33.657  34.480  1.00  0.00     0.117 C 
ATOM     82  C   UNL A   1      37.206  33.736  32.230  1.00  0.00     0.117 C 
ATOM     83  N   UNL A   1      37.210  33.164  33.572  1.00  0.00    -0.370 N 
BRANCH  83  84
ATOM     84  C   UNL A   1      37.847  31.951  33.770  1.00  0.00     0.059 A 
ATOM     85  C   UNL A   1      39.005  31.883  34.540  1.00  0.00     0.049 A 
ATOM     86  C   UNL A   1      37.413  30.742  33.240  1.00  0.00     0.161 A 
ATOM     87  C   UNL A   1      39.626  30.661  34.725  1.00  0.00     0.138 A 
ATOM     88  N   UNL A   1      38.050  29.559  33.419  1.00  0.00    -0.157 NA
ATOM     89  N   UNL A   1      39.172  29.520  34.173  1.00  0.00    -0.159 NA
ENDBRANCH  83  84
ENDBRANCH  75  78
ENDBRANCH  73  74
ENDBRANCH  72  73
ENDBRANCH   1  72
TORSDOF 12
ENDMDL
