MODEL 1
REMARK VINA RESULT:     -12.3      0.000      0.000
REMARK SMILES COCCC(=O)N1[C@@H](C(=O)NCCCCNC(=O)c2ccc(-c3c4nc(c(-c5c(F)c(F)c(F)c(F)c5F)c5ccc([nH]5)c(-c5c(F)c(F)c(F)c(F)c5F)c5nc(c(-c6c(F)c(F)c(F)c(F)c6F)c6ccc3[nH]6)C=C5)C=C4)cc2)CC[C@H]2CCCC[C@@H]21
REMARK SMILES IDX 12 1 11 2 9 3 10 4 8 6 7 7 89 8 82 9 84 10 88 11 83 12 85 13
REMARK SMILES IDX 87 14 86 15 5 16 6 17 4 18 3 19 2 20 1 21 13 22 14 23 15 24
REMARK SMILES IDX 16 25 17 26 18 28 19 29 20 30 81 31 21 32 80 33 22 34 23 35
REMARK SMILES IDX 24 36 74 37 25 38 79 39 73 40 75 41 26 42 78 43 72 44 71 45
REMARK SMILES IDX 27 47 59 48 39 49 58 50 40 51 43 52 57 53 76 54 41 55 42 56
REMARK SMILES IDX 56 58 77 59 44 60 28 61 29 62 37 63 30 64 31 65 35 66 38 67
REMARK SMILES IDX 32 68 33 69 36 70 34 71 60 72 61 73 69 74 62 75 63 76 67 77
REMARK SMILES IDX 70 78 64 79 65 80 68 81 66 82 45 83 46 84 54 85 47 86 48 87
REMARK SMILES IDX 52 88 55 89 49 90 50 91 53 92 51 93
REMARK H PARENT 11 5 16 27 75 46 43 57
REMARK Flexibility Score: inf
ROOT
ATOM      1  C   UNL A   1      31.438  26.041  25.614  1.00  0.00     0.116 C 
ENDROOT
BRANCH   1   2
ATOM      2  N   UNL A   1      30.727  25.059  26.399  1.00  0.00    -0.354 N 
ATOM      3  C   UNL A   1      31.123  23.813  26.809  1.00  0.00     0.242 C 
ATOM      4  O   UNL A   1      30.383  23.232  27.609  1.00  0.00    -0.273 OA
ATOM      5  H   UNL A   1      29.822  25.324  26.683  1.00  0.00     0.163 HD
BRANCH   3   6
ATOM      6  C   UNL A   1      32.554  23.293  26.496  1.00  0.00     0.174 C 
ATOM      7  N   UNL A   1      32.802  22.505  25.271  1.00  0.00    -0.327 N 
ATOM      8  C   UNL A   1      34.220  22.493  24.864  1.00  0.00     0.089 C 
ATOM      9  C   UNL A   1      33.198  22.544  27.688  1.00  0.00     0.036 C 
ATOM     10  C   UNL A   1      35.150  22.599  26.105  1.00  0.00     0.012 C 
ATOM     11  C   UNL A   1      34.650  23.616  23.908  1.00  0.00     0.025 C 
ATOM     12  C   UNL A   1      34.533  21.863  27.295  1.00  0.00     0.008 C 
ATOM     13  C   UNL A   1      36.551  22.161  25.692  1.00  0.00     0.006 C 
ATOM     14  C   UNL A   1      36.125  23.444  23.495  1.00  0.00     0.002 C 
ATOM     15  C   UNL A   1      37.094  23.146  24.648  1.00  0.00     0.000 C 
BRANCH   7  16
ATOM     16  C   UNL A   1      31.959  21.400  25.101  1.00  0.00     0.225 C 
ATOM     17  O   UNL A   1      30.776  21.452  25.460  1.00  0.00    -0.275 OA
BRANCH  16  18
ATOM     18  C   UNL A   1      32.443  20.098  24.481  1.00  0.00     0.128 C 
BRANCH  18  19
ATOM     19  C   UNL A   1      32.833  18.969  25.421  1.00  0.00     0.169 C 
BRANCH  19  20
ATOM     20  O   UNL A   1      31.997  17.821  25.243  1.00  0.00    -0.384 OA
ATOM     21  C   UNL A   1      32.721  16.605  25.155  1.00  0.00     0.194 C 
ENDBRANCH  19  20
ENDBRANCH  18  19
ENDBRANCH  16  18
ENDBRANCH   7  16
ENDBRANCH   3   6
ENDBRANCH   1   2
BRANCH   1  22
ATOM     22  C   UNL A   1      31.848  27.258  26.439  1.00  0.00     0.023 C 
BRANCH  22  23
ATOM     23  C   UNL A   1      31.782  28.595  25.715  1.00  0.00     0.023 C 
BRANCH  23  24
ATOM     24  C   UNL A   1      33.012  29.461  25.895  1.00  0.00     0.116 C 
BRANCH  24  25
ATOM     25  N   UNL A   1      32.699  30.810  26.345  1.00  0.00    -0.352 N 
ATOM     26  C   UNL A   1      33.378  31.610  27.233  1.00  0.00     0.251 C 
ATOM     27  H   UNL A   1      31.884  31.205  25.958  1.00  0.00     0.163 HD
ATOM     28  O   UNL A   1      32.899  32.670  27.604  1.00  0.00    -0.269 OA
BRANCH  26  29
ATOM     29  C   UNL A   1      34.679  31.149  27.761  1.00  0.00     0.039 A 
ATOM     30  C   UNL A   1      35.699  32.084  27.947  1.00  0.00     0.014 A 
ATOM     31  C   UNL A   1      34.870  29.813  28.119  1.00  0.00     0.014 A 
ATOM     32  C   UNL A   1      36.885  31.686  28.563  1.00  0.00     0.010 A 
ATOM     33  C   UNL A   1      36.002  29.447  28.834  1.00  0.00     0.010 A 
ATOM     34  C   UNL A   1      37.028  30.376  29.052  1.00  0.00    -0.014 A 
BRANCH  34  35
ATOM     35  C   UNL A   1      38.244  29.967  29.793  1.00  0.00     0.031 A 
ATOM     36  C   UNL A   1      38.491  30.479  31.185  1.00  0.00     0.074 A 
ATOM     37  C   UNL A   1      39.153  29.177  29.189  1.00  0.00     0.049 A 
ATOM     38  N   UNL A   1      39.495  30.237  31.989  1.00  0.00    -0.248 NA
ATOM     39  C   UNL A   1      37.498  31.416  31.735  1.00  0.00     0.031 C 
ATOM     40  C   UNL A   1      39.063  28.688  27.811  1.00  0.00     0.029 A 
ATOM     41  N   UNL A   1      40.331  28.650  29.652  1.00  0.00    -0.354 N 
ATOM     42  C   UNL A   1      39.259  31.000  33.126  1.00  0.00     0.074 A 
ATOM     43  C   UNL A   1      38.059  31.766  32.881  1.00  0.00     0.031 C 
ATOM     44  C   UNL A   1      40.117  27.897  27.556  1.00  0.00     0.029 A 
ATOM     45  C   UNL A   1      40.975  27.854  28.736  1.00  0.00     0.049 A 
ATOM     46  H   UNL A   1      40.682  28.823  30.556  1.00  0.00     0.167 HD
ATOM     47  C   UNL A   1      39.964  31.033  34.282  1.00  0.00     0.037 A 
ATOM     48  C   UNL A   1      42.128  27.166  28.839  1.00  0.00     0.037 A 
ATOM     49  C   UNL A   1      41.144  30.247  34.524  1.00  0.00     0.049 A 
ATOM     50  C   UNL A   1      42.882  27.202  30.140  1.00  0.00     0.074 A 
ATOM     51  C   UNL A   1      41.888  30.141  35.685  1.00  0.00     0.029 A 
ATOM     52  N   UNL A   1      41.760  29.436  33.580  1.00  0.00    -0.354 N 
ATOM     53  N   UNL A   1      42.594  27.846  31.246  1.00  0.00    -0.248 NA
ATOM     54  C   UNL A   1      44.113  26.404  30.211  1.00  0.00     0.031 C 
ATOM     55  C   UNL A   1      42.988  29.315  35.426  1.00  0.00     0.029 A 
ATOM     56  C   UNL A   1      42.894  28.853  34.122  1.00  0.00     0.049 A 
ATOM     57  H   UNL A   1      41.438  29.296  32.660  1.00  0.00     0.167 HD
ATOM     58  C   UNL A   1      43.597  27.520  32.149  1.00  0.00     0.074 A 
ATOM     59  C   UNL A   1      44.484  26.597  31.468  1.00  0.00     0.031 C 
ATOM     60  C   UNL A   1      43.771  27.946  33.425  1.00  0.00     0.037 A 
BRANCH  47  61
ATOM     61  C   UNL A   1      39.473  31.948  35.367  1.00  0.00     0.064 A 
ATOM     62  C   UNL A   1      39.875  33.292  35.443  1.00  0.00     0.173 A 
ATOM     63  C   UNL A   1      38.571  31.482  36.337  1.00  0.00     0.173 A 
ATOM     64  F   UNL A   1      40.744  33.788  34.550  1.00  0.00    -0.203 F 
ATOM     65  C   UNL A   1      39.425  34.120  36.469  1.00  0.00     0.198 A 
ATOM     66  C   UNL A   1      38.096  32.322  37.340  1.00  0.00     0.198 A 
ATOM     67  F   UNL A   1      38.150  30.208  36.312  1.00  0.00    -0.203 F 
ATOM     68  F   UNL A   1      39.874  35.379  36.556  1.00  0.00    -0.200 F 
ATOM     69  C   UNL A   1      38.532  33.637  37.412  1.00  0.00     0.200 A 
ATOM     70  F   UNL A   1      37.221  31.858  38.243  1.00  0.00    -0.200 F 
ATOM     71  F   UNL A   1      38.097  34.436  38.395  1.00  0.00    -0.200 F 
ENDBRANCH  47  61
BRANCH  48  72
ATOM     72  C   UNL A   1      42.613  26.362  27.687  1.00  0.00     0.064 A 
ATOM     73  C   UNL A   1      43.557  26.881  26.790  1.00  0.00     0.173 A 
ATOM     74  C   UNL A   1      42.154  25.055  27.466  1.00  0.00     0.173 A 
ATOM     75  F   UNL A   1      44.013  28.132  26.947  1.00  0.00    -0.203 F 
ATOM     76  C   UNL A   1      44.010  26.130  25.707  1.00  0.00     0.198 A 
ATOM     77  C   UNL A   1      42.631  24.294  26.401  1.00  0.00     0.198 A 
ATOM     78  F   UNL A   1      41.257  24.508  28.299  1.00  0.00    -0.203 F 
ATOM     79  F   UNL A   1      44.880  26.667  24.840  1.00  0.00    -0.200 F 
ATOM     80  C   UNL A   1      43.553  24.835  25.517  1.00  0.00     0.200 A 
ATOM     81  F   UNL A   1      42.199  23.037  26.231  1.00  0.00    -0.200 F 
ATOM     82  F   UNL A   1      43.995  24.111  24.480  1.00  0.00    -0.200 F 
ENDBRANCH  48  72
BRANCH  60  83
ATOM     83  C   UNL A   1      44.959  27.407  34.170  1.00  0.00     0.064 A 
ATOM     84  C   UNL A   1      44.892  26.207  34.893  1.00  0.00     0.173 A 
ATOM     85  C   UNL A   1      46.185  28.089  34.141  1.00  0.00     0.173 A 
ATOM     86  F   UNL A   1      43.739  25.524  34.963  1.00  0.00    -0.203 F 
ATOM     87  C   UNL A   1      45.997  25.728  35.590  1.00  0.00     0.198 A 
ATOM     88  C   UNL A   1      47.299  27.588  34.810  1.00  0.00     0.198 A 
ATOM     89  F   UNL A   1      46.306  29.236  33.458  1.00  0.00    -0.203 F 
ATOM     90  F   UNL A   1      45.893  24.612  36.324  1.00  0.00    -0.200 F 
ATOM     91  C   UNL A   1      47.201  26.415  35.542  1.00  0.00     0.200 A 
ATOM     92  F   UNL A   1      48.466  28.244  34.748  1.00  0.00    -0.200 F 
ATOM     93  F   UNL A   1      48.266  25.951  36.211  1.00  0.00    -0.200 F 
ENDBRANCH  60  83
ENDBRANCH  34  35
ENDBRANCH  26  29
ENDBRANCH  24  25
ENDBRANCH  23  24
ENDBRANCH  22  23
ENDBRANCH   1  22
TORSDOF 15
ENDMDL
MODEL 2
REMARK VINA RESULT:     -12.3      1.151      2.496
REMARK SMILES COCCC(=O)N1[C@@H](C(=O)NCCCCNC(=O)c2ccc(-c3c4nc(c(-c5c(F)c(F)c(F)c(F)c5F)c5ccc([nH]5)c(-c5c(F)c(F)c(F)c(F)c5F)c5nc(c(-c6c(F)c(F)c(F)c(F)c6F)c6ccc3[nH]6)C=C5)C=C4)cc2)CC[C@H]2CCCC[C@@H]21
REMARK SMILES IDX 12 1 11 2 9 3 10 4 8 6 7 7 89 8 82 9 84 10 88 11 83 12 85 13
REMARK SMILES IDX 87 14 86 15 5 16 6 17 4 18 3 19 2 20 1 21 13 22 14 23 15 24
REMARK SMILES IDX 16 25 17 26 18 28 19 29 20 30 81 31 21 32 80 33 22 34 23 35
REMARK SMILES IDX 24 36 74 37 25 38 79 39 73 40 75 41 26 42 78 43 72 44 71 45
REMARK SMILES IDX 27 47 59 48 39 49 58 50 40 51 43 52 57 53 76 54 41 55 42 56
REMARK SMILES IDX 56 58 77 59 44 60 28 61 29 62 37 63 30 64 31 65 35 66 38 67
REMARK SMILES IDX 32 68 33 69 36 70 34 71 60 72 61 73 69 74 62 75 63 76 67 77
REMARK SMILES IDX 70 78 64 79 65 80 68 81 66 82 45 83 46 84 54 85 47 86 48 87
REMARK SMILES IDX 52 88 55 89 49 90 50 91 53 92 51 93
REMARK H PARENT 11 5 16 27 75 46 43 57
REMARK Flexibility Score: inf
ROOT
ATOM      1  C   UNL A   1      32.247  26.426  26.513  1.00  0.00     0.116 C 
ENDROOT
BRANCH   1   2
ATOM      2  N   UNL A   1      31.116  25.557  26.743  1.00  0.00    -0.354 N 
ATOM      3  C   UNL A   1      30.996  24.207  26.539  1.00  0.00     0.242 C 
ATOM      4  O   UNL A   1      29.967  23.674  26.967  1.00  0.00    -0.273 OA
ATOM      5  H   UNL A   1      30.312  26.000  27.098  1.00  0.00     0.163 HD
BRANCH   3   6
ATOM      6  C   UNL A   1      32.208  23.367  26.052  1.00  0.00     0.174 C 
ATOM      7  N   UNL A   1      32.933  23.759  24.826  1.00  0.00    -0.327 N 
ATOM      8  C   UNL A   1      34.294  23.195  24.749  1.00  0.00     0.089 C 
ATOM      9  C   UNL A   1      31.897  21.853  25.963  1.00  0.00     0.036 C 
ATOM     10  C   UNL A   1      34.361  21.819  25.468  1.00  0.00     0.012 C 
ATOM     11  C   UNL A   1      35.410  24.054  25.363  1.00  0.00     0.025 C 
ATOM     12  C   UNL A   1      33.045  21.061  25.287  1.00  0.00     0.008 C 
ATOM     13  C   UNL A   1      35.623  21.098  25.007  1.00  0.00     0.006 C 
ATOM     14  C   UNL A   1      36.786  23.397  25.146  1.00  0.00     0.002 C 
ATOM     15  C   UNL A   1      36.850  21.897  25.468  1.00  0.00     0.000 C 
BRANCH   7  16
ATOM     16  C   UNL A   1      32.126  23.938  23.696  1.00  0.00     0.225 C 
ATOM     17  O   UNL A   1      31.571  22.970  23.161  1.00  0.00    -0.275 OA
BRANCH  16  18
ATOM     18  C   UNL A   1      31.895  25.306  23.073  1.00  0.00     0.128 C 
BRANCH  18  19
ATOM     19  C   UNL A   1      33.117  26.137  22.716  1.00  0.00     0.169 C 
BRANCH  19  20
ATOM     20  O   UNL A   1      33.518  25.931  21.358  1.00  0.00    -0.384 OA
ATOM     21  C   UNL A   1      32.430  25.692  20.480  1.00  0.00     0.194 C 
ENDBRANCH  19  20
ENDBRANCH  18  19
ENDBRANCH  16  18
ENDBRANCH   7  16
ENDBRANCH   3   6
ENDBRANCH   1   2
BRANCH   1  22
ATOM     22  C   UNL A   1      32.090  27.778  27.204  1.00  0.00     0.023 C 
BRANCH  22  23
ATOM     23  C   UNL A   1      31.696  28.936  26.300  1.00  0.00     0.023 C 
BRANCH  23  24
ATOM     24  C   UNL A   1      32.833  29.883  25.971  1.00  0.00     0.116 C 
BRANCH  24  25
ATOM     25  N   UNL A   1      32.588  31.247  26.418  1.00  0.00    -0.352 N 
ATOM     26  C   UNL A   1      33.309  32.014  27.302  1.00  0.00     0.251 C 
ATOM     27  H   UNL A   1      31.792  31.680  26.033  1.00  0.00     0.163 HD
ATOM     28  O   UNL A   1      32.883  33.097  27.672  1.00  0.00    -0.269 OA
BRANCH  26  29
ATOM     29  C   UNL A   1      34.587  31.492  27.827  1.00  0.00     0.039 A 
ATOM     30  C   UNL A   1      35.666  32.367  27.965  1.00  0.00     0.014 A 
ATOM     31  C   UNL A   1      34.702  30.159  28.227  1.00  0.00     0.014 A 
ATOM     32  C   UNL A   1      36.836  31.918  28.576  1.00  0.00     0.010 A 
ATOM     33  C   UNL A   1      35.822  29.748  28.937  1.00  0.00     0.010 A 
ATOM     34  C   UNL A   1      36.906  30.619  29.108  1.00  0.00    -0.014 A 
BRANCH  34  35
ATOM     35  C   UNL A   1      38.108  30.160  29.845  1.00  0.00     0.031 A 
ATOM     36  C   UNL A   1      38.359  30.629  31.251  1.00  0.00     0.074 A 
ATOM     37  C   UNL A   1      39.000  29.364  29.225  1.00  0.00     0.049 A 
ATOM     38  N   UNL A   1      39.352  30.342  32.054  1.00  0.00    -0.248 NA
ATOM     39  C   UNL A   1      37.386  31.577  31.820  1.00  0.00     0.031 C 
ATOM     40  C   UNL A   1      38.906  28.913  27.834  1.00  0.00     0.029 A 
ATOM     41  N   UNL A   1      40.162  28.795  29.680  1.00  0.00    -0.354 N 
ATOM     42  C   UNL A   1      39.128  31.080  33.208  1.00  0.00     0.074 A 
ATOM     43  C   UNL A   1      37.949  31.883  32.977  1.00  0.00     0.031 C 
ATOM     44  C   UNL A   1      39.941  28.103  27.564  1.00  0.00     0.029 A 
ATOM     45  C   UNL A   1      40.792  28.008  28.747  1.00  0.00     0.049 A 
ATOM     46  H   UNL A   1      40.511  28.937  30.590  1.00  0.00     0.167 HD
ATOM     47  C   UNL A   1      39.826  31.066  34.369  1.00  0.00     0.037 A 
ATOM     48  C   UNL A   1      41.926  27.289  28.838  1.00  0.00     0.037 A 
ATOM     49  C   UNL A   1      40.985  30.244  34.596  1.00  0.00     0.049 A 
ATOM     50  C   UNL A   1      42.673  27.272  30.144  1.00  0.00     0.074 A 
ATOM     51  C   UNL A   1      41.719  30.091  35.759  1.00  0.00     0.029 A 
ATOM     52  N   UNL A   1      41.586  29.443  33.635  1.00  0.00    -0.354 N 
ATOM     53  N   UNL A   1      42.395  27.894  31.265  1.00  0.00    -0.248 NA
ATOM     54  C   UNL A   1      43.883  26.442  30.201  1.00  0.00     0.031 C 
ATOM     55  C   UNL A   1      42.800  29.244  35.484  1.00  0.00     0.029 A 
ATOM     56  C   UNL A   1      42.702  28.819  34.168  1.00  0.00     0.049 A 
ATOM     57  H   UNL A   1      41.266  29.336  32.710  1.00  0.00     0.167 HD
ATOM     58  C   UNL A   1      43.384  27.519  32.164  1.00  0.00     0.074 A 
ATOM     59  C   UNL A   1      44.251  26.593  31.465  1.00  0.00     0.031 C 
ATOM     60  C   UNL A   1      43.561  27.908  33.452  1.00  0.00     0.037 A 
BRANCH  47  61
ATOM     61  C   UNL A   1      39.351  31.965  35.475  1.00  0.00     0.064 A 
ATOM     62  C   UNL A   1      38.453  31.518  36.459  1.00  0.00     0.173 A 
ATOM     63  C   UNL A   1      39.814  33.287  35.566  1.00  0.00     0.173 A 
ATOM     64  F   UNL A   1      37.970  30.268  36.414  1.00  0.00    -0.203 F 
ATOM     65  C   UNL A   1      38.007  32.372  37.465  1.00  0.00     0.198 A 
ATOM     66  C   UNL A   1      39.394  34.126  36.594  1.00  0.00     0.198 A 
ATOM     67  F   UNL A   1      40.675  33.767  34.656  1.00  0.00    -0.203 F 
ATOM     68  F   UNL A   1      37.102  31.941  38.354  1.00  0.00    -0.200 F 
ATOM     69  C   UNL A   1      38.482  33.672  37.536  1.00  0.00     0.200 A 
ATOM     70  F   UNL A   1      39.864  35.379  36.670  1.00  0.00    -0.200 F 
ATOM     71  F   UNL A   1      38.056  34.490  38.508  1.00  0.00    -0.200 F 
ENDBRANCH  47  61
BRANCH  48  72
ATOM     72  C   UNL A   1      42.398  26.503  27.669  1.00  0.00     0.064 A 
ATOM     73  C   UNL A   1      43.340  27.032  26.776  1.00  0.00     0.173 A 
ATOM     74  C   UNL A   1      41.928  25.204  27.426  1.00  0.00     0.173 A 
ATOM     75  F   UNL A   1      43.807  28.276  26.954  1.00  0.00    -0.203 F 
ATOM     76  C   UNL A   1      43.781  26.298  25.676  1.00  0.00     0.198 A 
ATOM     77  C   UNL A   1      42.392  24.460  26.343  1.00  0.00     0.198 A 
ATOM     78  F   UNL A   1      41.031  24.649  28.254  1.00  0.00    -0.203 F 
ATOM     79  F   UNL A   1      44.650  26.845  24.814  1.00  0.00    -0.200 F 
ATOM     80  C   UNL A   1      43.313  25.011  25.464  1.00  0.00     0.200 A 
ATOM     81  F   UNL A   1      41.949  23.210  26.153  1.00  0.00    -0.200 F 
ATOM     82  F   UNL A   1      43.743  24.303  24.412  1.00  0.00    -0.200 F 
ENDBRANCH  48  72
BRANCH  60  83
ATOM     83  C   UNL A   1      44.730  27.321  34.189  1.00  0.00     0.064 A 
ATOM     84  C   UNL A   1      46.001  27.913  34.146  1.00  0.00     0.173 A 
ATOM     85  C   UNL A   1      44.572  26.162  34.965  1.00  0.00     0.173 A 
ATOM     86  F   UNL A   1      46.208  29.014  33.408  1.00  0.00    -0.203 F 
ATOM     87  C   UNL A   1      47.077  27.348  34.823  1.00  0.00     0.198 A 
ATOM     88  C   UNL A   1      45.643  25.621  35.670  1.00  0.00     0.198 A 
ATOM     89  F   UNL A   1      43.377  25.561  35.047  1.00  0.00    -0.203 F 
ATOM     90  F   UNL A   1      48.295  27.897  34.718  1.00  0.00    -0.200 F 
ATOM     91  C   UNL A   1      46.897  26.207  35.590  1.00  0.00     0.200 A 
ATOM     92  F   UNL A   1      45.462  24.527  36.424  1.00  0.00    -0.200 F 
ATOM     93  F   UNL A   1      47.934  25.666  36.244  1.00  0.00    -0.200 F 
ENDBRANCH  60  83
ENDBRANCH  34  35
ENDBRANCH  26  29
ENDBRANCH  24  25
ENDBRANCH  23  24
ENDBRANCH  22  23
ENDBRANCH   1  22
TORSDOF 15
ENDMDL
MODEL 3
REMARK VINA RESULT:     -12.1      2.357      3.960
REMARK SMILES COCCC(=O)N1[C@@H](C(=O)NCCCCNC(=O)c2ccc(-c3c4nc(c(-c5c(F)c(F)c(F)c(F)c5F)c5ccc([nH]5)c(-c5c(F)c(F)c(F)c(F)c5F)c5nc(c(-c6c(F)c(F)c(F)c(F)c6F)c6ccc3[nH]6)C=C5)C=C4)cc2)CC[C@H]2CCCC[C@@H]21
REMARK SMILES IDX 12 1 11 2 9 3 10 4 8 6 7 7 89 8 82 9 84 10 88 11 83 12 85 13
REMARK SMILES IDX 87 14 86 15 5 16 6 17 4 18 3 19 2 20 1 21 13 22 14 23 15 24
REMARK SMILES IDX 16 25 17 26 18 28 19 29 20 30 81 31 21 32 80 33 22 34 23 35
REMARK SMILES IDX 24 36 74 37 25 38 79 39 73 40 75 41 26 42 78 43 72 44 71 45
REMARK SMILES IDX 27 47 59 48 39 49 58 50 40 51 43 52 57 53 76 54 41 55 42 56
REMARK SMILES IDX 56 58 77 59 44 60 28 61 29 62 37 63 30 64 31 65 35 66 38 67
REMARK SMILES IDX 32 68 33 69 36 70 34 71 60 72 61 73 69 74 62 75 63 76 67 77
REMARK SMILES IDX 70 78 64 79 65 80 68 81 66 82 45 83 46 84 54 85 47 86 48 87
REMARK SMILES IDX 52 88 55 89 49 90 50 91 53 92 51 93
REMARK H PARENT 11 5 16 27 75 46 43 57
REMARK Flexibility Score: inf
ROOT
ATOM      1  C   UNL A   1      33.067  29.643  25.980  1.00  0.00     0.116 C 
ENDROOT
BRANCH   1   2
ATOM      2  N   UNL A   1      33.148  29.738  24.540  1.00  0.00    -0.354 N 
ATOM      3  C   UNL A   1      33.301  28.748  23.606  1.00  0.00     0.242 C 
ATOM      4  O   UNL A   1      33.181  29.080  22.423  1.00  0.00    -0.273 OA
ATOM      5  H   UNL A   1      33.082  30.650  24.176  1.00  0.00     0.163 HD
BRANCH   3   6
ATOM      6  C   UNL A   1      33.344  27.254  24.033  1.00  0.00     0.174 C 
ATOM      7  N   UNL A   1      32.166  26.389  23.816  1.00  0.00    -0.327 N 
ATOM      8  C   UNL A   1      32.493  24.951  23.814  1.00  0.00     0.089 C 
ATOM      9  C   UNL A   1      33.823  27.057  25.492  1.00  0.00     0.036 C 
ATOM     10  C   UNL A   1      33.699  24.659  24.748  1.00  0.00     0.012 C 
ATOM     11  C   UNL A   1      32.853  24.349  22.447  1.00  0.00     0.025 C 
ATOM     12  C   UNL A   1      33.668  25.588  25.962  1.00  0.00     0.008 C 
ATOM     13  C   UNL A   1      33.726  23.163  25.044  1.00  0.00     0.006 C 
ATOM     14  C   UNL A   1      33.091  22.831  22.566  1.00  0.00     0.002 C 
ATOM     15  C   UNL A   1      33.985  22.401  23.737  1.00  0.00     0.000 C 
BRANCH   7  16
ATOM     16  C   UNL A   1      30.966  26.889  24.333  1.00  0.00     0.225 C 
ATOM     17  O   UNL A   1      30.816  27.026  25.553  1.00  0.00    -0.275 OA
BRANCH  16  18
ATOM     18  C   UNL A   1      29.798  27.281  23.439  1.00  0.00     0.128 C 
BRANCH  18  19
ATOM     19  C   UNL A   1      29.883  28.612  22.708  1.00  0.00     0.169 C 
BRANCH  19  20
ATOM     20  O   UNL A   1      30.007  29.708  23.620  1.00  0.00    -0.384 OA
ATOM     21  C   UNL A   1      29.012  30.703  23.444  1.00  0.00     0.194 C 
ENDBRANCH  19  20
ENDBRANCH  18  19
ENDBRANCH  16  18
ENDBRANCH   7  16
ENDBRANCH   3   6
ENDBRANCH   1   2
BRANCH   1  22
ATOM     22  C   UNL A   1      31.743  30.175  26.524  1.00  0.00     0.023 C 
BRANCH  22  23
ATOM     23  C   UNL A   1      31.606  31.689  26.552  1.00  0.00     0.023 C 
BRANCH  23  24
ATOM     24  C   UNL A   1      32.766  32.407  27.212  1.00  0.00     0.116 C 
BRANCH  24  25
ATOM     25  N   UNL A   1      32.460  33.788  27.559  1.00  0.00    -0.352 N 
ATOM     26  C   UNL A   1      33.037  34.593  28.512  1.00  0.00     0.251 C 
ATOM     27  H   UNL A   1      31.737  34.203  27.036  1.00  0.00     0.163 HD
ATOM     28  O   UNL A   1      32.564  35.690  28.765  1.00  0.00    -0.269 OA
BRANCH  26  29
ATOM     29  C   UNL A   1      34.215  34.095  29.252  1.00  0.00     0.039 A 
ATOM     30  C   UNL A   1      34.019  33.202  30.307  1.00  0.00     0.014 A 
ATOM     31  C   UNL A   1      35.506  34.469  28.871  1.00  0.00     0.014 A 
ATOM     32  C   UNL A   1      35.126  32.627  30.929  1.00  0.00     0.010 A 
ATOM     33  C   UNL A   1      36.600  33.809  29.413  1.00  0.00     0.010 A 
ATOM     34  C   UNL A   1      36.424  32.892  30.457  1.00  0.00    -0.014 A 
BRANCH  34  35
ATOM     35  C   UNL A   1      37.603  32.214  31.046  1.00  0.00     0.031 A 
ATOM     36  C   UNL A   1      38.096  32.602  32.412  1.00  0.00     0.074 A 
ATOM     37  C   UNL A   1      38.262  31.286  30.325  1.00  0.00     0.049 A 
ATOM     38  N   UNL A   1      39.109  32.129  33.092  1.00  0.00    -0.248 NA
ATOM     39  C   UNL A   1      37.379  33.694  33.092  1.00  0.00     0.031 C 
ATOM     40  C   UNL A   1      37.928  30.888  28.956  1.00  0.00     0.029 A 
ATOM     41  N   UNL A   1      39.350  30.513  30.640  1.00  0.00    -0.354 N 
ATOM     42  C   UNL A   1      39.156  32.871  34.265  1.00  0.00     0.074 A 
ATOM     43  C   UNL A   1      38.119  33.872  34.175  1.00  0.00     0.031 C 
ATOM     44  C   UNL A   1      38.765  29.914  28.565  1.00  0.00     0.029 A 
ATOM     45  C   UNL A   1      39.717  29.647  29.639  1.00  0.00     0.049 A 
ATOM     46  H   UNL A   1      39.822  30.572  31.502  1.00  0.00     0.167 HD
ATOM     47  C   UNL A   1      39.971  32.710  35.334  1.00  0.00     0.037 A 
ATOM     48  C   UNL A   1      40.709  28.738  29.595  1.00  0.00     0.037 A 
ATOM     49  C   UNL A   1      40.985  31.693  35.423  1.00  0.00     0.049 A 
ATOM     50  C   UNL A   1      41.588  28.563  30.803  1.00  0.00     0.074 A 
ATOM     51  C   UNL A   1      41.811  31.388  36.490  1.00  0.00     0.029 A 
ATOM     52  N   UNL A   1      41.318  30.819  34.397  1.00  0.00    -0.354 N 
ATOM     53  N   UNL A   1      41.557  29.201  31.949  1.00  0.00    -0.248 NA
ATOM     54  C   UNL A   1      42.631  27.532  30.716  1.00  0.00     0.031 C 
ATOM     55  C   UNL A   1      42.685  30.371  36.089  1.00  0.00     0.029 A 
ATOM     56  C   UNL A   1      42.361  29.997  34.794  1.00  0.00     0.049 A 
ATOM     57  H   UNL A   1      40.879  30.788  33.517  1.00  0.00     0.167 HD
ATOM     58  C   UNL A   1      42.563  28.640  32.724  1.00  0.00     0.074 A 
ATOM     59  C   UNL A   1      43.165  27.590  31.927  1.00  0.00     0.031 C 
ATOM     60  C   UNL A   1      42.955  28.965  33.982  1.00  0.00     0.037 A 
BRANCH  47  61
ATOM     61  C   UNL A   1      39.795  33.655  36.489  1.00  0.00     0.064 A 
ATOM     62  C   UNL A   1      40.450  34.897  36.537  1.00  0.00     0.173 A 
ATOM     63  C   UNL A   1      38.946  33.324  37.556  1.00  0.00     0.173 A 
ATOM     64  F   UNL A   1      41.283  35.260  35.550  1.00  0.00    -0.203 F 
ATOM     65  C   UNL A   1      40.291  35.751  37.626  1.00  0.00     0.198 A 
ATOM     66  C   UNL A   1      38.761  34.196  38.625  1.00  0.00     0.198 A 
ATOM     67  F   UNL A   1      38.292  32.152  37.562  1.00  0.00    -0.203 F 
ATOM     68  F   UNL A   1      40.976  36.902  37.677  1.00  0.00    -0.200 F 
ATOM     69  C   UNL A   1      39.442  35.404  38.665  1.00  0.00     0.200 A 
ATOM     70  F   UNL A   1      37.930  33.865  39.623  1.00  0.00    -0.200 F 
ATOM     71  F   UNL A   1      39.287  36.229  39.709  1.00  0.00    -0.200 F 
ENDBRANCH  47  61
BRANCH  48  72
ATOM     72  C   UNL A   1      40.895  27.905  28.378  1.00  0.00     0.064 A 
ATOM     73  C   UNL A   1      41.714  28.337  27.326  1.00  0.00     0.173 A 
ATOM     74  C   UNL A   1      40.268  26.658  28.246  1.00  0.00     0.173 A 
ATOM     75  F   UNL A   1      42.321  29.531  27.395  1.00  0.00    -0.203 F 
ATOM     76  C   UNL A   1      41.886  27.560  26.181  1.00  0.00     0.198 A 
ATOM     77  C   UNL A   1      40.465  25.868  27.115  1.00  0.00     0.198 A 
ATOM     78  F   UNL A   1      39.480  26.195  29.227  1.00  0.00    -0.203 F 
ATOM     79  F   UNL A   1      42.641  28.017  25.172  1.00  0.00    -0.200 F 
ATOM     80  C   UNL A   1      41.268  26.324  26.080  1.00  0.00     0.200 A 
ATOM     81  F   UNL A   1      39.880  24.666  27.029  1.00  0.00    -0.200 F 
ATOM     82  F   UNL A   1      41.441  25.573  24.983  1.00  0.00    -0.200 F 
ENDBRANCH  48  72
BRANCH  60  83
ATOM     83  C   UNL A   1      44.080  28.165  34.575  1.00  0.00     0.064 A 
ATOM     84  C   UNL A   1      45.413  28.592  34.486  1.00  0.00     0.173 A 
ATOM     85  C   UNL A   1      43.818  26.969  35.260  1.00  0.00     0.173 A 
ATOM     86  F   UNL A   1      45.719  29.722  33.831  1.00  0.00    -0.203 F 
ATOM     87  C   UNL A   1      46.446  27.833  35.029  1.00  0.00     0.198 A 
ATOM     88  C   UNL A   1      44.850  26.231  35.832  1.00  0.00     0.198 A 
ATOM     89  F   UNL A   1      42.560  26.520  35.381  1.00  0.00    -0.203 F 
ATOM     90  F   UNL A   1      47.717  28.229  34.878  1.00  0.00    -0.200 F 
ATOM     91  C   UNL A   1      46.163  26.657  35.707  1.00  0.00     0.200 A 
ATOM     92  F   UNL A   1      44.573  25.103  36.503  1.00  0.00    -0.200 F 
ATOM     93  F   UNL A   1      47.158  25.928  36.232  1.00  0.00    -0.200 F 
ENDBRANCH  60  83
ENDBRANCH  34  35
ENDBRANCH  26  29
ENDBRANCH  24  25
ENDBRANCH  23  24
ENDBRANCH  22  23
ENDBRANCH   1  22
TORSDOF 15
ENDMDL
