MODEL 1
REMARK VINA RESULT:     -11.9      0.000      0.000
REMARK SMILES O=C(NCCCCNC(=O)c1ccn(CC(F)(F)F)c1)c1ccc(-c2c3nc(c(-c4c(F)c(F)c(F)c(F)c4F)c4ccc([nH]4)c(-c4c(F)c(F)c(F)c(F)c4F)c4nc(c(-c5c(F)c(F)c(F)c(F)c5F)c5ccc2[nH]5)C=C4)C=C3)cc1
REMARK SMILES IDX 5 1 4 2 3 3 1 4 2 5 21 7 22 8 83 9 23 10 82 11 24 12 25 13
REMARK SMILES IDX 26 14 76 15 27 16 81 17 75 18 77 19 28 20 80 21 74 22 73 23
REMARK SMILES IDX 29 25 61 26 41 27 60 28 42 29 45 30 59 31 78 32 43 33 44 34
REMARK SMILES IDX 58 36 79 37 46 38 30 39 31 40 39 41 32 42 33 43 37 44 40 45
REMARK SMILES IDX 34 46 35 47 38 48 36 49 62 50 63 51 71 52 64 53 65 54 69 55
REMARK SMILES IDX 72 56 66 57 67 58 70 59 68 60 47 61 48 62 56 63 49 64 50 65
REMARK SMILES IDX 54 66 57 67 51 68 52 69 55 70 53 71 6 72 7 73 8 74 9 75
REMARK SMILES IDX 10 77 11 78 12 79 20 80 13 81 14 82 15 83 16 84 17 85 18 86
REMARK SMILES IDX 19 87
REMARK H PARENT 3 6 77 24 45 35 8 76
REMARK Flexibility Score: inf
ROOT
ATOM      1  C   UNL A   1      33.534  28.230  25.802  1.00  0.00     0.023 C 
ENDROOT
BRANCH   1   2
ATOM      2  C   UNL A   1      34.887  28.493  26.467  1.00  0.00     0.116 C 
BRANCH   2   3
ATOM      3  N   UNL A   1      35.050  29.800  27.081  1.00  0.00    -0.352 N 
ATOM      4  O   UNL A   1      35.999  31.621  27.966  1.00  0.00    -0.269 OA
ATOM      5  C   UNL A   1      36.129  30.445  27.632  1.00  0.00     0.251 C 
ATOM      6  H   UNL A   1      34.221  30.328  27.107  1.00  0.00     0.163 HD
BRANCH   5   7
ATOM      7  C   UNL A   1      37.410  29.755  27.917  1.00  0.00     0.039 A 
ATOM      8  C   UNL A   1      38.511  29.804  27.062  1.00  0.00     0.014 A 
ATOM      9  C   UNL A   1      37.495  29.016  29.108  1.00  0.00     0.014 A 
ATOM     10  C   UNL A   1      39.621  29.009  27.305  1.00  0.00     0.010 A 
ATOM     11  C   UNL A   1      38.637  28.268  29.396  1.00  0.00     0.010 A 
ATOM     12  C   UNL A   1      39.688  28.250  28.476  1.00  0.00    -0.014 A 
BRANCH  12  13
ATOM     13  C   UNL A   1      40.995  27.628  28.777  1.00  0.00     0.031 A 
ATOM     14  C   UNL A   1      41.061  26.183  28.273  1.00  0.00     0.074 A 
ATOM     15  C   UNL A   1      41.882  28.357  29.514  1.00  0.00     0.049 A 
ATOM     16  N   UNL A   1      41.749  25.177  28.719  1.00  0.00    -0.248 NA
ATOM     17  C   UNL A   1      40.165  25.773  27.155  1.00  0.00     0.031 C 
ATOM     18  C   UNL A   1      41.653  29.750  29.938  1.00  0.00     0.029 A 
ATOM     19  N   UNL A   1      43.121  28.094  30.069  1.00  0.00    -0.354 N 
ATOM     20  C   UNL A   1      41.532  24.101  27.835  1.00  0.00     0.074 A 
ATOM     21  C   UNL A   1      40.449  24.482  26.982  1.00  0.00     0.031 C 
ATOM     22  C   UNL A   1      42.659  30.181  30.725  1.00  0.00     0.029 A 
ATOM     23  C   UNL A   1      43.650  29.132  30.882  1.00  0.00     0.049 A 
ATOM     24  H   UNL A   1      43.601  27.249  29.913  1.00  0.00     0.167 HD
ATOM     25  C   UNL A   1      42.362  23.021  27.756  1.00  0.00     0.037 A 
ATOM     26  C   UNL A   1      44.785  29.141  31.652  1.00  0.00     0.037 A 
ATOM     27  C   UNL A   1      43.402  23.123  28.721  1.00  0.00     0.049 A 
ATOM     28  C   UNL A   1      45.495  27.892  31.328  1.00  0.00     0.074 A 
ATOM     29  C   UNL A   1      43.434  22.958  30.079  1.00  0.00     0.029 A 
ATOM     30  N   UNL A   1      44.565  23.729  28.317  1.00  0.00    -0.354 N 
ATOM     31  N   UNL A   1      46.115  27.665  30.207  1.00  0.00    -0.248 NA
ATOM     32  C   UNL A   1      45.484  26.792  32.301  1.00  0.00     0.031 C 
ATOM     33  C   UNL A   1      44.449  23.836  30.509  1.00  0.00     0.029 A 
ATOM     34  C   UNL A   1      45.072  24.410  29.395  1.00  0.00     0.049 A 
ATOM     35  H   UNL A   1      44.963  23.684  27.417  1.00  0.00     0.167 HD
ATOM     36  C   UNL A   1      46.267  26.299  30.227  1.00  0.00     0.074 A 
ATOM     37  C   UNL A   1      46.177  25.890  31.609  1.00  0.00     0.031 C 
ATOM     38  C   UNL A   1      45.884  25.581  29.140  1.00  0.00     0.037 A 
BRANCH  25  39
ATOM     39  C   UNL A   1      42.506  21.950  26.712  1.00  0.00     0.064 A 
ATOM     40  C   UNL A   1      42.011  20.656  27.012  1.00  0.00     0.173 A 
ATOM     41  C   UNL A   1      43.398  22.036  25.635  1.00  0.00     0.173 A 
ATOM     42  F   UNL A   1      41.119  20.475  28.000  1.00  0.00    -0.203 F 
ATOM     43  C   UNL A   1      42.487  19.515  26.371  1.00  0.00     0.198 A 
ATOM     44  C   UNL A   1      43.834  20.892  24.959  1.00  0.00     0.198 A 
ATOM     45  F   UNL A   1      43.949  23.204  25.280  1.00  0.00    -0.203 F 
ATOM     46  F   UNL A   1      42.099  18.302  26.790  1.00  0.00    -0.200 F 
ATOM     47  C   UNL A   1      43.414  19.633  25.356  1.00  0.00     0.200 A 
ATOM     48  F   UNL A   1      44.728  21.010  23.968  1.00  0.00    -0.200 F 
ATOM     49  F   UNL A   1      43.930  18.536  24.784  1.00  0.00    -0.200 F 
ENDBRANCH  25  39
BRANCH  26  50
ATOM     50  C   UNL A   1      45.425  30.019  32.713  1.00  0.00     0.064 A 
ATOM     51  C   UNL A   1      46.660  30.673  32.614  1.00  0.00     0.173 A 
ATOM     52  C   UNL A   1      44.715  30.322  33.914  1.00  0.00     0.173 A 
ATOM     53  F   UNL A   1      47.507  30.419  31.615  1.00  0.00    -0.203 F 
ATOM     54  C   UNL A   1      47.088  31.623  33.561  1.00  0.00     0.198 A 
ATOM     55  C   UNL A   1      45.114  31.299  34.827  1.00  0.00     0.198 A 
ATOM     56  F   UNL A   1      43.589  29.677  34.250  1.00  0.00    -0.203 F 
ATOM     57  F   UNL A   1      48.276  32.223  33.405  1.00  0.00    -0.200 F 
ATOM     58  C   UNL A   1      46.298  31.965  34.643  1.00  0.00     0.200 A 
ATOM     59  F   UNL A   1      44.324  31.596  35.870  1.00  0.00    -0.200 F 
ATOM     60  F   UNL A   1      46.680  32.918  35.503  1.00  0.00    -0.200 F 
ENDBRANCH  26  50
BRANCH  38  61
ATOM     61  C   UNL A   1      45.956  26.368  27.844  1.00  0.00     0.064 A 
ATOM     62  C   UNL A   1      44.779  26.720  27.165  1.00  0.00     0.173 A 
ATOM     63  C   UNL A   1      47.157  26.666  27.181  1.00  0.00     0.173 A 
ATOM     64  F   UNL A   1      43.585  26.490  27.733  1.00  0.00    -0.203 F 
ATOM     65  C   UNL A   1      44.810  27.308  25.896  1.00  0.00     0.198 A 
ATOM     66  C   UNL A   1      47.195  27.257  25.917  1.00  0.00     0.198 A 
ATOM     67  F   UNL A   1      48.328  26.394  27.749  1.00  0.00    -0.203 F 
ATOM     68  F   UNL A   1      43.663  27.622  25.278  1.00  0.00    -0.200 F 
ATOM     69  C   UNL A   1      46.017  27.572  25.270  1.00  0.00     0.200 A 
ATOM     70  F   UNL A   1      48.375  27.524  25.336  1.00  0.00    -0.200 F 
ATOM     71  F   UNL A   1      46.047  28.140  24.056  1.00  0.00    -0.200 F 
ENDBRANCH  38  61
ENDBRANCH  12  13
ENDBRANCH   5   7
ENDBRANCH   2   3
ENDBRANCH   1   2
BRANCH   1  72
ATOM     72  C   UNL A   1      32.537  27.447  26.652  1.00  0.00     0.023 C 
BRANCH  72  73
ATOM     73  C   UNL A   1      31.106  27.451  26.128  1.00  0.00     0.116 C 
BRANCH  73  74
ATOM     74  N   UNL A   1      30.816  26.278  25.321  1.00  0.00    -0.352 N 
ATOM     75  C   UNL A   1      30.291  26.224  24.050  1.00  0.00     0.252 C 
ATOM     76  H   UNL A   1      31.024  25.410  25.736  1.00  0.00     0.163 HD
ATOM     77  O   UNL A   1      29.929  25.156  23.590  1.00  0.00    -0.269 OA
BRANCH  75  78
ATOM     78  C   UNL A   1      30.170  27.482  23.332  1.00  0.00     0.057 A 
ATOM     79  C   UNL A   1      31.183  28.227  22.661  1.00  0.00     0.033 A 
ATOM     80  C   UNL A   1      28.993  28.190  23.177  1.00  0.00     0.099 A 
ATOM     81  C   UNL A   1      30.607  29.383  22.188  1.00  0.00     0.087 A 
ATOM     82  N   UNL A   1      29.284  29.367  22.541  1.00  0.00    -0.344 N 
BRANCH  82  83
ATOM     83  C   UNL A   1      28.335  30.429  22.274  1.00  0.00     0.236 C 
BRANCH  83  84
ATOM     84  C   UNL A   1      28.194  31.391  23.433  1.00  0.00     0.406 C 
ATOM     85  F   UNL A   1      29.294  31.404  24.219  1.00  0.00    -0.169 F 
ATOM     86  F   UNL A   1      28.023  32.652  22.970  1.00  0.00    -0.169 F 
ATOM     87  F   UNL A   1      27.127  31.104  24.210  1.00  0.00    -0.169 F 
ENDBRANCH  83  84
ENDBRANCH  82  83
ENDBRANCH  75  78
ENDBRANCH  73  74
ENDBRANCH  72  73
ENDBRANCH   1  72
TORSDOF 13
ENDMDL
MODEL 2
REMARK VINA RESULT:     -11.8      5.159     10.263
REMARK SMILES O=C(NCCCCNC(=O)c1ccn(CC(F)(F)F)c1)c1ccc(-c2c3nc(c(-c4c(F)c(F)c(F)c(F)c4F)c4ccc([nH]4)c(-c4c(F)c(F)c(F)c(F)c4F)c4nc(c(-c5c(F)c(F)c(F)c(F)c5F)c5ccc2[nH]5)C=C4)C=C3)cc1
REMARK SMILES IDX 5 1 4 2 3 3 1 4 2 5 21 7 22 8 83 9 23 10 82 11 24 12 25 13
REMARK SMILES IDX 26 14 76 15 27 16 81 17 75 18 77 19 28 20 80 21 74 22 73 23
REMARK SMILES IDX 29 25 61 26 41 27 60 28 42 29 45 30 59 31 78 32 43 33 44 34
REMARK SMILES IDX 58 36 79 37 46 38 30 39 31 40 39 41 32 42 33 43 37 44 40 45
REMARK SMILES IDX 34 46 35 47 38 48 36 49 62 50 63 51 71 52 64 53 65 54 69 55
REMARK SMILES IDX 72 56 66 57 67 58 70 59 68 60 47 61 48 62 56 63 49 64 50 65
REMARK SMILES IDX 54 66 57 67 51 68 52 69 55 70 53 71 6 72 7 73 8 74 9 75
REMARK SMILES IDX 10 77 11 78 12 79 20 80 13 81 14 82 15 83 16 84 17 85 18 86
REMARK SMILES IDX 19 87
REMARK H PARENT 3 6 77 24 45 35 8 76
REMARK Flexibility Score: inf
ROOT
ATOM      1  C   UNL A   1      36.674  23.704  24.586  1.00  0.00     0.023 C 
ENDROOT
BRANCH   1   2
ATOM      2  C   UNL A   1      37.183  24.057  25.985  1.00  0.00     0.116 C 
BRANCH   2   3
ATOM      3  N   UNL A   1      38.376  23.352  26.424  1.00  0.00    -0.352 N 
ATOM      4  O   UNL A   1      40.232  22.830  27.558  1.00  0.00    -0.269 OA
ATOM      5  C   UNL A   1      39.406  23.693  27.265  1.00  0.00     0.251 C 
ATOM      6  H   UNL A   1      38.463  22.451  26.041  1.00  0.00     0.163 HD
BRANCH   5   7
ATOM      7  C   UNL A   1      39.607  25.076  27.760  1.00  0.00     0.039 A 
ATOM      8  C   UNL A   1      39.351  25.462  29.075  1.00  0.00     0.014 A 
ATOM      9  C   UNL A   1      40.072  26.031  26.840  1.00  0.00     0.014 A 
ATOM     10  C   UNL A   1      39.405  26.799  29.435  1.00  0.00     0.010 A 
ATOM     11  C   UNL A   1      40.196  27.369  27.212  1.00  0.00     0.010 A 
ATOM     12  C   UNL A   1      39.836  27.751  28.507  1.00  0.00    -0.014 A 
BRANCH  12  13
ATOM     13  C   UNL A   1      40.098  29.106  29.035  1.00  0.00     0.031 A 
ATOM     14  C   UNL A   1      38.803  29.907  29.199  1.00  0.00     0.074 A 
ATOM     15  C   UNL A   1      41.401  29.474  29.203  1.00  0.00     0.049 A 
ATOM     16  N   UNL A   1      38.605  31.190  29.148  1.00  0.00    -0.248 NA
ATOM     17  C   UNL A   1      37.519  29.168  29.361  1.00  0.00     0.031 C 
ATOM     18  C   UNL A   1      42.547  28.574  28.982  1.00  0.00     0.029 A 
ATOM     19  N   UNL A   1      42.034  30.651  29.562  1.00  0.00    -0.354 N 
ATOM     20  C   UNL A   1      37.251  31.413  29.469  1.00  0.00     0.074 A 
ATOM     21  C   UNL A   1      36.608  30.136  29.451  1.00  0.00     0.031 C 
ATOM     22  C   UNL A   1      43.711  29.235  29.139  1.00  0.00     0.029 A 
ATOM     23  C   UNL A   1      43.451  30.619  29.492  1.00  0.00     0.049 A 
ATOM     24  H   UNL A   1      41.536  31.452  29.845  1.00  0.00     0.167 HD
ATOM     25  C   UNL A   1      36.773  32.622  29.884  1.00  0.00     0.037 A 
ATOM     26  C   UNL A   1      44.354  31.635  29.672  1.00  0.00     0.037 A 
ATOM     27  C   UNL A   1      37.810  33.596  29.876  1.00  0.00     0.049 A 
ATOM     28  C   UNL A   1      43.570  32.782  30.160  1.00  0.00     0.074 A 
ATOM     29  C   UNL A   1      38.444  34.273  28.870  1.00  0.00     0.029 A 
ATOM     30  N   UNL A   1      38.517  33.758  31.041  1.00  0.00    -0.354 N 
ATOM     31  N   UNL A   1      43.054  32.870  31.350  1.00  0.00    -0.248 NA
ATOM     32  C   UNL A   1      43.298  33.901  29.247  1.00  0.00     0.031 C 
ATOM     33  C   UNL A   1      39.742  34.498  29.372  1.00  0.00     0.029 A 
ATOM     34  C   UNL A   1      39.812  34.057  30.699  1.00  0.00     0.049 A 
ATOM     35  H   UNL A   1      38.160  33.676  31.954  1.00  0.00     0.167 HD
ATOM     36  C   UNL A   1      42.137  33.884  31.199  1.00  0.00     0.074 A 
ATOM     37  C   UNL A   1      42.558  34.657  30.053  1.00  0.00     0.031 C 
ATOM     38  C   UNL A   1      40.862  33.684  31.621  1.00  0.00     0.037 A 
BRANCH  25  39
ATOM     39  C   UNL A   1      35.487  33.005  30.560  1.00  0.00     0.064 A 
ATOM     40  C   UNL A   1      34.718  34.048  29.986  1.00  0.00     0.173 A 
ATOM     41  C   UNL A   1      35.180  32.667  31.885  1.00  0.00     0.173 A 
ATOM     42  F   UNL A   1      34.907  34.417  28.708  1.00  0.00    -0.203 F 
ATOM     43  C   UNL A   1      33.808  34.793  30.732  1.00  0.00     0.198 A 
ATOM     44  C   UNL A   1      34.226  33.385  32.615  1.00  0.00     0.198 A 
ATOM     45  F   UNL A   1      35.861  31.716  32.535  1.00  0.00    -0.203 F 
ATOM     46  F   UNL A   1      33.213  35.863  30.186  1.00  0.00    -0.200 F 
ATOM     47  C   UNL A   1      33.576  34.471  32.054  1.00  0.00     0.200 A 
ATOM     48  F   UNL A   1      33.999  33.066  33.897  1.00  0.00    -0.200 F 
ATOM     49  F   UNL A   1      32.757  35.228  32.798  1.00  0.00    -0.200 F 
ENDBRANCH  25  39
BRANCH  26  50
ATOM     50  C   UNL A   1      45.839  31.880  29.465  1.00  0.00     0.064 A 
ATOM     51  C   UNL A   1      46.826  31.886  30.460  1.00  0.00     0.173 A 
ATOM     52  C   UNL A   1      46.360  32.036  28.145  1.00  0.00     0.173 A 
ATOM     53  F   UNL A   1      46.511  31.866  31.756  1.00  0.00    -0.203 F 
ATOM     54  C   UNL A   1      48.200  31.925  30.157  1.00  0.00     0.198 A 
ATOM     55  C   UNL A   1      47.722  32.024  27.841  1.00  0.00     0.198 A 
ATOM     56  F   UNL A   1      45.558  32.202  27.084  1.00  0.00    -0.203 F 
ATOM     57  F   UNL A   1      49.097  31.917  31.154  1.00  0.00    -0.200 F 
ATOM     58  C   UNL A   1      48.648  31.952  28.850  1.00  0.00     0.200 A 
ATOM     59  F   UNL A   1      48.118  32.062  26.559  1.00  0.00    -0.200 F 
ATOM     60  F   UNL A   1      49.957  31.921  28.568  1.00  0.00    -0.200 F 
ENDBRANCH  26  50
BRANCH  38  61
ATOM     61  C   UNL A   1      40.757  32.682  32.757  1.00  0.00     0.064 A 
ATOM     62  C   UNL A   1      41.295  32.986  34.018  1.00  0.00     0.173 A 
ATOM     63  C   UNL A   1      40.263  31.377  32.601  1.00  0.00     0.173 A 
ATOM     64  F   UNL A   1      41.772  34.216  34.263  1.00  0.00    -0.203 F 
ATOM     65  C   UNL A   1      41.354  32.034  35.042  1.00  0.00     0.198 A 
ATOM     66  C   UNL A   1      40.314  30.424  33.620  1.00  0.00     0.198 A 
ATOM     67  F   UNL A   1      39.713  30.997  31.453  1.00  0.00    -0.203 F 
ATOM     68  F   UNL A   1      41.883  32.361  36.228  1.00  0.00    -0.200 F 
ATOM     69  C   UNL A   1      40.869  30.752  34.840  1.00  0.00     0.200 A 
ATOM     70  F   UNL A   1      39.820  29.194  33.412  1.00  0.00    -0.200 F 
ATOM     71  F   UNL A   1      40.920  29.841  35.823  1.00  0.00    -0.200 F 
ENDBRANCH  38  61
ENDBRANCH  12  13
ENDBRANCH   5   7
ENDBRANCH   2   3
ENDBRANCH   1   2
BRANCH   1  72
ATOM     72  C   UNL A   1      35.220  23.245  24.522  1.00  0.00     0.023 C 
BRANCH  72  73
ATOM     73  C   UNL A   1      34.786  22.330  25.660  1.00  0.00     0.116 C 
BRANCH  73  74
ATOM     74  N   UNL A   1      33.413  22.575  26.065  1.00  0.00    -0.352 N 
ATOM     75  C   UNL A   1      32.281  21.878  25.712  1.00  0.00     0.252 C 
ATOM     76  H   UNL A   1      33.275  23.338  26.672  1.00  0.00     0.163 HD
ATOM     77  O   UNL A   1      31.182  22.330  25.982  1.00  0.00    -0.269 OA
BRANCH  75  78
ATOM     78  C   UNL A   1      32.472  20.630  24.992  1.00  0.00     0.057 A 
ATOM     79  C   UNL A   1      32.308  20.370  23.600  1.00  0.00     0.033 A 
ATOM     80  C   UNL A   1      32.863  19.438  25.571  1.00  0.00     0.099 A 
ATOM     81  C   UNL A   1      32.534  19.028  23.396  1.00  0.00     0.087 A 
ATOM     82  N   UNL A   1      32.833  18.466  24.609  1.00  0.00    -0.344 N 
BRANCH  82  83
ATOM     83  C   UNL A   1      33.088  17.057  24.836  1.00  0.00     0.236 C 
BRANCH  83  84
ATOM     84  C   UNL A   1      34.434  16.615  24.307  1.00  0.00     0.406 C 
ATOM     85  F   UNL A   1      34.385  16.298  22.994  1.00  0.00    -0.169 F 
ATOM     86  F   UNL A   1      35.335  17.618  24.438  1.00  0.00    -0.169 F 
ATOM     87  F   UNL A   1      34.924  15.550  24.978  1.00  0.00    -0.169 F 
ENDBRANCH  83  84
ENDBRANCH  82  83
ENDBRANCH  75  78
ENDBRANCH  73  74
ENDBRANCH  72  73
ENDBRANCH   1  72
TORSDOF 13
ENDMDL
MODEL 3
REMARK VINA RESULT:     -11.7      2.928      3.875
REMARK SMILES O=C(NCCCCNC(=O)c1ccn(CC(F)(F)F)c1)c1ccc(-c2c3nc(c(-c4c(F)c(F)c(F)c(F)c4F)c4ccc([nH]4)c(-c4c(F)c(F)c(F)c(F)c4F)c4nc(c(-c5c(F)c(F)c(F)c(F)c5F)c5ccc2[nH]5)C=C4)C=C3)cc1
REMARK SMILES IDX 5 1 4 2 3 3 1 4 2 5 21 7 22 8 83 9 23 10 82 11 24 12 25 13
REMARK SMILES IDX 26 14 76 15 27 16 81 17 75 18 77 19 28 20 80 21 74 22 73 23
REMARK SMILES IDX 29 25 61 26 41 27 60 28 42 29 45 30 59 31 78 32 43 33 44 34
REMARK SMILES IDX 58 36 79 37 46 38 30 39 31 40 39 41 32 42 33 43 37 44 40 45
REMARK SMILES IDX 34 46 35 47 38 48 36 49 62 50 63 51 71 52 64 53 65 54 69 55
REMARK SMILES IDX 72 56 66 57 67 58 70 59 68 60 47 61 48 62 56 63 49 64 50 65
REMARK SMILES IDX 54 66 57 67 51 68 52 69 55 70 53 71 6 72 7 73 8 74 9 75
REMARK SMILES IDX 10 77 11 78 12 79 20 80 13 81 14 82 15 83 16 84 17 85 18 86
REMARK SMILES IDX 19 87
REMARK H PARENT 3 6 77 24 45 35 8 76
REMARK Flexibility Score: inf
ROOT
ATOM      1  C   UNL A   1      33.519  28.206  25.760  1.00  0.00     0.023 C 
ENDROOT
BRANCH   1   2
ATOM      2  C   UNL A   1      34.889  28.512  26.369  1.00  0.00     0.116 C 
BRANCH   2   3
ATOM      3  N   UNL A   1      35.017  29.801  27.030  1.00  0.00    -0.352 N 
ATOM      4  O   UNL A   1      35.915  31.597  28.013  1.00  0.00    -0.269 OA
ATOM      5  C   UNL A   1      36.066  30.432  27.650  1.00  0.00     0.251 C 
ATOM      6  H   UNL A   1      34.185  30.326  27.032  1.00  0.00     0.163 HD
BRANCH   5   7
ATOM      7  C   UNL A   1      37.335  29.738  27.976  1.00  0.00     0.039 A 
ATOM      8  C   UNL A   1      38.461  29.779  27.155  1.00  0.00     0.014 A 
ATOM      9  C   UNL A   1      37.381  29.000  29.171  1.00  0.00     0.014 A 
ATOM     10  C   UNL A   1      39.559  28.981  27.432  1.00  0.00     0.010 A 
ATOM     11  C   UNL A   1      38.510  28.249  29.495  1.00  0.00     0.010 A 
ATOM     12  C   UNL A   1      39.588  28.224  28.606  1.00  0.00    -0.014 A 
BRANCH  12  13
ATOM     13  C   UNL A   1      40.882  27.597  28.948  1.00  0.00     0.031 A 
ATOM     14  C   UNL A   1      40.993  26.183  28.371  1.00  0.00     0.074 A 
ATOM     15  C   UNL A   1      41.718  28.292  29.773  1.00  0.00     0.049 A 
ATOM     16  N   UNL A   1      41.667  25.159  28.802  1.00  0.00    -0.248 NA
ATOM     17  C   UNL A   1      40.167  25.827  27.184  1.00  0.00     0.031 C 
ATOM     18  C   UNL A   1      41.450  29.658  30.258  1.00  0.00     0.029 A 
ATOM     19  N   UNL A   1      42.926  28.010  30.384  1.00  0.00    -0.354 N 
ATOM     20  C   UNL A   1      41.512  24.131  27.850  1.00  0.00     0.074 A 
ATOM     21  C   UNL A   1      40.475  24.549  26.958  1.00  0.00     0.031 C 
ATOM     22  C   UNL A   1      42.405  30.054  31.123  1.00  0.00     0.029 A 
ATOM     23  C   UNL A   1      43.397  29.006  31.280  1.00  0.00     0.049 A 
ATOM     24  H   UNL A   1      43.424  27.178  30.209  1.00  0.00     0.167 HD
ATOM     25  C   UNL A   1      42.357  23.064  27.761  1.00  0.00     0.037 A 
ATOM     26  C   UNL A   1      44.485  28.982  32.113  1.00  0.00     0.037 A 
ATOM     27  C   UNL A   1      43.340  23.121  28.788  1.00  0.00     0.049 A 
ATOM     28  C   UNL A   1      45.227  27.759  31.764  1.00  0.00     0.074 A 
ATOM     29  C   UNL A   1      43.296  22.883  30.134  1.00  0.00     0.029 A 
ATOM     30  N   UNL A   1      44.517  23.759  28.484  1.00  0.00    -0.354 N 
ATOM     31  N   UNL A   1      45.912  27.599  30.670  1.00  0.00    -0.248 NA
ATOM     32  C   UNL A   1      45.173  26.607  32.674  1.00  0.00     0.031 C 
ATOM     33  C   UNL A   1      44.275  23.745  30.669  1.00  0.00     0.029 A 
ATOM     34  C   UNL A   1      44.954  24.384  29.625  1.00  0.00     0.049 A 
ATOM     35  H   UNL A   1      44.966  23.766  27.608  1.00  0.00     0.167 HD
ATOM     36  C   UNL A   1      46.078  26.234  30.624  1.00  0.00     0.074 A 
ATOM     37  C   UNL A   1      45.914  25.750  31.976  1.00  0.00     0.031 C 
ATOM     38  C   UNL A   1      45.765  25.574  29.480  1.00  0.00     0.037 A 
BRANCH  25  39
ATOM     39  C   UNL A   1      42.573  22.052  26.671  1.00  0.00     0.064 A 
ATOM     40  C   UNL A   1      42.025  20.757  26.846  1.00  0.00     0.173 A 
ATOM     41  C   UNL A   1      43.561  22.178  25.685  1.00  0.00     0.173 A 
ATOM     42  F   UNL A   1      41.042  20.543  27.737  1.00  0.00    -0.203 F 
ATOM     43  C   UNL A   1      42.532  19.643  26.182  1.00  0.00     0.198 A 
ATOM     44  C   UNL A   1      44.031  21.064  24.982  1.00  0.00     0.198 A 
ATOM     45  F   UNL A   1      44.166  23.349  25.453  1.00  0.00    -0.203 F 
ATOM     46  F   UNL A   1      42.081  18.419  26.490  1.00  0.00    -0.200 F 
ATOM     47  C   UNL A   1      43.550  19.796  25.262  1.00  0.00     0.200 A 
ATOM     48  F   UNL A   1      45.015  21.216  24.084  1.00  0.00    -0.200 F 
ATOM     49  F   UNL A   1      44.092  18.721  24.673  1.00  0.00    -0.200 F 
ENDBRANCH  25  39
BRANCH  26  50
ATOM     50  C   UNL A   1      45.054  29.806  33.255  1.00  0.00     0.064 A 
ATOM     51  C   UNL A   1      46.180  30.638  33.197  1.00  0.00     0.173 A 
ATOM     52  C   UNL A   1      44.374  29.855  34.510  1.00  0.00     0.173 A 
ATOM     53  F   UNL A   1      47.000  30.632  32.144  1.00  0.00    -0.203 F 
ATOM     54  C   UNL A   1      46.523  31.516  34.243  1.00  0.00     0.198 A 
ATOM     55  C   UNL A   1      44.683  30.760  35.526  1.00  0.00     0.198 A 
ATOM     56  F   UNL A   1      43.367  29.020  34.799  1.00  0.00    -0.203 F 
ATOM     57  F   UNL A   1      47.608  32.295  34.124  1.00  0.00    -0.200 F 
ATOM     58  C   UNL A   1      45.752  31.607  35.387  1.00  0.00     0.200 A 
ATOM     59  F   UNL A   1      43.916  30.810  36.626  1.00  0.00    -0.200 F 
ATOM     60  F   UNL A   1      46.045  32.492  36.348  1.00  0.00    -0.200 F 
ENDBRANCH  26  50
BRANCH  38  61
ATOM     61  C   UNL A   1      45.903  26.431  28.235  1.00  0.00     0.064 A 
ATOM     62  C   UNL A   1      47.170  26.860  27.810  1.00  0.00     0.173 A 
ATOM     63  C   UNL A   1      44.810  26.956  27.527  1.00  0.00     0.173 A 
ATOM     64  F   UNL A   1      48.272  26.394  28.418  1.00  0.00    -0.203 F 
ATOM     65  C   UNL A   1      47.324  27.774  26.762  1.00  0.00     0.198 A 
ATOM     66  C   UNL A   1      44.957  27.864  26.477  1.00  0.00     0.198 A 
ATOM     67  F   UNL A   1      43.569  26.595  27.837  1.00  0.00    -0.203 F 
ATOM     68  F   UNL A   1      48.552  28.165  26.393  1.00  0.00    -0.200 F 
ATOM     69  C   UNL A   1      46.218  28.280  26.100  1.00  0.00     0.200 A 
ATOM     70  F   UNL A   1      43.874  28.326  25.834  1.00  0.00    -0.200 F 
ATOM     71  F   UNL A   1      46.365  29.151  25.091  1.00  0.00    -0.200 F 
ENDBRANCH  38  61
ENDBRANCH  12  13
ENDBRANCH   5   7
ENDBRANCH   2   3
ENDBRANCH   1   2
BRANCH   1  72
ATOM     72  C   UNL A   1      33.061  26.756  25.892  1.00  0.00     0.023 C 
BRANCH  72  73
ATOM     73  C   UNL A   1      32.075  26.296  24.826  1.00  0.00     0.116 C 
BRANCH  73  74
ATOM     74  N   UNL A   1      32.519  26.639  23.485  1.00  0.00    -0.352 N 
ATOM     75  C   UNL A   1      33.317  25.907  22.637  1.00  0.00     0.252 C 
ATOM     76  H   UNL A   1      32.208  27.507  23.140  1.00  0.00     0.163 HD
ATOM     77  O   UNL A   1      33.756  26.421  21.624  1.00  0.00    -0.269 OA
BRANCH  75  78
ATOM     78  C   UNL A   1      33.618  24.540  23.029  1.00  0.00     0.057 A 
ATOM     79  C   UNL A   1      32.888  23.349  22.746  1.00  0.00     0.033 A 
ATOM     80  C   UNL A   1      34.718  24.159  23.776  1.00  0.00     0.099 A 
ATOM     81  C   UNL A   1      33.523  22.308  23.383  1.00  0.00     0.087 A 
ATOM     82  N   UNL A   1      34.613  22.820  24.037  1.00  0.00    -0.344 N 
BRANCH  82  83
ATOM     83  C   UNL A   1      35.521  22.057  24.870  1.00  0.00     0.236 C 
BRANCH  83  84
ATOM     84  C   UNL A   1      36.935  22.050  24.337  1.00  0.00     0.406 C 
ATOM     85  F   UNL A   1      36.976  22.240  22.999  1.00  0.00    -0.169 F 
ATOM     86  F   UNL A   1      37.648  23.055  24.901  1.00  0.00    -0.169 F 
ATOM     87  F   UNL A   1      37.583  20.898  24.617  1.00  0.00    -0.169 F 
ENDBRANCH  83  84
ENDBRANCH  82  83
ENDBRANCH  75  78
ENDBRANCH  73  74
ENDBRANCH  72  73
ENDBRANCH   1  72
TORSDOF 13
ENDMDL
