MODEL 1
REMARK VINA RESULT:     -12.7      0.000      0.000
REMARK SMILES O=C(NCCCCNC(=O)[C@H]1CC[C@@H](CNc2ccccc2C(F)(F)F)O1)c1ccc(-c2c3nc(c(-c4c(F)c(F)c(F)c(F)c4F)c4ccc([nH]4)c(-c4c(F)c(F)c(F)c(F)c4F)c4nc(c(-c5c(F)c(F)c(F)c(F)c5F)c5ccc2[nH]5)C=C4)C=C3)cc1
REMARK SMILES IDX 6 1 5 2 4 3 3 4 1 5 2 6 28 8 29 9 90 10 30 11 89 12 31 13
REMARK SMILES IDX 32 14 33 15 83 16 34 17 88 18 82 19 84 20 35 21 87 22 81 23
REMARK SMILES IDX 80 24 36 26 68 27 48 28 67 29 49 30 52 31 66 32 85 33 50 34
REMARK SMILES IDX 51 35 65 37 86 38 53 39 37 40 38 41 46 42 39 43 40 44 44 45
REMARK SMILES IDX 47 46 41 47 42 48 45 49 43 50 69 51 70 52 78 53 71 54 72 55
REMARK SMILES IDX 76 56 79 57 73 58 74 59 77 60 75 61 54 62 55 63 63 64 56 65
REMARK SMILES IDX 57 66 61 67 64 68 58 69 59 70 62 71 60 72 7 73 8 74 9 75
REMARK SMILES IDX 10 77 11 78 12 79 27 80 13 81 14 82 15 83 16 84 17 86 18 87
REMARK SMILES IDX 22 88 19 89 21 90 20 91 23 92 24 93 25 94 26 95
REMARK H PARENT 3 7 84 25 52 36 8 76 16 85
REMARK Flexibility Score: inf
ROOT
ATOM      1  C   UNL A   1      31.789  30.652  26.384  1.00  0.00     0.023 C 
ENDROOT
BRANCH   1   2
ATOM      2  C   UNL A   1      31.464  32.085  26.808  1.00  0.00     0.023 C 
BRANCH   2   3
ATOM      3  C   UNL A   1      32.653  32.880  27.332  1.00  0.00     0.116 C 
BRANCH   3   4
ATOM      4  N   UNL A   1      32.332  34.263  27.654  1.00  0.00    -0.352 N 
ATOM      5  O   UNL A   1      32.516  36.201  28.810  1.00  0.00    -0.269 OA
ATOM      6  C   UNL A   1      32.944  35.082  28.575  1.00  0.00     0.251 C 
ATOM      7  H   UNL A   1      31.585  34.661  27.152  1.00  0.00     0.163 HD
BRANCH   6   8
ATOM      8  C   UNL A   1      34.113  34.555  29.307  1.00  0.00     0.039 A 
ATOM      9  C   UNL A   1      35.384  34.632  28.735  1.00  0.00     0.014 A 
ATOM     10  C   UNL A   1      33.913  33.910  30.529  1.00  0.00     0.014 A 
ATOM     11  C   UNL A   1      36.433  33.932  29.313  1.00  0.00     0.010 A 
ATOM     12  C   UNL A   1      34.989  33.277  31.151  1.00  0.00     0.010 A 
ATOM     13  C   UNL A   1      36.247  33.252  30.529  1.00  0.00    -0.014 A 
BRANCH  13  14
ATOM     14  C   UNL A   1      37.403  32.563  31.152  1.00  0.00     0.031 A 
ATOM     15  C   UNL A   1      37.863  32.914  32.537  1.00  0.00     0.074 A 
ATOM     16  C   UNL A   1      38.011  31.585  30.456  1.00  0.00     0.049 A 
ATOM     17  N   UNL A   1      38.853  32.406  33.228  1.00  0.00    -0.248 NA
ATOM     18  C   UNL A   1      37.125  33.975  33.239  1.00  0.00     0.031 C 
ATOM     19  C   UNL A   1      37.645  31.168  29.101  1.00  0.00     0.029 A 
ATOM     20  N   UNL A   1      39.043  30.751  30.795  1.00  0.00    -0.354 N 
ATOM     21  C   UNL A   1      38.873  33.100  34.432  1.00  0.00     0.074 A 
ATOM     22  C   UNL A   1      37.806  34.077  34.373  1.00  0.00     0.031 C 
ATOM     23  C   UNL A   1      38.406  30.125  28.741  1.00  0.00     0.029 A 
ATOM     24  C   UNL A   1      39.355  29.844  29.813  1.00  0.00     0.049 A 
ATOM     25  H   UNL A   1      39.515  30.797  31.658  1.00  0.00     0.167 HD
ATOM     26  C   UNL A   1      39.706  32.930  35.485  1.00  0.00     0.037 A 
ATOM     27  C   UNL A   1      40.314  28.902  29.771  1.00  0.00     0.037 A 
ATOM     28  C   UNL A   1      40.750  31.938  35.542  1.00  0.00     0.049 A 
ATOM     29  C   UNL A   1      41.227  28.743  30.950  1.00  0.00     0.074 A 
ATOM     30  C   UNL A   1      41.625  31.661  36.578  1.00  0.00     0.029 A 
ATOM     31  N   UNL A   1      41.057  31.056  34.514  1.00  0.00    -0.354 N 
ATOM     32  N   UNL A   1      41.227  29.396  32.086  1.00  0.00    -0.248 NA
ATOM     33  C   UNL A   1      42.276  27.724  30.838  1.00  0.00     0.031 C 
ATOM     34  C   UNL A   1      42.487  30.639  36.163  1.00  0.00     0.029 A 
ATOM     35  C   UNL A   1      42.122  30.249  34.885  1.00  0.00     0.049 A 
ATOM     36  H   UNL A   1      40.589  31.010  33.651  1.00  0.00     0.167 HD
ATOM     37  C   UNL A   1      42.271  28.866  32.828  1.00  0.00     0.074 A 
ATOM     38  C   UNL A   1      42.865  27.818  32.022  1.00  0.00     0.031 C 
ATOM     39  C   UNL A   1      42.703  29.220  34.063  1.00  0.00     0.037 A 
BRANCH  26  40
ATOM     40  C   UNL A   1      39.543  33.847  36.662  1.00  0.00     0.064 A 
ATOM     41  C   UNL A   1      38.781  33.484  37.781  1.00  0.00     0.173 A 
ATOM     42  C   UNL A   1      40.207  35.084  36.693  1.00  0.00     0.173 A 
ATOM     43  F   UNL A   1      38.117  32.319  37.797  1.00  0.00    -0.203 F 
ATOM     44  C   UNL A   1      38.673  34.332  38.882  1.00  0.00     0.198 A 
ATOM     45  C   UNL A   1      40.117  35.919  37.805  1.00  0.00     0.198 A 
ATOM     46  F   UNL A   1      40.954  35.476  35.651  1.00  0.00    -0.203 F 
ATOM     47  F   UNL A   1      37.911  33.980  39.926  1.00  0.00    -0.200 F 
ATOM     48  C   UNL A   1      39.348  35.545  38.895  1.00  0.00     0.200 A 
ATOM     49  F   UNL A   1      40.778  37.084  37.820  1.00  0.00    -0.200 F 
ATOM     50  F   UNL A   1      39.252  36.355  39.959  1.00  0.00    -0.200 F 
ENDBRANCH  26  40
BRANCH  27  51
ATOM     51  C   UNL A   1      40.448  28.051  28.563  1.00  0.00     0.064 A 
ATOM     52  C   UNL A   1      41.221  28.466  27.471  1.00  0.00     0.173 A 
ATOM     53  C   UNL A   1      39.837  26.790  28.493  1.00  0.00     0.173 A 
ATOM     54  F   UNL A   1      41.808  29.671  27.486  1.00  0.00    -0.203 F 
ATOM     55  C   UNL A   1      41.372  27.653  26.350  1.00  0.00     0.198 A 
ATOM     56  C   UNL A   1      40.014  25.966  27.384  1.00  0.00     0.198 A 
ATOM     57  F   UNL A   1      39.094  26.346  29.517  1.00  0.00    -0.203 F 
ATOM     58  F   UNL A   1      42.092  28.085  25.306  1.00  0.00    -0.200 F 
ATOM     59  C   UNL A   1      40.776  26.401  26.311  1.00  0.00     0.200 A 
ATOM     60  F   UNL A   1      39.451  24.751  27.359  1.00  0.00    -0.200 F 
ATOM     61  F   UNL A   1      40.936  25.614  25.239  1.00  0.00    -0.200 F 
ENDBRANCH  27  51
BRANCH  39  62
ATOM     62  C   UNL A   1      43.870  28.456  34.613  1.00  0.00     0.064 A 
ATOM     63  C   UNL A   1      45.186  28.907  34.437  1.00  0.00     0.173 A 
ATOM     64  C   UNL A   1      43.668  27.272  35.337  1.00  0.00     0.173 A 
ATOM     65  F   UNL A   1      45.428  30.024  33.735  1.00  0.00    -0.203 F 
ATOM     66  C   UNL A   1      46.261  28.185  34.945  1.00  0.00     0.198 A 
ATOM     67  C   UNL A   1      44.744  26.567  35.866  1.00  0.00     0.198 A 
ATOM     68  F   UNL A   1      42.426  26.803  35.534  1.00  0.00    -0.203 F 
ATOM     69  F   UNL A   1      47.513  28.608  34.726  1.00  0.00    -0.200 F 
ATOM     70  C   UNL A   1      46.039  27.019  35.663  1.00  0.00     0.200 A 
ATOM     71  F   UNL A   1      44.528  25.444  36.567  1.00  0.00    -0.200 F 
ATOM     72  F   UNL A   1      47.076  26.325  36.152  1.00  0.00    -0.200 F 
ENDBRANCH  39  62
ENDBRANCH  13  14
ENDBRANCH   6   8
ENDBRANCH   3   4
ENDBRANCH   2   3
ENDBRANCH   1   2
BRANCH   1  73
ATOM     73  C   UNL A   1      32.782  29.944  27.305  1.00  0.00     0.116 C 
BRANCH  73  74
ATOM     74  N   UNL A   1      32.335  28.604  27.599  1.00  0.00    -0.354 N 
ATOM     75  C   UNL A   1      32.543  27.434  26.934  1.00  0.00     0.249 C 
ATOM     76  H   UNL A   1      31.787  28.522  28.413  1.00  0.00     0.163 HD
ATOM     77  O   UNL A   1      31.907  26.453  27.338  1.00  0.00    -0.272 OA
BRANCH  75  78
ATOM     78  C   UNL A   1      33.570  27.278  25.795  1.00  0.00     0.207 C 
ATOM     79  C   UNL A   1      33.598  26.007  24.959  1.00  0.00     0.045 C 
ATOM     80  O   UNL A   1      33.444  28.385  24.898  1.00  0.00    -0.363 OA
ATOM     81  C   UNL A   1      33.361  26.458  23.530  1.00  0.00     0.037 C 
ATOM     82  C   UNL A   1      33.692  27.937  23.555  1.00  0.00     0.138 C 
BRANCH  82  83
ATOM     83  C   UNL A   1      32.845  28.793  22.601  1.00  0.00     0.145 C 
BRANCH  83  84
ATOM     84  N   UNL A   1      31.610  28.075  22.290  1.00  0.00    -0.382 N 
ATOM     85  H   UNL A   1      31.667  27.138  21.994  1.00  0.00     0.160 HD
BRANCH  84  86
ATOM     86  C   UNL A   1      30.366  28.665  22.398  1.00  0.00     0.046 A 
ATOM     87  C   UNL A   1      30.174  29.891  21.736  1.00  0.00     0.026 A 
ATOM     88  C   UNL A   1      29.274  28.083  23.061  1.00  0.00     0.079 A 
ATOM     89  C   UNL A   1      28.931  30.524  21.709  1.00  0.00     0.002 A 
ATOM     90  C   UNL A   1      28.017  28.727  23.014  1.00  0.00     0.015 A 
ATOM     91  C   UNL A   1      27.846  29.937  22.344  1.00  0.00     0.001 A 
BRANCH  88  92
ATOM     92  C   UNL A   1      29.377  26.796  23.842  1.00  0.00     0.418 C 
ATOM     93  F   UNL A   1      28.156  26.318  24.231  1.00  0.00    -0.166 F 
ATOM     94  F   UNL A   1      29.935  25.789  23.105  1.00  0.00    -0.166 F 
ATOM     95  F   UNL A   1      30.107  26.861  24.990  1.00  0.00    -0.166 F 
ENDBRANCH  88  92
ENDBRANCH  84  86
ENDBRANCH  83  84
ENDBRANCH  82  83
ENDBRANCH  75  78
ENDBRANCH  73  74
ENDBRANCH   1  73
TORSDOF 15
ENDMDL
MODEL 2
REMARK VINA RESULT:     -12.5      2.109      8.224
REMARK SMILES O=C(NCCCCNC(=O)[C@H]1CC[C@@H](CNc2ccccc2C(F)(F)F)O1)c1ccc(-c2c3nc(c(-c4c(F)c(F)c(F)c(F)c4F)c4ccc([nH]4)c(-c4c(F)c(F)c(F)c(F)c4F)c4nc(c(-c5c(F)c(F)c(F)c(F)c5F)c5ccc2[nH]5)C=C4)C=C3)cc1
REMARK SMILES IDX 6 1 5 2 4 3 3 4 1 5 2 6 28 8 29 9 90 10 30 11 89 12 31 13
REMARK SMILES IDX 32 14 33 15 83 16 34 17 88 18 82 19 84 20 35 21 87 22 81 23
REMARK SMILES IDX 80 24 36 26 68 27 48 28 67 29 49 30 52 31 66 32 85 33 50 34
REMARK SMILES IDX 51 35 65 37 86 38 53 39 37 40 38 41 46 42 39 43 40 44 44 45
REMARK SMILES IDX 47 46 41 47 42 48 45 49 43 50 69 51 70 52 78 53 71 54 72 55
REMARK SMILES IDX 76 56 79 57 73 58 74 59 77 60 75 61 54 62 55 63 63 64 56 65
REMARK SMILES IDX 57 66 61 67 64 68 58 69 59 70 62 71 60 72 7 73 8 74 9 75
REMARK SMILES IDX 10 77 11 78 12 79 27 80 13 81 14 82 15 83 16 84 17 86 18 87
REMARK SMILES IDX 22 88 19 89 21 90 20 91 23 92 24 93 25 94 26 95
REMARK H PARENT 3 7 84 25 52 36 8 76 16 85
REMARK Flexibility Score: inf
ROOT
ATOM      1  C   UNL A   1      31.802  30.780  26.118  1.00  0.00     0.023 C 
ENDROOT
BRANCH   1   2
ATOM      2  C   UNL A   1      31.498  32.033  26.940  1.00  0.00     0.023 C 
BRANCH   2   3
ATOM      3  C   UNL A   1      32.715  32.884  27.279  1.00  0.00     0.116 C 
BRANCH   3   4
ATOM      4  N   UNL A   1      32.388  34.264  27.608  1.00  0.00    -0.352 N 
ATOM      5  O   UNL A   1      32.533  36.184  28.799  1.00  0.00    -0.269 OA
ATOM      6  C   UNL A   1      32.966  35.066  28.564  1.00  0.00     0.251 C 
ATOM      7  H   UNL A   1      31.663  34.672  27.082  1.00  0.00     0.163 HD
BRANCH   6   8
ATOM      8  C   UNL A   1      34.102  34.523  29.335  1.00  0.00     0.039 A 
ATOM      9  C   UNL A   1      35.401  34.652  28.842  1.00  0.00     0.014 A 
ATOM     10  C   UNL A   1      33.847  33.812  30.509  1.00  0.00     0.014 A 
ATOM     11  C   UNL A   1      36.430  33.942  29.443  1.00  0.00     0.010 A 
ATOM     12  C   UNL A   1      34.898  33.167  31.160  1.00  0.00     0.010 A 
ATOM     13  C   UNL A   1      36.190  33.196  30.610  1.00  0.00    -0.014 A 
BRANCH  13  14
ATOM     14  C   UNL A   1      37.323  32.497  31.263  1.00  0.00     0.031 A 
ATOM     15  C   UNL A   1      38.070  31.403  30.559  1.00  0.00     0.074 A 
ATOM     16  C   UNL A   1      37.691  32.894  32.495  1.00  0.00     0.049 A 
ATOM     17  N   UNL A   1      39.085  30.693  30.985  1.00  0.00    -0.248 NA
ATOM     18  C   UNL A   1      37.621  31.051  29.203  1.00  0.00     0.031 C 
ATOM     19  C   UNL A   1      37.030  33.946  33.269  1.00  0.00     0.029 A 
ATOM     20  N   UNL A   1      38.718  32.481  33.301  1.00  0.00    -0.354 N 
ATOM     21  C   UNL A   1      39.380  29.797  29.965  1.00  0.00     0.074 A 
ATOM     22  C   UNL A   1      38.427  30.039  28.903  1.00  0.00     0.031 C 
ATOM     23  C   UNL A   1      37.695  34.131  34.418  1.00  0.00     0.029 A 
ATOM     24  C   UNL A   1      38.788  33.168  34.488  1.00  0.00     0.049 A 
ATOM     25  H   UNL A   1      39.344  31.763  33.055  1.00  0.00     0.167 HD
ATOM     26  C   UNL A   1      40.358  28.862  29.926  1.00  0.00     0.037 A 
ATOM     27  C   UNL A   1      39.629  33.025  35.528  1.00  0.00     0.037 A 
ATOM     28  C   UNL A   1      41.316  28.645  30.980  1.00  0.00     0.049 A 
ATOM     29  C   UNL A   1      40.697  31.975  35.458  1.00  0.00     0.074 A 
ATOM     30  C   UNL A   1      42.369  27.747  31.022  1.00  0.00     0.029 A 
ATOM     31  N   UNL A   1      41.337  29.340  32.182  1.00  0.00    -0.354 N 
ATOM     32  N   UNL A   1      40.973  31.143  34.483  1.00  0.00    -0.248 NA
ATOM     33  C   UNL A   1      41.565  31.838  36.633  1.00  0.00     0.031 C 
ATOM     34  C   UNL A   1      43.002  27.871  32.263  1.00  0.00     0.029 A 
ATOM     35  C   UNL A   1      42.372  28.876  32.980  1.00  0.00     0.049 A 
ATOM     36  H   UNL A   1      40.711  30.056  32.432  1.00  0.00     0.167 HD
ATOM     37  C   UNL A   1      42.048  30.387  34.923  1.00  0.00     0.074 A 
ATOM     38  C   UNL A   1      42.391  30.878  36.243  1.00  0.00     0.031 C 
ATOM     39  C   UNL A   1      42.689  29.372  34.294  1.00  0.00     0.037 A 
BRANCH  26  40
ATOM     40  C   UNL A   1      40.438  27.982  28.712  1.00  0.00     0.064 A 
ATOM     41  C   UNL A   1      41.200  28.339  27.591  1.00  0.00     0.173 A 
ATOM     42  C   UNL A   1      39.786  26.739  28.695  1.00  0.00     0.173 A 
ATOM     43  F   UNL A   1      41.833  29.520  27.552  1.00  0.00    -0.203 F 
ATOM     44  C   UNL A   1      41.294  27.490  26.488  1.00  0.00     0.198 A 
ATOM     45  C   UNL A   1      39.901  25.883  27.601  1.00  0.00     0.198 A 
ATOM     46  F   UNL A   1      39.048  26.348  29.744  1.00  0.00    -0.203 F 
ATOM     47  F   UNL A   1      42.001  27.866  25.414  1.00  0.00    -0.200 F 
ATOM     48  C   UNL A   1      40.651  26.261  26.499  1.00  0.00     0.200 A 
ATOM     49  F   UNL A   1      39.288  24.692  27.618  1.00  0.00    -0.200 F 
ATOM     50  F   UNL A   1      40.751  25.442  25.442  1.00  0.00    -0.200 F 
ENDBRANCH  26  40
BRANCH  27  51
ATOM     51  C   UNL A   1      39.475  33.901  36.716  1.00  0.00     0.064 A 
ATOM     52  C   UNL A   1      38.731  33.484  37.827  1.00  0.00     0.173 A 
ATOM     53  C   UNL A   1      40.102  35.155  36.778  1.00  0.00     0.173 A 
ATOM     54  F   UNL A   1      38.100  32.302  37.805  1.00  0.00    -0.203 F 
ATOM     55  C   UNL A   1      38.613  34.294  38.955  1.00  0.00     0.198 A 
ATOM     56  C   UNL A   1      40.007  35.949  37.917  1.00  0.00     0.198 A 
ATOM     57  F   UNL A   1      40.832  35.593  35.742  1.00  0.00    -0.203 F 
ATOM     58  F   UNL A   1      37.871  33.886  39.993  1.00  0.00    -0.200 F 
ATOM     59  C   UNL A   1      39.258  35.520  39.002  1.00  0.00     0.200 A 
ATOM     60  F   UNL A   1      40.647  37.125  37.966  1.00  0.00    -0.200 F 
ATOM     61  F   UNL A   1      39.157  36.291  40.094  1.00  0.00    -0.200 F 
ENDBRANCH  27  51
BRANCH  39  62
ATOM     62  C   UNL A   1      43.830  28.737  35.029  1.00  0.00     0.064 A 
ATOM     63  C   UNL A   1      43.621  27.686  35.934  1.00  0.00     0.173 A 
ATOM     64  C   UNL A   1      45.146  29.171  34.813  1.00  0.00     0.173 A 
ATOM     65  F   UNL A   1      42.378  27.250  36.186  1.00  0.00    -0.203 F 
ATOM     66  C   UNL A   1      44.688  27.110  36.617  1.00  0.00     0.198 A 
ATOM     67  C   UNL A   1      46.213  28.575  35.478  1.00  0.00     0.198 A 
ATOM     68  F   UNL A   1      45.395  30.172  33.954  1.00  0.00    -0.203 F 
ATOM     69  F   UNL A   1      44.462  26.139  37.512  1.00  0.00    -0.200 F 
ATOM     70  C   UNL A   1      45.982  27.551  36.385  1.00  0.00     0.200 A 
ATOM     71  F   UNL A   1      47.464  28.996  35.247  1.00  0.00    -0.200 F 
ATOM     72  F   UNL A   1      47.008  26.994  37.043  1.00  0.00    -0.200 F 
ENDBRANCH  39  62
ENDBRANCH  13  14
ENDBRANCH   6   8
ENDBRANCH   3   4
ENDBRANCH   2   3
ENDBRANCH   1   2
BRANCH   1  73
ATOM     73  C   UNL A   1      33.191  30.195  26.369  1.00  0.00     0.116 C 
BRANCH  73  74
ATOM     74  N   UNL A   1      33.573  29.314  25.292  1.00  0.00    -0.354 N 
ATOM     75  C   UNL A   1      33.475  27.962  25.177  1.00  0.00     0.249 C 
ATOM     76  H   UNL A   1      33.972  29.766  24.514  1.00  0.00     0.163 HD
ATOM     77  O   UNL A   1      34.026  27.454  24.192  1.00  0.00    -0.272 OA
BRANCH  75  78
ATOM     78  C   UNL A   1      32.658  27.086  26.147  1.00  0.00     0.207 C 
ATOM     79  C   UNL A   1      31.153  26.951  25.972  1.00  0.00     0.045 C 
ATOM     80  O   UNL A   1      33.212  25.767  26.164  1.00  0.00    -0.363 OA
ATOM     81  C   UNL A   1      30.900  25.468  25.774  1.00  0.00     0.037 C 
ATOM     82  C   UNL A   1      32.152  24.809  26.316  1.00  0.00     0.138 C 
BRANCH  82  83
ATOM     83  C   UNL A   1      32.560  23.522  25.584  1.00  0.00     0.145 C 
BRANCH  83  84
ATOM     84  N   UNL A   1      33.618  22.859  26.346  1.00  0.00    -0.382 N 
ATOM     85  H   UNL A   1      33.442  22.606  27.281  1.00  0.00     0.160 HD
BRANCH  84  86
ATOM     86  C   UNL A   1      34.855  22.576  25.800  1.00  0.00     0.046 A 
ATOM     87  C   UNL A   1      35.867  23.539  25.960  1.00  0.00     0.026 A 
ATOM     88  C   UNL A   1      35.176  21.365  25.167  1.00  0.00     0.079 A 
ATOM     89  C   UNL A   1      37.172  23.311  25.525  1.00  0.00     0.002 A 
ATOM     90  C   UNL A   1      36.505  21.141  24.742  1.00  0.00     0.015 A 
ATOM     91  C   UNL A   1      37.495  22.106  24.919  1.00  0.00     0.001 A 
BRANCH  88  92
ATOM     92  C   UNL A   1      34.160  20.281  24.900  1.00  0.00     0.418 C 
ATOM     93  F   UNL A   1      33.298  20.606  23.889  1.00  0.00    -0.166 F 
ATOM     94  F   UNL A   1      34.746  19.111  24.505  1.00  0.00    -0.166 F 
ATOM     95  F   UNL A   1      33.357  19.955  25.950  1.00  0.00    -0.166 F 
ENDBRANCH  88  92
ENDBRANCH  84  86
ENDBRANCH  83  84
ENDBRANCH  82  83
ENDBRANCH  75  78
ENDBRANCH  73  74
ENDBRANCH   1  73
TORSDOF 15
ENDMDL
MODEL 3
REMARK VINA RESULT:     -12.5      2.133      3.532
REMARK SMILES O=C(NCCCCNC(=O)[C@H]1CC[C@@H](CNc2ccccc2C(F)(F)F)O1)c1ccc(-c2c3nc(c(-c4c(F)c(F)c(F)c(F)c4F)c4ccc([nH]4)c(-c4c(F)c(F)c(F)c(F)c4F)c4nc(c(-c5c(F)c(F)c(F)c(F)c5F)c5ccc2[nH]5)C=C4)C=C3)cc1
REMARK SMILES IDX 6 1 5 2 4 3 3 4 1 5 2 6 28 8 29 9 90 10 30 11 89 12 31 13
REMARK SMILES IDX 32 14 33 15 83 16 34 17 88 18 82 19 84 20 35 21 87 22 81 23
REMARK SMILES IDX 80 24 36 26 68 27 48 28 67 29 49 30 52 31 66 32 85 33 50 34
REMARK SMILES IDX 51 35 65 37 86 38 53 39 37 40 38 41 46 42 39 43 40 44 44 45
REMARK SMILES IDX 47 46 41 47 42 48 45 49 43 50 69 51 70 52 78 53 71 54 72 55
REMARK SMILES IDX 76 56 79 57 73 58 74 59 77 60 75 61 54 62 55 63 63 64 56 65
REMARK SMILES IDX 57 66 61 67 64 68 58 69 59 70 62 71 60 72 7 73 8 74 9 75
REMARK SMILES IDX 10 77 11 78 12 79 27 80 13 81 14 82 15 83 16 84 17 86 18 87
REMARK SMILES IDX 22 88 19 89 21 90 20 91 23 92 24 93 25 94 26 95
REMARK H PARENT 3 7 84 25 52 36 8 76 16 85
REMARK Flexibility Score: inf
ROOT
ATOM      1  C   UNL A   1      31.781  30.692  26.114  1.00  0.00     0.023 C 
ENDROOT
BRANCH   1   2
ATOM      2  C   UNL A   1      31.468  31.946  26.929  1.00  0.00     0.023 C 
BRANCH   2   3
ATOM      3  C   UNL A   1      32.683  32.790  27.294  1.00  0.00     0.116 C 
BRANCH   3   4
ATOM      4  N   UNL A   1      32.356  34.171  27.620  1.00  0.00    -0.352 N 
ATOM      5  O   UNL A   1      32.522  36.102  28.790  1.00  0.00    -0.269 OA
ATOM      6  C   UNL A   1      32.954  34.985  28.554  1.00  0.00     0.251 C 
ATOM      7  H   UNL A   1      31.617  34.572  27.108  1.00  0.00     0.163 HD
BRANCH   6   8
ATOM      8  C   UNL A   1      34.112  34.454  29.301  1.00  0.00     0.039 A 
ATOM      9  C   UNL A   1      35.406  34.683  28.831  1.00  0.00     0.014 A 
ATOM     10  C   UNL A   1      33.886  33.657  30.424  1.00  0.00     0.014 A 
ATOM     11  C   UNL A   1      36.467  33.991  29.396  1.00  0.00     0.010 A 
ATOM     12  C   UNL A   1      34.966  33.027  31.044  1.00  0.00     0.010 A 
ATOM     13  C   UNL A   1      36.259  33.160  30.512  1.00  0.00    -0.014 A 
BRANCH  13  14
ATOM     14  C   UNL A   1      37.422  32.482  31.130  1.00  0.00     0.031 A 
ATOM     15  C   UNL A   1      37.883  32.836  32.514  1.00  0.00     0.074 A 
ATOM     16  C   UNL A   1      38.036  31.508  30.432  1.00  0.00     0.049 A 
ATOM     17  N   UNL A   1      38.879  32.336  33.202  1.00  0.00    -0.248 NA
ATOM     18  C   UNL A   1      37.138  33.890  33.219  1.00  0.00     0.031 C 
ATOM     19  C   UNL A   1      37.670  31.089  29.078  1.00  0.00     0.029 A 
ATOM     20  N   UNL A   1      39.077  30.684  30.767  1.00  0.00    -0.354 N 
ATOM     21  C   UNL A   1      38.897  33.029  34.406  1.00  0.00     0.074 A 
ATOM     22  C   UNL A   1      37.822  33.997  34.351  1.00  0.00     0.031 C 
ATOM     23  C   UNL A   1      38.439  30.053  28.715  1.00  0.00     0.029 A 
ATOM     24  C   UNL A   1      39.394  29.780  29.784  1.00  0.00     0.049 A 
ATOM     25  H   UNL A   1      39.551  30.734  31.629  1.00  0.00     0.167 HD
ATOM     26  C   UNL A   1      39.735  32.866  35.457  1.00  0.00     0.037 A 
ATOM     27  C   UNL A   1      40.360  28.846  29.738  1.00  0.00     0.037 A 
ATOM     28  C   UNL A   1      40.788  31.883  35.510  1.00  0.00     0.049 A 
ATOM     29  C   UNL A   1      41.278  28.695  30.915  1.00  0.00     0.074 A 
ATOM     30  C   UNL A   1      41.669  31.613  36.543  1.00  0.00     0.029 A 
ATOM     31  N   UNL A   1      41.099  31.004  34.481  1.00  0.00    -0.354 N 
ATOM     32  N   UNL A   1      41.276  29.347  32.051  1.00  0.00    -0.248 NA
ATOM     33  C   UNL A   1      42.336  27.685  30.799  1.00  0.00     0.031 C 
ATOM     34  C   UNL A   1      42.538  30.599  36.125  1.00  0.00     0.029 A 
ATOM     35  C   UNL A   1      42.173  30.206  34.847  1.00  0.00     0.049 A 
ATOM     36  H   UNL A   1      40.629  30.955  33.618  1.00  0.00     0.167 HD
ATOM     37  C   UNL A   1      42.327  28.825  32.790  1.00  0.00     0.074 A 
ATOM     38  C   UNL A   1      42.928  27.784  31.981  1.00  0.00     0.031 C 
ATOM     39  C   UNL A   1      42.760  29.183  34.023  1.00  0.00     0.037 A 
BRANCH  26  40
ATOM     40  C   UNL A   1      39.568  33.781  36.635  1.00  0.00     0.064 A 
ATOM     41  C   UNL A   1      38.772  33.431  37.735  1.00  0.00     0.173 A 
ATOM     42  C   UNL A   1      40.260  35.001  36.687  1.00  0.00     0.173 A 
ATOM     43  F   UNL A   1      38.081  32.282  37.730  1.00  0.00    -0.203 F 
ATOM     44  C   UNL A   1      38.661  34.276  38.837  1.00  0.00     0.198 A 
ATOM     45  C   UNL A   1      40.165  35.833  37.801  1.00  0.00     0.198 A 
ATOM     46  F   UNL A   1      41.039  35.381  35.664  1.00  0.00    -0.203 F 
ATOM     47  F   UNL A   1      37.867  33.937  39.863  1.00  0.00    -0.200 F 
ATOM     48  C   UNL A   1      39.364  35.472  38.872  1.00  0.00     0.200 A 
ATOM     49  F   UNL A   1      40.853  36.982  37.837  1.00  0.00    -0.200 F 
ATOM     50  F   UNL A   1      39.263  36.279  39.938  1.00  0.00    -0.200 F 
ENDBRANCH  26  40
BRANCH  27  51
ATOM     51  C   UNL A   1      40.498  27.997  28.529  1.00  0.00     0.064 A 
ATOM     52  C   UNL A   1      41.255  28.424  27.431  1.00  0.00     0.173 A 
ATOM     53  C   UNL A   1      39.907  26.726  28.465  1.00  0.00     0.173 A 
ATOM     54  F   UNL A   1      41.822  29.639  27.440  1.00  0.00    -0.203 F 
ATOM     55  C   UNL A   1      41.410  27.614  26.308  1.00  0.00     0.198 A 
ATOM     56  C   UNL A   1      40.088  25.905  27.355  1.00  0.00     0.198 A 
ATOM     57  F   UNL A   1      39.181  26.270  29.496  1.00  0.00    -0.203 F 
ATOM     58  F   UNL A   1      42.113  28.057  25.258  1.00  0.00    -0.200 F 
ATOM     59  C   UNL A   1      40.835  26.352  26.276  1.00  0.00     0.200 A 
ATOM     60  F   UNL A   1      39.546  24.681  27.336  1.00  0.00    -0.200 F 
ATOM     61  F   UNL A   1      40.998  25.567  25.202  1.00  0.00    -0.200 F 
ENDBRANCH  27  51
BRANCH  39  62
ATOM     62  C   UNL A   1      43.935  28.429  34.569  1.00  0.00     0.064 A 
ATOM     63  C   UNL A   1      45.245  28.905  34.412  1.00  0.00     0.173 A 
ATOM     64  C   UNL A   1      43.747  27.229  35.271  1.00  0.00     0.173 A 
ATOM     65  F   UNL A   1      45.473  30.038  33.732  1.00  0.00    -0.203 F 
ATOM     66  C   UNL A   1      46.328  28.192  34.916  1.00  0.00     0.198 A 
ATOM     67  C   UNL A   1      44.831  26.532  35.796  1.00  0.00     0.198 A 
ATOM     68  F   UNL A   1      42.512  26.736  35.449  1.00  0.00    -0.203 F 
ATOM     69  F   UNL A   1      47.574  28.639  34.715  1.00  0.00    -0.200 F 
ATOM     70  C   UNL A   1      46.120  27.010  35.612  1.00  0.00     0.200 A 
ATOM     71  F   UNL A   1      44.629  25.395  36.475  1.00  0.00    -0.200 F 
ATOM     72  F   UNL A   1      47.165  26.325  36.097  1.00  0.00    -0.200 F 
ENDBRANCH  39  62
ENDBRANCH  13  14
ENDBRANCH   6   8
ENDBRANCH   3   4
ENDBRANCH   2   3
ENDBRANCH   1   2
BRANCH   1  73
ATOM     73  C   UNL A   1      33.178  30.124  26.362  1.00  0.00     0.116 C 
BRANCH  73  74
ATOM     74  N   UNL A   1      33.577  29.264  25.274  1.00  0.00    -0.354 N 
ATOM     75  C   UNL A   1      33.508  27.911  25.143  1.00  0.00     0.249 C 
ATOM     76  H   UNL A   1      33.964  29.733  24.500  1.00  0.00     0.163 HD
ATOM     77  O   UNL A   1      34.068  27.427  24.152  1.00  0.00    -0.272 OA
BRANCH  75  78
ATOM     78  C   UNL A   1      32.713  27.006  26.105  1.00  0.00     0.207 C 
ATOM     79  C   UNL A   1      31.209  26.848  25.938  1.00  0.00     0.045 C 
ATOM     80  O   UNL A   1      33.290  25.697  26.098  1.00  0.00    -0.363 OA
ATOM     81  C   UNL A   1      30.980  25.364  25.718  1.00  0.00     0.037 C 
ATOM     82  C   UNL A   1      32.248  24.719  26.243  1.00  0.00     0.138 C 
BRANCH  82  83
ATOM     83  C   UNL A   1      32.674  23.450  25.488  1.00  0.00     0.145 C 
BRANCH  83  84
ATOM     84  N   UNL A   1      33.675  22.740  26.283  1.00  0.00    -0.382 N 
ATOM     85  H   UNL A   1      33.448  22.473  27.203  1.00  0.00     0.160 HD
BRANCH  84  86
ATOM     86  C   UNL A   1      34.926  22.430  25.788  1.00  0.00     0.046 A 
ATOM     87  C   UNL A   1      35.947  23.379  25.975  1.00  0.00     0.026 A 
ATOM     88  C   UNL A   1      35.252  21.206  25.183  1.00  0.00     0.079 A 
ATOM     89  C   UNL A   1      37.264  23.125  25.593  1.00  0.00     0.002 A 
ATOM     90  C   UNL A   1      36.592  20.956  24.812  1.00  0.00     0.015 A 
ATOM     91  C   UNL A   1      37.590  21.906  25.015  1.00  0.00     0.001 A 
BRANCH  88  92
ATOM     92  C   UNL A   1      34.229  20.136  24.890  1.00  0.00     0.418 C 
ATOM     93  F   UNL A   1      33.357  20.497  23.900  1.00  0.00    -0.166 F 
ATOM     94  F   UNL A   1      34.806  18.977  24.449  1.00  0.00    -0.166 F 
ATOM     95  F   UNL A   1      33.436  19.776  25.937  1.00  0.00    -0.166 F 
ENDBRANCH  88  92
ENDBRANCH  84  86
ENDBRANCH  83  84
ENDBRANCH  82  83
ENDBRANCH  75  78
ENDBRANCH  73  74
ENDBRANCH   1  73
TORSDOF 15
ENDMDL
