MODEL 1
REMARK VINA RESULT:     -10.5      0.000      0.000
REMARK SMILES CC(C)Cc1ccc([C@H](CC(=O)NCCCCNC(=O)c2ccc(-c3c4nc(c(-c5c(F)c(F)c(F)c(F)c5F)c5ccc([nH]5)c(-c5c(F)c(F)c(F)c(F)c5F)c5nc(c(-c6c(F)c(F)c(F)c(F)c6F)c6ccc3[nH]6)C=C5)C=C4)cc2)C(F)(F)F)cc1
REMARK SMILES IDX 14 1 13 2 11 3 12 4 10 6 9 7 8 8 5 9 6 10 89 11 7 12 88 13
REMARK SMILES IDX 4 14 2 15 1 16 3 17 84 18 85 19 86 20 87 21 15 22 16 23
REMARK SMILES IDX 17 24 18 25 19 26 20 28 21 29 22 30 83 31 23 32 82 33 24 34
REMARK SMILES IDX 25 35 26 36 76 37 27 38 81 39 75 40 77 41 28 42 80 43 74 44
REMARK SMILES IDX 73 45 29 47 61 48 41 49 60 50 42 51 45 52 59 53 78 54 43 55
REMARK SMILES IDX 44 56 58 58 79 59 46 60 30 61 31 62 39 63 32 64 33 65 37 66
REMARK SMILES IDX 40 67 34 68 35 69 38 70 36 71 62 72 63 73 71 74 64 75 65 76
REMARK SMILES IDX 69 77 72 78 66 79 67 80 70 81 68 82 47 83 48 84 56 85 49 86
REMARK SMILES IDX 50 87 54 88 57 89 51 90 52 91 55 92 53 93
REMARK H PARENT 13 5 18 27 77 46 45 57
REMARK Flexibility Score: inf
ROOT
ATOM      1  C   UNL A   1      33.227  35.685  30.814  1.00  0.00     0.116 C 
ENDROOT
BRANCH   1   2
ATOM      2  N   UNL A   1      33.437  36.795  31.723  1.00  0.00    -0.356 N 
ATOM      3  C   UNL A   1      33.991  36.817  32.964  1.00  0.00     0.220 C 
ATOM      4  O   UNL A   1      34.052  37.889  33.565  1.00  0.00    -0.275 OA
ATOM      5  H   UNL A   1      33.131  37.669  31.389  1.00  0.00     0.163 HD
BRANCH   3   6
ATOM      6  C   UNL A   1      34.544  35.551  33.576  1.00  0.00     0.117 C 
BRANCH   6   7
ATOM      7  C   UNL A   1      34.991  34.505  32.550  1.00  0.00     0.134 C 
BRANCH   7   8
ATOM      8  C   UNL A   1      36.497  34.537  32.339  1.00  0.00    -0.035 A 
ATOM      9  C   UNL A   1      39.278  34.422  31.921  1.00  0.00    -0.048 A 
ATOM     10  C   UNL A   1      38.761  34.685  33.194  1.00  0.00     0.004 A 
ATOM     11  C   UNL A   1      38.397  34.263  30.847  1.00  0.00     0.004 A 
ATOM     12  C   UNL A   1      37.384  34.733  33.404  1.00  0.00     0.004 A 
ATOM     13  C   UNL A   1      37.019  34.319  31.054  1.00  0.00     0.004 A 
BRANCH   9  14
ATOM     14  C   UNL A   1      40.761  34.217  31.733  1.00  0.00     0.038 C 
BRANCH  14  15
ATOM     15  C   UNL A   1      41.108  33.770  30.297  1.00  0.00    -0.013 C 
ATOM     16  C   UNL A   1      42.261  34.585  29.700  1.00  0.00     0.008 C 
ATOM     17  C   UNL A   1      41.461  32.283  30.281  1.00  0.00     0.008 C 
ENDBRANCH  14  15
ENDBRANCH   9  14
ENDBRANCH   7   8
BRANCH   7  18
ATOM     18  C   UNL A   1      34.479  33.101  32.873  1.00  0.00     0.396 C 
ATOM     19  F   UNL A   1      33.259  33.152  33.453  1.00  0.00    -0.170 F 
ATOM     20  F   UNL A   1      34.329  32.366  31.744  1.00  0.00    -0.170 F 
ATOM     21  F   UNL A   1      35.305  32.429  33.699  1.00  0.00    -0.170 F 
ENDBRANCH   7  18
ENDBRANCH   6   7
ENDBRANCH   3   6
ENDBRANCH   1   2
BRANCH   1  22
ATOM     22  C   UNL A   1      33.367  36.114  29.351  1.00  0.00     0.023 C 
BRANCH  22  23
ATOM     23  C   UNL A   1      34.198  35.173  28.480  1.00  0.00     0.023 C 
BRANCH  23  24
ATOM     24  C   UNL A   1      34.166  33.713  28.903  1.00  0.00     0.116 C 
BRANCH  24  25
ATOM     25  N   UNL A   1      33.486  32.857  27.942  1.00  0.00    -0.352 N 
ATOM     26  C   UNL A   1      33.898  31.640  27.454  1.00  0.00     0.251 C 
ATOM     27  H   UNL A   1      32.626  33.190  27.598  1.00  0.00     0.163 HD
ATOM     28  O   UNL A   1      33.277  31.074  26.562  1.00  0.00    -0.269 OA
BRANCH  26  29
ATOM     29  C   UNL A   1      35.133  31.044  27.999  1.00  0.00     0.039 A 
ATOM     30  C   UNL A   1      36.300  31.810  28.031  1.00  0.00     0.014 A 
ATOM     31  C   UNL A   1      35.105  29.758  28.546  1.00  0.00     0.014 A 
ATOM     32  C   UNL A   1      37.428  31.313  28.687  1.00  0.00     0.010 A 
ATOM     33  C   UNL A   1      36.206  29.294  29.253  1.00  0.00     0.010 A 
ATOM     34  C   UNL A   1      37.374  30.070  29.337  1.00  0.00    -0.014 A 
BRANCH  34  35
ATOM     35  C   UNL A   1      38.520  29.539  30.114  1.00  0.00     0.031 A 
ATOM     36  C   UNL A   1      38.772  30.057  31.499  1.00  0.00     0.074 A 
ATOM     37  C   UNL A   1      39.389  28.689  29.535  1.00  0.00     0.049 A 
ATOM     38  N   UNL A   1      39.811  29.882  32.274  1.00  0.00    -0.248 NA
ATOM     39  C   UNL A   1      37.727  30.918  32.076  1.00  0.00     0.031 C 
ATOM     40  C   UNL A   1      39.265  28.138  28.185  1.00  0.00     0.029 A 
ATOM     41  N   UNL A   1      40.565  28.160  30.003  1.00  0.00    -0.354 N 
ATOM     42  C   UNL A   1      39.560  30.636  33.412  1.00  0.00     0.074 A 
ATOM     43  C   UNL A   1      38.288  31.297  33.214  1.00  0.00     0.031 C 
ATOM     44  C   UNL A   1      40.322  27.347  27.934  1.00  0.00     0.029 A 
ATOM     45  C   UNL A   1      41.218  27.371  29.087  1.00  0.00     0.049 A 
ATOM     46  H   UNL A   1      40.910  28.329  30.911  1.00  0.00     0.167 HD
ATOM     47  C   UNL A   1      40.319  30.753  34.527  1.00  0.00     0.037 A 
ATOM     48  C   UNL A   1      42.414  26.757  29.162  1.00  0.00     0.037 A 
ATOM     49  C   UNL A   1      41.562  30.062  34.733  1.00  0.00     0.049 A 
ATOM     50  C   UNL A   1      43.236  26.900  30.413  1.00  0.00     0.074 A 
ATOM     51  C   UNL A   1      42.378  30.068  35.850  1.00  0.00     0.029 A 
ATOM     52  N   UNL A   1      42.167  29.234  33.798  1.00  0.00    -0.354 N 
ATOM     53  N   UNL A   1      42.971  27.580  31.503  1.00  0.00    -0.248 NA
ATOM     54  C   UNL A   1      44.523  26.192  30.449  1.00  0.00     0.031 C 
ATOM     55  C   UNL A   1      43.493  29.268  35.580  1.00  0.00     0.029 A 
ATOM     56  C   UNL A   1      43.351  28.733  34.309  1.00  0.00     0.049 A 
ATOM     57  H   UNL A   1      41.807  29.034  32.903  1.00  0.00     0.167 HD
ATOM     58  C   UNL A   1      44.037  27.356  32.363  1.00  0.00     0.074 A 
ATOM     59  C   UNL A   1      44.955  26.476  31.670  1.00  0.00     0.031 C 
ATOM     60  C   UNL A   1      44.235  27.834  33.614  1.00  0.00     0.037 A 
BRANCH  47  61
ATOM     61  C   UNL A   1      39.823  31.664  35.610  1.00  0.00     0.064 A 
ATOM     62  C   UNL A   1      40.361  32.946  35.795  1.00  0.00     0.173 A 
ATOM     63  C   UNL A   1      38.776  31.262  36.452  1.00  0.00     0.173 A 
ATOM     64  F   UNL A   1      41.374  33.370  35.025  1.00  0.00    -0.203 F 
ATOM     65  C   UNL A   1      39.887  33.782  36.802  1.00  0.00     0.198 A 
ATOM     66  C   UNL A   1      38.285  32.112  37.439  1.00  0.00     0.198 A 
ATOM     67  F   UNL A   1      38.224  30.047  36.314  1.00  0.00    -0.203 F 
ATOM     68  F   UNL A   1      40.449  34.984  36.991  1.00  0.00    -0.200 F 
ATOM     69  C   UNL A   1      38.846  33.368  37.618  1.00  0.00     0.200 A 
ATOM     70  F   UNL A   1      37.271  31.715  38.221  1.00  0.00    -0.200 F 
ATOM     71  F   UNL A   1      38.386  34.177  38.584  1.00  0.00    -0.200 F 
ENDBRANCH  47  61
BRANCH  48  72
ATOM     72  C   UNL A   1      42.899  25.937  28.022  1.00  0.00     0.064 A 
ATOM     73  C   UNL A   1      43.676  26.513  27.007  1.00  0.00     0.173 A 
ATOM     74  C   UNL A   1      42.602  24.571  27.923  1.00  0.00     0.173 A 
ATOM     75  F   UNL A   1      43.967  27.821  27.048  1.00  0.00    -0.203 F 
ATOM     76  C   UNL A   1      44.124  25.755  25.927  1.00  0.00     0.198 A 
ATOM     77  C   UNL A   1      43.072  23.808  26.856  1.00  0.00     0.198 A 
ATOM     78  F   UNL A   1      41.867  23.972  28.872  1.00  0.00    -0.203 F 
ATOM     79  F   UNL A   1      44.831  26.338  24.950  1.00  0.00    -0.200 F 
ATOM     80  C   UNL A   1      43.826  24.402  25.854  1.00  0.00     0.200 A 
ATOM     81  F   UNL A   1      42.793  22.499  26.795  1.00  0.00    -0.200 F 
ATOM     82  F   UNL A   1      44.260  23.673  24.818  1.00  0.00    -0.200 F 
ENDBRANCH  48  72
BRANCH  60  83
ATOM     83  C   UNL A   1      45.460  27.377  34.346  1.00  0.00     0.064 A 
ATOM     84  C   UNL A   1      45.464  26.205  35.114  1.00  0.00     0.173 A 
ATOM     85  C   UNL A   1      46.667  28.080  34.206  1.00  0.00     0.173 A 
ATOM     86  F   UNL A   1      44.330  25.507  35.286  1.00  0.00    -0.203 F 
ATOM     87  C   UNL A   1      46.632  25.755  35.723  1.00  0.00     0.198 A 
ATOM     88  C   UNL A   1      47.837  27.616  34.798  1.00  0.00     0.198 A 
ATOM     89  F   UNL A   1      46.713  29.204  33.476  1.00  0.00    -0.203 F 
ATOM     90  F   UNL A   1      46.609  24.646  36.474  1.00  0.00    -0.200 F 
ATOM     91  C   UNL A   1      47.819  26.455  35.557  1.00  0.00     0.200 A 
ATOM     92  F   UNL A   1      48.985  28.286  34.626  1.00  0.00    -0.200 F 
ATOM     93  F   UNL A   1      48.945  26.010  36.130  1.00  0.00    -0.200 F 
ENDBRANCH  60  83
ENDBRANCH  34  35
ENDBRANCH  26  29
ENDBRANCH  24  25
ENDBRANCH  23  24
ENDBRANCH  22  23
ENDBRANCH   1  22
TORSDOF 16
ENDMDL
MODEL 2
REMARK VINA RESULT:     -10.2      4.689     10.757
REMARK SMILES CC(C)Cc1ccc([C@H](CC(=O)NCCCCNC(=O)c2ccc(-c3c4nc(c(-c5c(F)c(F)c(F)c(F)c5F)c5ccc([nH]5)c(-c5c(F)c(F)c(F)c(F)c5F)c5nc(c(-c6c(F)c(F)c(F)c(F)c6F)c6ccc3[nH]6)C=C5)C=C4)cc2)C(F)(F)F)cc1
REMARK SMILES IDX 14 1 13 2 11 3 12 4 10 6 9 7 8 8 5 9 6 10 89 11 7 12 88 13
REMARK SMILES IDX 4 14 2 15 1 16 3 17 84 18 85 19 86 20 87 21 15 22 16 23
REMARK SMILES IDX 17 24 18 25 19 26 20 28 21 29 22 30 83 31 23 32 82 33 24 34
REMARK SMILES IDX 25 35 26 36 76 37 27 38 81 39 75 40 77 41 28 42 80 43 74 44
REMARK SMILES IDX 73 45 29 47 61 48 41 49 60 50 42 51 45 52 59 53 78 54 43 55
REMARK SMILES IDX 44 56 58 58 79 59 46 60 30 61 31 62 39 63 32 64 33 65 37 66
REMARK SMILES IDX 40 67 34 68 35 69 38 70 36 71 62 72 63 73 71 74 64 75 65 76
REMARK SMILES IDX 69 77 72 78 66 79 67 80 70 81 68 82 47 83 48 84 56 85 49 86
REMARK SMILES IDX 50 87 54 88 57 89 51 90 52 91 55 92 53 93
REMARK H PARENT 13 5 18 27 77 46 45 57
REMARK Flexibility Score: inf
ROOT
ATOM      1  C   UNL A   1      30.685  26.485  25.486  1.00  0.00     0.116 C 
ENDROOT
BRANCH   1   2
ATOM      2  N   UNL A   1      30.820  25.431  26.472  1.00  0.00    -0.356 N 
ATOM      3  C   UNL A   1      31.195  24.132  26.321  1.00  0.00     0.220 C 
ATOM      4  O   UNL A   1      31.223  23.406  27.313  1.00  0.00    -0.275 OA
ATOM      5  H   UNL A   1      30.607  25.696  27.396  1.00  0.00     0.163 HD
BRANCH   3   6
ATOM      6  C   UNL A   1      31.593  23.606  24.961  1.00  0.00     0.117 C 
BRANCH   6   7
ATOM      7  C   UNL A   1      33.072  23.224  24.849  1.00  0.00     0.134 C 
BRANCH   7   8
ATOM      8  C   UNL A   1      33.252  21.721  24.700  1.00  0.00    -0.035 A 
ATOM      9  C   UNL A   1      33.710  18.972  24.306  1.00  0.00    -0.048 A 
ATOM     10  C   UNL A   1      32.525  19.567  23.858  1.00  0.00     0.004 A 
ATOM     11  C   UNL A   1      34.645  19.751  24.996  1.00  0.00     0.004 A 
ATOM     12  C   UNL A   1      32.302  20.929  24.044  1.00  0.00     0.004 A 
ATOM     13  C   UNL A   1      34.418  21.113  25.189  1.00  0.00     0.004 A 
BRANCH   9  14
ATOM     14  C   UNL A   1      34.013  17.534  23.964  1.00  0.00     0.038 C 
BRANCH  14  15
ATOM     15  C   UNL A   1      34.009  16.627  25.213  1.00  0.00    -0.013 C 
ATOM     16  C   UNL A   1      32.907  15.564  25.153  1.00  0.00     0.008 C 
ATOM     17  C   UNL A   1      35.371  15.953  25.376  1.00  0.00     0.008 C 
ENDBRANCH  14  15
ENDBRANCH   9  14
ENDBRANCH   7   8
BRANCH   7  18
ATOM     18  C   UNL A   1      33.806  24.007  23.760  1.00  0.00     0.396 C 
ATOM     19  F   UNL A   1      32.976  24.887  23.154  1.00  0.00    -0.170 F 
ATOM     20  F   UNL A   1      34.816  24.743  24.285  1.00  0.00    -0.170 F 
ATOM     21  F   UNL A   1      34.326  23.205  22.810  1.00  0.00    -0.170 F 
ENDBRANCH   7  18
ENDBRANCH   6   7
ENDBRANCH   3   6
ENDBRANCH   1   2
BRANCH   1  22
ATOM     22  C   UNL A   1      31.514  27.718  25.855  1.00  0.00     0.023 C 
BRANCH  22  23
ATOM     23  C   UNL A   1      32.987  27.648  25.454  1.00  0.00     0.023 C 
BRANCH  23  24
ATOM     24  C   UNL A   1      33.649  28.995  25.210  1.00  0.00     0.116 C 
BRANCH  24  25
ATOM     25  N   UNL A   1      32.937  30.100  25.835  1.00  0.00    -0.352 N 
ATOM     26  C   UNL A   1      33.334  30.859  26.911  1.00  0.00     0.251 C 
ATOM     27  H   UNL A   1      32.066  30.332  25.441  1.00  0.00     0.163 HD
ATOM     28  O   UNL A   1      32.584  31.693  27.406  1.00  0.00    -0.269 OA
BRANCH  26  29
ATOM     29  C   UNL A   1      34.671  30.620  27.487  1.00  0.00     0.039 A 
ATOM     30  C   UNL A   1      35.552  31.694  27.626  1.00  0.00     0.014 A 
ATOM     31  C   UNL A   1      35.011  29.348  27.958  1.00  0.00     0.014 A 
ATOM     32  C   UNL A   1      36.754  31.510  28.313  1.00  0.00     0.010 A 
ATOM     33  C   UNL A   1      36.175  29.184  28.696  1.00  0.00     0.010 A 
ATOM     34  C   UNL A   1      37.053  30.265  28.887  1.00  0.00    -0.014 A 
BRANCH  34  35
ATOM     35  C   UNL A   1      38.277  30.045  29.694  1.00  0.00     0.031 A 
ATOM     36  C   UNL A   1      39.338  29.116  29.181  1.00  0.00     0.074 A 
ATOM     37  C   UNL A   1      38.379  30.584  30.924  1.00  0.00     0.049 A 
ATOM     38  N   UNL A   1      40.385  28.631  29.798  1.00  0.00    -0.248 NA
ATOM     39  C   UNL A   1      39.180  28.642  27.797  1.00  0.00     0.031 C 
ATOM     40  C   UNL A   1      37.399  31.478  31.542  1.00  0.00     0.029 A 
ATOM     41  N   UNL A   1      39.345  30.433  31.887  1.00  0.00    -0.354 N 
ATOM     42  C   UNL A   1      40.988  27.771  28.891  1.00  0.00     0.074 A 
ATOM     43  C   UNL A   1      40.174  27.773  27.695  1.00  0.00     0.031 C 
ATOM     44  C   UNL A   1      37.815  31.799  32.777  1.00  0.00     0.029 A 
ATOM     45  C   UNL A   1      39.065  31.099  33.056  1.00  0.00     0.049 A 
ATOM     46  H   UNL A   1      40.161  29.899  31.753  1.00  0.00     0.167 HD
ATOM     47  C   UNL A   1      42.128  27.056  29.041  1.00  0.00     0.037 A 
ATOM     48  C   UNL A   1      39.732  31.120  34.226  1.00  0.00     0.037 A 
ATOM     49  C   UNL A   1      42.953  27.090  30.218  1.00  0.00     0.049 A 
ATOM     50  C   UNL A   1      40.997  30.319  34.366  1.00  0.00     0.074 A 
ATOM     51  C   UNL A   1      44.156  26.447  30.446  1.00  0.00     0.029 A 
ATOM     52  N   UNL A   1      42.659  27.814  31.364  1.00  0.00    -0.354 N 
ATOM     53  N   UNL A   1      41.585  29.543  33.487  1.00  0.00    -0.248 NA
ATOM     54  C   UNL A   1      41.695  30.396  35.657  1.00  0.00     0.031 C 
ATOM     55  C   UNL A   1      44.576  26.758  31.744  1.00  0.00     0.029 A 
ATOM     56  C   UNL A   1      43.653  27.625  32.308  1.00  0.00     0.049 A 
ATOM     57  H   UNL A   1      41.861  28.378  31.488  1.00  0.00     0.167 HD
ATOM     58  C   UNL A   1      42.733  29.067  34.105  1.00  0.00     0.074 A 
ATOM     59  C   UNL A   1      42.762  29.641  35.434  1.00  0.00     0.031 C 
ATOM     60  C   UNL A   1      43.678  28.231  33.614  1.00  0.00     0.037 A 
BRANCH  47  61
ATOM     61  C   UNL A   1      42.548  26.175  27.903  1.00  0.00     0.064 A 
ATOM     62  C   UNL A   1      42.070  24.863  27.775  1.00  0.00     0.173 A 
ATOM     63  C   UNL A   1      43.413  26.660  26.911  1.00  0.00     0.173 A 
ATOM     64  F   UNL A   1      41.252  24.349  28.705  1.00  0.00    -0.203 F 
ATOM     65  C   UNL A   1      42.465  24.058  26.709  1.00  0.00     0.198 A 
ATOM     66  C   UNL A   1      43.784  25.862  25.832  1.00  0.00     0.198 A 
ATOM     67  F   UNL A   1      43.895  27.910  26.985  1.00  0.00    -0.203 F 
ATOM     68  F   UNL A   1      42.033  22.792  26.633  1.00  0.00    -0.200 F 
ATOM     69  C   UNL A   1      43.315  24.560  25.736  1.00  0.00     0.200 A 
ATOM     70  F   UNL A   1      44.597  26.351  24.886  1.00  0.00    -0.200 F 
ATOM     71  F   UNL A   1      43.690  23.786  24.708  1.00  0.00    -0.200 F 
ENDBRANCH  47  61
BRANCH  48  72
ATOM     72  C   UNL A   1      39.223  31.942  35.354  1.00  0.00     0.064 A 
ATOM     73  C   UNL A   1      38.408  31.372  36.343  1.00  0.00     0.173 A 
ATOM     74  C   UNL A   1      39.537  33.303  35.470  1.00  0.00     0.173 A 
ATOM     75  F   UNL A   1      38.064  30.079  36.262  1.00  0.00    -0.203 F 
ATOM     76  C   UNL A   1      37.915  32.138  37.397  1.00  0.00     0.198 A 
ATOM     77  C   UNL A   1      39.064  34.062  36.538  1.00  0.00     0.198 A 
ATOM     78  F   UNL A   1      40.317  33.893  34.552  1.00  0.00    -0.203 F 
ATOM     79  F   UNL A   1      37.107  31.578  38.307  1.00  0.00    -0.200 F 
ATOM     80  C   UNL A   1      38.246  33.481  37.497  1.00  0.00     0.200 A 
ATOM     81  F   UNL A   1      39.396  35.356  36.638  1.00  0.00    -0.200 F 
ATOM     82  F   UNL A   1      37.775  34.216  38.513  1.00  0.00    -0.200 F 
ENDBRANCH  48  72
BRANCH  60  83
ATOM     83  C   UNL A   1      44.857  27.927  34.487  1.00  0.00     0.064 A 
ATOM     84  C   UNL A   1      45.988  28.754  34.511  1.00  0.00     0.173 A 
ATOM     85  C   UNL A   1      44.816  26.838  35.371  1.00  0.00     0.173 A 
ATOM     86  F   UNL A   1      46.077  29.799  33.673  1.00  0.00    -0.203 F 
ATOM     87  C   UNL A   1      47.041  28.498  35.385  1.00  0.00     0.198 A 
ATOM     88  C   UNL A   1      45.859  26.598  36.259  1.00  0.00     0.198 A 
ATOM     89  F   UNL A   1      43.751  26.022  35.389  1.00  0.00    -0.203 F 
ATOM     90  F   UNL A   1      48.124  29.287  35.375  1.00  0.00    -0.200 F 
ATOM     91  C   UNL A   1      46.971  27.427  36.265  1.00  0.00     0.200 A 
ATOM     92  F   UNL A   1      45.785  25.571  37.117  1.00  0.00    -0.200 F 
ATOM     93  F   UNL A   1      47.978  27.193  37.117  1.00  0.00    -0.200 F 
ENDBRANCH  60  83
ENDBRANCH  34  35
ENDBRANCH  26  29
ENDBRANCH  24  25
ENDBRANCH  23  24
ENDBRANCH  22  23
ENDBRANCH   1  22
TORSDOF 16
ENDMDL
MODEL 3
REMARK VINA RESULT:     -10.2      6.599     11.245
REMARK SMILES CC(C)Cc1ccc([C@H](CC(=O)NCCCCNC(=O)c2ccc(-c3c4nc(c(-c5c(F)c(F)c(F)c(F)c5F)c5ccc([nH]5)c(-c5c(F)c(F)c(F)c(F)c5F)c5nc(c(-c6c(F)c(F)c(F)c(F)c6F)c6ccc3[nH]6)C=C5)C=C4)cc2)C(F)(F)F)cc1
REMARK SMILES IDX 14 1 13 2 11 3 12 4 10 6 9 7 8 8 5 9 6 10 89 11 7 12 88 13
REMARK SMILES IDX 4 14 2 15 1 16 3 17 84 18 85 19 86 20 87 21 15 22 16 23
REMARK SMILES IDX 17 24 18 25 19 26 20 28 21 29 22 30 83 31 23 32 82 33 24 34
REMARK SMILES IDX 25 35 26 36 76 37 27 38 81 39 75 40 77 41 28 42 80 43 74 44
REMARK SMILES IDX 73 45 29 47 61 48 41 49 60 50 42 51 45 52 59 53 78 54 43 55
REMARK SMILES IDX 44 56 58 58 79 59 46 60 30 61 31 62 39 63 32 64 33 65 37 66
REMARK SMILES IDX 40 67 34 68 35 69 38 70 36 71 62 72 63 73 71 74 64 75 65 76
REMARK SMILES IDX 69 77 72 78 66 79 67 80 70 81 68 82 47 83 48 84 56 85 49 86
REMARK SMILES IDX 50 87 54 88 57 89 51 90 52 91 55 92 53 93
REMARK H PARENT 13 5 18 27 77 46 45 57
REMARK Flexibility Score: inf
ROOT
ATOM      1  C   UNL A   1      36.628  22.670  25.217  1.00  0.00     0.116 C 
ENDROOT
BRANCH   1   2
ATOM      2  N   UNL A   1      35.999  23.047  23.966  1.00  0.00    -0.356 N 
ATOM      3  C   UNL A   1      34.707  23.377  23.701  1.00  0.00     0.220 C 
ATOM      4  O   UNL A   1      34.394  23.652  22.543  1.00  0.00    -0.275 OA
ATOM      5  H   UNL A   1      36.601  23.067  23.188  1.00  0.00     0.163 HD
BRANCH   3   6
ATOM      6  C   UNL A   1      33.688  23.431  24.814  1.00  0.00     0.117 C 
BRANCH   6   7
ATOM      7  C   UNL A   1      32.367  22.726  24.487  1.00  0.00     0.134 C 
BRANCH   7   8
ATOM      8  C   UNL A   1      32.556  21.223  24.347  1.00  0.00    -0.035 A 
ATOM      9  C   UNL A   1      33.078  18.471  24.072  1.00  0.00    -0.048 A 
ATOM     10  C   UNL A   1      32.415  19.173  23.060  1.00  0.00     0.004 A 
ATOM     11  C   UNL A   1      33.437  19.143  25.245  1.00  0.00     0.004 A 
ATOM     12  C   UNL A   1      32.165  20.538  23.191  1.00  0.00     0.004 A 
ATOM     13  C   UNL A   1      33.179  20.506  25.381  1.00  0.00     0.004 A 
BRANCH   9  14
ATOM     14  C   UNL A   1      33.483  17.034  23.857  1.00  0.00     0.038 C 
BRANCH  14  15
ATOM     15  C   UNL A   1      33.709  16.288  25.189  1.00  0.00    -0.013 C 
ATOM     16  C   UNL A   1      32.777  15.081  25.343  1.00  0.00     0.008 C 
ATOM     17  C   UNL A   1      35.165  15.836  25.297  1.00  0.00     0.008 C 
ENDBRANCH  14  15
ENDBRANCH   9  14
ENDBRANCH   7   8
BRANCH   7  18
ATOM     18  C   UNL A   1      31.247  23.082  25.464  1.00  0.00     0.396 C 
ATOM     19  F   UNL A   1      30.515  21.989  25.780  1.00  0.00    -0.170 F 
ATOM     20  F   UNL A   1      31.750  23.549  26.633  1.00  0.00    -0.170 F 
ATOM     21  F   UNL A   1      30.409  24.015  24.970  1.00  0.00    -0.170 F 
ENDBRANCH   7  18
ENDBRANCH   6   7
ENDBRANCH   3   6
ENDBRANCH   1   2
BRANCH   1  22
ATOM     22  C   UNL A   1      36.755  21.151  25.356  1.00  0.00     0.023 C 
BRANCH  22  23
ATOM     23  C   UNL A   1      38.101  20.574  24.919  1.00  0.00     0.023 C 
BRANCH  23  24
ATOM     24  C   UNL A   1      39.169  20.553  26.000  1.00  0.00     0.116 C 
BRANCH  24  25
ATOM     25  N   UNL A   1      40.039  19.388  25.919  1.00  0.00    -0.352 N 
ATOM     26  C   UNL A   1      41.407  19.345  26.043  1.00  0.00     0.251 C 
ATOM     27  H   UNL A   1      39.593  18.527  25.753  1.00  0.00     0.163 HD
ATOM     28  O   UNL A   1      42.027  18.307  25.843  1.00  0.00    -0.269 OA
BRANCH  26  29
ATOM     29  C   UNL A   1      42.123  20.589  26.384  1.00  0.00     0.039 A 
ATOM     30  C   UNL A   1      42.538  21.437  25.356  1.00  0.00     0.014 A 
ATOM     31  C   UNL A   1      42.309  20.943  27.724  1.00  0.00     0.014 A 
ATOM     32  C   UNL A   1      43.073  22.688  25.672  1.00  0.00     0.010 A 
ATOM     33  C   UNL A   1      42.780  22.211  28.035  1.00  0.00     0.010 A 
ATOM     34  C   UNL A   1      43.159  23.097  27.012  1.00  0.00    -0.014 A 
BRANCH  34  35
ATOM     35  C   UNL A   1      43.644  24.446  27.391  1.00  0.00     0.031 A 
ATOM     36  C   UNL A   1      42.670  25.454  27.927  1.00  0.00     0.074 A 
ATOM     37  C   UNL A   1      44.922  24.795  27.147  1.00  0.00     0.049 A 
ATOM     38  N   UNL A   1      42.833  26.736  28.135  1.00  0.00    -0.248 NA
ATOM     39  C   UNL A   1      41.320  24.959  28.237  1.00  0.00     0.031 C 
ATOM     40  C   UNL A   1      45.953  23.911  26.602  1.00  0.00     0.029 A 
ATOM     41  N   UNL A   1      45.563  25.998  27.301  1.00  0.00    -0.354 N 
ATOM     42  C   UNL A   1      41.600  27.203  28.567  1.00  0.00     0.074 A 
ATOM     43  C   UNL A   1      40.690  26.078  28.558  1.00  0.00     0.031 C 
ATOM     44  C   UNL A   1      47.098  24.601  26.470  1.00  0.00     0.029 A 
ATOM     45  C   UNL A   1      46.870  25.984  26.877  1.00  0.00     0.049 A 
ATOM     46  H   UNL A   1      45.128  26.797  27.679  1.00  0.00     0.167 HD
ATOM     47  C   UNL A   1      41.263  28.458  28.948  1.00  0.00     0.037 A 
ATOM     48  C   UNL A   1      47.772  26.981  26.804  1.00  0.00     0.037 A 
ATOM     49  C   UNL A   1      42.183  29.562  28.992  1.00  0.00     0.049 A 
ATOM     50  C   UNL A   1      47.374  28.365  27.237  1.00  0.00     0.074 A 
ATOM     51  C   UNL A   1      41.956  30.858  29.419  1.00  0.00     0.029 A 
ATOM     52  N   UNL A   1      43.512  29.495  28.599  1.00  0.00    -0.354 N 
ATOM     53  N   UNL A   1      46.218  28.790  27.686  1.00  0.00    -0.248 NA
ATOM     54  C   UNL A   1      48.404  29.410  27.157  1.00  0.00     0.031 C 
ATOM     55  C   UNL A   1      43.139  31.585  29.254  1.00  0.00     0.029 A 
ATOM     56  C   UNL A   1      44.114  30.731  28.762  1.00  0.00     0.049 A 
ATOM     57  H   UNL A   1      43.960  28.689  28.253  1.00  0.00     0.167 HD
ATOM     58  C   UNL A   1      46.389  30.138  27.971  1.00  0.00     0.074 A 
ATOM     59  C   UNL A   1      47.762  30.463  27.646  1.00  0.00     0.031 C 
ATOM     60  C   UNL A   1      45.491  31.024  28.460  1.00  0.00     0.037 A 
BRANCH  47  61
ATOM     61  C   UNL A   1      39.839  28.702  29.349  1.00  0.00     0.064 A 
ATOM     62  C   UNL A   1      39.408  28.522  30.671  1.00  0.00     0.173 A 
ATOM     63  C   UNL A   1      38.903  29.150  28.406  1.00  0.00     0.173 A 
ATOM     64  F   UNL A   1      40.262  28.080  31.606  1.00  0.00    -0.203 F 
ATOM     65  C   UNL A   1      38.083  28.757  31.030  1.00  0.00     0.198 A 
ATOM     66  C   UNL A   1      37.586  29.412  28.774  1.00  0.00     0.198 A 
ATOM     67  F   UNL A   1      39.267  29.342  27.129  1.00  0.00    -0.203 F 
ATOM     68  F   UNL A   1      37.682  28.533  32.288  1.00  0.00    -0.200 F 
ATOM     69  C   UNL A   1      37.176  29.208  30.083  1.00  0.00     0.200 A 
ATOM     70  F   UNL A   1      36.712  29.858  27.861  1.00  0.00    -0.200 F 
ATOM     71  F   UNL A   1      35.902  29.440  30.431  1.00  0.00    -0.200 F 
ENDBRANCH  47  61
BRANCH  48  72
ATOM     72  C   UNL A   1      49.147  26.703  26.314  1.00  0.00     0.064 A 
ATOM     73  C   UNL A   1      49.493  26.946  24.978  1.00  0.00     0.173 A 
ATOM     74  C   UNL A   1      50.138  26.193  27.164  1.00  0.00     0.173 A 
ATOM     75  F   UNL A   1      48.572  27.414  24.123  1.00  0.00    -0.203 F 
ATOM     76  C   UNL A   1      50.776  26.675  24.506  1.00  0.00     0.198 A 
ATOM     77  C   UNL A   1      51.428  25.946  26.698  1.00  0.00     0.198 A 
ATOM     78  F   UNL A   1      49.858  25.948  28.453  1.00  0.00    -0.203 F 
ATOM     79  F   UNL A   1      51.069  26.880  23.215  1.00  0.00    -0.200 F 
ATOM     80  C   UNL A   1      51.744  26.179  25.367  1.00  0.00     0.200 A 
ATOM     81  F   UNL A   1      52.364  25.479  27.534  1.00  0.00    -0.200 F 
ATOM     82  F   UNL A   1      52.978  25.923  24.914  1.00  0.00    -0.200 F 
ENDBRANCH  48  72
BRANCH  60  83
ATOM     83  C   UNL A   1      45.968  32.418  28.732  1.00  0.00     0.064 A 
ATOM     84  C   UNL A   1      45.849  33.436  27.777  1.00  0.00     0.173 A 
ATOM     85  C   UNL A   1      46.477  32.754  29.996  1.00  0.00     0.173 A 
ATOM     86  F   UNL A   1      45.381  33.159  26.550  1.00  0.00    -0.203 F 
ATOM     87  C   UNL A   1      46.228  34.742  28.075  1.00  0.00     0.198 A 
ATOM     88  C   UNL A   1      46.834  34.064  30.299  1.00  0.00     0.198 A 
ATOM     89  F   UNL A   1      46.604  31.814  30.945  1.00  0.00    -0.203 F 
ATOM     90  F   UNL A   1      46.128  35.697  27.140  1.00  0.00    -0.200 F 
ATOM     91  C   UNL A   1      46.710  35.057  29.338  1.00  0.00     0.200 A 
ATOM     92  F   UNL A   1      47.287  34.369  31.522  1.00  0.00    -0.200 F 
ATOM     93  F   UNL A   1      47.058  36.318  29.628  1.00  0.00    -0.200 F 
ENDBRANCH  60  83
ENDBRANCH  34  35
ENDBRANCH  26  29
ENDBRANCH  24  25
ENDBRANCH  23  24
ENDBRANCH  22  23
ENDBRANCH   1  22
TORSDOF 16
ENDMDL
