MODEL 1
REMARK VINA RESULT:     -13.1      0.000      0.000
REMARK SMILES Cc1ccc([C@H](CC2CCCC2)C(=O)NCCCCNC(=O)c2ccc(-c3c4nc(c(-c5c(F)c(F)c(F)c(F)c5F)c5ccc([nH]5)c(-c5c(F)c(F)c(F)c(F)c5F)c5nc(c(-c6c(F)c(F)c(F)c(F)c6F)c6ccc3[nH]6)C=C5)C=C4)cc2)cc1
REMARK SMILES IDX 17 1 16 2 15 3 13 4 14 5 6 7 5 8 1 9 2 10 3 11 87 12 4 13
REMARK SMILES IDX 86 14 7 15 8 16 9 17 12 18 10 19 11 20 18 21 19 22 20 23
REMARK SMILES IDX 21 24 22 26 23 27 24 28 85 29 25 30 84 31 26 32 27 33 28 34
REMARK SMILES IDX 78 35 29 36 83 37 77 38 79 39 30 40 82 41 76 42 75 43 31 45
REMARK SMILES IDX 63 46 43 47 62 48 44 49 47 50 61 51 80 52 45 53 46 54 60 56
REMARK SMILES IDX 81 57 48 58 32 59 33 60 41 61 34 62 35 63 39 64 42 65 36 66
REMARK SMILES IDX 37 67 40 68 38 69 64 70 65 71 73 72 66 73 67 74 71 75 74 76
REMARK SMILES IDX 68 77 69 78 72 79 70 80 49 81 50 82 58 83 51 84 52 85 56 86
REMARK SMILES IDX 59 87 53 88 54 89 57 90 55 91
REMARK H PARENT 15 6 20 25 79 44 47 55
REMARK Flexibility Score: inf
ROOT
ATOM      1  C   UNL A   1      32.225  28.248  27.285  1.00  0.00     0.023 C 
ENDROOT
BRANCH   1   2
ATOM      2  C   UNL A   1      31.297  27.512  26.314  1.00  0.00     0.116 C 
BRANCH   2   3
ATOM      3  N   UNL A   1      31.041  26.135  26.707  1.00  0.00    -0.356 N 
ATOM      4  C   UNL A   1      31.836  25.028  26.672  1.00  0.00     0.227 C 
ATOM      5  O   UNL A   1      31.393  24.018  27.232  1.00  0.00    -0.274 OA
ATOM      6  H   UNL A   1      30.136  25.974  27.059  1.00  0.00     0.163 HD
BRANCH   4   7
ATOM      7  C   UNL A   1      33.200  24.991  25.973  1.00  0.00     0.109 C 
BRANCH   7   8
ATOM      8  C   UNL A   1      33.172  25.132  24.444  1.00  0.00    -0.036 A 
ATOM      9  C   UNL A   1      32.500  25.615  20.193  1.00  0.00     0.044 C 
ATOM     10  C   UNL A   1      32.772  25.423  21.655  1.00  0.00    -0.051 A 
ATOM     11  C   UNL A   1      32.287  24.298  22.323  1.00  0.00     0.004 A 
ATOM     12  C   UNL A   1      33.552  26.340  22.363  1.00  0.00     0.004 A 
ATOM     13  C   UNL A   1      32.485  24.155  23.697  1.00  0.00     0.005 A 
ATOM     14  C   UNL A   1      33.763  26.186  23.738  1.00  0.00     0.005 A 
ENDBRANCH   7   8
BRANCH   7  15
ATOM     15  C   UNL A   1      34.083  23.797  26.419  1.00  0.00     0.022 C 
BRANCH  15  16
ATOM     16  C   UNL A   1      35.257  23.473  25.487  1.00  0.00    -0.010 C 
ATOM     17  C   UNL A   1      36.643  23.722  26.074  1.00  0.00     0.003 C 
ATOM     18  C   UNL A   1      35.310  21.971  25.185  1.00  0.00     0.003 C 
ATOM     19  C   UNL A   1      37.573  22.873  25.209  1.00  0.00     0.000 C 
ATOM     20  C   UNL A   1      36.721  21.727  24.668  1.00  0.00     0.000 C 
ENDBRANCH  15  16
ENDBRANCH   7  15
ENDBRANCH   4   7
ENDBRANCH   2   3
ENDBRANCH   1   2
BRANCH   1  21
ATOM     21  C   UNL A   1      32.130  29.776  27.256  1.00  0.00     0.023 C 
BRANCH  21  22
ATOM     22  C   UNL A   1      33.404  30.481  26.809  1.00  0.00     0.116 C 
BRANCH  22  23
ATOM     23  N   UNL A   1      33.897  31.503  27.718  1.00  0.00    -0.352 N 
ATOM     24  C   UNL A   1      34.926  31.456  28.647  1.00  0.00     0.251 C 
ATOM     25  H   UNL A   1      33.427  32.367  27.664  1.00  0.00     0.163 HD
ATOM     26  O   UNL A   1      35.083  32.398  29.409  1.00  0.00    -0.269 OA
BRANCH  24  27
ATOM     27  C   UNL A   1      35.922  30.346  28.634  1.00  0.00     0.039 A 
ATOM     28  C   UNL A   1      36.219  29.705  29.848  1.00  0.00     0.014 A 
ATOM     29  C   UNL A   1      36.678  30.047  27.508  1.00  0.00     0.014 A 
ATOM     30  C   UNL A   1      37.406  28.980  29.980  1.00  0.00     0.010 A 
ATOM     31  C   UNL A   1      37.908  29.444  27.664  1.00  0.00     0.010 A 
ATOM     32  C   UNL A   1      38.301  28.961  28.914  1.00  0.00    -0.014 A 
BRANCH  32  33
ATOM     33  C   UNL A   1      39.701  28.569  29.011  1.00  0.00     0.031 A 
ATOM     34  C   UNL A   1      40.141  27.216  28.609  1.00  0.00     0.074 A 
ATOM     35  C   UNL A   1      40.622  29.528  29.256  1.00  0.00     0.049 A 
ATOM     36  N   UNL A   1      41.294  26.715  28.902  1.00  0.00    -0.248 NA
ATOM     37  C   UNL A   1      39.300  26.306  27.840  1.00  0.00     0.031 C 
ATOM     38  C   UNL A   1      42.062  29.462  29.012  1.00  0.00     0.029 A 
ATOM     39  N   UNL A   1      40.448  30.732  29.959  1.00  0.00    -0.354 N 
ATOM     40  C   UNL A   1      41.457  25.570  28.160  1.00  0.00     0.074 A 
ATOM     41  C   UNL A   1      40.170  25.334  27.546  1.00  0.00     0.031 C 
ATOM     42  C   UNL A   1      42.674  30.370  29.785  1.00  0.00     0.029 A 
ATOM     43  C   UNL A   1      41.663  30.935  30.661  1.00  0.00     0.049 A 
ATOM     44  H   UNL A   1      39.652  31.311  29.964  1.00  0.00     0.167 HD
ATOM     45  C   UNL A   1      42.697  25.010  28.056  1.00  0.00     0.037 A 
ATOM     46  C   UNL A   1      41.690  30.884  32.026  1.00  0.00     0.037 A 
ATOM     47  C   UNL A   1      43.683  25.732  28.854  1.00  0.00     0.049 A 
ATOM     48  C   UNL A   1      42.547  29.776  32.607  1.00  0.00     0.074 A 
ATOM     49  C   UNL A   1      44.644  26.690  28.576  1.00  0.00     0.029 A 
ATOM     50  N   UNL A   1      43.556  25.712  30.230  1.00  0.00    -0.354 N 
ATOM     51  N   UNL A   1      43.156  28.869  31.897  1.00  0.00    -0.248 NA
ATOM     52  C   UNL A   1      42.698  29.547  34.046  1.00  0.00     0.031 C 
ATOM     53  C   UNL A   1      45.081  27.254  29.808  1.00  0.00     0.029 A 
ATOM     54  C   UNL A   1      44.385  26.636  30.830  1.00  0.00     0.049 A 
ATOM     55  H   UNL A   1      42.949  25.111  30.721  1.00  0.00     0.167 HD
ATOM     56  C   UNL A   1      43.699  27.930  32.730  1.00  0.00     0.074 A 
ATOM     57  C   UNL A   1      43.399  28.401  34.068  1.00  0.00     0.031 C 
ATOM     58  C   UNL A   1      44.317  26.807  32.269  1.00  0.00     0.037 A 
BRANCH  45  59
ATOM     59  C   UNL A   1      43.056  23.933  27.065  1.00  0.00     0.064 A 
ATOM     60  C   UNL A   1      42.651  22.596  27.270  1.00  0.00     0.173 A 
ATOM     61  C   UNL A   1      43.822  24.146  25.905  1.00  0.00     0.173 A 
ATOM     62  F   UNL A   1      41.834  22.259  28.276  1.00  0.00    -0.203 F 
ATOM     63  C   UNL A   1      43.076  21.549  26.450  1.00  0.00     0.198 A 
ATOM     64  C   UNL A   1      44.298  23.093  25.118  1.00  0.00     0.198 A 
ATOM     65  F   UNL A   1      44.090  25.384  25.468  1.00  0.00    -0.203 F 
ATOM     66  F   UNL A   1      42.657  20.300  26.697  1.00  0.00    -0.200 F 
ATOM     67  C   UNL A   1      43.933  21.792  25.397  1.00  0.00     0.200 A 
ATOM     68  F   UNL A   1      45.113  23.350  24.084  1.00  0.00    -0.200 F 
ATOM     69  F   UNL A   1      44.383  20.781  24.642  1.00  0.00    -0.200 F 
ENDBRANCH  45  59
BRANCH  46  70
ATOM     70  C   UNL A   1      40.429  31.392  32.629  1.00  0.00     0.064 A 
ATOM     71  C   UNL A   1      40.193  32.781  32.603  1.00  0.00     0.173 A 
ATOM     72  C   UNL A   1      39.330  30.549  32.829  1.00  0.00     0.173 A 
ATOM     73  F   UNL A   1      41.215  33.630  32.408  1.00  0.00    -0.203 F 
ATOM     74  C   UNL A   1      38.899  33.293  32.637  1.00  0.00     0.198 A 
ATOM     75  C   UNL A   1      38.037  31.070  32.884  1.00  0.00     0.198 A 
ATOM     76  F   UNL A   1      39.488  29.218  32.844  1.00  0.00    -0.203 F 
ATOM     77  F   UNL A   1      38.697  34.609  32.477  1.00  0.00    -0.200 F 
ATOM     78  C   UNL A   1      37.819  32.434  32.747  1.00  0.00     0.200 A 
ATOM     79  F   UNL A   1      36.989  30.237  32.965  1.00  0.00    -0.200 F 
ATOM     80  F   UNL A   1      36.570  32.913  32.678  1.00  0.00    -0.200 F 
ENDBRANCH  46  70
BRANCH  58  81
ATOM     81  C   UNL A   1      44.920  25.769  33.163  1.00  0.00     0.064 A 
ATOM     82  C   UNL A   1      46.295  25.501  33.163  1.00  0.00     0.173 A 
ATOM     83  C   UNL A   1      44.110  24.918  33.942  1.00  0.00     0.173 A 
ATOM     84  F   UNL A   1      47.136  26.242  32.426  1.00  0.00    -0.203 F 
ATOM     85  C   UNL A   1      46.831  24.450  33.910  1.00  0.00     0.198 A 
ATOM     86  C   UNL A   1      44.640  23.840  34.645  1.00  0.00     0.198 A 
ATOM     87  F   UNL A   1      42.789  25.124  34.053  1.00  0.00    -0.203 F 
ATOM     88  F   UNL A   1      48.155  24.247  33.917  1.00  0.00    -0.200 F 
ATOM     89  C   UNL A   1      46.002  23.610  34.635  1.00  0.00     0.200 A 
ATOM     90  F   UNL A   1      43.823  23.026  35.330  1.00  0.00    -0.200 F 
ATOM     91  F   UNL A   1      46.515  22.584  35.327  1.00  0.00    -0.200 F 
ENDBRANCH  58  81
ENDBRANCH  32  33
ENDBRANCH  24  27
ENDBRANCH  22  23
ENDBRANCH  21  22
ENDBRANCH   1  21
TORSDOF 14
ENDMDL
MODEL 2
REMARK VINA RESULT:     -13.0      1.619      2.291
REMARK SMILES Cc1ccc([C@H](CC2CCCC2)C(=O)NCCCCNC(=O)c2ccc(-c3c4nc(c(-c5c(F)c(F)c(F)c(F)c5F)c5ccc([nH]5)c(-c5c(F)c(F)c(F)c(F)c5F)c5nc(c(-c6c(F)c(F)c(F)c(F)c6F)c6ccc3[nH]6)C=C5)C=C4)cc2)cc1
REMARK SMILES IDX 17 1 16 2 15 3 13 4 14 5 6 7 5 8 1 9 2 10 3 11 87 12 4 13
REMARK SMILES IDX 86 14 7 15 8 16 9 17 12 18 10 19 11 20 18 21 19 22 20 23
REMARK SMILES IDX 21 24 22 26 23 27 24 28 85 29 25 30 84 31 26 32 27 33 28 34
REMARK SMILES IDX 78 35 29 36 83 37 77 38 79 39 30 40 82 41 76 42 75 43 31 45
REMARK SMILES IDX 63 46 43 47 62 48 44 49 47 50 61 51 80 52 45 53 46 54 60 56
REMARK SMILES IDX 81 57 48 58 32 59 33 60 41 61 34 62 35 63 39 64 42 65 36 66
REMARK SMILES IDX 37 67 40 68 38 69 64 70 65 71 73 72 66 73 67 74 71 75 74 76
REMARK SMILES IDX 68 77 69 78 72 79 70 80 49 81 50 82 58 83 51 84 52 85 56 86
REMARK SMILES IDX 59 87 53 88 54 89 57 90 55 91
REMARK H PARENT 15 6 20 25 79 44 47 55
REMARK Flexibility Score: inf
ROOT
ATOM      1  C   UNL A   1      31.702  29.394  26.413  1.00  0.00     0.023 C 
ENDROOT
BRANCH   1   2
ATOM      2  C   UNL A   1      32.274  27.998  26.671  1.00  0.00     0.116 C 
BRANCH   2   3
ATOM      3  N   UNL A   1      31.246  26.988  26.864  1.00  0.00    -0.356 N 
ATOM      4  C   UNL A   1      30.731  26.055  26.014  1.00  0.00     0.227 C 
ATOM      5  O   UNL A   1      29.974  25.215  26.516  1.00  0.00    -0.274 OA
ATOM      6  H   UNL A   1      30.853  26.976  27.767  1.00  0.00     0.163 HD
BRANCH   4   7
ATOM      7  C   UNL A   1      31.035  26.025  24.512  1.00  0.00     0.109 C 
BRANCH   7   8
ATOM      8  C   UNL A   1      30.404  27.150  23.680  1.00  0.00    -0.036 A 
ATOM      9  C   UNL A   1      28.417  30.538  21.854  1.00  0.00     0.044 C 
ATOM     10  C   UNL A   1      29.101  29.342  22.445  1.00  0.00    -0.051 A 
ATOM     11  C   UNL A   1      28.356  28.308  23.012  1.00  0.00     0.004 A 
ATOM     12  C   UNL A   1      30.492  29.220  22.397  1.00  0.00     0.004 A 
ATOM     13  C   UNL A   1      28.999  27.228  23.619  1.00  0.00     0.005 A 
ATOM     14  C   UNL A   1      31.133  28.127  22.993  1.00  0.00     0.005 A 
ENDBRANCH   7   8
BRANCH   7  15
ATOM     15  C   UNL A   1      30.793  24.636  23.867  1.00  0.00     0.022 C 
BRANCH  15  16
ATOM     16  C   UNL A   1      32.062  23.882  23.451  1.00  0.00    -0.010 C 
ATOM     17  C   UNL A   1      33.271  24.760  23.144  1.00  0.00     0.003 C 
ATOM     18  C   UNL A   1      32.585  23.023  24.608  1.00  0.00     0.003 C 
ATOM     19  C   UNL A   1      34.462  23.813  23.272  1.00  0.00     0.000 C 
ATOM     20  C   UNL A   1      34.031  22.716  24.243  1.00  0.00     0.000 C 
ENDBRANCH  15  16
ENDBRANCH   7  15
ENDBRANCH   4   7
ENDBRANCH   2   3
ENDBRANCH   1   2
BRANCH   1  21
ATOM     21  C   UNL A   1      32.567  30.561  26.895  1.00  0.00     0.023 C 
BRANCH  21  22
ATOM     22  C   UNL A   1      33.896  30.150  27.515  1.00  0.00     0.116 C 
BRANCH  22  23
ATOM     23  N   UNL A   1      34.536  31.164  28.337  1.00  0.00    -0.352 N 
ATOM     24  C   UNL A   1      35.693  31.102  29.099  1.00  0.00     0.251 C 
ATOM     25  H   UNL A   1      34.075  32.035  28.355  1.00  0.00     0.163 HD
ATOM     26  O   UNL A   1      35.978  32.040  29.828  1.00  0.00    -0.269 OA
BRANCH  24  27
ATOM     27  C   UNL A   1      36.660  29.978  28.935  1.00  0.00     0.039 A 
ATOM     28  C   UNL A   1      36.880  29.125  30.029  1.00  0.00     0.014 A 
ATOM     29  C   UNL A   1      37.463  29.854  27.809  1.00  0.00     0.014 A 
ATOM     30  C   UNL A   1      38.039  28.348  30.085  1.00  0.00     0.010 A 
ATOM     31  C   UNL A   1      38.668  29.192  27.911  1.00  0.00     0.010 A 
ATOM     32  C   UNL A   1      38.985  28.485  29.073  1.00  0.00    -0.014 A 
BRANCH  32  33
ATOM     33  C   UNL A   1      40.369  28.035  29.162  1.00  0.00     0.031 A 
ATOM     34  C   UNL A   1      40.780  26.728  28.606  1.00  0.00     0.074 A 
ATOM     35  C   UNL A   1      41.310  28.922  29.554  1.00  0.00     0.049 A 
ATOM     36  N   UNL A   1      41.906  26.154  28.868  1.00  0.00    -0.248 NA
ATOM     37  C   UNL A   1      39.938  25.951  27.704  1.00  0.00     0.031 C 
ATOM     38  C   UNL A   1      42.755  28.837  29.346  1.00  0.00     0.029 A 
ATOM     39  N   UNL A   1      41.149  30.034  30.397  1.00  0.00    -0.354 N 
ATOM     40  C   UNL A   1      42.058  25.106  27.992  1.00  0.00     0.074 A 
ATOM     41  C   UNL A   1      40.786  24.994  27.315  1.00  0.00     0.031 C 
ATOM     42  C   UNL A   1      43.368  29.619  30.246  1.00  0.00     0.029 A 
ATOM     43  C   UNL A   1      42.346  30.105  31.155  1.00  0.00     0.049 A 
ATOM     44  H   UNL A   1      40.372  30.637  30.451  1.00  0.00     0.167 HD
ATOM     45  C   UNL A   1      43.283  24.519  27.856  1.00  0.00     0.037 A 
ATOM     46  C   UNL A   1      42.324  29.883  32.503  1.00  0.00     0.037 A 
ATOM     47  C   UNL A   1      44.263  25.100  28.768  1.00  0.00     0.049 A 
ATOM     48  C   UNL A   1      43.126  28.681  32.965  1.00  0.00     0.074 A 
ATOM     49  C   UNL A   1      45.263  26.052  28.642  1.00  0.00     0.029 A 
ATOM     50  N   UNL A   1      44.089  24.913  30.126  1.00  0.00    -0.354 N 
ATOM     51  N   UNL A   1      43.730  27.849  32.165  1.00  0.00    -0.248 NA
ATOM     52  C   UNL A   1      43.220  28.269  34.368  1.00  0.00     0.031 C 
ATOM     53  C   UNL A   1      45.674  26.441  29.948  1.00  0.00     0.029 A 
ATOM     54  C   UNL A   1      44.925  25.726  30.863  1.00  0.00     0.049 A 
ATOM     55  H   UNL A   1      43.446  24.278  30.518  1.00  0.00     0.167 HD
ATOM     56  C   UNL A   1      44.215  26.795  32.889  1.00  0.00     0.074 A 
ATOM     57  C   UNL A   1      43.885  27.105  34.267  1.00  0.00     0.031 C 
ATOM     58  C   UNL A   1      44.813  25.717  32.309  1.00  0.00     0.037 A 
BRANCH  45  59
ATOM     59  C   UNL A   1      43.642  23.563  26.748  1.00  0.00     0.064 A 
ATOM     60  C   UNL A   1      43.166  22.234  26.757  1.00  0.00     0.173 A 
ATOM     61  C   UNL A   1      44.476  23.885  25.661  1.00  0.00     0.173 A 
ATOM     62  F   UNL A   1      42.284  21.812  27.672  1.00  0.00    -0.203 F 
ATOM     63  C   UNL A   1      43.583  21.281  25.825  1.00  0.00     0.198 A 
ATOM     64  C   UNL A   1      44.942  22.919  24.765  1.00  0.00     0.198 A 
ATOM     65  F   UNL A   1      44.822  25.153  25.405  1.00  0.00    -0.203 F 
ATOM     66  F   UNL A   1      43.095  20.034  25.886  1.00  0.00    -0.200 F 
ATOM     67  C   UNL A   1      44.503  21.613  24.853  1.00  0.00     0.200 A 
ATOM     68  F   UNL A   1      45.819  23.265  23.811  1.00  0.00    -0.200 F 
ATOM     69  F   UNL A   1      44.944  20.687  23.991  1.00  0.00    -0.200 F 
ENDBRANCH  45  59
BRANCH  46  70
ATOM     70  C   UNL A   1      41.060  30.355  33.127  1.00  0.00     0.064 A 
ATOM     71  C   UNL A   1      40.865  31.745  33.261  1.00  0.00     0.173 A 
ATOM     72  C   UNL A   1      39.931  29.530  33.194  1.00  0.00     0.173 A 
ATOM     73  F   UNL A   1      41.916  32.578  33.197  1.00  0.00    -0.203 F 
ATOM     74  C   UNL A   1      39.585  32.290  33.320  1.00  0.00     0.198 A 
ATOM     75  C   UNL A   1      38.653  30.082  33.275  1.00  0.00     0.198 A 
ATOM     76  F   UNL A   1      40.051  28.202  33.054  1.00  0.00    -0.203 F 
ATOM     77  F   UNL A   1      39.426  33.621  33.313  1.00  0.00    -0.200 F 
ATOM     78  C   UNL A   1      38.478  31.459  33.296  1.00  0.00     0.200 A 
ATOM     79  F   UNL A   1      37.579  29.279  33.227  1.00  0.00    -0.200 F 
ATOM     80  F   UNL A   1      37.246  31.982  33.250  1.00  0.00    -0.200 F 
ENDBRANCH  46  70
BRANCH  58  81
ATOM     81  C   UNL A   1      45.352  24.555  33.082  1.00  0.00     0.064 A 
ATOM     82  C   UNL A   1      44.558  23.445  33.401  1.00  0.00     0.173 A 
ATOM     83  C   UNL A   1      46.644  24.591  33.646  1.00  0.00     0.173 A 
ATOM     84  F   UNL A   1      43.305  23.345  32.933  1.00  0.00    -0.203 F 
ATOM     85  C   UNL A   1      45.035  22.423  34.224  1.00  0.00     0.198 A 
ATOM     86  C   UNL A   1      47.098  23.595  34.507  1.00  0.00     0.198 A 
ATOM     87  F   UNL A   1      47.501  25.582  33.358  1.00  0.00    -0.203 F 
ATOM     88  F   UNL A   1      44.262  21.358  34.476  1.00  0.00    -0.200 F 
ATOM     89  C   UNL A   1      46.296  22.508  34.791  1.00  0.00     0.200 A 
ATOM     90  F   UNL A   1      48.315  23.699  35.060  1.00  0.00    -0.200 F 
ATOM     91  F   UNL A   1      46.739  21.541  35.605  1.00  0.00    -0.200 F 
ENDBRANCH  58  81
ENDBRANCH  32  33
ENDBRANCH  24  27
ENDBRANCH  22  23
ENDBRANCH  21  22
ENDBRANCH   1  21
TORSDOF 14
ENDMDL
MODEL 3
REMARK VINA RESULT:     -12.9      3.693      9.647
REMARK SMILES Cc1ccc([C@H](CC2CCCC2)C(=O)NCCCCNC(=O)c2ccc(-c3c4nc(c(-c5c(F)c(F)c(F)c(F)c5F)c5ccc([nH]5)c(-c5c(F)c(F)c(F)c(F)c5F)c5nc(c(-c6c(F)c(F)c(F)c(F)c6F)c6ccc3[nH]6)C=C5)C=C4)cc2)cc1
REMARK SMILES IDX 17 1 16 2 15 3 13 4 14 5 6 7 5 8 1 9 2 10 3 11 87 12 4 13
REMARK SMILES IDX 86 14 7 15 8 16 9 17 12 18 10 19 11 20 18 21 19 22 20 23
REMARK SMILES IDX 21 24 22 26 23 27 24 28 85 29 25 30 84 31 26 32 27 33 28 34
REMARK SMILES IDX 78 35 29 36 83 37 77 38 79 39 30 40 82 41 76 42 75 43 31 45
REMARK SMILES IDX 63 46 43 47 62 48 44 49 47 50 61 51 80 52 45 53 46 54 60 56
REMARK SMILES IDX 81 57 48 58 32 59 33 60 41 61 34 62 35 63 39 64 42 65 36 66
REMARK SMILES IDX 37 67 40 68 38 69 64 70 65 71 73 72 66 73 67 74 71 75 74 76
REMARK SMILES IDX 68 77 69 78 72 79 70 80 49 81 50 82 58 83 51 84 52 85 56 86
REMARK SMILES IDX 59 87 53 88 54 89 57 90 55 91
REMARK H PARENT 15 6 20 25 79 44 47 55
REMARK Flexibility Score: inf
ROOT
ATOM      1  C   UNL A   1      37.601  22.017  24.684  1.00  0.00     0.023 C 
ENDROOT
BRANCH   1   2
ATOM      2  C   UNL A   1      36.744  20.898  25.281  1.00  0.00     0.116 C 
BRANCH   2   3
ATOM      3  N   UNL A   1      35.737  21.386  26.210  1.00  0.00    -0.356 N 
ATOM      4  C   UNL A   1      34.376  21.416  26.128  1.00  0.00     0.227 C 
ATOM      5  O   UNL A   1      33.772  21.744  27.156  1.00  0.00    -0.274 OA
ATOM      6  H   UNL A   1      36.102  21.761  27.045  1.00  0.00     0.163 HD
BRANCH   4   7
ATOM      7  C   UNL A   1      33.603  21.086  24.846  1.00  0.00     0.109 C 
BRANCH   7   8
ATOM      8  C   UNL A   1      33.165  22.291  24.001  1.00  0.00    -0.036 A 
ATOM      9  C   UNL A   1      31.761  25.939  22.137  1.00  0.00     0.044 C 
ATOM     10  C   UNL A   1      32.240  24.654  22.741  1.00  0.00    -0.051 A 
ATOM     11  C   UNL A   1      31.335  23.764  23.321  1.00  0.00     0.004 A 
ATOM     12  C   UNL A   1      33.591  24.303  22.694  1.00  0.00     0.004 A 
ATOM     13  C   UNL A   1      31.792  22.599  23.940  1.00  0.00     0.005 A 
ATOM     14  C   UNL A   1      34.044  23.126  23.303  1.00  0.00     0.005 A 
ENDBRANCH   7   8
BRANCH   7  15
ATOM     15  C   UNL A   1      32.432  20.097  25.077  1.00  0.00     0.022 C 
BRANCH  15  16
ATOM     16  C   UNL A   1      32.632  18.700  24.476  1.00  0.00    -0.010 C 
ATOM     17  C   UNL A   1      32.291  18.573  22.995  1.00  0.00     0.003 C 
ATOM     18  C   UNL A   1      34.115  18.312  24.489  1.00  0.00     0.003 C 
ATOM     19  C   UNL A   1      33.035  17.317  22.546  1.00  0.00     0.000 C 
ATOM     20  C   UNL A   1      34.229  17.172  23.487  1.00  0.00     0.000 C 
ENDBRANCH  15  16
ENDBRANCH   7  15
ENDBRANCH   4   7
ENDBRANCH   2   3
ENDBRANCH   1   2
BRANCH   1  21
ATOM     21  C   UNL A   1      38.144  23.038  25.687  1.00  0.00     0.023 C 
BRANCH  21  22
ATOM     22  C   UNL A   1      39.170  22.482  26.664  1.00  0.00     0.116 C 
BRANCH  22  23
ATOM     23  N   UNL A   1      40.557  22.774  26.340  1.00  0.00    -0.352 N 
ATOM     24  C   UNL A   1      41.219  23.989  26.247  1.00  0.00     0.251 C 
ATOM     25  H   UNL A   1      41.115  21.983  26.158  1.00  0.00     0.163 HD
ATOM     26  O   UNL A   1      42.364  24.012  25.822  1.00  0.00    -0.269 OA
BRANCH  24  27
ATOM     27  C   UNL A   1      40.609  25.239  26.786  1.00  0.00     0.039 A 
ATOM     28  C   UNL A   1      40.770  26.427  26.054  1.00  0.00     0.014 A 
ATOM     29  C   UNL A   1      40.045  25.297  28.054  1.00  0.00     0.014 A 
ATOM     30  C   UNL A   1      40.604  27.662  26.685  1.00  0.00     0.010 A 
ATOM     31  C   UNL A   1      40.004  26.503  28.718  1.00  0.00     0.010 A 
ATOM     32  C   UNL A   1      40.340  27.684  28.052  1.00  0.00    -0.014 A 
BRANCH  32  33
ATOM     33  C   UNL A   1      40.494  28.852  28.910  1.00  0.00     0.031 A 
ATOM     34  C   UNL A   1      39.394  29.826  29.073  1.00  0.00     0.074 A 
ATOM     35  C   UNL A   1      41.569  28.913  29.728  1.00  0.00     0.049 A 
ATOM     36  N   UNL A   1      39.537  30.997  29.596  1.00  0.00    -0.248 NA
ATOM     37  C   UNL A   1      38.026  29.555  28.645  1.00  0.00     0.031 C 
ATOM     38  C   UNL A   1      41.735  29.744  30.918  1.00  0.00     0.029 A 
ATOM     39  N   UNL A   1      42.834  28.333  29.534  1.00  0.00    -0.354 N 
ATOM     40  C   UNL A   1      38.285  31.514  29.823  1.00  0.00     0.074 A 
ATOM     41  C   UNL A   1      37.377  30.596  29.174  1.00  0.00     0.031 C 
ATOM     42  C   UNL A   1      43.045  29.877  31.174  1.00  0.00     0.029 A 
ATOM     43  C   UNL A   1      43.759  29.267  30.067  1.00  0.00     0.049 A 
ATOM     44  H   UNL A   1      43.036  27.464  29.117  1.00  0.00     0.167 HD
ATOM     45  C   UNL A   1      38.146  32.604  30.633  1.00  0.00     0.037 A 
ATOM     46  C   UNL A   1      44.637  29.916  29.246  1.00  0.00     0.037 A 
ATOM     47  C   UNL A   1      39.439  33.101  31.094  1.00  0.00     0.049 A 
ATOM     48  C   UNL A   1      44.469  31.422  29.195  1.00  0.00     0.074 A 
ATOM     49  C   UNL A   1      40.176  32.956  32.258  1.00  0.00     0.029 A 
ATOM     50  N   UNL A   1      40.305  33.638  30.162  1.00  0.00    -0.354 N 
ATOM     51  N   UNL A   1      43.520  32.077  29.803  1.00  0.00    -0.248 NA
ATOM     52  C   UNL A   1      45.304  32.296  28.368  1.00  0.00     0.031 C 
ATOM     53  C   UNL A   1      41.503  33.404  32.004  1.00  0.00     0.029 A 
ATOM     54  C   UNL A   1      41.568  33.819  30.687  1.00  0.00     0.049 A 
ATOM     55  H   UNL A   1      40.052  33.865  29.237  1.00  0.00     0.167 HD
ATOM     56  C   UNL A   1      43.558  33.389  29.419  1.00  0.00     0.074 A 
ATOM     57  C   UNL A   1      44.698  33.485  28.529  1.00  0.00     0.031 C 
ATOM     58  C   UNL A   1      42.625  34.299  29.817  1.00  0.00     0.037 A 
BRANCH  45  59
ATOM     59  C   UNL A   1      36.826  33.089  31.176  1.00  0.00     0.064 A 
ATOM     60  C   UNL A   1      35.934  33.820  30.361  1.00  0.00     0.173 A 
ATOM     61  C   UNL A   1      36.392  32.892  32.499  1.00  0.00     0.173 A 
ATOM     62  F   UNL A   1      36.165  33.999  29.055  1.00  0.00    -0.203 F 
ATOM     63  C   UNL A   1      34.768  34.402  30.861  1.00  0.00     0.198 A 
ATOM     64  C   UNL A   1      35.257  33.524  33.016  1.00  0.00     0.198 A 
ATOM     65  F   UNL A   1      37.025  32.040  33.317  1.00  0.00    -0.203 F 
ATOM     66  F   UNL A   1      33.960  35.085  30.038  1.00  0.00    -0.200 F 
ATOM     67  C   UNL A   1      34.449  34.288  32.199  1.00  0.00     0.200 A 
ATOM     68  F   UNL A   1      34.950  33.384  34.314  1.00  0.00    -0.200 F 
ATOM     69  F   UNL A   1      33.358  34.890  32.690  1.00  0.00    -0.200 F 
ENDBRANCH  45  59
BRANCH  46  70
ATOM     70  C   UNL A   1      45.065  29.067  28.102  1.00  0.00     0.064 A 
ATOM     71  C   UNL A   1      46.017  28.057  28.346  1.00  0.00     0.173 A 
ATOM     72  C   UNL A   1      44.284  28.959  26.946  1.00  0.00     0.173 A 
ATOM     73  F   UNL A   1      46.786  28.112  29.445  1.00  0.00    -0.203 F 
ATOM     74  C   UNL A   1      46.087  26.922  27.541  1.00  0.00     0.198 A 
ATOM     75  C   UNL A   1      44.372  27.830  26.132  1.00  0.00     0.198 A 
ATOM     76  F   UNL A   1      43.347  29.879  26.671  1.00  0.00    -0.203 F 
ATOM     77  F   UNL A   1      46.910  25.918  27.873  1.00  0.00    -0.200 F 
ATOM     78  C   UNL A   1      45.242  26.797  26.451  1.00  0.00     0.200 A 
ATOM     79  F   UNL A   1      43.538  27.696  25.090  1.00  0.00    -0.200 F 
ATOM     80  F   UNL A   1      45.233  25.664  25.735  1.00  0.00    -0.200 F 
ENDBRANCH  46  70
BRANCH  58  81
ATOM     81  C   UNL A   1      42.648  35.738  29.411  1.00  0.00     0.064 A 
ATOM     82  C   UNL A   1      42.054  36.183  28.222  1.00  0.00     0.173 A 
ATOM     83  C   UNL A   1      43.393  36.690  30.139  1.00  0.00     0.173 A 
ATOM     84  F   UNL A   1      41.353  35.337  27.451  1.00  0.00    -0.203 F 
ATOM     85  C   UNL A   1      42.185  37.505  27.793  1.00  0.00     0.198 A 
ATOM     86  C   UNL A   1      43.564  37.994  29.683  1.00  0.00     0.198 A 
ATOM     87  F   UNL A   1      43.954  36.380  31.317  1.00  0.00    -0.203 F 
ATOM     88  F   UNL A   1      41.571  37.904  26.671  1.00  0.00    -0.200 F 
ATOM     89  C   UNL A   1      42.954  38.404  28.513  1.00  0.00     0.200 A 
ATOM     90  F   UNL A   1      44.324  38.848  30.384  1.00  0.00    -0.200 F 
ATOM     91  F   UNL A   1      43.104  39.664  28.084  1.00  0.00    -0.200 F 
ENDBRANCH  58  81
ENDBRANCH  32  33
ENDBRANCH  24  27
ENDBRANCH  22  23
ENDBRANCH  21  22
ENDBRANCH   1  21
TORSDOF 14
ENDMDL
