MODEL 1
REMARK VINA RESULT:     -12.4      0.000      0.000
REMARK SMILES COCC[C@@]1(C(=O)NCCCCNC(=O)c2ccc(-c3c4nc(c(-c5c(F)c(F)c(F)c(F)c5F)c5ccc([nH]5)c(-c5c(F)c(F)c(F)c(F)c5F)c5nc(c(-c6c(F)c(F)c(F)c(F)c6F)c6ccc3[nH]6)C=C5)C=C4)cc2)CCCN(C(=O)NCc2ccc(OC)cc2)C1
REMARK SMILES IDX 9 1 8 2 6 3 7 4 5 6 79 7 95 8 80 9 82 10 81 11 4 12 3 13
REMARK SMILES IDX 2 14 1 15 83 16 84 17 85 18 86 20 87 21 88 22 94 23 89 24
REMARK SMILES IDX 93 25 90 26 91 27 92 28 10 29 11 30 12 31 13 32 14 33 15 35
REMARK SMILES IDX 16 36 17 37 78 38 18 39 77 40 19 41 20 42 21 43 71 44 22 45
REMARK SMILES IDX 76 46 70 47 72 48 23 49 75 50 69 51 68 52 24 54 56 55 36 56
REMARK SMILES IDX 55 57 37 58 40 59 54 60 73 61 38 62 39 63 53 65 74 66 41 67
REMARK SMILES IDX 25 68 26 69 34 70 27 71 28 72 32 73 35 74 29 75 30 76 33 77
REMARK SMILES IDX 31 78 57 79 58 80 66 81 59 82 60 83 64 84 67 85 61 86 62 87
REMARK SMILES IDX 65 88 63 89 42 90 43 91 51 92 44 93 45 94 49 95 52 96 46 97
REMARK SMILES IDX 47 98 50 99 48 100
REMARK H PARENT 8 5 85 19 13 34 72 53 40 64
REMARK Flexibility Score: inf
ROOT
ATOM      1  C   UNL A   1      33.422  27.601  24.792  1.00  0.00     0.116 C 
ENDROOT
BRANCH   1   2
ATOM      2  N   UNL A   1      34.019  26.833  23.741  1.00  0.00    -0.356 N 
ATOM      3  C   UNL A   1      33.849  25.504  23.494  1.00  0.00     0.228 C 
ATOM      4  O   UNL A   1      34.032  25.174  22.313  1.00  0.00    -0.274 OA
ATOM      5  H   UNL A   1      34.616  27.319  23.128  1.00  0.00     0.163 HD
BRANCH   3   6
ATOM      6  C   UNL A   1      33.677  24.405  24.603  1.00  0.00     0.069 C 
ATOM      7  C   UNL A   1      33.420  23.064  23.854  1.00  0.00     0.021 C 
ATOM      8  C   UNL A   1      32.526  24.492  25.639  1.00  0.00     0.138 C 
ATOM      9  C   UNL A   1      32.019  23.052  23.215  1.00  0.00     0.023 C 
ATOM     10  N   UNL A   1      31.186  24.514  25.033  1.00  0.00    -0.324 N 
ATOM     11  C   UNL A   1      30.919  23.309  24.249  1.00  0.00     0.121 C 
BRANCH   6  12
ATOM     12  C   UNL A   1      35.072  24.425  25.310  1.00  0.00     0.047 C 
BRANCH  12  13
ATOM     13  C   UNL A   1      36.204  23.568  24.733  1.00  0.00     0.161 C 
BRANCH  13  14
ATOM     14  O   UNL A   1      36.617  22.538  25.630  1.00  0.00    -0.385 OA
ATOM     15  C   UNL A   1      38.020  22.508  25.841  1.00  0.00     0.194 C 
ENDBRANCH  13  14
ENDBRANCH  12  13
ENDBRANCH   6  12
BRANCH  10  16
ATOM     16  C   UNL A   1      30.340  25.516  25.414  1.00  0.00     0.317 C 
ATOM     17  O   UNL A   1      29.925  25.608  26.578  1.00  0.00    -0.249 OA
ATOM     18  N   UNL A   1      29.913  26.507  24.629  1.00  0.00    -0.334 N 
ATOM     19  H   UNL A   1      29.552  27.248  25.167  1.00  0.00     0.165 HD
BRANCH  18  20
ATOM     20  C   UNL A   1      29.826  26.808  23.218  1.00  0.00     0.153 C 
BRANCH  20  21
ATOM     21  C   UNL A   1      29.209  28.167  22.969  1.00  0.00    -0.028 A 
ATOM     22  C   UNL A   1      30.005  29.207  22.474  1.00  0.00     0.009 A 
ATOM     23  C   UNL A   1      27.864  28.448  23.261  1.00  0.00     0.009 A 
ATOM     24  C   UNL A   1      29.478  30.495  22.323  1.00  0.00     0.047 A 
ATOM     25  C   UNL A   1      27.341  29.734  23.114  1.00  0.00     0.047 A 
ATOM     26  C   UNL A   1      28.151  30.769  22.656  1.00  0.00     0.118 A 
BRANCH  26  27
ATOM     27  O   UNL A   1      27.764  32.072  22.497  1.00  0.00    -0.497 OA
ATOM     28  C   UNL A   1      27.931  32.627  21.197  1.00  0.00     0.278 C 
ENDBRANCH  26  27
ENDBRANCH  20  21
ENDBRANCH  18  20
ENDBRANCH  10  16
ENDBRANCH   3   6
ENDBRANCH   1   2
BRANCH   1  29
ATOM     29  C   UNL A   1      33.132  29.058  24.493  1.00  0.00     0.023 C 
BRANCH  29  30
ATOM     30  C   UNL A   1      32.144  29.737  25.429  1.00  0.00     0.023 C 
BRANCH  30  31
ATOM     31  C   UNL A   1      32.689  30.233  26.765  1.00  0.00     0.116 C 
BRANCH  31  32
ATOM     32  N   UNL A   1      32.525  31.653  27.055  1.00  0.00    -0.352 N 
ATOM     33  C   UNL A   1      33.506  32.489  27.553  1.00  0.00     0.251 C 
ATOM     34  H   UNL A   1      31.641  32.049  26.882  1.00  0.00     0.163 HD
ATOM     35  O   UNL A   1      33.334  33.692  27.705  1.00  0.00    -0.269 OA
BRANCH  33  36
ATOM     36  C   UNL A   1      34.795  31.869  27.915  1.00  0.00     0.039 A 
ATOM     37  C   UNL A   1      35.926  32.674  28.055  1.00  0.00     0.014 A 
ATOM     38  C   UNL A   1      34.815  30.524  28.295  1.00  0.00     0.014 A 
ATOM     39  C   UNL A   1      37.067  32.144  28.659  1.00  0.00     0.010 A 
ATOM     40  C   UNL A   1      35.924  30.026  28.968  1.00  0.00     0.010 A 
ATOM     41  C   UNL A   1      37.057  30.832  29.162  1.00  0.00    -0.014 A 
BRANCH  41  42
ATOM     42  C   UNL A   1      38.223  30.282  29.900  1.00  0.00     0.031 A 
ATOM     43  C   UNL A   1      38.479  30.711  31.316  1.00  0.00     0.074 A 
ATOM     44  C   UNL A   1      39.091  29.462  29.274  1.00  0.00     0.049 A 
ATOM     45  N   UNL A   1      39.468  30.395  32.113  1.00  0.00    -0.248 NA
ATOM     46  C   UNL A   1      37.514  31.654  31.904  1.00  0.00     0.031 C 
ATOM     47  C   UNL A   1      38.996  29.033  27.878  1.00  0.00     0.029 A 
ATOM     48  N   UNL A   1      40.233  28.852  29.732  1.00  0.00    -0.354 N 
ATOM     49  C   UNL A   1      39.254  31.113  33.281  1.00  0.00     0.074 A 
ATOM     50  C   UNL A   1      38.078  31.927  33.070  1.00  0.00     0.031 C 
ATOM     51  C   UNL A   1      40.018  28.206  27.601  1.00  0.00     0.029 A 
ATOM     52  C   UNL A   1      40.853  28.065  28.791  1.00  0.00     0.049 A 
ATOM     53  H   UNL A   1      40.574  28.965  30.648  1.00  0.00     0.167 HD
ATOM     54  C   UNL A   1      39.955  31.074  34.438  1.00  0.00     0.037 A 
ATOM     55  C   UNL A   1      41.966  27.312  28.884  1.00  0.00     0.037 A 
ATOM     56  C   UNL A   1      41.098  30.231  34.661  1.00  0.00     0.049 A 
ATOM     57  C   UNL A   1      42.702  27.250  30.195  1.00  0.00     0.074 A 
ATOM     58  C   UNL A   1      41.834  30.062  35.820  1.00  0.00     0.029 A 
ATOM     59  N   UNL A   1      41.668  29.409  33.700  1.00  0.00    -0.354 N 
ATOM     60  N   UNL A   1      42.441  27.868  31.321  1.00  0.00    -0.248 NA
ATOM     61  C   UNL A   1      43.881  26.373  30.253  1.00  0.00     0.031 C 
ATOM     62  C   UNL A   1      42.868  29.159  35.552  1.00  0.00     0.029 A 
ATOM     63  C   UNL A   1      42.753  28.737  34.237  1.00  0.00     0.049 A 
ATOM     64  H   UNL A   1      41.348  29.317  32.774  1.00  0.00     0.167 HD
ATOM     65  C   UNL A   1      43.401  27.436  32.226  1.00  0.00     0.074 A 
ATOM     66  C   UNL A   1      44.244  26.492  31.521  1.00  0.00     0.031 C 
ATOM     67  C   UNL A   1      43.571  27.792  33.523  1.00  0.00     0.037 A 
BRANCH  54  68
ATOM     68  C   UNL A   1      39.489  31.961  35.555  1.00  0.00     0.064 A 
ATOM     69  C   UNL A   1      38.546  31.520  36.495  1.00  0.00     0.173 A 
ATOM     70  C   UNL A   1      39.999  33.259  35.695  1.00  0.00     0.173 A 
ATOM     71  F   UNL A   1      38.017  30.292  36.395  1.00  0.00    -0.203 F 
ATOM     72  C   UNL A   1      38.104  32.359  37.515  1.00  0.00     0.198 A 
ATOM     73  C   UNL A   1      39.578  34.086  36.734  1.00  0.00     0.198 A 
ATOM     74  F   UNL A   1      40.906  33.730  34.824  1.00  0.00    -0.203 F 
ATOM     75  F   UNL A   1      37.161  31.935  38.367  1.00  0.00    -0.200 F 
ATOM     76  C   UNL A   1      38.624  33.639  37.637  1.00  0.00     0.200 A 
ATOM     77  F   UNL A   1      40.088  35.319  36.857  1.00  0.00    -0.200 F 
ATOM     78  F   UNL A   1      38.199  34.445  38.619  1.00  0.00    -0.200 F 
ENDBRANCH  54  68
BRANCH  55  79
ATOM     79  C   UNL A   1      42.424  26.514  27.717  1.00  0.00     0.064 A 
ATOM     80  C   UNL A   1      43.393  27.020  26.838  1.00  0.00     0.173 A 
ATOM     81  C   UNL A   1      41.904  25.239  27.452  1.00  0.00     0.173 A 
ATOM     82  F   UNL A   1      43.904  28.244  27.040  1.00  0.00    -0.203 F 
ATOM     83  C   UNL A   1      43.808  26.291  25.727  1.00  0.00     0.198 A 
ATOM     84  C   UNL A   1      42.339  24.501  26.352  1.00  0.00     0.198 A 
ATOM     85  F   UNL A   1      40.979  24.709  28.264  1.00  0.00    -0.203 F 
ATOM     86  F   UNL A   1      44.703  26.818  24.880  1.00  0.00    -0.200 F 
ATOM     87  C   UNL A   1      43.285  25.030  25.486  1.00  0.00     0.200 A 
ATOM     88  F   UNL A   1      41.839  23.278  26.129  1.00  0.00    -0.200 F 
ATOM     89  F   UNL A   1      43.685  24.329  24.418  1.00  0.00    -0.200 F 
ENDBRANCH  55  79
BRANCH  67  90
ATOM     90  C   UNL A   1      44.688  27.132  34.274  1.00  0.00     0.064 A 
ATOM     91  C   UNL A   1      44.525  25.878  34.880  1.00  0.00     0.173 A 
ATOM     92  C   UNL A   1      45.950  27.740  34.349  1.00  0.00     0.173 A 
ATOM     93  F   UNL A   1      43.333  25.263  34.849  1.00  0.00    -0.203 F 
ATOM     94  C   UNL A   1      45.578  25.266  35.554  1.00  0.00     0.198 A 
ATOM     95  C   UNL A   1      47.009  27.115  34.999  1.00  0.00     0.198 A 
ATOM     96  F   UNL A   1      46.158  28.937  33.779  1.00  0.00    -0.203 F 
ATOM     97  F   UNL A   1      45.389  24.088  36.161  1.00  0.00    -0.200 F 
ATOM     98  C   UNL A   1      46.821  25.882  35.606  1.00  0.00     0.200 A 
ATOM     99  F   UNL A   1      48.212  27.705  35.040  1.00  0.00    -0.200 F 
ATOM    100  F   UNL A   1      47.837  25.289  36.249  1.00  0.00    -0.200 F 
ENDBRANCH  67  90
ENDBRANCH  41  42
ENDBRANCH  33  36
ENDBRANCH  31  32
ENDBRANCH  30  31
ENDBRANCH  29  30
ENDBRANCH   1  29
TORSDOF 18
ENDMDL
MODEL 2
REMARK VINA RESULT:     -12.1      4.323     10.094
REMARK SMILES COCC[C@@]1(C(=O)NCCCCNC(=O)c2ccc(-c3c4nc(c(-c5c(F)c(F)c(F)c(F)c5F)c5ccc([nH]5)c(-c5c(F)c(F)c(F)c(F)c5F)c5nc(c(-c6c(F)c(F)c(F)c(F)c6F)c6ccc3[nH]6)C=C5)C=C4)cc2)CCCN(C(=O)NCc2ccc(OC)cc2)C1
REMARK SMILES IDX 9 1 8 2 6 3 7 4 5 6 79 7 95 8 80 9 82 10 81 11 4 12 3 13
REMARK SMILES IDX 2 14 1 15 83 16 84 17 85 18 86 20 87 21 88 22 94 23 89 24
REMARK SMILES IDX 93 25 90 26 91 27 92 28 10 29 11 30 12 31 13 32 14 33 15 35
REMARK SMILES IDX 16 36 17 37 78 38 18 39 77 40 19 41 20 42 21 43 71 44 22 45
REMARK SMILES IDX 76 46 70 47 72 48 23 49 75 50 69 51 68 52 24 54 56 55 36 56
REMARK SMILES IDX 55 57 37 58 40 59 54 60 73 61 38 62 39 63 53 65 74 66 41 67
REMARK SMILES IDX 25 68 26 69 34 70 27 71 28 72 32 73 35 74 29 75 30 76 33 77
REMARK SMILES IDX 31 78 57 79 58 80 66 81 59 82 60 83 64 84 67 85 61 86 62 87
REMARK SMILES IDX 65 88 63 89 42 90 43 91 51 92 44 93 45 94 49 95 52 96 46 97
REMARK SMILES IDX 47 98 50 99 48 100
REMARK H PARENT 8 5 85 19 13 34 72 53 40 64
REMARK Flexibility Score: inf
ROOT
ATOM      1  C   UNL A   1      35.611  23.838  24.662  1.00  0.00     0.116 C 
ENDROOT
BRANCH   1   2
ATOM      2  N   UNL A   1      34.896  23.752  25.900  1.00  0.00    -0.356 N 
ATOM      3  C   UNL A   1      33.600  24.103  26.128  1.00  0.00     0.228 C 
ATOM      4  O   UNL A   1      33.066  23.505  27.073  1.00  0.00    -0.274 OA
ATOM      5  H   UNL A   1      35.397  23.399  26.670  1.00  0.00     0.163 HD
BRANCH   3   6
ATOM      6  C   UNL A   1      32.870  25.316  25.448  1.00  0.00     0.069 C 
ATOM      7  C   UNL A   1      31.383  25.243  25.903  1.00  0.00     0.021 C 
ATOM      8  C   UNL A   1      32.794  25.437  23.903  1.00  0.00     0.138 C 
ATOM      9  C   UNL A   1      30.662  24.060  25.232  1.00  0.00     0.023 C 
ATOM     10  N   UNL A   1      32.135  24.293  23.254  1.00  0.00    -0.324 N 
ATOM     11  C   UNL A   1      30.754  24.128  23.705  1.00  0.00     0.121 C 
BRANCH   6  12
ATOM     12  C   UNL A   1      33.616  26.542  26.070  1.00  0.00     0.047 C 
BRANCH  12  13
ATOM     13  C   UNL A   1      32.798  27.600  26.821  1.00  0.00     0.161 C 
BRANCH  13  14
ATOM     14  O   UNL A   1      33.536  28.800  27.043  1.00  0.00    -0.385 OA
ATOM     15  C   UNL A   1      32.747  29.974  26.926  1.00  0.00     0.194 C 
ENDBRANCH  13  14
ENDBRANCH  12  13
ENDBRANCH   6  12
BRANCH  10  16
ATOM     16  C   UNL A   1      32.802  23.682  22.231  1.00  0.00     0.317 C 
ATOM     17  O   UNL A   1      33.650  24.283  21.557  1.00  0.00    -0.249 OA
ATOM     18  N   UNL A   1      32.667  22.403  21.876  1.00  0.00    -0.334 N 
ATOM     19  H   UNL A   1      33.425  22.113  21.317  1.00  0.00     0.165 HD
BRANCH  18  20
ATOM     20  C   UNL A   1      31.732  21.318  22.073  1.00  0.00     0.153 C 
BRANCH  20  21
ATOM     21  C   UNL A   1      32.225  20.328  23.105  1.00  0.00    -0.028 A 
ATOM     22  C   UNL A   1      32.339  18.975  22.767  1.00  0.00     0.009 A 
ATOM     23  C   UNL A   1      32.535  20.707  24.422  1.00  0.00     0.009 A 
ATOM     24  C   UNL A   1      32.705  18.029  23.731  1.00  0.00     0.047 A 
ATOM     25  C   UNL A   1      32.896  19.762  25.385  1.00  0.00     0.047 A 
ATOM     26  C   UNL A   1      32.970  18.414  25.047  1.00  0.00     0.118 A 
BRANCH  26  27
ATOM     27  O   UNL A   1      33.284  17.395  25.904  1.00  0.00    -0.497 OA
ATOM     28  C   UNL A   1      33.202  16.076  25.375  1.00  0.00     0.278 C 
ENDBRANCH  26  27
ENDBRANCH  20  21
ENDBRANCH  18  20
ENDBRANCH  10  16
ENDBRANCH   3   6
ENDBRANCH   1   2
BRANCH   1  29
ATOM     29  C   UNL A   1      35.828  22.542  23.907  1.00  0.00     0.023 C 
BRANCH  29  30
ATOM     30  C   UNL A   1      36.466  21.415  24.705  1.00  0.00     0.023 C 
BRANCH  30  31
ATOM     31  C   UNL A   1      37.659  21.781  25.582  1.00  0.00     0.116 C 
BRANCH  31  32
ATOM     32  N   UNL A   1      38.702  20.772  25.727  1.00  0.00    -0.352 N 
ATOM     33  C   UNL A   1      39.890  20.938  26.412  1.00  0.00     0.251 C 
ATOM     34  H   UNL A   1      38.547  19.898  25.300  1.00  0.00     0.163 HD
ATOM     35  O   UNL A   1      40.696  20.029  26.567  1.00  0.00    -0.269 OA
BRANCH  33  36
ATOM     36  C   UNL A   1      40.168  22.281  26.956  1.00  0.00     0.039 A 
ATOM     37  C   UNL A   1      41.115  22.426  27.971  1.00  0.00     0.014 A 
ATOM     38  C   UNL A   1      39.621  23.396  26.315  1.00  0.00     0.014 A 
ATOM     39  C   UNL A   1      41.578  23.703  28.291  1.00  0.00     0.010 A 
ATOM     40  C   UNL A   1      40.143  24.656  26.582  1.00  0.00     0.010 A 
ATOM     41  C   UNL A   1      41.131  24.821  27.566  1.00  0.00    -0.014 A 
BRANCH  41  42
ATOM     42  C   UNL A   1      41.686  26.175  27.819  1.00  0.00     0.031 A 
ATOM     43  C   UNL A   1      43.059  26.523  27.321  1.00  0.00     0.074 A 
ATOM     44  C   UNL A   1      40.991  27.060  28.562  1.00  0.00     0.049 A 
ATOM     45  N   UNL A   1      43.747  27.624  27.485  1.00  0.00    -0.248 NA
ATOM     46  C   UNL A   1      43.772  25.478  26.569  1.00  0.00     0.031 C 
ATOM     47  C   UNL A   1      39.682  26.816  29.169  1.00  0.00     0.029 A 
ATOM     48  N   UNL A   1      41.298  28.344  28.942  1.00  0.00    -0.354 N 
ATOM     49  C   UNL A   1      44.974  27.395  26.877  1.00  0.00     0.074 A 
ATOM     50  C   UNL A   1      44.961  26.032  26.395  1.00  0.00     0.031 C 
ATOM     51  C   UNL A   1      39.285  27.922  29.819  1.00  0.00     0.029 A 
ATOM     52  C   UNL A   1      40.319  28.945  29.696  1.00  0.00     0.049 A 
ATOM     53  H   UNL A   1      42.140  28.792  28.696  1.00  0.00     0.167 HD
ATOM     54  C   UNL A   1      46.007  28.253  26.708  1.00  0.00     0.037 A 
ATOM     55  C   UNL A   1      40.264  30.184  30.221  1.00  0.00     0.037 A 
ATOM     56  C   UNL A   1      46.001  29.622  27.150  1.00  0.00     0.049 A 
ATOM     57  C   UNL A   1      41.406  31.135  29.980  1.00  0.00     0.074 A 
ATOM     58  C   UNL A   1      46.965  30.595  26.963  1.00  0.00     0.029 A 
ATOM     59  N   UNL A   1      44.969  30.211  27.867  1.00  0.00    -0.354 N 
ATOM     60  N   UNL A   1      42.526  30.935  29.329  1.00  0.00    -0.248 NA
ATOM     61  C   UNL A   1      41.269  32.490  30.534  1.00  0.00     0.031 C 
ATOM     62  C   UNL A   1      46.531  31.767  27.592  1.00  0.00     0.029 A 
ATOM     63  C   UNL A   1      45.279  31.534  28.138  1.00  0.00     0.049 A 
ATOM     64  H   UNL A   1      44.140  29.757  28.141  1.00  0.00     0.167 HD
ATOM     65  C   UNL A   1      43.212  32.140  29.371  1.00  0.00     0.074 A 
ATOM     66  C   UNL A   1      42.377  33.072  30.100  1.00  0.00     0.031 C 
ATOM     67  C   UNL A   1      44.428  32.448  28.854  1.00  0.00     0.037 A 
BRANCH  54  68
ATOM     68  C   UNL A   1      47.222  27.735  25.998  1.00  0.00     0.064 A 
ATOM     69  C   UNL A   1      48.310  27.198  26.704  1.00  0.00     0.173 A 
ATOM     70  C   UNL A   1      47.298  27.764  24.599  1.00  0.00     0.173 A 
ATOM     71  F   UNL A   1      48.292  27.162  28.045  1.00  0.00    -0.203 F 
ATOM     72  C   UNL A   1      49.442  26.741  26.036  1.00  0.00     0.198 A 
ATOM     73  C   UNL A   1      48.420  27.277  23.932  1.00  0.00     0.198 A 
ATOM     74  F   UNL A   1      46.285  28.265  23.875  1.00  0.00    -0.203 F 
ATOM     75  F   UNL A   1      50.491  26.284  26.735  1.00  0.00    -0.200 F 
ATOM     76  C   UNL A   1      49.494  26.775  24.652  1.00  0.00     0.200 A 
ATOM     77  F   UNL A   1      48.466  27.302  22.593  1.00  0.00    -0.200 F 
ATOM     78  F   UNL A   1      50.585  26.333  24.010  1.00  0.00    -0.200 F 
ENDBRANCH  54  68
BRANCH  55  79
ATOM     79  C   UNL A   1      39.064  30.617  30.984  1.00  0.00     0.064 A 
ATOM     80  C   UNL A   1      39.001  30.454  32.375  1.00  0.00     0.173 A 
ATOM     81  C   UNL A   1      37.958  31.192  30.343  1.00  0.00     0.173 A 
ATOM     82  F   UNL A   1      40.027  29.889  33.028  1.00  0.00    -0.203 F 
ATOM     83  C   UNL A   1      37.870  30.831  33.094  1.00  0.00     0.198 A 
ATOM     84  C   UNL A   1      36.836  31.592  31.068  1.00  0.00     0.198 A 
ATOM     85  F   UNL A   1      37.969  31.374  29.015  1.00  0.00    -0.203 F 
ATOM     86  F   UNL A   1      37.820  30.624  34.417  1.00  0.00    -0.200 F 
ATOM     87  C   UNL A   1      36.789  31.403  32.441  1.00  0.00     0.200 A 
ATOM     88  F   UNL A   1      35.797  32.154  30.435  1.00  0.00    -0.200 F 
ATOM     89  F   UNL A   1      35.702  31.766  33.133  1.00  0.00    -0.200 F 
ENDBRANCH  55  79
BRANCH  67  90
ATOM     90  C   UNL A   1      44.911  33.856  29.027  1.00  0.00     0.064 A 
ATOM     91  C   UNL A   1      45.706  34.230  30.120  1.00  0.00     0.173 A 
ATOM     92  C   UNL A   1      44.612  34.832  28.065  1.00  0.00     0.173 A 
ATOM     93  F   UNL A   1      46.006  33.336  31.074  1.00  0.00    -0.203 F 
ATOM     94  C   UNL A   1      46.167  35.537  30.254  1.00  0.00     0.198 A 
ATOM     95  C   UNL A   1      45.097  36.130  28.188  1.00  0.00     0.198 A 
ATOM     96  F   UNL A   1      43.860  34.521  26.998  1.00  0.00    -0.203 F 
ATOM     97  F   UNL A   1      46.890  35.883  31.327  1.00  0.00    -0.200 F 
ATOM     98  C   UNL A   1      45.868  36.484  29.285  1.00  0.00     0.200 A 
ATOM     99  F   UNL A   1      44.817  37.042  27.245  1.00  0.00    -0.200 F 
ATOM    100  F   UNL A   1      46.319  37.739  29.412  1.00  0.00    -0.200 F 
ENDBRANCH  67  90
ENDBRANCH  41  42
ENDBRANCH  33  36
ENDBRANCH  31  32
ENDBRANCH  30  31
ENDBRANCH  29  30
ENDBRANCH   1  29
TORSDOF 18
ENDMDL
MODEL 3
REMARK VINA RESULT:     -12.0      2.328      3.571
REMARK SMILES COCC[C@@]1(C(=O)NCCCCNC(=O)c2ccc(-c3c4nc(c(-c5c(F)c(F)c(F)c(F)c5F)c5ccc([nH]5)c(-c5c(F)c(F)c(F)c(F)c5F)c5nc(c(-c6c(F)c(F)c(F)c(F)c6F)c6ccc3[nH]6)C=C5)C=C4)cc2)CCCN(C(=O)NCc2ccc(OC)cc2)C1
REMARK SMILES IDX 9 1 8 2 6 3 7 4 5 6 79 7 95 8 80 9 82 10 81 11 4 12 3 13
REMARK SMILES IDX 2 14 1 15 83 16 84 17 85 18 86 20 87 21 88 22 94 23 89 24
REMARK SMILES IDX 93 25 90 26 91 27 92 28 10 29 11 30 12 31 13 32 14 33 15 35
REMARK SMILES IDX 16 36 17 37 78 38 18 39 77 40 19 41 20 42 21 43 71 44 22 45
REMARK SMILES IDX 76 46 70 47 72 48 23 49 75 50 69 51 68 52 24 54 56 55 36 56
REMARK SMILES IDX 55 57 37 58 40 59 54 60 73 61 38 62 39 63 53 65 74 66 41 67
REMARK SMILES IDX 25 68 26 69 34 70 27 71 28 72 32 73 35 74 29 75 30 76 33 77
REMARK SMILES IDX 31 78 57 79 58 80 66 81 59 82 60 83 64 84 67 85 61 86 62 87
REMARK SMILES IDX 65 88 63 89 42 90 43 91 51 92 44 93 45 94 49 95 52 96 46 97
REMARK SMILES IDX 47 98 50 99 48 100
REMARK H PARENT 8 5 85 19 13 34 72 53 40 64
REMARK Flexibility Score: inf
ROOT
ATOM      1  C   UNL A   1      33.287  26.300  24.750  1.00  0.00     0.116 C 
ENDROOT
BRANCH   1   2
ATOM      2  N   UNL A   1      34.012  25.566  23.756  1.00  0.00    -0.356 N 
ATOM      3  C   UNL A   1      34.191  24.217  23.696  1.00  0.00     0.228 C 
ATOM      4  O   UNL A   1      34.395  23.777  22.555  1.00  0.00    -0.274 OA
ATOM      5  H   UNL A   1      34.426  26.095  23.037  1.00  0.00     0.163 HD
BRANCH   3   6
ATOM      6  C   UNL A   1      34.374  23.284  24.947  1.00  0.00     0.069 C 
ATOM      7  C   UNL A   1      34.319  21.822  24.413  1.00  0.00     0.021 C 
ATOM      8  C   UNL A   1      33.352  23.306  26.114  1.00  0.00     0.138 C 
ATOM      9  C   UNL A   1      32.889  21.449  23.981  1.00  0.00     0.023 C 
ATOM     10  N   UNL A   1      31.978  22.982  25.701  1.00  0.00    -0.324 N 
ATOM     11  C   UNL A   1      31.881  21.645  25.118  1.00  0.00     0.121 C 
BRANCH   6  12
ATOM     12  C   UNL A   1      35.805  23.675  25.445  1.00  0.00     0.047 C 
BRANCH  12  13
ATOM     13  C   UNL A   1      37.023  23.155  24.673  1.00  0.00     0.161 C 
BRANCH  13  14
ATOM     14  O   UNL A   1      37.708  22.118  25.374  1.00  0.00    -0.385 OA
ATOM     15  C   UNL A   1      38.802  22.591  26.144  1.00  0.00     0.194 C 
ENDBRANCH  13  14
ENDBRANCH  12  13
ENDBRANCH   6  12
BRANCH  10  16
ATOM     16  C   UNL A   1      30.991  23.852  26.068  1.00  0.00     0.317 C 
ATOM     17  O   UNL A   1      30.612  23.944  27.243  1.00  0.00    -0.249 OA
ATOM     18  N   UNL A   1      30.373  24.708  25.252  1.00  0.00    -0.334 N 
ATOM     19  H   UNL A   1      29.913  25.410  25.766  1.00  0.00     0.165 HD
BRANCH  18  20
ATOM     20  C   UNL A   1      30.182  24.904  23.833  1.00  0.00     0.153 C 
BRANCH  20  21
ATOM     21  C   UNL A   1      29.700  26.302  23.517  1.00  0.00    -0.028 A 
ATOM     22  C   UNL A   1      28.397  26.679  23.864  1.00  0.00     0.009 A 
ATOM     23  C   UNL A   1      30.498  27.238  22.837  1.00  0.00     0.009 A 
ATOM     24  C   UNL A   1      27.899  27.935  23.500  1.00  0.00     0.047 A 
ATOM     25  C   UNL A   1      29.998  28.490  22.471  1.00  0.00     0.047 A 
ATOM     26  C   UNL A   1      28.690  28.840  22.789  1.00  0.00     0.118 A 
BRANCH  26  27
ATOM     27  O   UNL A   1      28.080  30.020  22.463  1.00  0.00    -0.497 OA
ATOM     28  C   UNL A   1      28.903  31.012  21.859  1.00  0.00     0.278 C 
ENDBRANCH  26  27
ENDBRANCH  20  21
ENDBRANCH  18  20
ENDBRANCH  10  16
ENDBRANCH   3   6
ENDBRANCH   1   2
BRANCH   1  29
ATOM     29  C   UNL A   1      34.106  27.005  25.812  1.00  0.00     0.023 C 
BRANCH  29  30
ATOM     30  C   UNL A   1      33.826  28.491  25.979  1.00  0.00     0.023 C 
BRANCH  30  31
ATOM     31  C   UNL A   1      33.350  28.953  27.352  1.00  0.00     0.116 C 
BRANCH  31  32
ATOM     32  N   UNL A   1      33.418  30.384  27.624  1.00  0.00    -0.352 N 
ATOM     33  C   UNL A   1      34.547  31.073  28.025  1.00  0.00     0.251 C 
ATOM     34  H   UNL A   1      32.589  30.904  27.514  1.00  0.00     0.163 HD
ATOM     35  O   UNL A   1      34.564  32.289  28.164  1.00  0.00    -0.269 OA
BRANCH  33  36
ATOM     36  C   UNL A   1      35.758  30.275  28.296  1.00  0.00     0.039 A 
ATOM     37  C   UNL A   1      36.779  30.237  27.345  1.00  0.00     0.014 A 
ATOM     38  C   UNL A   1      35.939  29.733  29.571  1.00  0.00     0.014 A 
ATOM     39  C   UNL A   1      38.024  29.720  27.706  1.00  0.00     0.010 A 
ATOM     40  C   UNL A   1      37.203  29.295  29.949  1.00  0.00     0.010 A 
ATOM     41  C   UNL A   1      38.258  29.290  29.023  1.00  0.00    -0.014 A 
BRANCH  41  42
ATOM     42  C   UNL A   1      39.604  28.834  29.457  1.00  0.00     0.031 A 
ATOM     43  C   UNL A   1      40.414  29.686  30.391  1.00  0.00     0.074 A 
ATOM     44  C   UNL A   1      40.126  27.699  28.950  1.00  0.00     0.049 A 
ATOM     45  N   UNL A   1      41.628  29.497  30.843  1.00  0.00    -0.248 NA
ATOM     46  C   UNL A   1      39.792  30.938  30.850  1.00  0.00     0.031 C 
ATOM     47  C   UNL A   1      39.471  26.825  27.975  1.00  0.00     0.029 A 
ATOM     48  N   UNL A   1      41.336  27.092  29.179  1.00  0.00    -0.354 N 
ATOM     49  C   UNL A   1      41.918  30.612  31.617  1.00  0.00     0.074 A 
ATOM     50  C   UNL A   1      40.781  31.500  31.526  1.00  0.00     0.031 C 
ATOM     51  C   UNL A   1      40.273  25.780  27.713  1.00  0.00     0.029 A 
ATOM     52  C   UNL A   1      41.507  25.921  28.481  1.00  0.00     0.049 A 
ATOM     53  H   UNL A   1      42.017  27.461  29.788  1.00  0.00     0.167 HD
ATOM     54  C   UNL A   1      43.020  30.860  32.363  1.00  0.00     0.037 A 
ATOM     55  C   UNL A   1      42.542  25.059  28.469  1.00  0.00     0.037 A 
ATOM     56  C   UNL A   1      44.131  29.956  32.487  1.00  0.00     0.049 A 
ATOM     57  C   UNL A   1      43.736  25.334  29.343  1.00  0.00     0.074 A 
ATOM     58  C   UNL A   1      45.261  30.078  33.275  1.00  0.00     0.029 A 
ATOM     59  N   UNL A   1      44.246  28.754  31.804  1.00  0.00    -0.354 N 
ATOM     60  N   UNL A   1      43.963  26.350  30.139  1.00  0.00    -0.248 NA
ATOM     61  C   UNL A   1      44.813  24.333  29.328  1.00  0.00     0.031 C 
ATOM     62  C   UNL A   1      46.075  28.964  33.046  1.00  0.00     0.029 A 
ATOM     63  C   UNL A   1      45.435  28.129  32.145  1.00  0.00     0.049 A 
ATOM     64  H   UNL A   1      43.582  28.398  31.171  1.00  0.00     0.167 HD
ATOM     65  C   UNL A   1      45.189  26.100  30.738  1.00  0.00     0.074 A 
ATOM     66  C   UNL A   1      45.654  24.828  30.224  1.00  0.00     0.031 C 
ATOM     67  C   UNL A   1      45.872  26.857  31.632  1.00  0.00     0.037 A 
BRANCH  54  68
ATOM     68  C   UNL A   1      43.064  32.157  33.116  1.00  0.00     0.064 A 
ATOM     69  C   UNL A   1      43.601  33.319  32.542  1.00  0.00     0.173 A 
ATOM     70  C   UNL A   1      42.553  32.244  34.419  1.00  0.00     0.173 A 
ATOM     71  F   UNL A   1      44.116  33.284  31.305  1.00  0.00    -0.203 F 
ATOM     72  C   UNL A   1      43.657  34.512  33.258  1.00  0.00     0.198 A 
ATOM     73  C   UNL A   1      42.582  33.446  35.121  1.00  0.00     0.198 A 
ATOM     74  F   UNL A   1      42.025  31.162  35.013  1.00  0.00    -0.203 F 
ATOM     75  F   UNL A   1      44.226  35.594  32.709  1.00  0.00    -0.200 F 
ATOM     76  C   UNL A   1      43.143  34.576  34.544  1.00  0.00     0.200 A 
ATOM     77  F   UNL A   1      42.077  33.509  36.360  1.00  0.00    -0.200 F 
ATOM     78  F   UNL A   1      43.197  35.725  35.231  1.00  0.00    -0.200 F 
ENDBRANCH  54  68
BRANCH  55  79
ATOM     79  C   UNL A   1      42.474  23.827  27.642  1.00  0.00     0.064 A 
ATOM     80  C   UNL A   1      42.070  22.607  28.203  1.00  0.00     0.173 A 
ATOM     81  C   UNL A   1      42.817  23.837  26.282  1.00  0.00     0.173 A 
ATOM     82  F   UNL A   1      41.753  22.544  29.505  1.00  0.00    -0.203 F 
ATOM     83  C   UNL A   1      42.031  21.441  27.443  1.00  0.00     0.198 A 
ATOM     84  C   UNL A   1      42.754  22.674  25.516  1.00  0.00     0.198 A 
ATOM     85  F   UNL A   1      43.206  24.978  25.696  1.00  0.00    -0.203 F 
ATOM     86  F   UNL A   1      41.682  20.281  28.016  1.00  0.00    -0.200 F 
ATOM     87  C   UNL A   1      42.369  21.475  26.098  1.00  0.00     0.200 A 
ATOM     88  F   UNL A   1      43.071  22.713  24.215  1.00  0.00    -0.200 F 
ATOM     89  F   UNL A   1      42.330  20.354  25.367  1.00  0.00    -0.200 F 
ENDBRANCH  55  79
BRANCH  67  90
ATOM     90  C   UNL A   1      47.175  26.315  32.138  1.00  0.00     0.064 A 
ATOM     91  C   UNL A   1      48.393  26.636  31.522  1.00  0.00     0.173 A 
ATOM     92  C   UNL A   1      47.209  25.501  33.281  1.00  0.00     0.173 A 
ATOM     93  F   UNL A   1      48.410  27.397  30.417  1.00  0.00    -0.203 F 
ATOM     94  C   UNL A   1      49.596  26.143  32.018  1.00  0.00     0.198 A 
ATOM     95  C   UNL A   1      48.415  25.033  33.790  1.00  0.00     0.198 A 
ATOM     96  F   UNL A   1      46.070  25.172  33.910  1.00  0.00    -0.203 F 
ATOM     97  F   UNL A   1      50.744  26.428  31.389  1.00  0.00    -0.200 F 
ATOM     98  C   UNL A   1      49.607  25.349  33.156  1.00  0.00     0.200 A 
ATOM     99  F   UNL A   1      48.426  24.275  34.896  1.00  0.00    -0.200 F 
ATOM    100  F   UNL A   1      50.768  24.882  33.636  1.00  0.00    -0.200 F 
ENDBRANCH  67  90
ENDBRANCH  41  42
ENDBRANCH  33  36
ENDBRANCH  31  32
ENDBRANCH  30  31
ENDBRANCH  29  30
ENDBRANCH   1  29
TORSDOF 18
ENDMDL
