MODEL 1
REMARK VINA RESULT:     -13.5      0.000      0.000
REMARK SMILES COC(=O)c1ccc2c(c1)=N[C@H](c1cn(CCC(=O)NCCCCNC(=O)c3ccc(-c4c5nc(c(-c6c(F)c(F)c(F)c(F)c6F)c6ccc([nH]6)c(-c6c(F)c(F)c(F)c(F)c6F)c6nc(c(-c7c(F)c(F)c(F)c(F)c7F)c7ccc4[nH]7)C=C6)C=C5)cc3)c3ccccc13)N=2
REMARK SMILES IDX 21 1 20 2 18 3 19 4 17 6 16 7 15 8 13 9 14 10 96 11 91 12
REMARK SMILES IDX 95 13 92 14 94 15 93 16 12 17 5 18 6 19 10 20 7 21 9 22 8 23
REMARK SMILES IDX 11 24 97 25 3 26 4 27 2 28 1 29 22 30 23 31 24 32 25 33
REMARK SMILES IDX 26 34 27 36 28 37 29 38 90 39 30 40 89 41 31 42 32 43 33 44
REMARK SMILES IDX 83 45 34 46 88 47 82 48 84 49 35 50 87 51 81 52 80 53 36 55
REMARK SMILES IDX 68 56 48 57 67 58 49 59 52 60 66 61 85 62 50 63 51 64 65 66
REMARK SMILES IDX 86 67 53 68 37 69 38 70 46 71 39 72 40 73 44 74 47 75 41 76
REMARK SMILES IDX 42 77 45 78 43 79 69 80 70 81 78 82 71 83 72 84 76 85 79 86
REMARK SMILES IDX 73 87 74 88 77 89 75 90 54 91 55 92 63 93 56 94 57 95 61 96
REMARK SMILES IDX 64 97 58 98 59 99 62 100 60 101
REMARK H PARENT 20 5 25 35 84 54 52 65
REMARK Flexibility Score: inf
ROOT
ATOM      1  C   UNL A   1      35.808  18.900  24.625  1.00  0.00     0.116 C 
ENDROOT
BRANCH   1   2
ATOM      2  N   UNL A   1      34.457  18.518  25.013  1.00  0.00    -0.356 N 
ATOM      3  C   UNL A   1      33.227  19.069  24.798  1.00  0.00     0.221 C 
ATOM      4  O   UNL A   1      32.248  18.403  25.150  1.00  0.00    -0.275 OA
ATOM      5  H   UNL A   1      34.423  17.689  25.543  1.00  0.00     0.163 HD
BRANCH   3   6
ATOM      6  C   UNL A   1      33.030  20.387  24.073  1.00  0.00     0.122 C 
BRANCH   6   7
ATOM      7  C   UNL A   1      31.726  21.118  24.507  1.00  0.00     0.132 C 
BRANCH   7   8
ATOM      8  N   UNL A   1      31.910  22.120  25.577  1.00  0.00    -0.347 N 
ATOM      9  C   UNL A   1      31.479  24.279  25.402  1.00  0.00     0.024 A 
ATOM     10  C   UNL A   1      30.924  23.055  25.780  1.00  0.00     0.094 A 
ATOM     11  C   UNL A   1      32.842  23.980  25.040  1.00  0.00     0.007 A 
ATOM     12  C   UNL A   1      33.079  22.825  25.772  1.00  0.00     0.048 A 
ATOM     13  C   UNL A   1      33.981  24.621  24.550  1.00  0.00     0.011 A 
ATOM     14  C   UNL A   1      34.193  22.761  26.617  1.00  0.00     0.027 A 
ATOM     15  C   UNL A   1      35.172  24.508  25.253  1.00  0.00     0.001 A 
ATOM     16  C   UNL A   1      35.212  23.700  26.380  1.00  0.00     0.002 A 
BRANCH   9  17
ATOM     17  C   UNL A   1      30.746  25.570  25.608  1.00  0.00     0.255 C 
ATOM     18  C   UNL A   1      32.683  29.481  26.703  1.00  0.00     0.062 A 
ATOM     19  C   UNL A   1      32.028  29.847  25.457  1.00  0.00     0.018 A 
ATOM     20  C   UNL A   1      32.512  28.269  27.254  1.00  0.00     0.046 A 
ATOM     21  C   UNL A   1      31.455  28.963  24.626  1.00  0.00     0.031 A 
ATOM     22  C   UNL A   1      31.721  27.298  26.497  1.00  0.00     0.087 A 
ATOM     23  C   UNL A   1      31.343  27.584  25.100  1.00  0.00     0.086 A 
ATOM     24  N   UNL A   1      31.286  26.154  26.876  1.00  0.00    -0.252 NA
ATOM     25  N   UNL A   1      30.860  26.554  24.499  1.00  0.00    -0.252 NA
BRANCH  18  26
ATOM     26  C   UNL A   1      33.615  30.408  27.416  1.00  0.00     0.337 C 
ATOM     27  O   UNL A   1      33.462  31.616  27.473  1.00  0.00    -0.246 OA
BRANCH  26  28
ATOM     28  O   UNL A   1      34.640  29.715  27.982  1.00  0.00    -0.465 OA
ATOM     29  C   UNL A   1      35.919  30.021  27.423  1.00  0.00     0.282 C 
ENDBRANCH  26  28
ENDBRANCH  18  26
ENDBRANCH   9  17
ENDBRANCH   7   8
ENDBRANCH   6   7
ENDBRANCH   3   6
ENDBRANCH   1   2
BRANCH   1  30
ATOM     30  C   UNL A   1      36.243  20.312  25.046  1.00  0.00     0.023 C 
BRANCH  30  31
ATOM     31  C   UNL A   1      37.702  20.749  24.806  1.00  0.00     0.023 C 
BRANCH  31  32
ATOM     32  C   UNL A   1      38.279  21.855  25.676  1.00  0.00     0.116 C 
BRANCH  32  33
ATOM     33  N   UNL A   1      39.689  21.666  25.922  1.00  0.00    -0.352 N 
ATOM     34  C   UNL A   1      40.726  22.430  26.363  1.00  0.00     0.251 C 
ATOM     35  H   UNL A   1      39.975  20.747  25.716  1.00  0.00     0.163 HD
ATOM     36  O   UNL A   1      41.833  21.884  26.302  1.00  0.00    -0.269 OA
BRANCH  34  37
ATOM     37  C   UNL A   1      40.662  23.812  26.923  1.00  0.00     0.039 A 
ATOM     38  C   UNL A   1      39.771  24.834  26.590  1.00  0.00     0.014 A 
ATOM     39  C   UNL A   1      41.669  24.093  27.870  1.00  0.00     0.014 A 
ATOM     40  C   UNL A   1      39.912  26.111  27.165  1.00  0.00     0.010 A 
ATOM     41  C   UNL A   1      41.808  25.349  28.444  1.00  0.00     0.010 A 
ATOM     42  C   UNL A   1      40.947  26.376  28.071  1.00  0.00    -0.014 A 
BRANCH  42  43
ATOM     43  C   UNL A   1      41.083  27.695  28.705  1.00  0.00     0.031 A 
ATOM     44  C   UNL A   1      42.269  28.503  28.311  1.00  0.00     0.074 A 
ATOM     45  C   UNL A   1      40.094  28.284  29.412  1.00  0.00     0.049 A 
ATOM     46  N   UNL A   1      43.149  29.060  29.078  1.00  0.00    -0.248 NA
ATOM     47  C   UNL A   1      42.519  28.695  26.875  1.00  0.00     0.031 C 
ATOM     48  C   UNL A   1      38.743  27.771  29.613  1.00  0.00     0.029 A 
ATOM     49  N   UNL A   1      40.041  29.509  30.017  1.00  0.00    -0.354 N 
ATOM     50  C   UNL A   1      43.983  29.798  28.240  1.00  0.00     0.074 A 
ATOM     51  C   UNL A   1      43.616  29.454  26.891  1.00  0.00     0.031 C 
ATOM     52  C   UNL A   1      37.954  28.727  30.144  1.00  0.00     0.029 A 
ATOM     53  C   UNL A   1      38.765  29.899  30.411  1.00  0.00     0.049 A 
ATOM     54  H   UNL A   1      40.839  30.068  30.161  1.00  0.00     0.167 HD
ATOM     55  C   UNL A   1      44.796  30.781  28.719  1.00  0.00     0.037 A 
ATOM     56  C   UNL A   1      38.373  31.110  30.881  1.00  0.00     0.037 A 
ATOM     57  C   UNL A   1      45.025  30.637  30.132  1.00  0.00     0.049 A 
ATOM     58  C   UNL A   1      39.581  31.807  31.376  1.00  0.00     0.074 A 
ATOM     59  C   UNL A   1      45.578  29.648  30.923  1.00  0.00     0.029 A 
ATOM     60  N   UNL A   1      44.364  31.468  31.000  1.00  0.00    -0.354 N 
ATOM     61  N   UNL A   1      40.253  31.437  32.430  1.00  0.00    -0.248 NA
ATOM     62  C   UNL A   1      40.294  32.671  30.449  1.00  0.00     0.031 C 
ATOM     63  C   UNL A   1      44.802  29.655  32.119  1.00  0.00     0.029 A 
ATOM     64  C   UNL A   1      43.861  30.678  32.001  1.00  0.00     0.049 A 
ATOM     65  H   UNL A   1      44.270  32.445  30.920  1.00  0.00     0.167 HD
ATOM     66  C   UNL A   1      41.579  31.650  32.089  1.00  0.00     0.074 A 
ATOM     67  C   UNL A   1      41.536  32.507  30.907  1.00  0.00     0.031 C 
ATOM     68  C   UNL A   1      42.574  30.885  32.623  1.00  0.00     0.037 A 
BRANCH  55  69
ATOM     69  C   UNL A   1      45.150  32.039  27.965  1.00  0.00     0.064 A 
ATOM     70  C   UNL A   1      44.134  32.945  27.600  1.00  0.00     0.173 A 
ATOM     71  C   UNL A   1      46.400  32.246  27.345  1.00  0.00     0.173 A 
ATOM     72  F   UNL A   1      42.896  32.824  28.105  1.00  0.00    -0.203 F 
ATOM     73  C   UNL A   1      44.340  33.942  26.643  1.00  0.00     0.198 A 
ATOM     74  C   UNL A   1      46.618  33.276  26.431  1.00  0.00     0.198 A 
ATOM     75  F   UNL A   1      47.423  31.400  27.512  1.00  0.00    -0.203 F 
ATOM     76  F   UNL A   1      43.313  34.702  26.242  1.00  0.00    -0.200 F 
ATOM     77  C   UNL A   1      45.581  34.105  26.056  1.00  0.00     0.200 A 
ATOM     78  F   UNL A   1      47.823  33.405  25.858  1.00  0.00    -0.200 F 
ATOM     79  F   UNL A   1      45.767  35.022  25.098  1.00  0.00    -0.200 F 
ENDBRANCH  55  69
BRANCH  56  80
ATOM     80  C   UNL A   1      37.063  31.784  30.710  1.00  0.00     0.064 A 
ATOM     81  C   UNL A   1      36.111  31.827  31.741  1.00  0.00     0.173 A 
ATOM     82  C   UNL A   1      36.817  32.623  29.603  1.00  0.00     0.173 A 
ATOM     83  F   UNL A   1      36.288  31.096  32.853  1.00  0.00    -0.203 F 
ATOM     84  C   UNL A   1      34.990  32.664  31.675  1.00  0.00     0.198 A 
ATOM     85  C   UNL A   1      35.695  33.451  29.534  1.00  0.00     0.198 A 
ATOM     86  F   UNL A   1      37.706  32.722  28.605  1.00  0.00    -0.203 F 
ATOM     87  F   UNL A   1      34.131  32.715  32.702  1.00  0.00    -0.200 F 
ATOM     88  C   UNL A   1      34.787  33.480  30.575  1.00  0.00     0.200 A 
ATOM     89  F   UNL A   1      35.531  34.258  28.476  1.00  0.00    -0.200 F 
ATOM     90  F   UNL A   1      33.744  34.319  30.533  1.00  0.00    -0.200 F 
ENDBRANCH  56  80
BRANCH  68  91
ATOM     91  C   UNL A   1      42.230  29.977  33.772  1.00  0.00     0.064 A 
ATOM     92  C   UNL A   1      41.750  28.666  33.609  1.00  0.00     0.173 A 
ATOM     93  C   UNL A   1      42.565  30.382  35.070  1.00  0.00     0.173 A 
ATOM     94  F   UNL A   1      41.496  28.168  32.394  1.00  0.00    -0.203 F 
ATOM     95  C   UNL A   1      41.589  27.811  34.699  1.00  0.00     0.198 A 
ATOM     96  C   UNL A   1      42.435  29.516  36.152  1.00  0.00     0.198 A 
ATOM     97  F   UNL A   1      43.080  31.604  35.280  1.00  0.00    -0.203 F 
ATOM     98  F   UNL A   1      41.132  26.564  34.510  1.00  0.00    -0.200 F 
ATOM     99  C   UNL A   1      41.942  28.234  35.968  1.00  0.00     0.200 A 
ATOM    100  F   UNL A   1      42.824  29.912  37.372  1.00  0.00    -0.200 F 
ATOM    101  F   UNL A   1      41.838  27.395  37.009  1.00  0.00    -0.200 F 
ENDBRANCH  68  91
ENDBRANCH  42  43
ENDBRANCH  34  37
ENDBRANCH  32  33
ENDBRANCH  31  32
ENDBRANCH  30  31
ENDBRANCH   1  30
TORSDOF 16
ENDMDL
MODEL 2
REMARK VINA RESULT:     -13.1      2.561      3.802
REMARK SMILES COC(=O)c1ccc2c(c1)=N[C@H](c1cn(CCC(=O)NCCCCNC(=O)c3ccc(-c4c5nc(c(-c6c(F)c(F)c(F)c(F)c6F)c6ccc([nH]6)c(-c6c(F)c(F)c(F)c(F)c6F)c6nc(c(-c7c(F)c(F)c(F)c(F)c7F)c7ccc4[nH]7)C=C6)C=C5)cc3)c3ccccc13)N=2
REMARK SMILES IDX 21 1 20 2 18 3 19 4 17 6 16 7 15 8 13 9 14 10 96 11 91 12
REMARK SMILES IDX 95 13 92 14 94 15 93 16 12 17 5 18 6 19 10 20 7 21 9 22 8 23
REMARK SMILES IDX 11 24 97 25 3 26 4 27 2 28 1 29 22 30 23 31 24 32 25 33
REMARK SMILES IDX 26 34 27 36 28 37 29 38 90 39 30 40 89 41 31 42 32 43 33 44
REMARK SMILES IDX 83 45 34 46 88 47 82 48 84 49 35 50 87 51 81 52 80 53 36 55
REMARK SMILES IDX 68 56 48 57 67 58 49 59 52 60 66 61 85 62 50 63 51 64 65 66
REMARK SMILES IDX 86 67 53 68 37 69 38 70 46 71 39 72 40 73 44 74 47 75 41 76
REMARK SMILES IDX 42 77 45 78 43 79 69 80 70 81 78 82 71 83 72 84 76 85 79 86
REMARK SMILES IDX 73 87 74 88 77 89 75 90 54 91 55 92 63 93 56 94 57 95 61 96
REMARK SMILES IDX 64 97 58 98 59 99 62 100 60 101
REMARK H PARENT 20 5 25 35 84 54 52 65
REMARK Flexibility Score: inf
ROOT
ATOM      1  C   UNL A   1      39.883  21.885  26.630  1.00  0.00     0.116 C 
ENDROOT
BRANCH   1   2
ATOM      2  N   UNL A   1      38.832  21.509  25.695  1.00  0.00    -0.356 N 
ATOM      3  C   UNL A   1      37.743  22.162  25.193  1.00  0.00     0.221 C 
ATOM      4  O   UNL A   1      37.120  21.595  24.289  1.00  0.00    -0.275 OA
ATOM      5  H   UNL A   1      38.925  20.591  25.353  1.00  0.00     0.163 HD
BRANCH   3   6
ATOM      6  C   UNL A   1      37.348  23.560  25.629  1.00  0.00     0.122 C 
BRANCH   6   7
ATOM      7  C   UNL A   1      35.872  23.636  26.121  1.00  0.00     0.132 C 
BRANCH   7   8
ATOM      8  N   UNL A   1      34.968  24.400  25.238  1.00  0.00    -0.347 N 
ATOM      9  C   UNL A   1      32.808  24.717  25.576  1.00  0.00     0.024 A 
ATOM     10  C   UNL A   1      34.070  25.269  25.808  1.00  0.00     0.094 A 
ATOM     11  C   UNL A   1      33.054  23.531  24.793  1.00  0.00     0.007 A 
ATOM     12  C   UNL A   1      34.266  23.838  24.191  1.00  0.00     0.048 A 
ATOM     13  C   UNL A   1      32.355  22.468  24.219  1.00  0.00     0.011 A 
ATOM     14  C   UNL A   1      34.389  23.743  22.801  1.00  0.00     0.027 A 
ATOM     15  C   UNL A   1      32.513  22.212  22.864  1.00  0.00     0.001 A 
ATOM     16  C   UNL A   1      33.418  22.972  22.139  1.00  0.00     0.002 A 
BRANCH   9  17
ATOM     17  C   UNL A   1      31.553  25.451  25.934  1.00  0.00     0.255 C 
ATOM     18  C   UNL A   1      29.604  28.612  23.393  1.00  0.00     0.062 A 
ATOM     19  C   UNL A   1      28.519  27.649  23.500  1.00  0.00     0.018 A 
ATOM     20  C   UNL A   1      30.754  28.448  24.064  1.00  0.00     0.046 A 
ATOM     21  C   UNL A   1      28.659  26.419  24.018  1.00  0.00     0.031 A 
ATOM     22  C   UNL A   1      30.910  27.208  24.827  1.00  0.00     0.087 A 
ATOM     23  C   UNL A   1      29.937  26.112  24.660  1.00  0.00     0.086 A 
ATOM     24  N   UNL A   1      31.828  26.898  25.666  1.00  0.00    -0.252 NA
ATOM     25  N   UNL A   1      30.329  25.017  25.209  1.00  0.00    -0.252 NA
BRANCH  18  26
ATOM     26  C   UNL A   1      29.522  29.808  22.500  1.00  0.00     0.337 C 
ATOM     27  O   UNL A   1      29.604  29.759  21.285  1.00  0.00    -0.246 OA
BRANCH  26  28
ATOM     28  O   UNL A   1      29.342  30.941  23.233  1.00  0.00    -0.465 OA
ATOM     29  C   UNL A   1      28.045  31.523  23.084  1.00  0.00     0.282 C 
ENDBRANCH  26  28
ENDBRANCH  18  26
ENDBRANCH   9  17
ENDBRANCH   7   8
ENDBRANCH   6   7
ENDBRANCH   3   6
ENDBRANCH   1   2
BRANCH   1  30
ATOM     30  C   UNL A   1      40.777  20.735  27.119  1.00  0.00     0.023 C 
BRANCH  30  31
ATOM     31  C   UNL A   1      41.228  19.657  26.114  1.00  0.00     0.023 C 
BRANCH  31  32
ATOM     32  C   UNL A   1      42.601  19.029  26.293  1.00  0.00     0.116 C 
BRANCH  32  33
ATOM     33  N   UNL A   1      43.537  19.489  25.294  1.00  0.00    -0.352 N 
ATOM     34  C   UNL A   1      43.987  20.692  24.842  1.00  0.00     0.251 C 
ATOM     35  H   UNL A   1      43.956  18.739  24.814  1.00  0.00     0.163 HD
ATOM     36  O   UNL A   1      44.722  20.630  23.851  1.00  0.00    -0.269 OA
BRANCH  34  37
ATOM     37  C   UNL A   1      43.713  22.040  25.421  1.00  0.00     0.039 A 
ATOM     38  C   UNL A   1      42.984  23.088  24.853  1.00  0.00     0.014 A 
ATOM     39  C   UNL A   1      44.318  22.257  26.676  1.00  0.00     0.014 A 
ATOM     40  C   UNL A   1      42.898  24.328  25.512  1.00  0.00     0.010 A 
ATOM     41  C   UNL A   1      44.230  23.477  27.333  1.00  0.00     0.010 A 
ATOM     42  C   UNL A   1      43.543  24.532  26.739  1.00  0.00    -0.014 A 
BRANCH  42  43
ATOM     43  C   UNL A   1      43.430  25.811  27.454  1.00  0.00     0.031 A 
ATOM     44  C   UNL A   1      44.454  26.843  27.135  1.00  0.00     0.074 A 
ATOM     45  C   UNL A   1      42.343  26.166  28.173  1.00  0.00     0.049 A 
ATOM     46  N   UNL A   1      45.210  27.501  27.953  1.00  0.00    -0.248 NA
ATOM     47  C   UNL A   1      44.681  27.166  25.719  1.00  0.00     0.031 C 
ATOM     48  C   UNL A   1      41.106  25.406  28.313  1.00  0.00     0.029 A 
ATOM     49  N   UNL A   1      42.063  27.320  28.849  1.00  0.00    -0.354 N 
ATOM     50  C   UNL A   1      45.905  28.428  27.179  1.00  0.00     0.074 A 
ATOM     51  C   UNL A   1      45.621  28.108  25.805  1.00  0.00     0.031 C 
ATOM     52  C   UNL A   1      40.151  26.168  28.883  1.00  0.00     0.029 A 
ATOM     53  C   UNL A   1      40.733  27.448  29.237  1.00  0.00     0.049 A 
ATOM     54  H   UNL A   1      42.744  28.004  29.044  1.00  0.00     0.167 HD
ATOM     55  C   UNL A   1      46.520  29.510  27.734  1.00  0.00     0.037 A 
ATOM     56  C   UNL A   1      40.122  28.537  29.769  1.00  0.00     0.037 A 
ATOM     57  C   UNL A   1      46.757  29.320  29.141  1.00  0.00     0.049 A 
ATOM     58  C   UNL A   1      41.178  29.408  30.333  1.00  0.00     0.074 A 
ATOM     59  C   UNL A   1      47.472  28.400  29.883  1.00  0.00     0.029 A 
ATOM     60  N   UNL A   1      45.947  29.963  30.042  1.00  0.00    -0.354 N 
ATOM     61  N   UNL A   1      41.894  29.099  31.377  1.00  0.00    -0.248 NA
ATOM     62  C   UNL A   1      41.732  30.443  29.475  1.00  0.00     0.031 C 
ATOM     63  C   UNL A   1      46.694  28.192  31.060  1.00  0.00     0.029 A 
ATOM     64  C   UNL A   1      45.585  29.033  30.983  1.00  0.00     0.049 A 
ATOM     65  H   UNL A   1      45.678  30.909  30.019  1.00  0.00     0.167 HD
ATOM     66  C   UNL A   1      43.163  29.570  31.079  1.00  0.00     0.074 A 
ATOM     67  C   UNL A   1      42.979  30.477  29.949  1.00  0.00     0.031 C 
ATOM     68  C   UNL A   1      44.275  28.965  31.587  1.00  0.00     0.037 A 
BRANCH  55  69
ATOM     69  C   UNL A   1      46.649  30.855  27.065  1.00  0.00     0.064 A 
ATOM     70  C   UNL A   1      47.905  31.491  27.009  1.00  0.00     0.173 A 
ATOM     71  C   UNL A   1      45.543  31.664  26.730  1.00  0.00     0.173 A 
ATOM     72  F   UNL A   1      49.024  30.825  27.337  1.00  0.00    -0.203 F 
ATOM     73  C   UNL A   1      48.035  32.848  26.702  1.00  0.00     0.198 A 
ATOM     74  C   UNL A   1      45.681  33.005  26.369  1.00  0.00     0.198 A 
ATOM     75  F   UNL A   1      44.284  31.226  26.844  1.00  0.00    -0.203 F 
ATOM     76  F   UNL A   1      49.236  33.437  26.778  1.00  0.00    -0.200 F 
ATOM     77  C   UNL A   1      46.922  33.605  26.385  1.00  0.00     0.200 A 
ATOM     78  F   UNL A   1      44.587  33.726  26.086  1.00  0.00    -0.200 F 
ATOM     79  F   UNL A   1      47.036  34.918  26.145  1.00  0.00    -0.200 F 
ENDBRANCH  55  69
BRANCH  56  80
ATOM     80  C   UNL A   1      38.713  28.973  29.610  1.00  0.00     0.064 A 
ATOM     81  C   UNL A   1      37.895  29.252  30.717  1.00  0.00     0.173 A 
ATOM     82  C   UNL A   1      38.213  29.368  28.352  1.00  0.00     0.173 A 
ATOM     83  F   UNL A   1      38.311  28.953  31.957  1.00  0.00    -0.203 F 
ATOM     84  C   UNL A   1      36.658  29.896  30.574  1.00  0.00     0.198 A 
ATOM     85  C   UNL A   1      36.978  30.001  28.210  1.00  0.00     0.198 A 
ATOM     86  F   UNL A   1      38.952  29.225  27.244  1.00  0.00    -0.203 F 
ATOM     87  F   UNL A   1      35.929  30.191  31.659  1.00  0.00    -0.200 F 
ATOM     88  C   UNL A   1      36.205  30.276  29.322  1.00  0.00     0.200 A 
ATOM     89  F   UNL A   1      36.568  30.391  26.995  1.00  0.00    -0.200 F 
ATOM     90  F   UNL A   1      35.048  30.938  29.190  1.00  0.00    -0.200 F 
ENDBRANCH  56  80
BRANCH  68  91
ATOM     91  C   UNL A   1      44.088  27.940  32.672  1.00  0.00     0.064 A 
ATOM     92  C   UNL A   1      43.985  26.559  32.426  1.00  0.00     0.173 A 
ATOM     93  C   UNL A   1      44.200  28.348  34.007  1.00  0.00     0.173 A 
ATOM     94  F   UNL A   1      43.969  26.078  31.179  1.00  0.00    -0.203 F 
ATOM     95  C   UNL A   1      43.965  25.636  33.471  1.00  0.00     0.198 A 
ATOM     96  C   UNL A   1      44.214  27.422  35.046  1.00  0.00     0.198 A 
ATOM     97  F   UNL A   1      44.358  29.648  34.300  1.00  0.00    -0.203 F 
ATOM     98  F   UNL A   1      43.867  24.325  33.204  1.00  0.00    -0.200 F 
ATOM     99  C   UNL A   1      44.091  26.068  34.779  1.00  0.00     0.200 A 
ATOM    100  F   UNL A   1      44.386  27.840  36.308  1.00  0.00    -0.200 F 
ATOM    101  F   UNL A   1      44.127  25.177  35.781  1.00  0.00    -0.200 F 
ENDBRANCH  68  91
ENDBRANCH  42  43
ENDBRANCH  34  37
ENDBRANCH  32  33
ENDBRANCH  31  32
ENDBRANCH  30  31
ENDBRANCH   1  30
TORSDOF 16
ENDMDL
MODEL 3
REMARK VINA RESULT:     -12.6      1.732      2.832
REMARK SMILES COC(=O)c1ccc2c(c1)=N[C@H](c1cn(CCC(=O)NCCCCNC(=O)c3ccc(-c4c5nc(c(-c6c(F)c(F)c(F)c(F)c6F)c6ccc([nH]6)c(-c6c(F)c(F)c(F)c(F)c6F)c6nc(c(-c7c(F)c(F)c(F)c(F)c7F)c7ccc4[nH]7)C=C6)C=C5)cc3)c3ccccc13)N=2
REMARK SMILES IDX 21 1 20 2 18 3 19 4 17 6 16 7 15 8 13 9 14 10 96 11 91 12
REMARK SMILES IDX 95 13 92 14 94 15 93 16 12 17 5 18 6 19 10 20 7 21 9 22 8 23
REMARK SMILES IDX 11 24 97 25 3 26 4 27 2 28 1 29 22 30 23 31 24 32 25 33
REMARK SMILES IDX 26 34 27 36 28 37 29 38 90 39 30 40 89 41 31 42 32 43 33 44
REMARK SMILES IDX 83 45 34 46 88 47 82 48 84 49 35 50 87 51 81 52 80 53 36 55
REMARK SMILES IDX 68 56 48 57 67 58 49 59 52 60 66 61 85 62 50 63 51 64 65 66
REMARK SMILES IDX 86 67 53 68 37 69 38 70 46 71 39 72 40 73 44 74 47 75 41 76
REMARK SMILES IDX 42 77 45 78 43 79 69 80 70 81 78 82 71 83 72 84 76 85 79 86
REMARK SMILES IDX 73 87 74 88 77 89 75 90 54 91 55 92 63 93 56 94 57 95 61 96
REMARK SMILES IDX 64 97 58 98 59 99 62 100 60 101
REMARK H PARENT 20 5 25 35 84 54 52 65
REMARK Flexibility Score: inf
ROOT
ATOM      1  C   UNL A   1      35.777  20.651  25.426  1.00  0.00     0.116 C 
ENDROOT
BRANCH   1   2
ATOM      2  N   UNL A   1      35.389  19.318  24.987  1.00  0.00    -0.356 N 
ATOM      3  C   UNL A   1      34.196  18.756  24.634  1.00  0.00     0.221 C 
ATOM      4  O   UNL A   1      34.235  17.614  24.163  1.00  0.00    -0.275 OA
ATOM      5  H   UNL A   1      36.144  18.689  24.936  1.00  0.00     0.163 HD
BRANCH   3   6
ATOM      6  C   UNL A   1      32.879  19.505  24.707  1.00  0.00     0.122 C 
BRANCH   6   7
ATOM      7  C   UNL A   1      32.528  20.228  23.373  1.00  0.00     0.132 C 
BRANCH   7   8
ATOM      8  N   UNL A   1      31.944  21.574  23.539  1.00  0.00    -0.347 N 
ATOM      9  C   UNL A   1      33.045  23.482  23.365  1.00  0.00     0.024 A 
ATOM     10  C   UNL A   1      32.289  22.556  22.642  1.00  0.00     0.094 A 
ATOM     11  C   UNL A   1      33.045  22.991  24.721  1.00  0.00     0.007 A 
ATOM     12  C   UNL A   1      31.880  22.237  24.747  1.00  0.00     0.048 A 
ATOM     13  C   UNL A   1      33.577  23.311  25.971  1.00  0.00     0.011 A 
ATOM     14  C   UNL A   1      30.926  22.477  25.742  1.00  0.00     0.027 A 
ATOM     15  C   UNL A   1      32.719  23.443  27.054  1.00  0.00     0.001 A 
ATOM     16  C   UNL A   1      31.369  23.179  26.876  1.00  0.00     0.002 A 
BRANCH   9  17
ATOM     17  C   UNL A   1      33.493  24.774  22.756  1.00  0.00     0.255 C 
ATOM     18  C   UNL A   1      31.188  28.636  22.928  1.00  0.00     0.062 A 
ATOM     19  C   UNL A   1      32.434  29.039  23.563  1.00  0.00     0.018 A 
ATOM     20  C   UNL A   1      31.038  27.413  22.396  1.00  0.00     0.046 A 
ATOM     21  C   UNL A   1      33.402  28.183  23.922  1.00  0.00     0.031 A 
ATOM     22  C   UNL A   1      32.144  26.469  22.571  1.00  0.00     0.087 A 
ATOM     23  C   UNL A   1      33.252  26.793  23.489  1.00  0.00     0.086 A 
ATOM     24  N   UNL A   1      32.307  25.321  22.025  1.00  0.00    -0.252 NA
ATOM     25  N   UNL A   1      34.017  25.784  23.714  1.00  0.00    -0.252 NA
BRANCH  18  26
ATOM     26  C   UNL A   1      29.995  29.534  22.873  1.00  0.00     0.337 C 
ATOM     27  O   UNL A   1      29.577  30.171  23.824  1.00  0.00    -0.246 OA
BRANCH  26  28
ATOM     28  O   UNL A   1      29.455  29.537  21.623  1.00  0.00    -0.465 OA
ATOM     29  C   UNL A   1      28.478  30.561  21.421  1.00  0.00     0.282 C 
ENDBRANCH  26  28
ENDBRANCH  18  26
ENDBRANCH   9  17
ENDBRANCH   7   8
ENDBRANCH   6   7
ENDBRANCH   3   6
ENDBRANCH   1   2
BRANCH   1  30
ATOM     30  C   UNL A   1      36.884  21.323  24.599  1.00  0.00     0.023 C 
BRANCH  30  31
ATOM     31  C   UNL A   1      36.985  22.862  24.591  1.00  0.00     0.023 C 
BRANCH  31  32
ATOM     32  C   UNL A   1      37.705  23.547  25.742  1.00  0.00     0.116 C 
BRANCH  32  33
ATOM     33  N   UNL A   1      38.951  22.891  26.061  1.00  0.00    -0.352 N 
ATOM     34  C   UNL A   1      40.148  23.252  26.602  1.00  0.00     0.251 C 
ATOM     35  H   UNL A   1      38.931  21.935  25.827  1.00  0.00     0.163 HD
ATOM     36  O   UNL A   1      41.013  22.370  26.580  1.00  0.00    -0.269 OA
BRANCH  34  37
ATOM     37  C   UNL A   1      40.505  24.560  27.225  1.00  0.00     0.039 A 
ATOM     38  C   UNL A   1      41.262  24.786  28.376  1.00  0.00     0.014 A 
ATOM     39  C   UNL A   1      39.956  25.678  26.563  1.00  0.00     0.014 A 
ATOM     40  C   UNL A   1      41.430  26.094  28.867  1.00  0.00     0.010 A 
ATOM     41  C   UNL A   1      40.124  26.971  27.040  1.00  0.00     0.010 A 
ATOM     42  C   UNL A   1      40.839  27.184  28.215  1.00  0.00    -0.014 A 
BRANCH  42  43
ATOM     43  C   UNL A   1      41.038  28.558  28.698  1.00  0.00     0.031 A 
ATOM     44  C   UNL A   1      42.215  29.289  28.154  1.00  0.00     0.074 A 
ATOM     45  C   UNL A   1      40.105  29.242  29.395  1.00  0.00     0.049 A 
ATOM     46  N   UNL A   1      43.150  29.900  28.807  1.00  0.00    -0.248 NA
ATOM     47  C   UNL A   1      42.382  29.325  26.694  1.00  0.00     0.031 C 
ATOM     48  C   UNL A   1      38.759  28.788  29.725  1.00  0.00     0.029 A 
ATOM     49  N   UNL A   1      40.113  30.524  29.870  1.00  0.00    -0.354 N 
ATOM     50  C   UNL A   1      43.947  30.525  27.849  1.00  0.00     0.074 A 
ATOM     51  C   UNL A   1      43.493  30.052  26.568  1.00  0.00     0.031 C 
ATOM     52  C   UNL A   1      38.022  29.814  30.197  1.00  0.00     0.029 A 
ATOM     53  C   UNL A   1      38.871  30.986  30.293  1.00  0.00     0.049 A 
ATOM     54  H   UNL A   1      40.929  31.074  29.908  1.00  0.00     0.167 HD
ATOM     55  C   UNL A   1      44.806  31.531  28.175  1.00  0.00     0.037 A 
ATOM     56  C   UNL A   1      38.531  32.249  30.654  1.00  0.00     0.037 A 
ATOM     57  C   UNL A   1      45.116  31.528  29.580  1.00  0.00     0.049 A 
ATOM     58  C   UNL A   1      39.780  32.963  31.004  1.00  0.00     0.074 A 
ATOM     59  C   UNL A   1      45.695  30.612  30.437  1.00  0.00     0.029 A 
ATOM     60  N   UNL A   1      44.525  32.462  30.392  1.00  0.00    -0.354 N 
ATOM     61  N   UNL A   1      40.506  32.686  32.051  1.00  0.00    -0.248 NA
ATOM     62  C   UNL A   1      40.454  33.707  29.952  1.00  0.00     0.031 C 
ATOM     63  C   UNL A   1      44.992  30.764  31.669  1.00  0.00     0.029 A 
ATOM     64  C   UNL A   1      44.067  31.793  31.498  1.00  0.00     0.049 A 
ATOM     65  H   UNL A   1      44.446  33.427  30.216  1.00  0.00     0.167 HD
ATOM     66  C   UNL A   1      41.813  32.828  31.614  1.00  0.00     0.074 A 
ATOM     67  C   UNL A   1      41.718  33.558  30.353  1.00  0.00     0.031 C 
ATOM     68  C   UNL A   1      42.824  32.097  32.167  1.00  0.00     0.037 A 
BRANCH  55  69
ATOM     69  C   UNL A   1      45.140  32.694  27.274  1.00  0.00     0.064 A 
ATOM     70  C   UNL A   1      46.429  32.796  26.714  1.00  0.00     0.173 A 
ATOM     71  C   UNL A   1      44.337  33.850  27.169  1.00  0.00     0.173 A 
ATOM     72  F   UNL A   1      47.289  31.768  26.784  1.00  0.00    -0.203 F 
ATOM     73  C   UNL A   1      46.898  33.986  26.149  1.00  0.00     0.198 A 
ATOM     74  C   UNL A   1      44.789  35.017  26.554  1.00  0.00     0.198 A 
ATOM     75  F   UNL A   1      43.135  33.933  27.749  1.00  0.00    -0.203 F 
ATOM     76  F   UNL A   1      48.170  34.071  25.737  1.00  0.00    -0.200 F 
ATOM     77  C   UNL A   1      46.078  35.096  26.072  1.00  0.00     0.200 A 
ATOM     78  F   UNL A   1      43.986  36.090  26.508  1.00  0.00    -0.200 F 
ATOM     79  F   UNL A   1      46.542  36.253  25.581  1.00  0.00    -0.200 F 
ENDBRANCH  55  69
BRANCH  56  80
ATOM     80  C   UNL A   1      37.227  32.936  30.489  1.00  0.00     0.064 A 
ATOM     81  C   UNL A   1      36.808  33.441  29.247  1.00  0.00     0.173 A 
ATOM     82  C   UNL A   1      36.248  32.889  31.503  1.00  0.00     0.173 A 
ATOM     83  F   UNL A   1      37.660  33.479  28.212  1.00  0.00    -0.203 F 
ATOM     84  C   UNL A   1      35.489  33.862  29.031  1.00  0.00     0.198 A 
ATOM     85  C   UNL A   1      34.937  33.318  31.289  1.00  0.00     0.198 A 
ATOM     86  F   UNL A   1      36.522  32.347  32.697  1.00  0.00    -0.203 F 
ATOM     87  F   UNL A   1      35.114  34.290  27.818  1.00  0.00    -0.200 F 
ATOM     88  C   UNL A   1      34.554  33.793  30.050  1.00  0.00     0.200 A 
ATOM     89  F   UNL A   1      34.037  33.214  32.277  1.00  0.00    -0.200 F 
ATOM     90  F   UNL A   1      33.281  34.147  29.830  1.00  0.00    -0.200 F 
ENDBRANCH  56  80
BRANCH  68  91
ATOM     91  C   UNL A   1      42.530  31.322  33.423  1.00  0.00     0.064 A 
ATOM     92  C   UNL A   1      42.042  30.004  33.426  1.00  0.00     0.173 A 
ATOM     93  C   UNL A   1      42.925  31.865  34.652  1.00  0.00     0.173 A 
ATOM     94  F   UNL A   1      41.733  29.378  32.285  1.00  0.00    -0.203 F 
ATOM     95  C   UNL A   1      41.929  29.275  34.609  1.00  0.00     0.198 A 
ATOM     96  C   UNL A   1      42.842  31.123  35.828  1.00  0.00     0.198 A 
ATOM     97  F   UNL A   1      43.450  33.098  34.704  1.00  0.00    -0.203 F 
ATOM     98  F   UNL A   1      41.462  28.018  34.579  1.00  0.00    -0.200 F 
ATOM     99  C   UNL A   1      42.340  29.831  35.807  1.00  0.00     0.200 A 
ATOM    100  F   UNL A   1      43.287  31.647  36.978  1.00  0.00    -0.200 F 
ATOM    101  F   UNL A   1      42.282  29.112  36.938  1.00  0.00    -0.200 F 
ENDBRANCH  68  91
ENDBRANCH  42  43
ENDBRANCH  34  37
ENDBRANCH  32  33
ENDBRANCH  31  32
ENDBRANCH  30  31
ENDBRANCH   1  30
TORSDOF 16
ENDMDL
