MODEL 1
REMARK VINA RESULT:     -11.8      0.000      0.000
REMARK SMILES CCCC(=O)N(c1cc2sc(=O)oc2c2ccccc12)S(=O)(=O)c1ccc(C(=O)NCCCCNC(=O)c2ccc(-c3c4nc(c(-c5c(F)c(F)c(F)c(F)c5F)c5ccc([nH]5)c(-c5c(F)c(F)c(F)c(F)c5F)c5nc(c(-c6c(F)c(F)c(F)c(F)c6F)c6ccc3[nH]6)C=C5)C=C4)cc2)cc1
REMARK SMILES IDX 31 1 30 2 28 3 29 4 27 6 24 7 25 8 102 9 26 10 101 11 21 12
REMARK SMILES IDX 22 13 23 14 6 15 4 16 5 17 3 18 2 19 1 20 7 21 8 22 20 23
REMARK SMILES IDX 9 24 15 25 19 26 10 27 14 28 16 29 18 30 11 31 13 32 17 33
REMARK SMILES IDX 12 34 32 35 33 36 34 37 35 38 36 39 37 41 38 42 39 43 100 44
REMARK SMILES IDX 40 45 99 46 41 47 42 48 43 49 93 50 44 51 98 52 92 53 94 54
REMARK SMILES IDX 45 55 97 56 91 57 90 58 46 60 78 61 58 62 77 63 59 64 62 65
REMARK SMILES IDX 76 66 95 67 60 68 61 69 75 71 96 72 63 73 47 74 48 75 56 76
REMARK SMILES IDX 49 77 50 78 54 79 57 80 51 81 52 82 55 83 53 84 79 85 80 86
REMARK SMILES IDX 88 87 81 88 82 89 86 90 89 91 83 92 84 93 87 94 85 95 64 96
REMARK SMILES IDX 65 97 73 98 66 99 67 100 71 101 74 102 68 103 69 104 72 105
REMARK SMILES IDX 70 106
REMARK H PARENT 30 5 35 40 94 59 62 70
REMARK Flexibility Score: inf
ROOT
ATOM      1  C   UNL A   1      45.789  31.824  27.138  1.00  0.00     0.116 C 
ENDROOT
BRANCH   1   2
ATOM      2  N   UNL A   1      46.052  31.150  28.396  1.00  0.00    -0.352 N 
ATOM      3  C   UNL A   1      46.215  29.810  28.671  1.00  0.00     0.251 C 
ATOM      4  O   UNL A   1      46.466  29.483  29.831  1.00  0.00    -0.269 OA
ATOM      5  H   UNL A   1      46.125  31.745  29.177  1.00  0.00     0.163 HD
BRANCH   3   6
ATOM      6  C   UNL A   1      46.005  28.746  27.643  1.00  0.00     0.039 A 
ATOM      7  C   UNL A   1      45.538  26.439  26.119  1.00  0.00     0.088 A 
ATOM      8  C   UNL A   1      46.796  26.659  26.683  1.00  0.00     0.023 A 
ATOM      9  C   UNL A   1      44.595  27.463  26.137  1.00  0.00     0.023 A 
ATOM     10  C   UNL A   1      47.004  27.774  27.499  1.00  0.00     0.015 A 
ATOM     11  C   UNL A   1      44.867  28.639  26.840  1.00  0.00     0.015 A 
BRANCH   7  12
ATOM     12  S   UNL A   1      45.163  24.902  25.275  1.00  0.00     0.270 S 
ATOM     13  O   UNL A   1      46.347  24.591  24.509  1.00  0.00    -0.201 OA
ATOM     14  O   UNL A   1      43.877  25.124  24.632  1.00  0.00    -0.201 OA
BRANCH  12  15
ATOM     15  N   UNL A   1      44.898  23.694  26.464  1.00  0.00    -0.202 N 
BRANCH  15  16
ATOM     16  C   UNL A   1      44.830  24.128  27.836  1.00  0.00     0.241 C 
ATOM     17  O   UNL A   1      45.768  23.966  28.612  1.00  0.00    -0.273 OA
BRANCH  16  18
ATOM     18  C   UNL A   1      43.539  24.748  28.368  1.00  0.00     0.101 C 
BRANCH  18  19
ATOM     19  C   UNL A   1      43.622  25.233  29.817  1.00  0.00     0.006 C 
ATOM     20  C   UNL A   1      44.083  26.680  29.921  1.00  0.00     0.004 C 
ENDBRANCH  18  19
ENDBRANCH  16  18
ENDBRANCH  15  16
BRANCH  15  21
ATOM     21  C   UNL A   1      44.130  22.530  26.104  1.00  0.00     0.070 A 
ATOM     22  C   UNL A   1      42.748  22.618  26.352  1.00  0.00     0.051 A 
ATOM     23  C   UNL A   1      44.712  21.322  25.598  1.00  0.00     0.010 A 
ATOM     24  C   UNL A   1      41.955  21.511  26.120  1.00  0.00     0.080 A 
ATOM     25  C   UNL A   1      43.850  20.244  25.256  1.00  0.00     0.028 A 
ATOM     26  C   UNL A   1      46.098  21.131  25.391  1.00  0.00     0.011 A 
ATOM     27  S   UNL A   1      40.250  21.319  26.473  1.00  0.00    -0.052 S 
ATOM     28  C   UNL A   1      42.489  20.354  25.572  1.00  0.00     0.157 A 
ATOM     29  C   UNL A   1      44.368  19.110  24.599  1.00  0.00     0.013 A 
ATOM     30  C   UNL A   1      46.594  20.004  24.731  1.00  0.00     0.001 A 
ATOM     31  C   UNL A   1      40.357  19.661  25.870  1.00  0.00     0.396 A 
ATOM     32  O   UNL A   1      41.606  19.283  25.382  1.00  0.00    -0.413 OA
ATOM     33  C   UNL A   1      45.724  19.010  24.305  1.00  0.00     0.001 A 
ATOM     34  O   UNL A   1      39.395  18.905  25.875  1.00  0.00    -0.233 OA
ENDBRANCH  15  21
ENDBRANCH  12  15
ENDBRANCH   7  12
ENDBRANCH   3   6
ENDBRANCH   1   2
BRANCH   1  35
ATOM     35  C   UNL A   1      44.350  32.271  26.916  1.00  0.00     0.023 C 
BRANCH  35  36
ATOM     36  C   UNL A   1      44.162  33.481  26.007  1.00  0.00     0.023 C 
BRANCH  36  37
ATOM     37  C   UNL A   1      44.951  34.722  26.427  1.00  0.00     0.116 C 
BRANCH  37  38
ATOM     38  N   UNL A   1      44.275  35.988  26.165  1.00  0.00    -0.352 N 
ATOM     39  C   UNL A   1      43.350  36.659  26.936  1.00  0.00     0.251 C 
ATOM     40  H   UNL A   1      44.514  36.426  25.317  1.00  0.00     0.163 HD
ATOM     41  O   UNL A   1      42.876  37.731  26.582  1.00  0.00    -0.269 OA
BRANCH  39  42
ATOM     42  C   UNL A   1      42.863  35.996  28.155  1.00  0.00     0.039 A 
ATOM     43  C   UNL A   1      43.764  35.639  29.158  1.00  0.00     0.014 A 
ATOM     44  C   UNL A   1      41.537  35.560  28.176  1.00  0.00     0.014 A 
ATOM     45  C   UNL A   1      43.407  34.656  30.058  1.00  0.00     0.010 A 
ATOM     46  C   UNL A   1      41.156  34.625  29.126  1.00  0.00     0.010 A 
ATOM     47  C   UNL A   1      42.113  34.128  30.021  1.00  0.00    -0.014 A 
BRANCH  47  48
ATOM     48  C   UNL A   1      41.813  33.154  31.068  1.00  0.00     0.031 A 
ATOM     49  C   UNL A   1      40.359  33.201  31.425  1.00  0.00     0.074 A 
ATOM     50  C   UNL A   1      42.421  31.953  31.094  1.00  0.00     0.049 A 
ATOM     51  N   UNL A   1      39.419  32.611  30.748  1.00  0.00    -0.248 NA
ATOM     52  C   UNL A   1      39.867  34.198  32.377  1.00  0.00     0.031 C 
ATOM     53  C   UNL A   1      42.734  31.083  29.964  1.00  0.00     0.029 A 
ATOM     54  N   UNL A   1      42.814  31.245  32.215  1.00  0.00    -0.354 N 
ATOM     55  C   UNL A   1      38.220  33.173  31.146  1.00  0.00     0.074 A 
ATOM     56  C   UNL A   1      38.546  34.160  32.150  1.00  0.00     0.031 C 
ATOM     57  C   UNL A   1      43.108  29.879  30.442  1.00  0.00     0.029 A 
ATOM     58  C   UNL A   1      43.148  29.920  31.904  1.00  0.00     0.049 A 
ATOM     59  H   UNL A   1      42.856  31.626  33.121  1.00  0.00     0.167 HD
ATOM     60  C   UNL A   1      37.023  32.789  30.634  1.00  0.00     0.037 A 
ATOM     61  C   UNL A   1      42.772  28.904  32.736  1.00  0.00     0.037 A 
ATOM     62  C   UNL A   1      37.077  31.715  29.691  1.00  0.00     0.049 A 
ATOM     63  C   UNL A   1      41.313  28.743  32.347  1.00  0.00     0.074 A 
ATOM     64  C   UNL A   1      37.023  31.553  28.325  1.00  0.00     0.029 A 
ATOM     65  N   UNL A   1      37.278  30.450  30.190  1.00  0.00    -0.354 N 
ATOM     66  N   UNL A   1      40.862  28.173  31.256  1.00  0.00    -0.248 NA
ATOM     67  C   UNL A   1      40.342  29.612  33.016  1.00  0.00     0.031 C 
ATOM     68  C   UNL A   1      37.651  30.293  28.070  1.00  0.00     0.029 A 
ATOM     69  C   UNL A   1      38.076  29.784  29.298  1.00  0.00     0.049 A 
ATOM     70  H   UNL A   1      36.918  30.090  31.033  1.00  0.00     0.167 HD
ATOM     71  C   UNL A   1      39.670  28.842  30.955  1.00  0.00     0.074 A 
ATOM     72  C   UNL A   1      39.386  29.678  32.100  1.00  0.00     0.031 C 
ATOM     73  C   UNL A   1      39.088  28.840  29.719  1.00  0.00     0.037 A 
BRANCH  60  74
ATOM     74  C   UNL A   1      35.712  33.229  31.141  1.00  0.00     0.064 A 
ATOM     75  C   UNL A   1      35.059  34.251  30.437  1.00  0.00     0.173 A 
ATOM     76  C   UNL A   1      35.199  32.845  32.382  1.00  0.00     0.173 A 
ATOM     77  F   UNL A   1      35.528  34.642  29.240  1.00  0.00    -0.203 F 
ATOM     78  C   UNL A   1      33.966  34.911  30.977  1.00  0.00     0.198 A 
ATOM     79  C   UNL A   1      34.089  33.500  32.918  1.00  0.00     0.198 A 
ATOM     80  F   UNL A   1      35.795  31.876  33.094  1.00  0.00    -0.203 F 
ATOM     81  F   UNL A   1      33.402  35.923  30.305  1.00  0.00    -0.200 F 
ATOM     82  C   UNL A   1      33.487  34.542  32.224  1.00  0.00     0.200 A 
ATOM     83  F   UNL A   1      33.620  33.147  34.123  1.00  0.00    -0.200 F 
ATOM     84  F   UNL A   1      32.452  35.202  32.761  1.00  0.00    -0.200 F 
ENDBRANCH  60  74
BRANCH  61  85
ATOM     85  C   UNL A   1      43.276  29.087  34.144  1.00  0.00     0.064 A 
ATOM     86  C   UNL A   1      44.142  28.099  34.667  1.00  0.00     0.173 A 
ATOM     87  C   UNL A   1      43.057  30.202  34.963  1.00  0.00     0.173 A 
ATOM     88  F   UNL A   1      44.321  26.943  34.007  1.00  0.00    -0.203 F 
ATOM     89  C   UNL A   1      44.887  28.304  35.827  1.00  0.00     0.198 A 
ATOM     90  C   UNL A   1      43.817  30.417  36.118  1.00  0.00     0.198 A 
ATOM     91  F   UNL A   1      42.133  31.120  34.654  1.00  0.00    -0.203 F 
ATOM     92  F   UNL A   1      45.770  27.378  36.226  1.00  0.00    -0.200 F 
ATOM     93  C   UNL A   1      44.756  29.486  36.529  1.00  0.00     0.200 A 
ATOM     94  F   UNL A   1      43.672  31.559  36.805  1.00  0.00    -0.200 F 
ATOM     95  F   UNL A   1      45.534  29.730  37.591  1.00  0.00    -0.200 F 
ENDBRANCH  61  85
BRANCH  73  96
ATOM     96  C   UNL A   1      39.707  27.943  28.706  1.00  0.00     0.064 A 
ATOM     97  C   UNL A   1      39.471  26.564  28.748  1.00  0.00     0.173 A 
ATOM     98  C   UNL A   1      40.465  28.452  27.639  1.00  0.00     0.173 A 
ATOM     99  F   UNL A   1      38.744  26.032  29.744  1.00  0.00    -0.203 F 
ATOM    100  C   UNL A   1      39.945  25.729  27.742  1.00  0.00     0.198 A 
ATOM    101  C   UNL A   1      40.908  27.618  26.617  1.00  0.00     0.198 A 
ATOM    102  F   UNL A   1      40.750  29.762  27.560  1.00  0.00    -0.203 F 
ATOM    103  F   UNL A   1      39.698  24.413  27.795  1.00  0.00    -0.200 F 
ATOM    104  C   UNL A   1      40.644  26.260  26.668  1.00  0.00     0.200 A 
ATOM    105  F   UNL A   1      41.567  28.135  25.569  1.00  0.00    -0.200 F 
ATOM    106  F   UNL A   1      41.052  25.460  25.672  1.00  0.00    -0.200 F 
ENDBRANCH  73  96
ENDBRANCH  47  48
ENDBRANCH  39  42
ENDBRANCH  37  38
ENDBRANCH  36  37
ENDBRANCH  35  36
ENDBRANCH   1  35
TORSDOF 17
ENDMDL
MODEL 2
REMARK VINA RESULT:     -11.6      5.113     10.709
REMARK SMILES CCCC(=O)N(c1cc2sc(=O)oc2c2ccccc12)S(=O)(=O)c1ccc(C(=O)NCCCCNC(=O)c2ccc(-c3c4nc(c(-c5c(F)c(F)c(F)c(F)c5F)c5ccc([nH]5)c(-c5c(F)c(F)c(F)c(F)c5F)c5nc(c(-c6c(F)c(F)c(F)c(F)c6F)c6ccc3[nH]6)C=C5)C=C4)cc2)cc1
REMARK SMILES IDX 31 1 30 2 28 3 29 4 27 6 24 7 25 8 102 9 26 10 101 11 21 12
REMARK SMILES IDX 22 13 23 14 6 15 4 16 5 17 3 18 2 19 1 20 7 21 8 22 20 23
REMARK SMILES IDX 9 24 15 25 19 26 10 27 14 28 16 29 18 30 11 31 13 32 17 33
REMARK SMILES IDX 12 34 32 35 33 36 34 37 35 38 36 39 37 41 38 42 39 43 100 44
REMARK SMILES IDX 40 45 99 46 41 47 42 48 43 49 93 50 44 51 98 52 92 53 94 54
REMARK SMILES IDX 45 55 97 56 91 57 90 58 46 60 78 61 58 62 77 63 59 64 62 65
REMARK SMILES IDX 76 66 95 67 60 68 61 69 75 71 96 72 63 73 47 74 48 75 56 76
REMARK SMILES IDX 49 77 50 78 54 79 57 80 51 81 52 82 55 83 53 84 79 85 80 86
REMARK SMILES IDX 88 87 81 88 82 89 86 90 89 91 83 92 84 93 87 94 85 95 64 96
REMARK SMILES IDX 65 97 73 98 66 99 67 100 71 101 74 102 68 103 69 104 72 105
REMARK SMILES IDX 70 106
REMARK H PARENT 30 5 35 40 94 59 62 70
REMARK Flexibility Score: inf
ROOT
ATOM      1  C   UNL A   1      32.621  30.480  26.906  1.00  0.00     0.116 C 
ENDROOT
BRANCH   1   2
ATOM      2  N   UNL A   1      32.622  30.293  25.467  1.00  0.00    -0.352 N 
ATOM      3  C   UNL A   1      32.400  29.159  24.716  1.00  0.00     0.251 C 
ATOM      4  O   UNL A   1      32.423  29.264  23.490  1.00  0.00    -0.269 OA
ATOM      5  H   UNL A   1      32.813  31.105  24.943  1.00  0.00     0.163 HD
BRANCH   3   6
ATOM      6  C   UNL A   1      32.230  27.808  25.330  1.00  0.00     0.039 A 
ATOM      7  C   UNL A   1      31.838  25.113  25.998  1.00  0.00     0.088 A 
ATOM      8  C   UNL A   1      30.738  25.937  25.752  1.00  0.00     0.023 A 
ATOM      9  C   UNL A   1      33.103  25.683  26.120  1.00  0.00     0.023 A 
ATOM     10  C   UNL A   1      30.940  27.261  25.352  1.00  0.00     0.015 A 
ATOM     11  C   UNL A   1      33.275  27.043  25.855  1.00  0.00     0.015 A 
BRANCH   7  12
ATOM     12  S   UNL A   1      31.628  23.353  26.271  1.00  0.00     0.270 S 
ATOM     13  O   UNL A   1      30.204  23.159  26.413  1.00  0.00    -0.201 OA
ATOM     14  O   UNL A   1      32.553  23.020  27.343  1.00  0.00    -0.201 OA
BRANCH  12  15
ATOM     15  N   UNL A   1      32.197  22.528  24.878  1.00  0.00    -0.202 N 
BRANCH  15  16
ATOM     16  C   UNL A   1      31.845  23.084  23.597  1.00  0.00     0.241 C 
ATOM     17  O   UNL A   1      30.675  23.255  23.266  1.00  0.00    -0.273 OA
BRANCH  16  18
ATOM     18  C   UNL A   1      32.945  23.413  22.589  1.00  0.00     0.101 C 
BRANCH  18  19
ATOM     19  C   UNL A   1      33.462  24.851  22.665  1.00  0.00     0.006 C 
ATOM     20  C   UNL A   1      32.478  25.855  22.080  1.00  0.00     0.004 C 
ENDBRANCH  18  19
ENDBRANCH  16  18
ENDBRANCH  15  16
BRANCH  15  21
ATOM     21  C   UNL A   1      33.443  21.812  24.963  1.00  0.00     0.070 A 
ATOM     22  C   UNL A   1      34.558  22.582  25.343  1.00  0.00     0.051 A 
ATOM     23  C   UNL A   1      33.587  20.428  24.620  1.00  0.00     0.010 A 
ATOM     24  C   UNL A   1      35.806  21.990  25.358  1.00  0.00     0.080 A 
ATOM     25  C   UNL A   1      34.865  19.821  24.765  1.00  0.00     0.028 A 
ATOM     26  C   UNL A   1      32.531  19.607  24.160  1.00  0.00     0.011 A 
ATOM     27  S   UNL A   1      37.353  22.755  25.656  1.00  0.00    -0.052 S 
ATOM     28  C   UNL A   1      35.957  20.638  25.089  1.00  0.00     0.157 A 
ATOM     29  C   UNL A   1      35.006  18.429  24.600  1.00  0.00     0.013 A 
ATOM     30  C   UNL A   1      32.686  18.226  24.011  1.00  0.00     0.001 A 
ATOM     31  C   UNL A   1      38.130  21.192  25.380  1.00  0.00     0.396 A 
ATOM     32  O   UNL A   1      37.263  20.133  25.122  1.00  0.00    -0.413 OA
ATOM     33  C   UNL A   1      33.915  17.634  24.263  1.00  0.00     0.001 A 
ATOM     34  O   UNL A   1      39.345  21.054  25.424  1.00  0.00    -0.233 OA
ENDBRANCH  15  21
ENDBRANCH  12  15
ENDBRANCH   7  12
ENDBRANCH   3   6
ENDBRANCH   1   2
BRANCH   1  35
ATOM     35  C   UNL A   1      33.949  30.906  27.518  1.00  0.00     0.023 C 
BRANCH  35  36
ATOM     36  C   UNL A   1      34.940  29.783  27.806  1.00  0.00     0.023 C 
BRANCH  36  37
ATOM     37  C   UNL A   1      36.182  30.215  28.587  1.00  0.00     0.116 C 
BRANCH  37  38
ATOM     38  N   UNL A   1      36.291  29.636  29.922  1.00  0.00    -0.352 N 
ATOM     39  C   UNL A   1      37.391  29.090  30.549  1.00  0.00     0.251 C 
ATOM     40  H   UNL A   1      35.462  29.636  30.451  1.00  0.00     0.163 HD
ATOM     41  O   UNL A   1      37.327  28.650  31.690  1.00  0.00    -0.269 OA
BRANCH  39  42
ATOM     42  C   UNL A   1      38.628  28.952  29.767  1.00  0.00     0.039 A 
ATOM     43  C   UNL A   1      38.683  28.047  28.707  1.00  0.00     0.014 A 
ATOM     44  C   UNL A   1      39.777  29.589  30.243  1.00  0.00     0.014 A 
ATOM     45  C   UNL A   1      39.913  27.597  28.276  1.00  0.00     0.010 A 
ATOM     46  C   UNL A   1      41.012  29.188  29.758  1.00  0.00     0.010 A 
ATOM     47  C   UNL A   1      41.076  28.146  28.823  1.00  0.00    -0.014 A 
BRANCH  47  48
ATOM     48  C   UNL A   1      42.324  27.659  28.239  1.00  0.00     0.031 A 
ATOM     49  C   UNL A   1      43.214  28.807  27.872  1.00  0.00     0.074 A 
ATOM     50  C   UNL A   1      42.913  26.537  28.694  1.00  0.00     0.049 A 
ATOM     51  N   UNL A   1      43.974  29.442  28.714  1.00  0.00    -0.248 NA
ATOM     52  C   UNL A   1      43.027  29.504  26.599  1.00  0.00     0.031 C 
ATOM     53  C   UNL A   1      43.045  26.094  30.079  1.00  0.00     0.029 A 
ATOM     54  N   UNL A   1      43.593  25.593  27.947  1.00  0.00    -0.354 N 
ATOM     55  C   UNL A   1      44.339  30.632  28.111  1.00  0.00     0.074 A 
ATOM     56  C   UNL A   1      43.721  30.633  26.805  1.00  0.00     0.031 C 
ATOM     57  C   UNL A   1      43.911  25.061  30.117  1.00  0.00     0.029 A 
ATOM     58  C   UNL A   1      44.323  24.713  28.757  1.00  0.00     0.049 A 
ATOM     59  H   UNL A   1      43.567  25.545  26.964  1.00  0.00     0.167 HD
ATOM     60  C   UNL A   1      45.138  31.547  28.716  1.00  0.00     0.037 A 
ATOM     61  C   UNL A   1      45.577  24.317  28.386  1.00  0.00     0.037 A 
ATOM     62  C   UNL A   1      45.630  31.172  30.006  1.00  0.00     0.049 A 
ATOM     63  C   UNL A   1      46.391  25.535  28.787  1.00  0.00     0.074 A 
ATOM     64  C   UNL A   1      45.349  31.447  31.325  1.00  0.00     0.029 A 
ATOM     65  N   UNL A   1      46.646  30.246  30.046  1.00  0.00    -0.354 N 
ATOM     66  N   UNL A   1      46.731  25.870  30.008  1.00  0.00    -0.248 NA
ATOM     67  C   UNL A   1      46.479  26.630  27.817  1.00  0.00     0.031 C 
ATOM     68  C   UNL A   1      45.883  30.343  32.062  1.00  0.00     0.029 A 
ATOM     69  C   UNL A   1      46.427  29.450  31.139  1.00  0.00     0.049 A 
ATOM     70  H   UNL A   1      47.392  30.169  29.407  1.00  0.00     0.167 HD
ATOM     71  C   UNL A   1      46.788  27.268  30.006  1.00  0.00     0.074 A 
ATOM     72  C   UNL A   1      46.670  27.667  28.621  1.00  0.00     0.031 C 
ATOM     73  C   UNL A   1      46.720  28.034  31.136  1.00  0.00     0.037 A 
BRANCH  60  74
ATOM     74  C   UNL A   1      45.694  32.742  28.059  1.00  0.00     0.064 A 
ATOM     75  C   UNL A   1      44.899  33.896  28.043  1.00  0.00     0.173 A 
ATOM     76  C   UNL A   1      46.852  32.722  27.279  1.00  0.00     0.173 A 
ATOM     77  F   UNL A   1      43.779  33.946  28.784  1.00  0.00    -0.203 F 
ATOM     78  C   UNL A   1      45.213  34.975  27.230  1.00  0.00     0.198 A 
ATOM     79  C   UNL A   1      47.175  33.814  26.472  1.00  0.00     0.198 A 
ATOM     80  F   UNL A   1      47.640  31.637  27.259  1.00  0.00    -0.203 F 
ATOM     81  F   UNL A   1      44.399  36.038  27.191  1.00  0.00    -0.200 F 
ATOM     82  C   UNL A   1      46.347  34.929  26.435  1.00  0.00     0.200 A 
ATOM     83  F   UNL A   1      48.272  33.777  25.701  1.00  0.00    -0.200 F 
ATOM     84  F   UNL A   1      46.633  35.956  25.623  1.00  0.00    -0.200 F 
ENDBRANCH  60  74
BRANCH  61  85
ATOM     85  C   UNL A   1      45.604  23.670  27.026  1.00  0.00     0.064 A 
ATOM     86  C   UNL A   1      44.519  22.835  26.673  1.00  0.00     0.173 A 
ATOM     87  C   UNL A   1      46.554  23.894  26.021  1.00  0.00     0.173 A 
ATOM     88  F   UNL A   1      43.621  22.469  27.601  1.00  0.00    -0.203 F 
ATOM     89  C   UNL A   1      44.296  22.424  25.359  1.00  0.00     0.198 A 
ATOM     90  C   UNL A   1      46.323  23.497  24.699  1.00  0.00     0.198 A 
ATOM     91  F   UNL A   1      47.705  24.526  26.282  1.00  0.00    -0.203 F 
ATOM     92  F   UNL A   1      43.197  21.718  25.058  1.00  0.00    -0.200 F 
ATOM     93  C   UNL A   1      45.178  22.794  24.363  1.00  0.00     0.200 A 
ATOM     94  F   UNL A   1      47.192  23.844  23.740  1.00  0.00    -0.200 F 
ATOM     95  F   UNL A   1      44.923  22.482  23.086  1.00  0.00    -0.200 F 
ENDBRANCH  61  85
BRANCH  73  96
ATOM     96  C   UNL A   1      46.739  27.296  32.428  1.00  0.00     0.064 A 
ATOM     97  C   UNL A   1      45.539  26.966  33.068  1.00  0.00     0.173 A 
ATOM     98  C   UNL A   1      47.939  26.835  32.994  1.00  0.00     0.173 A 
ATOM     99  F   UNL A   1      44.366  27.376  32.560  1.00  0.00    -0.203 F 
ATOM    100  C   UNL A   1      45.536  26.176  34.212  1.00  0.00     0.198 A 
ATOM    101  C   UNL A   1      47.929  26.017  34.119  1.00  0.00     0.198 A 
ATOM    102  F   UNL A   1      49.124  27.145  32.443  1.00  0.00    -0.203 F 
ATOM    103  F   UNL A   1      44.375  25.862  34.804  1.00  0.00    -0.200 F 
ATOM    104  C   UNL A   1      46.728  25.686  34.724  1.00  0.00     0.200 A 
ATOM    105  F   UNL A   1      49.081  25.528  34.601  1.00  0.00    -0.200 F 
ATOM    106  F   UNL A   1      46.718  24.879  35.796  1.00  0.00    -0.200 F 
ENDBRANCH  73  96
ENDBRANCH  47  48
ENDBRANCH  39  42
ENDBRANCH  37  38
ENDBRANCH  36  37
ENDBRANCH  35  36
ENDBRANCH   1  35
TORSDOF 17
ENDMDL
MODEL 3
REMARK VINA RESULT:     -11.3      2.962      8.247
REMARK SMILES CCCC(=O)N(c1cc2sc(=O)oc2c2ccccc12)S(=O)(=O)c1ccc(C(=O)NCCCCNC(=O)c2ccc(-c3c4nc(c(-c5c(F)c(F)c(F)c(F)c5F)c5ccc([nH]5)c(-c5c(F)c(F)c(F)c(F)c5F)c5nc(c(-c6c(F)c(F)c(F)c(F)c6F)c6ccc3[nH]6)C=C5)C=C4)cc2)cc1
REMARK SMILES IDX 31 1 30 2 28 3 29 4 27 6 24 7 25 8 102 9 26 10 101 11 21 12
REMARK SMILES IDX 22 13 23 14 6 15 4 16 5 17 3 18 2 19 1 20 7 21 8 22 20 23
REMARK SMILES IDX 9 24 15 25 19 26 10 27 14 28 16 29 18 30 11 31 13 32 17 33
REMARK SMILES IDX 12 34 32 35 33 36 34 37 35 38 36 39 37 41 38 42 39 43 100 44
REMARK SMILES IDX 40 45 99 46 41 47 42 48 43 49 93 50 44 51 98 52 92 53 94 54
REMARK SMILES IDX 45 55 97 56 91 57 90 58 46 60 78 61 58 62 77 63 59 64 62 65
REMARK SMILES IDX 76 66 95 67 60 68 61 69 75 71 96 72 63 73 47 74 48 75 56 76
REMARK SMILES IDX 49 77 50 78 54 79 57 80 51 81 52 82 55 83 53 84 79 85 80 86
REMARK SMILES IDX 88 87 81 88 82 89 86 90 89 91 83 92 84 93 87 94 85 95 64 96
REMARK SMILES IDX 65 97 73 98 66 99 67 100 71 101 74 102 68 103 69 104 72 105
REMARK SMILES IDX 70 106
REMARK H PARENT 30 5 35 40 94 59 62 70
REMARK Flexibility Score: inf
ROOT
ATOM      1  C   UNL A   1      49.996  29.589  30.512  1.00  0.00     0.116 C 
ENDROOT
BRANCH   1   2
ATOM      2  N   UNL A   1      49.189  29.282  31.678  1.00  0.00    -0.352 N 
ATOM      3  C   UNL A   1      47.933  28.723  31.769  1.00  0.00     0.251 C 
ATOM      4  O   UNL A   1      47.466  28.529  32.892  1.00  0.00    -0.269 OA
ATOM      5  H   UNL A   1      49.605  29.510  32.541  1.00  0.00     0.163 HD
BRANCH   3   6
ATOM      6  C   UNL A   1      47.090  28.437  30.569  1.00  0.00     0.039 A 
ATOM      7  C   UNL A   1      45.721  28.330  28.124  1.00  0.00     0.088 A 
ATOM      8  C   UNL A   1      45.264  29.168  29.144  1.00  0.00     0.023 A 
ATOM      9  C   UNL A   1      46.719  27.400  28.403  1.00  0.00     0.023 A 
ATOM     10  C   UNL A   1      45.989  29.270  30.334  1.00  0.00     0.015 A 
ATOM     11  C   UNL A   1      47.347  27.415  29.651  1.00  0.00     0.015 A 
BRANCH   7  12
ATOM     12  S   UNL A   1      44.962  28.356  26.500  1.00  0.00     0.270 S 
ATOM     13  O   UNL A   1      45.986  27.890  25.595  1.00  0.00    -0.201 OA
ATOM     14  O   UNL A   1      44.379  29.683  26.373  1.00  0.00    -0.201 OA
BRANCH  12  15
ATOM     15  N   UNL A   1      43.643  27.258  26.512  1.00  0.00    -0.202 N 
BRANCH  15  16
ATOM     16  C   UNL A   1      42.447  27.663  25.820  1.00  0.00     0.241 C 
ATOM     17  O   UNL A   1      42.457  27.951  24.626  1.00  0.00    -0.273 OA
BRANCH  16  18
ATOM     18  C   UNL A   1      41.137  27.803  26.594  1.00  0.00     0.101 C 
BRANCH  18  19
ATOM     19  C   UNL A   1      40.427  26.478  26.878  1.00  0.00     0.006 C 
ATOM     20  C   UNL A   1      39.696  26.483  28.214  1.00  0.00     0.004 C 
ENDBRANCH  18  19
ENDBRANCH  16  18
ENDBRANCH  15  16
BRANCH  15  21
ATOM     21  C   UNL A   1      43.923  25.847  26.570  1.00  0.00     0.070 A 
ATOM     22  C   UNL A   1      44.165  25.228  25.330  1.00  0.00     0.051 A 
ATOM     23  C   UNL A   1      43.891  25.082  27.781  1.00  0.00     0.010 A 
ATOM     24  C   UNL A   1      44.350  23.859  25.290  1.00  0.00     0.080 A 
ATOM     25  C   UNL A   1      44.206  23.697  27.718  1.00  0.00     0.028 A 
ATOM     26  C   UNL A   1      43.584  25.617  29.054  1.00  0.00     0.011 A 
ATOM     27  S   UNL A   1      44.528  22.840  23.877  1.00  0.00    -0.052 S 
ATOM     28  C   UNL A   1      44.383  23.110  26.458  1.00  0.00     0.157 A 
ATOM     29  C   UNL A   1      44.350  22.953  28.907  1.00  0.00     0.013 A 
ATOM     30  C   UNL A   1      43.740  24.868  30.223  1.00  0.00     0.001 A 
ATOM     31  C   UNL A   1      44.622  21.440  24.952  1.00  0.00     0.396 A 
ATOM     32  O   UNL A   1      44.569  21.729  26.313  1.00  0.00    -0.413 OA
ATOM     33  C   UNL A   1      44.156  23.546  30.150  1.00  0.00     0.001 A 
ATOM     34  O   UNL A   1      44.735  20.299  24.524  1.00  0.00    -0.233 OA
ENDBRANCH  15  21
ENDBRANCH  12  15
ENDBRANCH   7  12
ENDBRANCH   3   6
ENDBRANCH   1   2
BRANCH   1  35
ATOM     35  C   UNL A   1      49.999  31.049  30.075  1.00  0.00     0.023 C 
BRANCH  35  36
ATOM     36  C   UNL A   1      48.740  31.843  30.402  1.00  0.00     0.023 C 
BRANCH  36  37
ATOM     37  C   UNL A   1      47.876  32.195  29.190  1.00  0.00     0.116 C 
BRANCH  37  38
ATOM     38  N   UNL A   1      47.400  33.573  29.163  1.00  0.00    -0.352 N 
ATOM     39  C   UNL A   1      46.142  34.068  29.439  1.00  0.00     0.251 C 
ATOM     40  H   UNL A   1      48.072  34.247  28.913  1.00  0.00     0.163 HD
ATOM     41  O   UNL A   1      45.898  35.266  29.383  1.00  0.00    -0.269 OA
BRANCH  39  42
ATOM     42  C   UNL A   1      45.067  33.100  29.699  1.00  0.00     0.039 A 
ATOM     43  C   UNL A   1      44.244  32.679  28.655  1.00  0.00     0.014 A 
ATOM     44  C   UNL A   1      44.775  32.789  31.029  1.00  0.00     0.014 A 
ATOM     45  C   UNL A   1      43.005  32.149  28.952  1.00  0.00     0.010 A 
ATOM     46  C   UNL A   1      43.560  32.191  31.324  1.00  0.00     0.010 A 
ATOM     47  C   UNL A   1      42.653  31.935  30.288  1.00  0.00    -0.014 A 
BRANCH  47  48
ATOM     48  C   UNL A   1      41.354  31.295  30.490  1.00  0.00     0.031 A 
ATOM     49  C   UNL A   1      41.526  29.951  31.128  1.00  0.00     0.074 A 
ATOM     50  C   UNL A   1      40.271  32.016  30.839  1.00  0.00     0.049 A 
ATOM     51  N   UNL A   1      41.702  29.763  32.402  1.00  0.00    -0.248 NA
ATOM     52  C   UNL A   1      41.842  28.781  30.306  1.00  0.00     0.031 C 
ATOM     53  C   UNL A   1      40.202  33.125  31.785  1.00  0.00     0.029 A 
ATOM     54  N   UNL A   1      38.967  31.807  30.431  1.00  0.00    -0.354 N 
ATOM     55  C   UNL A   1      42.185  28.476  32.558  1.00  0.00     0.074 A 
ATOM     56  C   UNL A   1      42.265  27.908  31.232  1.00  0.00     0.031 C 
ATOM     57  C   UNL A   1      38.905  33.396  32.032  1.00  0.00     0.029 A 
ATOM     58  C   UNL A   1      38.056  32.545  31.198  1.00  0.00     0.049 A 
ATOM     59  H   UNL A   1      38.710  31.213  29.689  1.00  0.00     0.167 HD
ATOM     60  C   UNL A   1      42.482  27.945  33.771  1.00  0.00     0.037 A 
ATOM     61  C   UNL A   1      36.871  31.985  31.585  1.00  0.00     0.037 A 
ATOM     62  C   UNL A   1      42.207  28.789  34.893  1.00  0.00     0.049 A 
ATOM     63  C   UNL A   1      37.330  31.129  32.753  1.00  0.00     0.074 A 
ATOM     64  C   UNL A   1      42.909  29.600  35.756  1.00  0.00     0.029 A 
ATOM     65  N   UNL A   1      40.891  28.928  35.267  1.00  0.00    -0.354 N 
ATOM     66  N   UNL A   1      37.651  31.560  33.949  1.00  0.00    -0.248 NA
ATOM     67  C   UNL A   1      37.831  29.787  32.443  1.00  0.00     0.031 C 
ATOM     68  C   UNL A   1      41.943  30.517  36.281  1.00  0.00     0.029 A 
ATOM     69  C   UNL A   1      40.720  30.224  35.676  1.00  0.00     0.049 A 
ATOM     70  H   UNL A   1      40.200  28.227  35.243  1.00  0.00     0.167 HD
ATOM     71  C   UNL A   1      38.629  30.672  34.412  1.00  0.00     0.074 A 
ATOM     72  C   UNL A   1      38.657  29.583  33.460  1.00  0.00     0.031 C 
ATOM     73  C   UNL A   1      39.503  30.962  35.421  1.00  0.00     0.037 A 
BRANCH  60  74
ATOM     74  C   UNL A   1      42.832  26.535  34.008  1.00  0.00     0.064 A 
ATOM     75  C   UNL A   1      41.927  25.762  34.751  1.00  0.00     0.173 A 
ATOM     76  C   UNL A   1      44.089  25.996  33.726  1.00  0.00     0.173 A 
ATOM     77  F   UNL A   1      40.709  26.252  35.037  1.00  0.00    -0.203 F 
ATOM     78  C   UNL A   1      42.284  24.519  35.250  1.00  0.00     0.198 A 
ATOM     79  C   UNL A   1      44.442  24.738  34.216  1.00  0.00     0.198 A 
ATOM     80  F   UNL A   1      44.989  26.701  33.024  1.00  0.00    -0.203 F 
ATOM     81  F   UNL A   1      41.418  23.833  36.008  1.00  0.00    -0.200 F 
ATOM     82  C   UNL A   1      43.547  24.010  34.991  1.00  0.00     0.200 A 
ATOM     83  F   UNL A   1      45.661  24.240  33.969  1.00  0.00    -0.200 F 
ATOM     84  F   UNL A   1      43.904  22.824  35.502  1.00  0.00    -0.200 F 
ENDBRANCH  60  74
BRANCH  61  85
ATOM     85  C   UNL A   1      36.053  31.491  30.421  1.00  0.00     0.064 A 
ATOM     86  C   UNL A   1      35.020  32.328  29.941  1.00  0.00     0.173 A 
ATOM     87  C   UNL A   1      36.279  30.319  29.688  1.00  0.00     0.173 A 
ATOM     88  F   UNL A   1      34.653  33.414  30.641  1.00  0.00    -0.203 F 
ATOM     89  C   UNL A   1      34.400  32.111  28.711  1.00  0.00     0.198 A 
ATOM     90  C   UNL A   1      35.671  30.109  28.445  1.00  0.00     0.198 A 
ATOM     91  F   UNL A   1      37.111  29.370  30.134  1.00  0.00    -0.203 F 
ATOM     92  F   UNL A   1      33.499  32.991  28.253  1.00  0.00    -0.200 F 
ATOM     93  C   UNL A   1      34.760  31.022  27.942  1.00  0.00     0.200 A 
ATOM     94  F   UNL A   1      36.011  29.040  27.712  1.00  0.00    -0.200 F 
ATOM     95  F   UNL A   1      34.237  30.856  26.720  1.00  0.00    -0.200 F 
ENDBRANCH  61  85
BRANCH  73  96
ATOM     96  C   UNL A   1      39.270  32.244  36.140  1.00  0.00     0.064 A 
ATOM     97  C   UNL A   1      38.375  32.296  37.215  1.00  0.00     0.173 A 
ATOM     98  C   UNL A   1      39.993  33.406  35.824  1.00  0.00     0.173 A 
ATOM     99  F   UNL A   1      37.668  31.209  37.560  1.00  0.00    -0.203 F 
ATOM    100  C   UNL A   1      38.235  33.455  37.970  1.00  0.00     0.198 A 
ATOM    101  C   UNL A   1      39.876  34.553  36.603  1.00  0.00     0.198 A 
ATOM    102  F   UNL A   1      40.844  33.427  34.785  1.00  0.00    -0.203 F 
ATOM    103  F   UNL A   1      37.382  33.481  39.003  1.00  0.00    -0.200 F 
ATOM    104  C   UNL A   1      39.000  34.575  37.676  1.00  0.00     0.200 A 
ATOM    105  F   UNL A   1      40.630  35.628  36.330  1.00  0.00    -0.200 F 
ATOM    106  F   UNL A   1      38.903  35.673  38.439  1.00  0.00    -0.200 F 
ENDBRANCH  73  96
ENDBRANCH  47  48
ENDBRANCH  39  42
ENDBRANCH  37  38
ENDBRANCH  36  37
ENDBRANCH  35  36
ENDBRANCH   1  35
TORSDOF 17
ENDMDL
