MODEL 1
REMARK VINA RESULT:     -11.6      0.000      0.000
REMARK SMILES CCCCCN(C(=O)N1CCC(CC(=O)NCCCCNC(=O)c2ccc(-c3c4nc(c(-c5c(F)c(F)c(F)c(F)c5F)c5ccc([nH]5)c(-c5c(F)c(F)c(F)c(F)c5F)c5nc(c(-c6c(F)c(F)c(F)c(F)c6F)c6ccc3[nH]6)C=C5)C=C4)cc2)CC1)C(C)C
REMARK SMILES IDX 14 1 15 2 16 3 13 5 12 6 7 7 8 8 9 9 10 10 88 11 11 12 87 13
REMARK SMILES IDX 6 14 5 15 4 16 3 17 2 18 1 19 89 20 90 21 91 22 17 23 18 24
REMARK SMILES IDX 19 25 20 26 21 27 22 28 23 30 24 31 25 32 86 33 26 34 85 35
REMARK SMILES IDX 27 36 28 37 29 38 79 39 30 40 84 41 78 42 80 43 31 44 83 45
REMARK SMILES IDX 77 46 76 47 32 49 64 50 44 51 63 52 45 53 48 54 62 55 81 56
REMARK SMILES IDX 46 57 47 58 61 60 82 61 49 62 33 63 34 64 42 65 35 66 36 67
REMARK SMILES IDX 40 68 43 69 37 70 38 71 41 72 39 73 65 74 66 75 74 76 67 77
REMARK SMILES IDX 68 78 72 79 75 80 69 81 70 82 73 83 71 84 50 85 51 86 59 87
REMARK SMILES IDX 52 88 53 89 57 90 60 91 54 92 55 93 58 94 56 95
REMARK H PARENT 16 4 21 29 80 48 48 59
REMARK Flexibility Score: inf
ROOT
ATOM      1  C   UNL A   1      31.444  28.945  23.408  1.00  0.00     0.220 C 
ATOM      2  O   UNL A   1      30.463  29.056  22.670  1.00  0.00    -0.275 OA
ATOM      3  N   UNL A   1      31.514  29.743  24.514  1.00  0.00    -0.356 N 
ATOM      4  H   UNL A   1      30.727  30.316  24.661  1.00  0.00     0.163 HD
ENDROOT
BRANCH   1   5
ATOM      5  C   UNL A   1      32.551  27.950  23.088  1.00  0.00     0.103 C 
BRANCH   5   6
ATOM      6  C   UNL A   1      32.364  26.562  23.740  1.00  0.00     0.002 C 
ATOM      7  C   UNL A   1      34.472  23.159  23.531  1.00  0.00     0.320 C 
ATOM      8  O   UNL A   1      34.778  23.293  22.346  1.00  0.00    -0.248 OA
ATOM      9  N   UNL A   1      33.387  23.835  24.064  1.00  0.00    -0.325 N 
ATOM     10  C   UNL A   1      32.235  24.054  23.221  1.00  0.00     0.121 C 
ATOM     11  C   UNL A   1      33.533  24.783  25.165  1.00  0.00     0.121 C 
ATOM     12  C   UNL A   1      32.216  25.470  22.683  1.00  0.00     0.026 C 
ATOM     13  C   UNL A   1      33.549  26.236  24.667  1.00  0.00     0.026 C 
BRANCH   7  14
ATOM     14  N   UNL A   1      35.150  22.295  24.394  1.00  0.00    -0.322 N 
BRANCH  14  15
ATOM     15  C   UNL A   1      34.466  21.181  25.079  1.00  0.00     0.121 C 
BRANCH  15  16
ATOM     16  C   UNL A   1      33.520  20.345  24.201  1.00  0.00     0.022 C 
BRANCH  16  17
ATOM     17  C   UNL A   1      32.738  19.201  24.865  1.00  0.00     0.002 C 
BRANCH  17  18
ATOM     18  C   UNL A   1      32.734  17.854  24.138  1.00  0.00    -0.003 C 
ATOM     19  C   UNL A   1      32.343  17.966  22.674  1.00  0.00     0.004 C 
ENDBRANCH  17  18
ENDBRANCH  16  17
ENDBRANCH  15  16
ENDBRANCH  14  15
BRANCH  14  20
ATOM     20  C   UNL A   1      36.627  22.386  24.408  1.00  0.00     0.080 C 
ATOM     21  C   UNL A   1      37.139  23.627  25.141  1.00  0.00     0.031 C 
ATOM     22  C   UNL A   1      37.316  21.124  24.921  1.00  0.00     0.031 C 
ENDBRANCH  14  20
ENDBRANCH   7  14
ENDBRANCH   5   6
ENDBRANCH   1   5
BRANCH   3  23
ATOM     23  C   UNL A   1      32.565  29.881  25.509  1.00  0.00     0.116 C 
BRANCH  23  24
ATOM     24  C   UNL A   1      32.031  30.450  26.827  1.00  0.00     0.023 C 
BRANCH  24  25
ATOM     25  C   UNL A   1      31.735  31.937  26.829  1.00  0.00     0.023 C 
BRANCH  25  26
ATOM     26  C   UNL A   1      32.849  32.784  27.408  1.00  0.00     0.116 C 
BRANCH  26  27
ATOM     27  N   UNL A   1      32.463  34.165  27.667  1.00  0.00    -0.352 N 
ATOM     28  C   UNL A   1      32.988  35.048  28.585  1.00  0.00     0.251 C 
ATOM     29  H   UNL A   1      31.728  34.513  27.112  1.00  0.00     0.163 HD
ATOM     30  O   UNL A   1      32.504  36.153  28.749  1.00  0.00    -0.269 OA
BRANCH  28  31
ATOM     31  C   UNL A   1      34.133  34.603  29.405  1.00  0.00     0.039 A 
ATOM     32  C   UNL A   1      33.887  34.038  30.658  1.00  0.00     0.014 A 
ATOM     33  C   UNL A   1      35.430  34.661  28.891  1.00  0.00     0.014 A 
ATOM     34  C   UNL A   1      34.941  33.455  31.361  1.00  0.00     0.010 A 
ATOM     35  C   UNL A   1      36.448  33.974  29.533  1.00  0.00     0.010 A 
ATOM     36  C   UNL A   1      36.218  33.380  30.782  1.00  0.00    -0.014 A 
BRANCH  36  37
ATOM     37  C   UNL A   1      37.347  32.720  31.479  1.00  0.00     0.031 A 
ATOM     38  C   UNL A   1      38.055  31.572  30.813  1.00  0.00     0.074 A 
ATOM     39  C   UNL A   1      37.681  33.098  32.727  1.00  0.00     0.049 A 
ATOM     40  N   UNL A   1      39.005  30.803  31.278  1.00  0.00    -0.248 NA
ATOM     41  C   UNL A   1      37.602  31.212  29.459  1.00  0.00     0.031 C 
ATOM     42  C   UNL A   1      37.018  34.150  33.502  1.00  0.00     0.029 A 
ATOM     43  N   UNL A   1      38.659  32.634  33.569  1.00  0.00    -0.354 N 
ATOM     44  C   UNL A   1      39.239  29.858  30.288  1.00  0.00     0.074 A 
ATOM     45  C   UNL A   1      38.286  30.103  29.229  1.00  0.00     0.031 C 
ATOM     46  C   UNL A   1      37.631  34.274  34.690  1.00  0.00     0.029 A 
ATOM     47  C   UNL A   1      38.707  33.291  34.774  1.00  0.00     0.049 A 
ATOM     48  H   UNL A   1      39.270  31.899  33.331  1.00  0.00     0.167 HD
ATOM     49  C   UNL A   1      40.188  28.895  30.248  1.00  0.00     0.037 A 
ATOM     50  C   UNL A   1      39.532  33.116  35.824  1.00  0.00     0.037 A 
ATOM     51  C   UNL A   1      41.166  28.692  31.280  1.00  0.00     0.049 A 
ATOM     52  C   UNL A   1      40.606  32.066  35.738  1.00  0.00     0.074 A 
ATOM     53  C   UNL A   1      42.219  27.797  31.309  1.00  0.00     0.029 A 
ATOM     54  N   UNL A   1      41.213  29.409  32.467  1.00  0.00    -0.354 N 
ATOM     55  N   UNL A   1      40.867  31.227  34.765  1.00  0.00    -0.248 NA
ATOM     56  C   UNL A   1      41.507  31.946  36.892  1.00  0.00     0.031 C 
ATOM     57  C   UNL A   1      42.884  27.947  32.531  1.00  0.00     0.029 A 
ATOM     58  C   UNL A   1      42.272  28.967  33.242  1.00  0.00     0.049 A 
ATOM     59  H   UNL A   1      40.587  30.125  32.721  1.00  0.00     0.167 HD
ATOM     60  C   UNL A   1      41.975  30.499  35.175  1.00  0.00     0.074 A 
ATOM     61  C   UNL A   1      42.348  31.008  36.479  1.00  0.00     0.031 C 
ATOM     62  C   UNL A   1      42.626  29.499  34.534  1.00  0.00     0.037 A 
BRANCH  49  63
ATOM     63  C   UNL A   1      40.218  28.004  29.040  1.00  0.00     0.064 A 
ATOM     64  C   UNL A   1      39.518  26.788  29.005  1.00  0.00     0.173 A 
ATOM     65  C   UNL A   1      40.946  28.375  27.900  1.00  0.00     0.173 A 
ATOM     66  F   UNL A   1      38.821  26.378  30.076  1.00  0.00    -0.203 F 
ATOM     67  C   UNL A   1      39.574  25.960  27.886  1.00  0.00     0.198 A 
ATOM     68  C   UNL A   1      40.972  27.560  26.771  1.00  0.00     0.198 A 
ATOM     69  F   UNL A   1      41.633  29.527  27.879  1.00  0.00    -0.203 F 
ATOM     70  F   UNL A   1      38.946  24.776  27.900  1.00  0.00    -0.200 F 
ATOM     71  C   UNL A   1      40.295  26.349  26.768  1.00  0.00     0.200 A 
ATOM     72  F   UNL A   1      41.662  27.942  25.687  1.00  0.00    -0.200 F 
ATOM     73  F   UNL A   1      40.345  25.554  25.691  1.00  0.00    -0.200 F 
ENDBRANCH  49  63
BRANCH  50  74
ATOM     74  C   UNL A   1      39.405  33.985  37.023  1.00  0.00     0.064 A 
ATOM     75  C   UNL A   1      40.008  35.251  37.058  1.00  0.00     0.173 A 
ATOM     76  C   UNL A   1      38.686  33.574  38.154  1.00  0.00     0.173 A 
ATOM     77  F   UNL A   1      40.721  35.681  36.006  1.00  0.00    -0.203 F 
ATOM     78  C   UNL A   1      39.915  36.063  38.186  1.00  0.00     0.198 A 
ATOM     79  C   UNL A   1      38.571  34.398  39.272  1.00  0.00     0.198 A 
ATOM     80  F   UNL A   1      38.085  32.376  38.168  1.00  0.00    -0.203 F 
ATOM     81  F   UNL A   1      40.539  37.248  38.209  1.00  0.00    -0.200 F 
ATOM     82  C   UNL A   1      39.193  35.638  39.290  1.00  0.00     0.200 A 
ATOM     83  F   UNL A   1      37.862  33.990  40.333  1.00  0.00    -0.200 F 
ATOM     84  F   UNL A   1      39.102  36.419  40.376  1.00  0.00    -0.200 F 
ENDBRANCH  50  74
BRANCH  62  85
ATOM     85  C   UNL A   1      43.826  28.914  35.217  1.00  0.00     0.064 A 
ATOM     86  C   UNL A   1      43.709  27.850  36.123  1.00  0.00     0.173 A 
ATOM     87  C   UNL A   1      45.112  29.397  34.930  1.00  0.00     0.173 A 
ATOM     88  F   UNL A   1      42.500  27.363  36.440  1.00  0.00    -0.203 F 
ATOM     89  C   UNL A   1      44.835  27.309  36.736  1.00  0.00     0.198 A 
ATOM     90  C   UNL A   1      46.237  28.834  35.522  1.00  0.00     0.198 A 
ATOM     91  F   UNL A   1      45.275  30.409  34.063  1.00  0.00    -0.203 F 
ATOM     92  F   UNL A   1      44.697  26.324  37.635  1.00  0.00    -0.200 F 
ATOM     93  C   UNL A   1      46.098  27.795  36.431  1.00  0.00     0.200 A 
ATOM     94  F   UNL A   1      47.457  29.296  35.215  1.00  0.00    -0.200 F 
ATOM     95  F   UNL A   1      47.180  27.268  37.016  1.00  0.00    -0.200 F 
ENDBRANCH  62  85
ENDBRANCH  36  37
ENDBRANCH  28  31
ENDBRANCH  26  27
ENDBRANCH  25  26
ENDBRANCH  24  25
ENDBRANCH  23  24
ENDBRANCH   3  23
TORSDOF 18
ENDMDL
MODEL 2
REMARK VINA RESULT:     -11.2      1.154      7.450
REMARK SMILES CCCCCN(C(=O)N1CCC(CC(=O)NCCCCNC(=O)c2ccc(-c3c4nc(c(-c5c(F)c(F)c(F)c(F)c5F)c5ccc([nH]5)c(-c5c(F)c(F)c(F)c(F)c5F)c5nc(c(-c6c(F)c(F)c(F)c(F)c6F)c6ccc3[nH]6)C=C5)C=C4)cc2)CC1)C(C)C
REMARK SMILES IDX 14 1 15 2 16 3 13 5 12 6 7 7 8 8 9 9 10 10 88 11 11 12 87 13
REMARK SMILES IDX 6 14 5 15 4 16 3 17 2 18 1 19 89 20 90 21 91 22 17 23 18 24
REMARK SMILES IDX 19 25 20 26 21 27 22 28 23 30 24 31 25 32 86 33 26 34 85 35
REMARK SMILES IDX 27 36 28 37 29 38 79 39 30 40 84 41 78 42 80 43 31 44 83 45
REMARK SMILES IDX 77 46 76 47 32 49 64 50 44 51 63 52 45 53 48 54 62 55 81 56
REMARK SMILES IDX 46 57 47 58 61 60 82 61 49 62 33 63 34 64 42 65 35 66 36 67
REMARK SMILES IDX 40 68 43 69 37 70 38 71 41 72 39 73 65 74 66 75 74 76 67 77
REMARK SMILES IDX 68 78 72 79 75 80 69 81 70 82 73 83 71 84 50 85 51 86 59 87
REMARK SMILES IDX 52 88 53 89 57 90 60 91 54 92 55 93 58 94 56 95
REMARK H PARENT 16 4 21 29 80 48 48 59
REMARK Flexibility Score: inf
ROOT
ATOM      1  C   UNL A   1      30.164  29.453  23.602  1.00  0.00     0.220 C 
ATOM      2  O   UNL A   1      29.469  30.074  22.796  1.00  0.00    -0.275 OA
ATOM      3  N   UNL A   1      30.999  30.163  24.416  1.00  0.00    -0.356 N 
ATOM      4  H   UNL A   1      30.934  31.141  24.324  1.00  0.00     0.163 HD
ENDROOT
BRANCH   1   5
ATOM      5  C   UNL A   1      30.096  27.934  23.681  1.00  0.00     0.103 C 
BRANCH   5   6
ATOM      6  C   UNL A   1      31.214  27.293  24.534  1.00  0.00     0.002 C 
ATOM      7  C   UNL A   1      32.047  23.495  25.506  1.00  0.00     0.320 C 
ATOM      8  O   UNL A   1      30.869  23.145  25.595  1.00  0.00    -0.248 OA
ATOM      9  N   UNL A   1      32.397  24.831  25.596  1.00  0.00    -0.325 N 
ATOM     10  C   UNL A   1      31.638  25.681  26.483  1.00  0.00     0.121 C 
ATOM     11  C   UNL A   1      33.071  25.528  24.503  1.00  0.00     0.121 C 
ATOM     12  C   UNL A   1      30.634  26.513  25.711  1.00  0.00     0.026 C 
ATOM     13  C   UNL A   1      32.087  26.364  23.670  1.00  0.00     0.026 C 
BRANCH   7  14
ATOM     14  N   UNL A   1      33.097  22.586  25.363  1.00  0.00    -0.322 N 
BRANCH  14  15
ATOM     15  C   UNL A   1      33.251  21.755  24.154  1.00  0.00     0.121 C 
BRANCH  15  16
ATOM     16  C   UNL A   1      32.537  20.392  24.191  1.00  0.00     0.022 C 
BRANCH  16  17
ATOM     17  C   UNL A   1      33.384  19.139  24.458  1.00  0.00     0.002 C 
BRANCH  17  18
ATOM     18  C   UNL A   1      32.899  17.831  23.828  1.00  0.00    -0.003 C 
ATOM     19  C   UNL A   1      34.012  17.040  23.161  1.00  0.00     0.004 C 
ENDBRANCH  17  18
ENDBRANCH  16  17
ENDBRANCH  15  16
ENDBRANCH  14  15
BRANCH  14  20
ATOM     20  C   UNL A   1      34.186  22.659  26.362  1.00  0.00     0.080 C 
ATOM     21  C   UNL A   1      34.191  21.471  27.325  1.00  0.00     0.031 C 
ATOM     22  C   UNL A   1      35.569  22.873  25.750  1.00  0.00     0.031 C 
ENDBRANCH  14  20
ENDBRANCH   7  14
ENDBRANCH   5   6
ENDBRANCH   1   5
BRANCH   3  23
ATOM     23  C   UNL A   1      31.970  29.705  25.396  1.00  0.00     0.116 C 
BRANCH  23  24
ATOM     24  C   UNL A   1      31.781  30.394  26.752  1.00  0.00     0.023 C 
BRANCH  24  25
ATOM     25  C   UNL A   1      31.589  31.898  26.703  1.00  0.00     0.023 C 
BRANCH  25  26
ATOM     26  C   UNL A   1      32.751  32.683  27.275  1.00  0.00     0.116 C 
BRANCH  26  27
ATOM     27  N   UNL A   1      32.409  34.049  27.649  1.00  0.00    -0.352 N 
ATOM     28  C   UNL A   1      32.989  34.850  28.608  1.00  0.00     0.251 C 
ATOM     29  H   UNL A   1      31.662  34.453  27.150  1.00  0.00     0.163 HD
ATOM     30  O   UNL A   1      32.538  35.950  28.871  1.00  0.00    -0.269 OA
BRANCH  28  31
ATOM     31  C   UNL A   1      34.152  34.321  29.349  1.00  0.00     0.039 A 
ATOM     32  C   UNL A   1      33.931  33.531  30.479  1.00  0.00     0.014 A 
ATOM     33  C   UNL A   1      35.445  34.531  28.867  1.00  0.00     0.014 A 
ATOM     34  C   UNL A   1      35.010  32.883  31.078  1.00  0.00     0.010 A 
ATOM     35  C   UNL A   1      36.494  33.790  29.389  1.00  0.00     0.010 A 
ATOM     36  C   UNL A   1      36.291  32.972  30.509  1.00  0.00    -0.014 A 
BRANCH  36  37
ATOM     37  C   UNL A   1      37.449  32.253  31.091  1.00  0.00     0.031 A 
ATOM     38  C   UNL A   1      37.933  32.624  32.465  1.00  0.00     0.074 A 
ATOM     39  C   UNL A   1      38.105  31.333  30.360  1.00  0.00     0.049 A 
ATOM     40  N   UNL A   1      38.973  32.185  33.124  1.00  0.00    -0.248 NA
ATOM     41  C   UNL A   1      37.169  33.662  33.177  1.00  0.00     0.031 C 
ATOM     42  C   UNL A   1      37.772  30.942  28.987  1.00  0.00     0.029 A 
ATOM     43  N   UNL A   1      39.196  30.561  30.668  1.00  0.00    -0.354 N 
ATOM     44  C   UNL A   1      39.001  32.912  34.307  1.00  0.00     0.074 A 
ATOM     45  C   UNL A   1      37.920  33.868  34.247  1.00  0.00     0.031 C 
ATOM     46  C   UNL A   1      38.619  29.980  28.586  1.00  0.00     0.029 A 
ATOM     47  C   UNL A   1      39.573  29.710  29.657  1.00  0.00     0.049 A 
ATOM     48  H   UNL A   1      39.666  30.613  31.532  1.00  0.00     0.167 HD
ATOM     49  C   UNL A   1      39.832  32.770  35.365  1.00  0.00     0.037 A 
ATOM     50  C   UNL A   1      40.574  28.812  29.610  1.00  0.00     0.037 A 
ATOM     51  C   UNL A   1      40.871  31.780  35.440  1.00  0.00     0.049 A 
ATOM     52  C   UNL A   1      41.458  28.642  30.815  1.00  0.00     0.074 A 
ATOM     53  C   UNL A   1      41.721  31.497  36.493  1.00  0.00     0.029 A 
ATOM     54  N   UNL A   1      41.192  30.902  34.414  1.00  0.00    -0.354 N 
ATOM     55  N   UNL A   1      41.429  29.283  31.959  1.00  0.00    -0.248 NA
ATOM     56  C   UNL A   1      42.508  27.619  30.727  1.00  0.00     0.031 C 
ATOM     57  C   UNL A   1      42.582  30.470  36.092  1.00  0.00     0.029 A 
ATOM     58  C   UNL A   1      42.238  30.084  34.806  1.00  0.00     0.049 A 
ATOM     59  H   UNL A   1      40.744  30.867  33.539  1.00  0.00     0.167 HD
ATOM     60  C   UNL A   1      42.433  28.724  32.737  1.00  0.00     0.074 A 
ATOM     61  C   UNL A   1      43.044  27.680  31.939  1.00  0.00     0.031 C 
ATOM     62  C   UNL A   1      42.820  29.045  33.995  1.00  0.00     0.037 A 
BRANCH  49  63
ATOM     63  C   UNL A   1      39.632  33.695  36.529  1.00  0.00     0.064 A 
ATOM     64  C   UNL A   1      40.241  34.960  36.576  1.00  0.00     0.173 A 
ATOM     65  C   UNL A   1      38.816  33.321  37.607  1.00  0.00     0.173 A 
ATOM     66  F   UNL A   1      41.046  35.360  35.580  1.00  0.00    -0.203 F 
ATOM     67  C   UNL A   1      40.066  35.800  37.673  1.00  0.00     0.198 A 
ATOM     68  C   UNL A   1      38.617  34.177  38.687  1.00  0.00     0.198 A 
ATOM     69  F   UNL A   1      38.211  32.124  37.613  1.00  0.00    -0.203 F 
ATOM     70  F   UNL A   1      40.705  36.977  37.721  1.00  0.00    -0.200 F 
ATOM     71  C   UNL A   1      39.250  35.411  38.724  1.00  0.00     0.200 A 
ATOM     72  F   UNL A   1      37.820  33.804  39.697  1.00  0.00    -0.200 F 
ATOM     73  F   UNL A   1      39.080  36.222  39.777  1.00  0.00    -0.200 F 
ENDBRANCH  49  63
BRANCH  50  74
ATOM     74  C   UNL A   1      40.764  27.971  28.398  1.00  0.00     0.064 A 
ATOM     75  C   UNL A   1      41.559  28.418  27.333  1.00  0.00     0.173 A 
ATOM     76  C   UNL A   1      40.160  26.712  28.277  1.00  0.00     0.173 A 
ATOM     77  F   UNL A   1      42.145  29.624  27.396  1.00  0.00    -0.203 F 
ATOM     78  C   UNL A   1      41.725  27.649  26.184  1.00  0.00     0.198 A 
ATOM     79  C   UNL A   1      40.347  25.931  27.139  1.00  0.00     0.198 A 
ATOM     80  F   UNL A   1      39.395  26.236  29.271  1.00  0.00    -0.203 F 
ATOM     81  F   UNL A   1      42.452  28.120  25.163  1.00  0.00    -0.200 F 
ATOM     82  C   UNL A   1      41.122  26.403  26.089  1.00  0.00     0.200 A 
ATOM     83  F   UNL A   1      39.773  24.723  27.055  1.00  0.00    -0.200 F 
ATOM     84  F   UNL A   1      41.281  25.662  24.984  1.00  0.00    -0.200 F 
ENDBRANCH  50  74
BRANCH  62  85
ATOM     85  C   UNL A   1      43.930  28.237  34.598  1.00  0.00     0.064 A 
ATOM     86  C   UNL A   1      45.265  28.658  34.530  1.00  0.00     0.173 A 
ATOM     87  C   UNL A   1      43.647  27.047  35.287  1.00  0.00     0.173 A 
ATOM     88  F   UNL A   1      45.586  29.781  33.870  1.00  0.00    -0.203 F 
ATOM     89  C   UNL A   1      46.281  27.903  35.109  1.00  0.00     0.198 A 
ATOM     90  C   UNL A   1      44.662  26.311  35.889  1.00  0.00     0.198 A 
ATOM     91  F   UNL A   1      42.383  26.607  35.386  1.00  0.00    -0.203 F 
ATOM     92  F   UNL A   1      47.556  28.299  34.992  1.00  0.00    -0.200 F 
ATOM     93  C   UNL A   1      45.979  26.735  35.794  1.00  0.00     0.200 A 
ATOM     94  F   UNL A   1      44.367  25.190  36.563  1.00  0.00    -0.200 F 
ATOM     95  F   UNL A   1      46.958  26.014  36.356  1.00  0.00    -0.200 F 
ENDBRANCH  62  85
ENDBRANCH  36  37
ENDBRANCH  28  31
ENDBRANCH  26  27
ENDBRANCH  25  26
ENDBRANCH  24  25
ENDBRANCH  23  24
ENDBRANCH   3  23
TORSDOF 18
ENDMDL
MODEL 3
REMARK VINA RESULT:     -11.1      0.930      2.353
REMARK SMILES CCCCCN(C(=O)N1CCC(CC(=O)NCCCCNC(=O)c2ccc(-c3c4nc(c(-c5c(F)c(F)c(F)c(F)c5F)c5ccc([nH]5)c(-c5c(F)c(F)c(F)c(F)c5F)c5nc(c(-c6c(F)c(F)c(F)c(F)c6F)c6ccc3[nH]6)C=C5)C=C4)cc2)CC1)C(C)C
REMARK SMILES IDX 14 1 15 2 16 3 13 5 12 6 7 7 8 8 9 9 10 10 88 11 11 12 87 13
REMARK SMILES IDX 6 14 5 15 4 16 3 17 2 18 1 19 89 20 90 21 91 22 17 23 18 24
REMARK SMILES IDX 19 25 20 26 21 27 22 28 23 30 24 31 25 32 86 33 26 34 85 35
REMARK SMILES IDX 27 36 28 37 29 38 79 39 30 40 84 41 78 42 80 43 31 44 83 45
REMARK SMILES IDX 77 46 76 47 32 49 64 50 44 51 63 52 45 53 48 54 62 55 81 56
REMARK SMILES IDX 46 57 47 58 61 60 82 61 49 62 33 63 34 64 42 65 35 66 36 67
REMARK SMILES IDX 40 68 43 69 37 70 38 71 41 72 39 73 65 74 66 75 74 76 67 77
REMARK SMILES IDX 68 78 72 79 75 80 69 81 70 82 73 83 71 84 50 85 51 86 59 87
REMARK SMILES IDX 52 88 53 89 57 90 60 91 54 92 55 93 58 94 56 95
REMARK H PARENT 16 4 21 29 80 48 48 59
REMARK Flexibility Score: inf
ROOT
ATOM      1  C   UNL A   1      30.242  29.469  23.703  1.00  0.00     0.220 C 
ATOM      2  O   UNL A   1      29.458  30.144  23.032  1.00  0.00    -0.275 OA
ATOM      3  N   UNL A   1      31.039  30.113  24.606  1.00  0.00    -0.356 N 
ATOM      4  H   UNL A   1      30.878  31.082  24.684  1.00  0.00     0.163 HD
ENDROOT
BRANCH   1   5
ATOM      5  C   UNL A   1      30.322  27.960  23.524  1.00  0.00     0.103 C 
BRANCH   5   6
ATOM      6  C   UNL A   1      31.261  27.250  24.525  1.00  0.00     0.002 C 
ATOM      7  C   UNL A   1      31.923  23.386  25.356  1.00  0.00     0.320 C 
ATOM      8  O   UNL A   1      30.753  23.037  25.192  1.00  0.00    -0.248 OA
ATOM      9  N   UNL A   1      32.239  24.710  25.610  1.00  0.00    -0.325 N 
ATOM     10  C   UNL A   1      31.317  25.496  26.395  1.00  0.00     0.121 C 
ATOM     11  C   UNL A   1      33.104  25.481  24.721  1.00  0.00     0.121 C 
ATOM     12  C   UNL A   1      30.473  26.389  25.509  1.00  0.00     0.026 C 
ATOM     13  C   UNL A   1      32.291  26.383  23.779  1.00  0.00     0.026 C 
BRANCH   7  14
ATOM     14  N   UNL A   1      32.989  22.483  25.350  1.00  0.00    -0.322 N 
BRANCH  14  15
ATOM     15  C   UNL A   1      33.742  22.156  26.577  1.00  0.00     0.121 C 
BRANCH  15  16
ATOM     16  C   UNL A   1      35.252  21.930  26.386  1.00  0.00     0.022 C 
BRANCH  16  17
ATOM     17  C   UNL A   1      36.035  22.950  25.544  1.00  0.00     0.002 C 
BRANCH  17  18
ATOM     18  C   UNL A   1      36.904  22.390  24.415  1.00  0.00    -0.003 C 
ATOM     19  C   UNL A   1      36.568  22.978  23.054  1.00  0.00     0.004 C 
ENDBRANCH  17  18
ENDBRANCH  16  17
ENDBRANCH  15  16
ENDBRANCH  14  15
BRANCH  14  20
ATOM     20  C   UNL A   1      33.181  21.682  24.121  1.00  0.00     0.080 C 
ATOM     21  C   UNL A   1      32.478  20.325  24.180  1.00  0.00     0.031 C 
ATOM     22  C   UNL A   1      32.823  22.429  22.838  1.00  0.00     0.031 C 
ENDBRANCH  14  20
ENDBRANCH   7  14
ENDBRANCH   5   6
ENDBRANCH   1   5
BRANCH   3  23
ATOM     23  C   UNL A   1      32.089  29.597  25.470  1.00  0.00     0.116 C 
BRANCH  23  24
ATOM     24  C   UNL A   1      32.103  30.300  26.831  1.00  0.00     0.023 C 
BRANCH  24  25
ATOM     25  C   UNL A   1      31.791  31.784  26.809  1.00  0.00     0.023 C 
BRANCH  25  26
ATOM     26  C   UNL A   1      32.895  32.651  27.375  1.00  0.00     0.116 C 
BRANCH  26  27
ATOM     27  N   UNL A   1      32.482  34.023  27.645  1.00  0.00    -0.352 N 
ATOM     28  C   UNL A   1      32.989  34.907  28.573  1.00  0.00     0.251 C 
ATOM     29  H   UNL A   1      31.743  34.363  27.091  1.00  0.00     0.163 HD
ATOM     30  O   UNL A   1      32.483  36.001  28.746  1.00  0.00    -0.269 OA
BRANCH  28  31
ATOM     31  C   UNL A   1      34.138  34.475  29.394  1.00  0.00     0.039 A 
ATOM     32  C   UNL A   1      33.898  33.876  30.631  1.00  0.00     0.014 A 
ATOM     33  C   UNL A   1      35.437  34.580  28.892  1.00  0.00     0.014 A 
ATOM     34  C   UNL A   1      34.961  33.306  31.330  1.00  0.00     0.010 A 
ATOM     35  C   UNL A   1      36.468  33.907  29.528  1.00  0.00     0.010 A 
ATOM     36  C   UNL A   1      36.245  33.279  30.761  1.00  0.00    -0.014 A 
BRANCH  36  37
ATOM     37  C   UNL A   1      37.386  32.635  31.453  1.00  0.00     0.031 A 
ATOM     38  C   UNL A   1      38.101  31.492  30.789  1.00  0.00     0.074 A 
ATOM     39  C   UNL A   1      37.724  33.022  32.698  1.00  0.00     0.049 A 
ATOM     40  N   UNL A   1      39.063  30.735  31.250  1.00  0.00    -0.248 NA
ATOM     41  C   UNL A   1      37.643  31.119  29.440  1.00  0.00     0.031 C 
ATOM     42  C   UNL A   1      37.055  34.071  33.472  1.00  0.00     0.029 A 
ATOM     43  N   UNL A   1      38.713  32.573  33.535  1.00  0.00    -0.354 N 
ATOM     44  C   UNL A   1      39.300  29.787  30.263  1.00  0.00     0.074 A 
ATOM     45  C   UNL A   1      38.337  30.017  29.210  1.00  0.00     0.031 C 
ATOM     46  C   UNL A   1      37.675  34.207  34.655  1.00  0.00     0.029 A 
ATOM     47  C   UNL A   1      38.762  33.236  34.737  1.00  0.00     0.049 A 
ATOM     48  H   UNL A   1      39.330  31.843  33.296  1.00  0.00     0.167 HD
ATOM     49  C   UNL A   1      40.259  28.834  30.221  1.00  0.00     0.037 A 
ATOM     50  C   UNL A   1      39.596  33.076  35.781  1.00  0.00     0.037 A 
ATOM     51  C   UNL A   1      41.247  28.647  31.248  1.00  0.00     0.049 A 
ATOM     52  C   UNL A   1      40.681  32.037  35.693  1.00  0.00     0.074 A 
ATOM     53  C   UNL A   1      42.310  27.763  31.273  1.00  0.00     0.029 A 
ATOM     54  N   UNL A   1      41.294  29.370  32.431  1.00  0.00    -0.354 N 
ATOM     55  N   UNL A   1      40.944  31.196  34.722  1.00  0.00    -0.248 NA
ATOM     56  C   UNL A   1      41.591  31.932  36.842  1.00  0.00     0.031 C 
ATOM     57  C   UNL A   1      42.981  27.927  32.490  1.00  0.00     0.029 A 
ATOM     58  C   UNL A   1      42.363  28.943  33.200  1.00  0.00     0.049 A 
ATOM     59  H   UNL A   1      40.662  30.081  32.685  1.00  0.00     0.167 HD
ATOM     60  C   UNL A   1      42.063  30.482  35.128  1.00  0.00     0.074 A 
ATOM     61  C   UNL A   1      42.439  31.002  36.427  1.00  0.00     0.031 C 
ATOM     62  C   UNL A   1      42.721  29.485  34.487  1.00  0.00     0.037 A 
BRANCH  49  63
ATOM     63  C   UNL A   1      40.291  27.938  29.017  1.00  0.00     0.064 A 
ATOM     64  C   UNL A   1      41.041  28.266  27.876  1.00  0.00     0.173 A 
ATOM     65  C   UNL A   1      39.574  26.733  29.006  1.00  0.00     0.173 A 
ATOM     66  F   UNL A   1      41.730  29.417  27.828  1.00  0.00    -0.203 F 
ATOM     67  C   UNL A   1      41.043  27.438  26.757  1.00  0.00     0.198 A 
ATOM     68  C   UNL A   1      39.606  25.891  27.897  1.00  0.00     0.198 A 
ATOM     69  F   UNL A   1      38.841  26.371  30.070  1.00  0.00    -0.203 F 
ATOM     70  F   UNL A   1      41.719  27.802  25.658  1.00  0.00    -0.200 F 
ATOM     71  C   UNL A   1      40.332  26.248  26.771  1.00  0.00     0.200 A 
ATOM     72  F   UNL A   1      38.926  24.736  27.916  1.00  0.00    -0.200 F 
ATOM     73  F   UNL A   1      40.338  25.450  25.694  1.00  0.00    -0.200 F 
ENDBRANCH  49  63
BRANCH  50  74
ATOM     74  C   UNL A   1      39.469  33.949  36.977  1.00  0.00     0.064 A 
ATOM     75  C   UNL A   1      38.752  33.522  38.104  1.00  0.00     0.173 A 
ATOM     76  C   UNL A   1      40.055  35.222  37.021  1.00  0.00     0.173 A 
ATOM     77  F   UNL A   1      38.159  32.318  38.102  1.00  0.00    -0.203 F 
ATOM     78  C   UNL A   1      38.607  34.342  39.221  1.00  0.00     0.198 A 
ATOM     79  C   UNL A   1      39.932  36.032  38.148  1.00  0.00     0.198 A 
ATOM     80  F   UNL A   1      40.756  35.675  35.972  1.00  0.00    -0.203 F 
ATOM     81  F   UNL A   1      37.879  33.927  40.265  1.00  0.00    -0.200 F 
ATOM     82  C   UNL A   1      39.201  35.595  39.244  1.00  0.00     0.200 A 
ATOM     83  F   UNL A   1      40.517  37.237  38.173  1.00  0.00    -0.200 F 
ATOM     84  F   UNL A   1      39.063  36.384  40.318  1.00  0.00    -0.200 F 
ENDBRANCH  50  74
BRANCH  62  85
ATOM     85  C   UNL A   1      43.931  28.917  35.165  1.00  0.00     0.064 A 
ATOM     86  C   UNL A   1      43.837  27.829  36.044  1.00  0.00     0.173 A 
ATOM     87  C   UNL A   1      45.205  29.442  34.898  1.00  0.00     0.173 A 
ATOM     88  F   UNL A   1      42.640  27.303  36.341  1.00  0.00    -0.203 F 
ATOM     89  C   UNL A   1      44.974  27.304  36.652  1.00  0.00     0.198 A 
ATOM     90  C   UNL A   1      46.341  28.895  35.485  1.00  0.00     0.198 A 
ATOM     91  F   UNL A   1      45.347  30.478  34.057  1.00  0.00    -0.203 F 
ATOM     92  F   UNL A   1      44.857  26.294  37.526  1.00  0.00    -0.200 F 
ATOM     93  C   UNL A   1      46.225  27.832  36.367  1.00  0.00     0.200 A 
ATOM     94  F   UNL A   1      47.550  29.397  35.197  1.00  0.00    -0.200 F 
ATOM     95  F   UNL A   1      47.317  27.320  36.948  1.00  0.00    -0.200 F 
ENDBRANCH  62  85
ENDBRANCH  36  37
ENDBRANCH  28  31
ENDBRANCH  26  27
ENDBRANCH  25  26
ENDBRANCH  24  25
ENDBRANCH  23  24
ENDBRANCH   3  23
TORSDOF 18
ENDMDL
