MODEL 1
REMARK VINA RESULT:     -12.0      0.000      0.000
REMARK SMILES Cc1ccc(F)cc1NC(=O)CSCCC(=O)NCCCCNC(=O)c1ccc(-c2c3nc(c(-c4c(F)c(F)c(F)c(F)c4F)c4ccc([nH]4)c(-c4c(F)c(F)c(F)c(F)c4F)c4nc(c(-c5c(F)c(F)c(F)c(F)c5F)c5ccc2[nH]5)C=C4)C=C3)cc1
REMARK SMILES IDX 19 1 18 2 16 3 17 4 15 6 14 7 13 8 12 9 10 10 9 11 11 13
REMARK SMILES IDX 8 14 1 15 2 16 3 17 4 18 7 19 5 20 6 21 20 22 21 23 22 24
REMARK SMILES IDX 23 25 24 26 25 28 26 29 27 30 88 31 28 32 87 33 29 34 30 35
REMARK SMILES IDX 31 36 81 37 32 38 86 39 80 40 82 41 33 42 85 43 79 44 78 45
REMARK SMILES IDX 34 47 66 48 46 49 65 50 47 51 50 52 64 53 83 54 48 55 49 56
REMARK SMILES IDX 63 58 84 59 51 60 35 61 36 62 44 63 37 64 38 65 42 66 45 67
REMARK SMILES IDX 39 68 40 69 43 70 41 71 67 72 68 73 76 74 69 75 70 76 74 77
REMARK SMILES IDX 77 78 71 79 72 80 75 81 73 82 52 83 53 84 61 85 54 86 55 87
REMARK SMILES IDX 59 88 62 89 56 90 57 91 60 92 58 93
REMARK H PARENT 18 5 9 12 23 27 82 46 50 57
REMARK Flexibility Score: inf
ROOT
ATOM      1  C   UNL A   1      32.533  26.525  25.163  1.00  0.00     0.116 C 
ENDROOT
BRANCH   1   2
ATOM      2  N   UNL A   1      33.205  26.416  23.879  1.00  0.00    -0.356 N 
ATOM      3  C   UNL A   1      33.276  25.379  23.001  1.00  0.00     0.220 C 
ATOM      4  O   UNL A   1      33.978  25.518  21.999  1.00  0.00    -0.275 OA
ATOM      5  H   UNL A   1      33.687  27.228  23.597  1.00  0.00     0.163 HD
BRANCH   3   6
ATOM      6  C   UNL A   1      32.495  24.108  23.247  1.00  0.00     0.111 C 
BRANCH   6   7
ATOM      7  C   UNL A   1      33.092  22.876  22.565  1.00  0.00     0.080 C 
BRANCH   7   8
ATOM      8  S   UNL A   1      32.176  21.293  22.719  1.00  0.00    -0.151 SA
BRANCH   8   9
ATOM      9  C   UNL A   1      32.043  21.188  24.514  1.00  0.00     0.169 C 
BRANCH   9  10
ATOM     10  C   UNL A   1      32.967  20.215  25.194  1.00  0.00     0.234 C 
ATOM     11  N   UNL A   1      34.242  20.447  25.590  1.00  0.00    -0.325 N 
ATOM     12  H   UNL A   1      34.618  19.657  26.040  1.00  0.00     0.169 HD
ATOM     13  O   UNL A   1      32.564  19.055  25.380  1.00  0.00    -0.274 OA
BRANCH  11  14
ATOM     14  C   UNL A   1      35.183  21.493  25.543  1.00  0.00     0.047 A 
ATOM     15  C   UNL A   1      37.030  19.785  24.951  1.00  0.00     0.046 C 
ATOM     16  C   UNL A   1      36.512  21.186  25.167  1.00  0.00    -0.027 A 
ATOM     17  C   UNL A   1      37.472  22.217  25.058  1.00  0.00     0.008 A 
ATOM     18  C   UNL A   1      37.126  23.544  25.285  1.00  0.00     0.039 A 
ATOM     19  C   UNL A   1      34.873  22.827  25.801  1.00  0.00     0.065 A 
ATOM     20  C   UNL A   1      35.825  23.835  25.649  1.00  0.00     0.125 A 
ATOM     21  F   UNL A   1      35.466  25.111  25.850  1.00  0.00    -0.207 F 
ENDBRANCH  11  14
ENDBRANCH   9  10
ENDBRANCH   8   9
ENDBRANCH   7   8
ENDBRANCH   6   7
ENDBRANCH   3   6
ENDBRANCH   1   2
BRANCH   1  22
ATOM     22  C   UNL A   1      32.458  27.969  25.670  1.00  0.00     0.023 C 
BRANCH  22  23
ATOM     23  C   UNL A   1      33.211  28.219  26.995  1.00  0.00     0.023 C 
BRANCH  23  24
ATOM     24  C   UNL A   1      34.591  28.752  26.775  1.00  0.00     0.116 C 
BRANCH  24  25
ATOM     25  N   UNL A   1      34.643  30.213  26.937  1.00  0.00    -0.352 N 
ATOM     26  C   UNL A   1      35.445  30.924  27.821  1.00  0.00     0.251 C 
ATOM     27  H   UNL A   1      34.046  30.743  26.361  1.00  0.00     0.163 HD
ATOM     28  O   UNL A   1      35.211  32.066  28.153  1.00  0.00    -0.269 OA
BRANCH  26  29
ATOM     29  C   UNL A   1      36.636  30.216  28.310  1.00  0.00     0.039 A 
ATOM     30  C   UNL A   1      36.689  29.474  29.491  1.00  0.00     0.014 A 
ATOM     31  C   UNL A   1      37.721  30.280  27.454  1.00  0.00     0.014 A 
ATOM     32  C   UNL A   1      37.858  28.773  29.769  1.00  0.00     0.010 A 
ATOM     33  C   UNL A   1      38.640  29.299  27.521  1.00  0.00     0.010 A 
ATOM     34  C   UNL A   1      38.819  28.702  28.760  1.00  0.00    -0.014 A 
BRANCH  34  35
ATOM     35  C   UNL A   1      40.136  28.114  28.851  1.00  0.00     0.031 A 
ATOM     36  C   UNL A   1      40.265  26.682  28.630  1.00  0.00     0.074 A 
ATOM     37  C   UNL A   1      41.140  29.023  28.889  1.00  0.00     0.049 A 
ATOM     38  N   UNL A   1      41.211  25.968  29.111  1.00  0.00    -0.248 NA
ATOM     39  C   UNL A   1      39.286  25.911  27.867  1.00  0.00     0.031 C 
ATOM     40  C   UNL A   1      42.558  28.919  28.609  1.00  0.00     0.029 A 
ATOM     41  N   UNL A   1      40.990  30.375  29.273  1.00  0.00    -0.354 N 
ATOM     42  C   UNL A   1      41.199  24.789  28.401  1.00  0.00     0.074 A 
ATOM     43  C   UNL A   1      39.884  24.715  27.813  1.00  0.00     0.031 C 
ATOM     44  C   UNL A   1      43.177  29.991  29.154  1.00  0.00     0.029 A 
ATOM     45  C   UNL A   1      42.181  30.745  29.908  1.00  0.00     0.049 A 
ATOM     46  H   UNL A   1      40.202  30.944  29.124  1.00  0.00     0.167 HD
ATOM     47  C   UNL A   1      42.389  24.148  28.211  1.00  0.00     0.037 A 
ATOM     48  C   UNL A   1      42.112  30.893  31.266  1.00  0.00     0.037 A 
ATOM     49  C   UNL A   1      43.472  24.952  28.801  1.00  0.00     0.049 A 
ATOM     50  C   UNL A   1      42.758  29.730  31.985  1.00  0.00     0.074 A 
ATOM     51  C   UNL A   1      44.397  25.844  28.280  1.00  0.00     0.029 A 
ATOM     52  N   UNL A   1      43.431  25.216  30.157  1.00  0.00    -0.354 N 
ATOM     53  N   UNL A   1      43.187  28.648  31.391  1.00  0.00    -0.248 NA
ATOM     54  C   UNL A   1      42.955  29.683  33.427  1.00  0.00     0.031 C 
ATOM     55  C   UNL A   1      44.903  26.642  29.358  1.00  0.00     0.029 A 
ATOM     56  C   UNL A   1      44.288  26.234  30.528  1.00  0.00     0.049 A 
ATOM     57  H   UNL A   1      42.853  24.733  30.791  1.00  0.00     0.167 HD
ATOM     58  C   UNL A   1      43.737  27.794  32.300  1.00  0.00     0.074 A 
ATOM     59  C   UNL A   1      43.521  28.471  33.572  1.00  0.00     0.031 C 
ATOM     60  C   UNL A   1      44.327  26.611  31.936  1.00  0.00     0.037 A 
BRANCH  47  61
ATOM     61  C   UNL A   1      42.630  22.981  27.279  1.00  0.00     0.064 A 
ATOM     62  C   UNL A   1      42.031  21.728  27.542  1.00  0.00     0.173 A 
ATOM     63  C   UNL A   1      43.410  23.018  26.105  1.00  0.00     0.173 A 
ATOM     64  F   UNL A   1      41.195  21.556  28.573  1.00  0.00    -0.203 F 
ATOM     65  C   UNL A   1      42.255  20.601  26.747  1.00  0.00     0.198 A 
ATOM     66  C   UNL A   1      43.667  21.880  25.331  1.00  0.00     0.198 A 
ATOM     67  F   UNL A   1      43.900  24.163  25.620  1.00  0.00    -0.203 F 
ATOM     68  F   UNL A   1      41.648  19.445  27.051  1.00  0.00    -0.200 F 
ATOM     69  C   UNL A   1      43.090  20.670  25.653  1.00  0.00     0.200 A 
ATOM     70  F   UNL A   1      44.467  21.972  24.258  1.00  0.00    -0.200 F 
ATOM     71  F   UNL A   1      43.313  19.588  24.897  1.00  0.00    -0.200 F 
ENDBRANCH  47  61
BRANCH  48  72
ATOM     72  C   UNL A   1      40.845  31.617  31.652  1.00  0.00     0.064 A 
ATOM     73  C   UNL A   1      39.879  30.852  32.346  1.00  0.00     0.173 A 
ATOM     74  C   UNL A   1      40.820  33.006  31.857  1.00  0.00     0.173 A 
ATOM     75  F   UNL A   1      39.820  29.524  32.160  1.00  0.00    -0.203 F 
ATOM     76  C   UNL A   1      39.102  31.411  33.360  1.00  0.00     0.198 A 
ATOM     77  C   UNL A   1      39.998  33.568  32.842  1.00  0.00     0.198 A 
ATOM     78  F   UNL A   1      41.686  33.801  31.212  1.00  0.00    -0.203 F 
ATOM     79  F   UNL A   1      38.345  30.620  34.136  1.00  0.00    -0.200 F 
ATOM     80  C   UNL A   1      39.197  32.762  33.638  1.00  0.00     0.200 A 
ATOM     81  F   UNL A   1      40.050  34.887  33.081  1.00  0.00    -0.200 F 
ATOM     82  F   UNL A   1      38.557  33.271  34.701  1.00  0.00    -0.200 F 
ENDBRANCH  48  72
BRANCH  60  83
ATOM     83  C   UNL A   1      44.950  25.652  32.921  1.00  0.00     0.064 A 
ATOM     84  C   UNL A   1      44.200  24.974  33.891  1.00  0.00     0.173 A 
ATOM     85  C   UNL A   1      46.346  25.416  32.966  1.00  0.00     0.173 A 
ATOM     86  F   UNL A   1      42.908  25.271  34.097  1.00  0.00    -0.203 F 
ATOM     87  C   UNL A   1      44.767  23.994  34.705  1.00  0.00     0.198 A 
ATOM     88  C   UNL A   1      46.920  24.482  33.819  1.00  0.00     0.198 A 
ATOM     89  F   UNL A   1      47.218  26.063  32.186  1.00  0.00    -0.203 F 
ATOM     90  F   UNL A   1      43.986  23.296  35.539  1.00  0.00    -0.200 F 
ATOM     91  C   UNL A   1      46.124  23.736  34.657  1.00  0.00     0.200 A 
ATOM     92  F   UNL A   1      48.248  24.302  33.802  1.00  0.00    -0.200 F 
ATOM     93  F   UNL A   1      46.667  22.785  35.426  1.00  0.00    -0.200 F 
ENDBRANCH  60  83
ENDBRANCH  34  35
ENDBRANCH  26  29
ENDBRANCH  24  25
ENDBRANCH  23  24
ENDBRANCH  22  23
ENDBRANCH   1  22
TORSDOF 16
ENDMDL
MODEL 2
REMARK VINA RESULT:     -11.9      1.682      2.277
REMARK SMILES Cc1ccc(F)cc1NC(=O)CSCCC(=O)NCCCCNC(=O)c1ccc(-c2c3nc(c(-c4c(F)c(F)c(F)c(F)c4F)c4ccc([nH]4)c(-c4c(F)c(F)c(F)c(F)c4F)c4nc(c(-c5c(F)c(F)c(F)c(F)c5F)c5ccc2[nH]5)C=C4)C=C3)cc1
REMARK SMILES IDX 19 1 18 2 16 3 17 4 15 6 14 7 13 8 12 9 10 10 9 11 11 13
REMARK SMILES IDX 8 14 1 15 2 16 3 17 4 18 7 19 5 20 6 21 20 22 21 23 22 24
REMARK SMILES IDX 23 25 24 26 25 28 26 29 27 30 88 31 28 32 87 33 29 34 30 35
REMARK SMILES IDX 31 36 81 37 32 38 86 39 80 40 82 41 33 42 85 43 79 44 78 45
REMARK SMILES IDX 34 47 66 48 46 49 65 50 47 51 50 52 64 53 83 54 48 55 49 56
REMARK SMILES IDX 63 58 84 59 51 60 35 61 36 62 44 63 37 64 38 65 42 66 45 67
REMARK SMILES IDX 39 68 40 69 43 70 41 71 67 72 68 73 76 74 69 75 70 76 74 77
REMARK SMILES IDX 77 78 71 79 72 80 75 81 73 82 52 83 53 84 61 85 54 86 55 87
REMARK SMILES IDX 59 88 62 89 56 90 57 91 60 92 58 93
REMARK H PARENT 18 5 9 12 23 27 82 46 50 57
REMARK Flexibility Score: inf
ROOT
ATOM      1  C   UNL A   1      31.343  29.720  25.110  1.00  0.00     0.116 C 
ENDROOT
BRANCH   1   2
ATOM      2  N   UNL A   1      30.715  29.704  23.801  1.00  0.00    -0.356 N 
ATOM      3  C   UNL A   1      30.559  28.692  22.904  1.00  0.00     0.220 C 
ATOM      4  O   UNL A   1      30.045  28.958  21.818  1.00  0.00    -0.275 OA
ATOM      5  H   UNL A   1      30.340  30.569  23.514  1.00  0.00     0.163 HD
BRANCH   3   6
ATOM      6  C   UNL A   1      30.986  27.284  23.252  1.00  0.00     0.111 C 
BRANCH   6   7
ATOM      7  C   UNL A   1      29.891  26.458  23.930  1.00  0.00     0.080 C 
BRANCH   7   8
ATOM      8  S   UNL A   1      30.128  26.020  25.697  1.00  0.00    -0.151 SA
BRANCH   8   9
ATOM      9  C   UNL A   1      31.749  25.238  25.605  1.00  0.00     0.169 C 
BRANCH   9  10
ATOM     10  C   UNL A   1      31.955  24.030  26.477  1.00  0.00     0.234 C 
ATOM     11  N   UNL A   1      33.029  23.203  26.478  1.00  0.00    -0.325 N 
ATOM     12  H   UNL A   1      32.934  22.505  27.165  1.00  0.00     0.169 HD
ATOM     13  O   UNL A   1      31.041  23.701  27.251  1.00  0.00    -0.274 OA
BRANCH  11  14
ATOM     14  C   UNL A   1      34.242  23.055  25.778  1.00  0.00     0.047 A 
ATOM     15  C   UNL A   1      33.092  21.392  24.168  1.00  0.00     0.046 C 
ATOM     16  C   UNL A   1      34.256  22.237  24.623  1.00  0.00    -0.027 A 
ATOM     17  C   UNL A   1      35.441  22.106  23.865  1.00  0.00     0.008 A 
ATOM     18  C   UNL A   1      36.596  22.795  24.217  1.00  0.00     0.039 A 
ATOM     19  C   UNL A   1      35.423  23.704  26.128  1.00  0.00     0.065 A 
ATOM     20  C   UNL A   1      36.572  23.594  25.344  1.00  0.00     0.125 A 
ATOM     21  F   UNL A   1      37.668  24.285  25.687  1.00  0.00    -0.207 F 
ENDBRANCH  11  14
ENDBRANCH   9  10
ENDBRANCH   8   9
ENDBRANCH   7   8
ENDBRANCH   6   7
ENDBRANCH   3   6
ENDBRANCH   1   2
BRANCH   1  22
ATOM     22  C   UNL A   1      32.873  29.680  25.033  1.00  0.00     0.023 C 
BRANCH  22  23
ATOM     23  C   UNL A   1      33.514  28.455  25.719  1.00  0.00     0.023 C 
BRANCH  23  24
ATOM     24  C   UNL A   1      34.575  28.842  26.700  1.00  0.00     0.116 C 
BRANCH  24  25
ATOM     25  N   UNL A   1      34.489  30.265  27.062  1.00  0.00    -0.352 N 
ATOM     26  C   UNL A   1      35.169  30.903  28.092  1.00  0.00     0.251 C 
ATOM     27  H   UNL A   1      33.887  30.823  26.519  1.00  0.00     0.163 HD
ATOM     28  O   UNL A   1      34.816  31.966  28.558  1.00  0.00    -0.269 OA
BRANCH  26  29
ATOM     29  C   UNL A   1      36.383  30.227  28.569  1.00  0.00     0.039 A 
ATOM     30  C   UNL A   1      36.423  29.328  29.637  1.00  0.00     0.014 A 
ATOM     31  C   UNL A   1      37.512  30.500  27.818  1.00  0.00     0.014 A 
ATOM     32  C   UNL A   1      37.629  28.688  29.904  1.00  0.00     0.010 A 
ATOM     33  C   UNL A   1      38.507  29.594  27.820  1.00  0.00     0.010 A 
ATOM     34  C   UNL A   1      38.657  28.840  28.974  1.00  0.00    -0.014 A 
BRANCH  34  35
ATOM     35  C   UNL A   1      40.011  28.350  29.085  1.00  0.00     0.031 A 
ATOM     36  C   UNL A   1      40.278  26.975  28.690  1.00  0.00     0.074 A 
ATOM     37  C   UNL A   1      40.929  29.321  29.314  1.00  0.00     0.049 A 
ATOM     38  N   UNL A   1      41.251  26.278  29.143  1.00  0.00    -0.248 NA
ATOM     39  C   UNL A   1      39.421  26.240  27.764  1.00  0.00     0.031 C 
ATOM     40  C   UNL A   1      42.365  29.367  29.128  1.00  0.00     0.029 A 
ATOM     41  N   UNL A   1      40.637  30.592  29.858  1.00  0.00    -0.354 N 
ATOM     42  C   UNL A   1      41.386  25.209  28.289  1.00  0.00     0.074 A 
ATOM     43  C   UNL A   1      40.122  25.112  27.600  1.00  0.00     0.031 C 
ATOM     44  C   UNL A   1      42.852  30.400  29.851  1.00  0.00     0.029 A 
ATOM     45  C   UNL A   1      41.750  30.966  30.620  1.00  0.00     0.049 A 
ATOM     46  H   UNL A   1      39.813  31.113  29.726  1.00  0.00     0.167 HD
ATOM     47  C   UNL A   1      42.637  24.695  28.105  1.00  0.00     0.037 A 
ATOM     48  C   UNL A   1      41.582  30.923  31.977  1.00  0.00     0.037 A 
ATOM     49  C   UNL A   1      43.607  25.494  28.873  1.00  0.00     0.049 A 
ATOM     50  C   UNL A   1      42.282  29.728  32.586  1.00  0.00     0.074 A 
ATOM     51  C   UNL A   1      44.482  26.517  28.541  1.00  0.00     0.029 A 
ATOM     52  N   UNL A   1      43.458  25.568  30.245  1.00  0.00    -0.354 N 
ATOM     53  N   UNL A   1      42.839  28.772  31.891  1.00  0.00    -0.248 NA
ATOM     54  C   UNL A   1      42.391  29.502  34.020  1.00  0.00     0.031 C 
ATOM     55  C   UNL A   1      44.847  27.200  29.747  1.00  0.00     0.029 A 
ATOM     56  C   UNL A   1      44.198  26.590  30.806  1.00  0.00     0.049 A 
ATOM     57  H   UNL A   1      42.886  24.960  30.766  1.00  0.00     0.167 HD
ATOM     58  C   UNL A   1      43.404  27.850  32.719  1.00  0.00     0.074 A 
ATOM     59  C   UNL A   1      43.050  28.330  34.049  1.00  0.00     0.031 C 
ATOM     60  C   UNL A   1      44.116  26.776  32.250  1.00  0.00     0.037 A 
BRANCH  47  61
ATOM     61  C   UNL A   1      43.037  23.686  27.051  1.00  0.00     0.064 A 
ATOM     62  C   UNL A   1      42.696  22.324  27.207  1.00  0.00     0.173 A 
ATOM     63  C   UNL A   1      43.729  23.979  25.858  1.00  0.00     0.173 A 
ATOM     64  F   UNL A   1      41.964  21.901  28.246  1.00  0.00    -0.203 F 
ATOM     65  C   UNL A   1      43.079  21.339  26.292  1.00  0.00     0.198 A 
ATOM     66  C   UNL A   1      44.148  22.988  24.963  1.00  0.00     0.198 A 
ATOM     67  F   UNL A   1      43.972  25.237  25.474  1.00  0.00    -0.203 F 
ATOM     68  F   UNL A   1      42.714  20.065  26.500  1.00  0.00    -0.200 F 
ATOM     69  C   UNL A   1      43.824  21.666  25.181  1.00  0.00     0.200 A 
ATOM     70  F   UNL A   1      44.856  23.329  23.875  1.00  0.00    -0.200 F 
ATOM     71  F   UNL A   1      44.200  20.721  24.310  1.00  0.00    -0.200 F 
ENDBRANCH  47  61
BRANCH  48  72
ATOM     72  C   UNL A   1      40.235  31.487  32.360  1.00  0.00     0.064 A 
ATOM     73  C   UNL A   1      39.932  32.770  31.850  1.00  0.00     0.173 A 
ATOM     74  C   UNL A   1      39.148  30.656  32.673  1.00  0.00     0.173 A 
ATOM     75  F   UNL A   1      40.924  33.630  31.572  1.00  0.00    -0.203 F 
ATOM     76  C   UNL A   1      38.637  33.107  31.454  1.00  0.00     0.198 A 
ATOM     77  C   UNL A   1      37.843  31.023  32.319  1.00  0.00     0.198 A 
ATOM     78  F   UNL A   1      39.355  29.435  33.187  1.00  0.00    -0.203 F 
ATOM     79  F   UNL A   1      38.418  34.251  30.788  1.00  0.00    -0.200 F 
ATOM     80  C   UNL A   1      37.601  32.212  31.647  1.00  0.00     0.200 A 
ATOM     81  F   UNL A   1      36.827  30.179  32.551  1.00  0.00    -0.200 F 
ATOM     82  F   UNL A   1      36.388  32.477  31.141  1.00  0.00    -0.200 F 
ENDBRANCH  48  72
BRANCH  60  83
ATOM     83  C   UNL A   1      44.757  25.744  33.146  1.00  0.00     0.064 A 
ATOM     84  C   UNL A   1      44.014  24.930  34.009  1.00  0.00     0.173 A 
ATOM     85  C   UNL A   1      46.161  25.571  33.214  1.00  0.00     0.173 A 
ATOM     86  F   UNL A   1      42.703  25.140  34.201  1.00  0.00    -0.203 F 
ATOM     87  C   UNL A   1      44.606  23.893  34.732  1.00  0.00     0.198 A 
ATOM     88  C   UNL A   1      46.757  24.576  33.979  1.00  0.00     0.198 A 
ATOM     89  F   UNL A   1      47.022  26.341  32.539  1.00  0.00    -0.203 F 
ATOM     90  F   UNL A   1      43.837  23.071  35.457  1.00  0.00    -0.200 F 
ATOM     91  C   UNL A   1      45.975  23.706  34.702  1.00  0.00     0.200 A 
ATOM     92  F   UNL A   1      48.092  24.462  33.989  1.00  0.00    -0.200 F 
ATOM     93  F   UNL A   1      46.542  22.703  35.383  1.00  0.00    -0.200 F 
ENDBRANCH  60  83
ENDBRANCH  34  35
ENDBRANCH  26  29
ENDBRANCH  24  25
ENDBRANCH  23  24
ENDBRANCH  22  23
ENDBRANCH   1  22
TORSDOF 16
ENDMDL
MODEL 3
REMARK VINA RESULT:     -11.9      3.191      9.324
REMARK SMILES Cc1ccc(F)cc1NC(=O)CSCCC(=O)NCCCCNC(=O)c1ccc(-c2c3nc(c(-c4c(F)c(F)c(F)c(F)c4F)c4ccc([nH]4)c(-c4c(F)c(F)c(F)c(F)c4F)c4nc(c(-c5c(F)c(F)c(F)c(F)c5F)c5ccc2[nH]5)C=C4)C=C3)cc1
REMARK SMILES IDX 19 1 18 2 16 3 17 4 15 6 14 7 13 8 12 9 10 10 9 11 11 13
REMARK SMILES IDX 8 14 1 15 2 16 3 17 4 18 7 19 5 20 6 21 20 22 21 23 22 24
REMARK SMILES IDX 23 25 24 26 25 28 26 29 27 30 88 31 28 32 87 33 29 34 30 35
REMARK SMILES IDX 31 36 81 37 32 38 86 39 80 40 82 41 33 42 85 43 79 44 78 45
REMARK SMILES IDX 34 47 66 48 46 49 65 50 47 51 50 52 64 53 83 54 48 55 49 56
REMARK SMILES IDX 63 58 84 59 51 60 35 61 36 62 44 63 37 64 38 65 42 66 45 67
REMARK SMILES IDX 39 68 40 69 43 70 41 71 67 72 68 73 76 74 69 75 70 76 74 77
REMARK SMILES IDX 77 78 71 79 72 80 75 81 73 82 52 83 53 84 61 85 54 86 55 87
REMARK SMILES IDX 59 88 62 89 56 90 57 91 60 92 58 93
REMARK H PARENT 18 5 9 12 23 27 82 46 50 57
REMARK Flexibility Score: inf
ROOT
ATOM      1  C   UNL A   1      34.207  21.691  25.144  1.00  0.00     0.116 C 
ENDROOT
BRANCH   1   2
ATOM      2  N   UNL A   1      33.551  22.146  26.357  1.00  0.00    -0.356 N 
ATOM      3  C   UNL A   1      32.310  22.671  26.550  1.00  0.00     0.220 C 
ATOM      4  O   UNL A   1      32.013  23.049  27.684  1.00  0.00    -0.275 OA
ATOM      5  H   UNL A   1      34.093  22.060  27.175  1.00  0.00     0.163 HD
BRANCH   3   6
ATOM      6  C   UNL A   1      31.327  22.761  25.405  1.00  0.00     0.111 C 
BRANCH   6   7
ATOM      7  C   UNL A   1      30.758  24.166  25.190  1.00  0.00     0.080 C 
BRANCH   7   8
ATOM      8  S   UNL A   1      31.056  24.962  23.563  1.00  0.00    -0.151 SA
BRANCH   8   9
ATOM      9  C   UNL A   1      32.853  25.093  23.609  1.00  0.00     0.169 C 
BRANCH   9  10
ATOM     10  C   UNL A   1      33.454  26.264  22.881  1.00  0.00     0.234 C 
ATOM     11  N   UNL A   1      33.584  27.530  23.347  1.00  0.00    -0.325 N 
ATOM     12  H   UNL A   1      34.040  28.101  22.688  1.00  0.00     0.169 HD
ATOM     13  O   UNL A   1      33.834  26.096  21.711  1.00  0.00    -0.274 OA
BRANCH  11  14
ATOM     14  C   UNL A   1      33.255  28.263  24.503  1.00  0.00     0.047 A 
ATOM     15  C   UNL A   1      31.094  29.085  23.347  1.00  0.00     0.046 C 
ATOM     16  C   UNL A   1      32.021  28.957  24.530  1.00  0.00    -0.027 A 
ATOM     17  C   UNL A   1      31.632  29.661  25.692  1.00  0.00     0.008 A 
ATOM     18  C   UNL A   1      32.430  29.661  26.830  1.00  0.00     0.039 A 
ATOM     19  C   UNL A   1      34.051  28.311  25.644  1.00  0.00     0.065 A 
ATOM     20  C   UNL A   1      33.631  28.978  26.796  1.00  0.00     0.125 A 
ATOM     21  F   UNL A   1      34.404  28.946  27.890  1.00  0.00    -0.207 F 
ENDBRANCH  11  14
ENDBRANCH   9  10
ENDBRANCH   8   9
ENDBRANCH   7   8
ENDBRANCH   6   7
ENDBRANCH   3   6
ENDBRANCH   1   2
BRANCH   1  22
ATOM     22  C   UNL A   1      35.701  22.029  25.118  1.00  0.00     0.023 C 
BRANCH  22  23
ATOM     23  C   UNL A   1      36.012  23.538  25.009  1.00  0.00     0.023 C 
BRANCH  23  24
ATOM     24  C   UNL A   1      37.050  23.978  25.993  1.00  0.00     0.116 C 
BRANCH  24  25
ATOM     25  N   UNL A   1      38.051  22.928  26.234  1.00  0.00    -0.352 N 
ATOM     26  C   UNL A   1      39.407  23.112  26.480  1.00  0.00     0.251 C 
ATOM     27  H   UNL A   1      37.730  21.998  26.218  1.00  0.00     0.163 HD
ATOM     28  O   UNL A   1      40.230  22.234  26.332  1.00  0.00    -0.269 OA
BRANCH  26  29
ATOM     29  C   UNL A   1      39.789  24.441  26.974  1.00  0.00     0.039 A 
ATOM     30  C   UNL A   1      40.303  25.467  26.178  1.00  0.00     0.014 A 
ATOM     31  C   UNL A   1      39.532  24.637  28.320  1.00  0.00     0.014 A 
ATOM     32  C   UNL A   1      40.520  26.706  26.772  1.00  0.00     0.010 A 
ATOM     33  C   UNL A   1      39.350  25.899  28.752  1.00  0.00     0.010 A 
ATOM     34  C   UNL A   1      40.030  26.893  28.065  1.00  0.00    -0.014 A 
BRANCH  34  35
ATOM     35  C   UNL A   1      40.216  28.052  28.907  1.00  0.00     0.031 A 
ATOM     36  C   UNL A   1      39.234  29.123  28.829  1.00  0.00     0.074 A 
ATOM     37  C   UNL A   1      41.164  27.889  29.862  1.00  0.00     0.049 A 
ATOM     38  N   UNL A   1      39.482  30.342  29.125  1.00  0.00    -0.248 NA
ATOM     39  C   UNL A   1      37.870  28.908  28.352  1.00  0.00     0.031 C 
ATOM     40  C   UNL A   1      41.421  28.585  31.107  1.00  0.00     0.029 A 
ATOM     41  N   UNL A   1      42.203  26.934  29.811  1.00  0.00    -0.354 N 
ATOM     42  C   UNL A   1      38.260  30.955  29.280  1.00  0.00     0.074 A 
ATOM     43  C   UNL A   1      37.321  30.105  28.589  1.00  0.00     0.031 C 
ATOM     44  C   UNL A   1      42.683  28.300  31.498  1.00  0.00     0.029 A 
ATOM     45  C   UNL A   1      43.310  27.512  30.443  1.00  0.00     0.049 A 
ATOM     46  H   UNL A   1      42.158  26.037  29.410  1.00  0.00     0.167 HD
ATOM     47  C   UNL A   1      38.169  31.978  30.179  1.00  0.00     0.037 A 
ATOM     48  C   UNL A   1      44.330  27.900  29.618  1.00  0.00     0.037 A 
ATOM     49  C   UNL A   1      39.470  32.153  30.846  1.00  0.00     0.049 A 
ATOM     50  C   UNL A   1      44.363  29.403  29.445  1.00  0.00     0.074 A 
ATOM     51  C   UNL A   1      39.985  31.742  32.066  1.00  0.00     0.029 A 
ATOM     52  N   UNL A   1      40.570  32.466  30.070  1.00  0.00    -0.354 N 
ATOM     53  N   UNL A   1      43.442  30.213  29.894  1.00  0.00    -0.248 NA
ATOM     54  C   UNL A   1      45.420  30.109  28.735  1.00  0.00     0.031 C 
ATOM     55  C   UNL A   1      41.414  31.818  31.995  1.00  0.00     0.029 A 
ATOM     56  C   UNL A   1      41.764  32.276  30.738  1.00  0.00     0.049 A 
ATOM     57  H   UNL A   1      40.510  32.789  29.142  1.00  0.00     0.167 HD
ATOM     58  C   UNL A   1      43.761  31.504  29.600  1.00  0.00     0.074 A 
ATOM     59  C   UNL A   1      44.990  31.380  28.828  1.00  0.00     0.031 C 
ATOM     60  C   UNL A   1      42.999  32.565  30.018  1.00  0.00     0.037 A 
BRANCH  47  61
ATOM     61  C   UNL A   1      36.889  32.623  30.664  1.00  0.00     0.064 A 
ATOM     62  C   UNL A   1      36.205  33.547  29.842  1.00  0.00     0.173 A 
ATOM     63  C   UNL A   1      36.264  32.372  31.902  1.00  0.00     0.173 A 
ATOM     64  F   UNL A   1      36.628  33.826  28.603  1.00  0.00    -0.203 F 
ATOM     65  C   UNL A   1      35.047  34.212  30.253  1.00  0.00     0.198 A 
ATOM     66  C   UNL A   1      35.127  33.067  32.331  1.00  0.00     0.198 A 
ATOM     67  F   UNL A   1      36.683  31.400  32.720  1.00  0.00    -0.203 F 
ATOM     68  F   UNL A   1      34.445  35.071  29.418  1.00  0.00    -0.200 F 
ATOM     69  C   UNL A   1      34.519  33.989  31.507  1.00  0.00     0.200 A 
ATOM     70  F   UNL A   1      34.616  32.822  33.547  1.00  0.00    -0.200 F 
ATOM     71  F   UNL A   1      33.415  34.634  31.904  1.00  0.00    -0.200 F 
ENDBRANCH  47  61
BRANCH  48  72
ATOM     72  C   UNL A   1      44.581  26.852  28.562  1.00  0.00     0.064 A 
ATOM     73  C   UNL A   1      44.286  27.227  27.231  1.00  0.00     0.173 A 
ATOM     74  C   UNL A   1      45.539  25.841  28.738  1.00  0.00     0.173 A 
ATOM     75  F   UNL A   1      43.348  28.157  26.992  1.00  0.00    -0.203 F 
ATOM     76  C   UNL A   1      45.070  26.793  26.162  1.00  0.00     0.198 A 
ATOM     77  C   UNL A   1      46.288  25.369  27.651  1.00  0.00     0.198 A 
ATOM     78  F   UNL A   1      45.852  25.411  29.968  1.00  0.00    -0.203 F 
ATOM     79  F   UNL A   1      44.893  27.325  24.943  1.00  0.00    -0.200 F 
ATOM     80  C   UNL A   1      46.102  25.898  26.382  1.00  0.00     0.200 A 
ATOM     81  F   UNL A   1      47.257  24.464  27.851  1.00  0.00    -0.200 F 
ATOM     82  F   UNL A   1      46.940  25.589  25.382  1.00  0.00    -0.200 F 
ENDBRANCH  48  72
BRANCH  60  83
ATOM     83  C   UNL A   1      43.334  34.005  29.712  1.00  0.00     0.064 A 
ATOM     84  C   UNL A   1      43.426  34.496  28.404  1.00  0.00     0.173 A 
ATOM     85  C   UNL A   1      43.634  34.943  30.730  1.00  0.00     0.173 A 
ATOM     86  F   UNL A   1      43.380  33.668  27.350  1.00  0.00    -0.203 F 
ATOM     87  C   UNL A   1      43.606  35.854  28.141  1.00  0.00     0.198 A 
ATOM     88  C   UNL A   1      43.872  36.285  30.465  1.00  0.00     0.198 A 
ATOM     89  F   UNL A   1      43.700  34.614  32.025  1.00  0.00    -0.203 F 
ATOM     90  F   UNL A   1      43.576  36.291  26.875  1.00  0.00    -0.200 F 
ATOM     91  C   UNL A   1      43.811  36.751  29.172  1.00  0.00     0.200 A 
ATOM     92  F   UNL A   1      44.139  37.121  31.478  1.00  0.00    -0.200 F 
ATOM     93  F   UNL A   1      43.969  38.056  28.922  1.00  0.00    -0.200 F 
ENDBRANCH  60  83
ENDBRANCH  34  35
ENDBRANCH  26  29
ENDBRANCH  24  25
ENDBRANCH  23  24
ENDBRANCH  22  23
ENDBRANCH   1  22
TORSDOF 16
ENDMDL
