MODEL 1
REMARK VINA RESULT:     -11.6      0.000      0.000
REMARK SMILES CC[C@H](C)[C@@H](Nc1ccc(Cl)c(Br)c1)C(=O)NCCCCNC(=O)c1ccc(-c2c3nc(c(-c4c(F)c(F)c(F)c(F)c4F)c4ccc([nH]4)c(-c4c(F)c(F)c(F)c(F)c4F)c4nc(c(-c5c(F)c(F)c(F)c(F)c5F)c5ccc2[nH]5)C=C4)C=C3)cc1
REMARK SMILES IDX 19 1 18 2 17 3 15 4 16 5 5 7 3 8 4 9 2 10 1 11 6 12 7 14
REMARK SMILES IDX 8 15 14 16 9 17 12 18 10 19 13 20 11 21 20 22 21 23 22 24
REMARK SMILES IDX 23 25 24 27 25 28 26 29 87 30 27 31 86 32 28 33 29 34 30 35
REMARK SMILES IDX 80 36 31 37 85 38 79 39 81 40 32 41 84 42 78 43 77 44 33 46
REMARK SMILES IDX 65 47 45 48 64 49 46 50 49 51 63 52 82 53 47 54 48 55 62 57
REMARK SMILES IDX 83 58 50 59 34 60 35 61 43 62 36 63 37 64 41 65 44 66 38 67
REMARK SMILES IDX 39 68 42 69 40 70 66 71 67 72 75 73 68 74 69 75 73 76 76 77
REMARK SMILES IDX 70 78 71 79 74 80 72 81 51 82 52 83 60 84 53 85 54 86 58 87
REMARK SMILES IDX 61 88 55 89 56 90 59 91 57 92
REMARK H PARENT 17 6 6 13 22 26 81 45 49 56
REMARK Flexibility Score: inf
ROOT
ATOM      1  C   UNL A   1      32.400  29.910  27.197  1.00  0.00     0.023 C 
ENDROOT
BRANCH   1   2
ATOM      2  C   UNL A   1      33.655  29.345  26.545  1.00  0.00     0.116 C 
BRANCH   2   3
ATOM      3  N   UNL A   1      33.652  29.524  25.107  1.00  0.00    -0.354 N 
ATOM      4  C   UNL A   1      33.135  28.711  24.136  1.00  0.00     0.242 C 
ATOM      5  O   UNL A   1      33.157  29.130  22.973  1.00  0.00    -0.273 OA
ATOM      6  H   UNL A   1      34.083  30.348  24.782  1.00  0.00     0.163 HD
BRANCH   4   7
ATOM      7  C   UNL A   1      32.578  27.296  24.462  1.00  0.00     0.171 C 
BRANCH   7   8
ATOM      8  C   UNL A   1      31.066  27.378  24.858  1.00  0.00     0.018 C 
ATOM      9  C   UNL A   1      30.147  26.979  23.690  1.00  0.00     0.010 C 
BRANCH   8  10
ATOM     10  C   UNL A   1      30.726  26.522  26.104  1.00  0.00     0.002 C 
ATOM     11  C   UNL A   1      30.272  25.109  25.757  1.00  0.00     0.004 C 
ENDBRANCH   8  10
ENDBRANCH   7   8
BRANCH   7  12
ATOM     12  N   UNL A   1      32.762  26.334  23.345  1.00  0.00    -0.373 N 
ATOM     13  H   UNL A   1      32.512  26.643  22.444  1.00  0.00     0.161 HD
BRANCH  12  14
ATOM     14  C   UNL A   1      33.251  25.044  23.451  1.00  0.00     0.036 A 
ATOM     15  C   UNL A   1      32.572  23.918  22.984  1.00  0.00     0.027 A 
ATOM     16  C   UNL A   1      34.404  24.838  24.225  1.00  0.00     0.043 A 
ATOM     17  C   UNL A   1      32.984  22.627  23.334  1.00  0.00     0.024 A 
ATOM     18  C   UNL A   1      34.816  23.553  24.596  1.00  0.00     0.038 A 
ATOM     19  C   UNL A   1      34.093  22.441  24.160  1.00  0.00     0.055 A 
ATOM     20  Br  UNL A   1      36.313  23.417  25.755  1.00  0.00    -0.049 Br
ATOM     21  Cl  UNL A   1      34.484  20.827  24.630  1.00  0.00    -0.083 Cl
ENDBRANCH  12  14
ENDBRANCH   7  12
ENDBRANCH   4   7
ENDBRANCH   2   3
ENDBRANCH   1   2
BRANCH   1  22
ATOM     22  C   UNL A   1      32.132  31.379  26.877  1.00  0.00     0.023 C 
BRANCH  22  23
ATOM     23  C   UNL A   1      33.103  32.369  27.508  1.00  0.00     0.116 C 
BRANCH  23  24
ATOM     24  N   UNL A   1      32.570  33.720  27.632  1.00  0.00    -0.352 N 
ATOM     25  C   UNL A   1      33.024  34.733  28.447  1.00  0.00     0.251 C 
ATOM     26  H   UNL A   1      31.792  33.933  27.066  1.00  0.00     0.163 HD
ATOM     27  O   UNL A   1      32.440  35.807  28.519  1.00  0.00    -0.269 OA
BRANCH  25  28
ATOM     28  C   UNL A   1      34.207  34.463  29.284  1.00  0.00     0.039 A 
ATOM     29  C   UNL A   1      35.485  34.658  28.755  1.00  0.00     0.014 A 
ATOM     30  C   UNL A   1      34.028  33.857  30.529  1.00  0.00     0.014 A 
ATOM     31  C   UNL A   1      36.575  34.079  29.392  1.00  0.00     0.010 A 
ATOM     32  C   UNL A   1      35.135  33.337  31.201  1.00  0.00     0.010 A 
ATOM     33  C   UNL A   1      36.405  33.385  30.603  1.00  0.00    -0.014 A 
BRANCH  33  34
ATOM     34  C   UNL A   1      37.556  32.657  31.191  1.00  0.00     0.031 A 
ATOM     35  C   UNL A   1      38.026  32.969  32.587  1.00  0.00     0.074 A 
ATOM     36  C   UNL A   1      38.124  31.653  30.499  1.00  0.00     0.049 A 
ATOM     37  N   UNL A   1      39.005  32.432  33.270  1.00  0.00    -0.248 NA
ATOM     38  C   UNL A   1      37.298  34.021  33.313  1.00  0.00     0.031 C 
ATOM     39  C   UNL A   1      37.724  31.227  29.158  1.00  0.00     0.029 A 
ATOM     40  N   UNL A   1      39.128  30.786  30.843  1.00  0.00    -0.354 N 
ATOM     41  C   UNL A   1      39.023  33.090  34.493  1.00  0.00     0.074 A 
ATOM     42  C   UNL A   1      37.972  34.083  34.454  1.00  0.00     0.031 C 
ATOM     43  C   UNL A   1      38.428  30.136  28.819  1.00  0.00     0.029 A 
ATOM     44  C   UNL A   1      39.369  29.827  29.892  1.00  0.00     0.049 A 
ATOM     45  H   UNL A   1      39.628  30.846  31.689  1.00  0.00     0.167 HD
ATOM     46  C   UNL A   1      39.836  32.877  35.556  1.00  0.00     0.037 A 
ATOM     47  C   UNL A   1      40.254  28.814  29.884  1.00  0.00     0.037 A 
ATOM     48  C   UNL A   1      40.870  31.877  35.602  1.00  0.00     0.049 A 
ATOM     49  C   UNL A   1      41.182  28.637  31.048  1.00  0.00     0.074 A 
ATOM     50  C   UNL A   1      41.759  31.598  36.626  1.00  0.00     0.029 A 
ATOM     51  N   UNL A   1      41.148  30.984  34.578  1.00  0.00    -0.354 N 
ATOM     52  N   UNL A   1      41.229  29.303  32.175  1.00  0.00    -0.248 NA
ATOM     53  C   UNL A   1      42.196  27.582  30.928  1.00  0.00     0.031 C 
ATOM     54  C   UNL A   1      42.592  30.552  36.212  1.00  0.00     0.029 A 
ATOM     55  C   UNL A   1      42.200  30.158  34.942  1.00  0.00     0.049 A 
ATOM     56  H   UNL A   1      40.668  30.942  33.720  1.00  0.00     0.167 HD
ATOM     57  C   UNL A   1      42.275  28.751  32.899  1.00  0.00     0.074 A 
ATOM     58  C   UNL A   1      42.822  27.679  32.093  1.00  0.00     0.031 C 
ATOM     59  C   UNL A   1      42.744  29.108  34.120  1.00  0.00     0.037 A 
BRANCH  46  60
ATOM     60  C   UNL A   1      39.648  33.757  36.756  1.00  0.00     0.064 A 
ATOM     61  C   UNL A   1      40.278  35.007  36.855  1.00  0.00     0.173 A 
ATOM     62  C   UNL A   1      38.803  33.362  37.804  1.00  0.00     0.173 A 
ATOM     63  F   UNL A   1      41.108  35.422  35.888  1.00  0.00    -0.203 F 
ATOM     64  C   UNL A   1      40.082  35.821  37.968  1.00  0.00     0.198 A 
ATOM     65  C   UNL A   1      38.592  34.189  38.906  1.00  0.00     0.198 A 
ATOM     66  F   UNL A   1      38.175  32.178  37.757  1.00  0.00    -0.203 F 
ATOM     67  F   UNL A   1      40.725  36.993  38.059  1.00  0.00    -0.200 F 
ATOM     68  C   UNL A   1      39.236  35.414  38.990  1.00  0.00     0.200 A 
ATOM     69  F   UNL A   1      37.769  33.797  39.888  1.00  0.00    -0.200 F 
ATOM     70  F   UNL A   1      39.048  36.200  40.058  1.00  0.00    -0.200 F 
ENDBRANCH  46  60
BRANCH  47  71
ATOM     71  C   UNL A   1      40.279  27.886  28.728  1.00  0.00     0.064 A 
ATOM     72  C   UNL A   1      41.016  28.198  27.580  1.00  0.00     0.173 A 
ATOM     73  C   UNL A   1      39.619  26.649  28.772  1.00  0.00     0.173 A 
ATOM     74  F   UNL A   1      41.647  29.378  27.489  1.00  0.00    -0.203 F 
ATOM     75  C   UNL A   1      41.100  27.302  26.517  1.00  0.00     0.198 A 
ATOM     76  C   UNL A   1      39.722  25.746  27.717  1.00  0.00     0.198 A 
ATOM     77  F   UNL A   1      38.903  26.307  29.852  1.00  0.00    -0.203 F 
ATOM     78  F   UNL A   1      41.802  27.628  25.423  1.00  0.00    -0.200 F 
ATOM     79  C   UNL A   1      40.462  26.073  26.591  1.00  0.00     0.200 A 
ATOM     80  F   UNL A   1      39.114  24.554  27.798  1.00  0.00    -0.200 F 
ATOM     81  F   UNL A   1      40.561  25.203  25.577  1.00  0.00    -0.200 F 
ENDBRANCH  47  71
BRANCH  59  82
ATOM     82  C   UNL A   1      43.910  28.334  34.654  1.00  0.00     0.064 A 
ATOM     83  C   UNL A   1      45.225  28.781  34.468  1.00  0.00     0.173 A 
ATOM     84  C   UNL A   1      43.709  27.156  35.388  1.00  0.00     0.173 A 
ATOM     85  F   UNL A   1      45.464  29.896  33.759  1.00  0.00    -0.203 F 
ATOM     86  C   UNL A   1      46.302  28.067  34.984  1.00  0.00     0.198 A 
ATOM     87  C   UNL A   1      44.788  26.455  35.921  1.00  0.00     0.198 A 
ATOM     88  F   UNL A   1      42.468  26.691  35.596  1.00  0.00    -0.203 F 
ATOM     89  F   UNL A   1      47.554  28.492  34.764  1.00  0.00    -0.200 F 
ATOM     90  C   UNL A   1      46.082  26.908  35.714  1.00  0.00     0.200 A 
ATOM     91  F   UNL A   1      44.575  25.340  36.632  1.00  0.00    -0.200 F 
ATOM     92  F   UNL A   1      47.121  26.223  36.212  1.00  0.00    -0.200 F 
ENDBRANCH  59  82
ENDBRANCH  33  34
ENDBRANCH  25  28
ENDBRANCH  23  24
ENDBRANCH  22  23
ENDBRANCH   1  22
TORSDOF 15
ENDMDL
MODEL 2
REMARK VINA RESULT:     -11.5      0.414      1.668
REMARK SMILES CC[C@H](C)[C@@H](Nc1ccc(Cl)c(Br)c1)C(=O)NCCCCNC(=O)c1ccc(-c2c3nc(c(-c4c(F)c(F)c(F)c(F)c4F)c4ccc([nH]4)c(-c4c(F)c(F)c(F)c(F)c4F)c4nc(c(-c5c(F)c(F)c(F)c(F)c5F)c5ccc2[nH]5)C=C4)C=C3)cc1
REMARK SMILES IDX 19 1 18 2 17 3 15 4 16 5 5 7 3 8 4 9 2 10 1 11 6 12 7 14
REMARK SMILES IDX 8 15 14 16 9 17 12 18 10 19 13 20 11 21 20 22 21 23 22 24
REMARK SMILES IDX 23 25 24 27 25 28 26 29 87 30 27 31 86 32 28 33 29 34 30 35
REMARK SMILES IDX 80 36 31 37 85 38 79 39 81 40 32 41 84 42 78 43 77 44 33 46
REMARK SMILES IDX 65 47 45 48 64 49 46 50 49 51 63 52 82 53 47 54 48 55 62 57
REMARK SMILES IDX 83 58 50 59 34 60 35 61 43 62 36 63 37 64 41 65 44 66 38 67
REMARK SMILES IDX 39 68 42 69 40 70 66 71 67 72 75 73 68 74 69 75 73 76 76 77
REMARK SMILES IDX 70 78 71 79 74 80 72 81 51 82 52 83 60 84 53 85 54 86 58 87
REMARK SMILES IDX 61 88 55 89 56 90 59 91 57 92
REMARK H PARENT 17 6 6 13 22 26 81 45 49 56
REMARK Flexibility Score: inf
ROOT
ATOM      1  C   UNL A   1      32.456  29.643  27.164  1.00  0.00     0.023 C 
ENDROOT
BRANCH   1   2
ATOM      2  C   UNL A   1      33.721  29.004  26.609  1.00  0.00     0.116 C 
BRANCH   2   3
ATOM      3  N   UNL A   1      33.951  29.362  25.223  1.00  0.00    -0.354 N 
ATOM      4  C   UNL A   1      33.495  28.752  24.087  1.00  0.00     0.242 C 
ATOM      5  O   UNL A   1      33.736  29.307  23.009  1.00  0.00    -0.273 OA
ATOM      6  H   UNL A   1      34.515  30.156  25.079  1.00  0.00     0.163 HD
BRANCH   4   7
ATOM      7  C   UNL A   1      32.741  27.393  24.131  1.00  0.00     0.171 C 
BRANCH   7   8
ATOM      8  C   UNL A   1      31.197  27.616  24.008  1.00  0.00     0.018 C 
ATOM      9  C   UNL A   1      30.722  27.525  22.547  1.00  0.00     0.010 C 
BRANCH   8  10
ATOM     10  C   UNL A   1      30.378  26.635  24.884  1.00  0.00     0.002 C 
ATOM     11  C   UNL A   1      31.119  26.193  26.141  1.00  0.00     0.004 C 
ENDBRANCH   8  10
ENDBRANCH   7   8
BRANCH   7  12
ATOM     12  N   UNL A   1      33.205  26.443  23.087  1.00  0.00    -0.373 N 
ATOM     13  H   UNL A   1      33.358  26.810  22.186  1.00  0.00     0.161 HD
BRANCH  12  14
ATOM     14  C   UNL A   1      33.442  25.091  23.261  1.00  0.00     0.036 A 
ATOM     15  C   UNL A   1      32.891  24.098  22.449  1.00  0.00     0.027 A 
ATOM     16  C   UNL A   1      34.125  24.685  24.417  1.00  0.00     0.043 A 
ATOM     17  C   UNL A   1      32.956  22.748  22.812  1.00  0.00     0.024 A 
ATOM     18  C   UNL A   1      34.182  23.339  24.799  1.00  0.00     0.038 A 
ATOM     19  C   UNL A   1      33.580  22.367  24.000  1.00  0.00     0.055 A 
ATOM     20  Br  UNL A   1      35.022  22.937  26.454  1.00  0.00    -0.049 Br
ATOM     21  Cl  UNL A   1      33.536  20.696  24.431  1.00  0.00    -0.083 Cl
ENDBRANCH  12  14
ENDBRANCH   7  12
ENDBRANCH   4   7
ENDBRANCH   2   3
ENDBRANCH   1   2
BRANCH   1  22
ATOM     22  C   UNL A   1      32.272  31.110  26.783  1.00  0.00     0.023 C 
BRANCH  22  23
ATOM     23  C   UNL A   1      33.166  32.092  27.530  1.00  0.00     0.116 C 
BRANCH  23  24
ATOM     24  N   UNL A   1      32.619  33.441  27.612  1.00  0.00    -0.352 N 
ATOM     25  C   UNL A   1      33.053  34.478  28.408  1.00  0.00     0.251 C 
ATOM     26  H   UNL A   1      31.849  33.633  27.029  1.00  0.00     0.163 HD
ATOM     27  O   UNL A   1      32.459  35.549  28.443  1.00  0.00    -0.269 OA
BRANCH  25  28
ATOM     28  C   UNL A   1      34.224  34.240  29.270  1.00  0.00     0.039 A 
ATOM     29  C   UNL A   1      35.503  34.534  28.791  1.00  0.00     0.014 A 
ATOM     30  C   UNL A   1      34.046  33.566  30.480  1.00  0.00     0.014 A 
ATOM     31  C   UNL A   1      36.607  33.991  29.436  1.00  0.00     0.010 A 
ATOM     32  C   UNL A   1      35.162  33.081  31.163  1.00  0.00     0.010 A 
ATOM     33  C   UNL A   1      36.443  33.232  30.609  1.00  0.00    -0.014 A 
BRANCH  33  34
ATOM     34  C   UNL A   1      37.619  32.546  31.201  1.00  0.00     0.031 A 
ATOM     35  C   UNL A   1      38.056  32.856  32.607  1.00  0.00     0.074 A 
ATOM     36  C   UNL A   1      38.239  31.580  30.500  1.00  0.00     0.049 A 
ATOM     37  N   UNL A   1      39.050  32.352  33.295  1.00  0.00    -0.248 NA
ATOM     38  C   UNL A   1      37.273  33.863  33.340  1.00  0.00     0.031 C 
ATOM     39  C   UNL A   1      37.875  31.159  29.148  1.00  0.00     0.029 A 
ATOM     40  N   UNL A   1      39.277  30.753  30.843  1.00  0.00    -0.354 N 
ATOM     41  C   UNL A   1      39.024  32.989  34.528  1.00  0.00     0.074 A 
ATOM     42  C   UNL A   1      37.929  33.935  34.491  1.00  0.00     0.031 C 
ATOM     43  C   UNL A   1      38.632  30.106  28.801  1.00  0.00     0.029 A 
ATOM     44  C   UNL A   1      39.572  29.822  29.881  1.00  0.00     0.049 A 
ATOM     45  H   UNL A   1      39.763  30.821  31.697  1.00  0.00     0.167 HD
ATOM     46  C   UNL A   1      39.832  32.796  35.598  1.00  0.00     0.037 A 
ATOM     47  C   UNL A   1      40.501  28.849  29.868  1.00  0.00     0.037 A 
ATOM     48  C   UNL A   1      40.909  31.842  35.642  1.00  0.00     0.049 A 
ATOM     49  C   UNL A   1      41.421  28.694  31.041  1.00  0.00     0.074 A 
ATOM     50  C   UNL A   1      41.796  31.585  36.673  1.00  0.00     0.029 A 
ATOM     51  N   UNL A   1      41.239  30.979  34.608  1.00  0.00    -0.354 N 
ATOM     52  N   UNL A   1      41.425  29.343  32.180  1.00  0.00    -0.248 NA
ATOM     53  C   UNL A   1      42.484  27.687  30.918  1.00  0.00     0.031 C 
ATOM     54  C   UNL A   1      42.680  30.585  36.253  1.00  0.00     0.029 A 
ATOM     55  C   UNL A   1      42.323  30.194  34.972  1.00  0.00     0.049 A 
ATOM     56  H   UNL A   1      40.772  30.929  33.743  1.00  0.00     0.167 HD
ATOM     57  C   UNL A   1      42.485  28.827  32.908  1.00  0.00     0.074 A 
ATOM     58  C   UNL A   1      43.090  27.792  32.093  1.00  0.00     0.031 C 
ATOM     59  C   UNL A   1      42.922  29.183  34.141  1.00  0.00     0.037 A 
BRANCH  46  60
ATOM     60  C   UNL A   1      39.590  33.646  36.810  1.00  0.00     0.064 A 
ATOM     61  C   UNL A   1      38.799  33.196  37.876  1.00  0.00     0.173 A 
ATOM     62  C   UNL A   1      40.185  34.912  36.921  1.00  0.00     0.173 A 
ATOM     63  F   UNL A   1      38.195  32.001  37.811  1.00  0.00    -0.203 F 
ATOM     64  C   UNL A   1      38.596  33.991  39.003  1.00  0.00     0.198 A 
ATOM     65  C   UNL A   1      39.998  35.695  38.058  1.00  0.00     0.198 A 
ATOM     66  F   UNL A   1      40.953  35.388  35.930  1.00  0.00    -0.203 F 
ATOM     67  F   UNL A   1      37.803  33.557  39.992  1.00  0.00    -0.200 F 
ATOM     68  C   UNL A   1      39.199  35.236  39.095  1.00  0.00     0.200 A 
ATOM     69  F   UNL A   1      40.588  36.895  38.149  1.00  0.00    -0.200 F 
ATOM     70  F   UNL A   1      39.005  35.998  40.179  1.00  0.00    -0.200 F 
ENDBRANCH  46  60
BRANCH  47  71
ATOM     71  C   UNL A   1      40.582  27.942  28.698  1.00  0.00     0.064 A 
ATOM     72  C   UNL A   1      39.869  26.737  28.681  1.00  0.00     0.173 A 
ATOM     73  C   UNL A   1      41.321  28.287  27.557  1.00  0.00     0.173 A 
ATOM     74  F   UNL A   1      39.165  26.360  29.758  1.00  0.00    -0.203 F 
ATOM     75  C   UNL A   1      39.886  25.911  27.560  1.00  0.00     0.198 A 
ATOM     76  C   UNL A   1      41.319  27.471  26.430  1.00  0.00     0.198 A 
ATOM     77  F   UNL A   1      42.016  29.433  27.529  1.00  0.00    -0.203 F 
ATOM     78  F   UNL A   1      39.205  24.756  27.570  1.00  0.00    -0.200 F 
ATOM     79  C   UNL A   1      40.601  26.284  26.431  1.00  0.00     0.200 A 
ATOM     80  F   UNL A   1      42.001  27.840  25.336  1.00  0.00    -0.200 F 
ATOM     81  F   UNL A   1      40.599  25.499  25.346  1.00  0.00    -0.200 F 
ENDBRANCH  47  71
BRANCH  59  82
ATOM     82  C   UNL A   1      44.115  28.453  34.678  1.00  0.00     0.064 A 
ATOM     83  C   UNL A   1      45.413  28.950  34.495  1.00  0.00     0.173 A 
ATOM     84  C   UNL A   1      43.957  27.268  35.410  1.00  0.00     0.173 A 
ATOM     85  F   UNL A   1      45.613  30.073  33.788  1.00  0.00    -0.203 F 
ATOM     86  C   UNL A   1      46.515  28.276  35.014  1.00  0.00     0.198 A 
ATOM     87  C   UNL A   1      45.060  26.608  35.946  1.00  0.00     0.198 A 
ATOM     88  F   UNL A   1      42.734  26.756  35.614  1.00  0.00    -0.203 F 
ATOM     89  F   UNL A   1      47.750  28.748  34.799  1.00  0.00    -0.200 F 
ATOM     90  C   UNL A   1      46.336  27.109  35.743  1.00  0.00     0.200 A 
ATOM     91  F   UNL A   1      44.886  25.484  36.655  1.00  0.00    -0.200 F 
ATOM     92  F   UNL A   1      47.398  26.462  36.244  1.00  0.00    -0.200 F 
ENDBRANCH  59  82
ENDBRANCH  33  34
ENDBRANCH  25  28
ENDBRANCH  23  24
ENDBRANCH  22  23
ENDBRANCH   1  22
TORSDOF 15
ENDMDL
MODEL 3
REMARK VINA RESULT:     -11.5      0.474      7.393
REMARK SMILES CC[C@H](C)[C@@H](Nc1ccc(Cl)c(Br)c1)C(=O)NCCCCNC(=O)c1ccc(-c2c3nc(c(-c4c(F)c(F)c(F)c(F)c4F)c4ccc([nH]4)c(-c4c(F)c(F)c(F)c(F)c4F)c4nc(c(-c5c(F)c(F)c(F)c(F)c5F)c5ccc2[nH]5)C=C4)C=C3)cc1
REMARK SMILES IDX 19 1 18 2 17 3 15 4 16 5 5 7 3 8 4 9 2 10 1 11 6 12 7 14
REMARK SMILES IDX 8 15 14 16 9 17 12 18 10 19 13 20 11 21 20 22 21 23 22 24
REMARK SMILES IDX 23 25 24 27 25 28 26 29 87 30 27 31 86 32 28 33 29 34 30 35
REMARK SMILES IDX 80 36 31 37 85 38 79 39 81 40 32 41 84 42 78 43 77 44 33 46
REMARK SMILES IDX 65 47 45 48 64 49 46 50 49 51 63 52 82 53 47 54 48 55 62 57
REMARK SMILES IDX 83 58 50 59 34 60 35 61 43 62 36 63 37 64 41 65 44 66 38 67
REMARK SMILES IDX 39 68 42 69 40 70 66 71 67 72 75 73 68 74 69 75 73 76 76 77
REMARK SMILES IDX 70 78 71 79 74 80 72 81 51 82 52 83 60 84 53 85 54 86 58 87
REMARK SMILES IDX 61 88 55 89 56 90 59 91 57 92
REMARK H PARENT 17 6 6 13 22 26 81 45 49 56
REMARK Flexibility Score: inf
ROOT
ATOM      1  C   UNL A   1      32.422  29.845  27.171  1.00  0.00     0.023 C 
ENDROOT
BRANCH   1   2
ATOM      2  C   UNL A   1      33.681  29.227  26.580  1.00  0.00     0.116 C 
BRANCH   2   3
ATOM      3  N   UNL A   1      33.801  29.484  25.159  1.00  0.00    -0.354 N 
ATOM      4  C   UNL A   1      33.336  28.746  24.105  1.00  0.00     0.242 C 
ATOM      5  O   UNL A   1      33.466  29.227  22.973  1.00  0.00    -0.273 OA
ATOM      6  H   UNL A   1      34.284  30.307  24.917  1.00  0.00     0.163 HD
BRANCH   4   7
ATOM      7  C   UNL A   1      32.706  27.338  24.303  1.00  0.00     0.171 C 
BRANCH   7   8
ATOM      8  C   UNL A   1      31.153  27.447  24.463  1.00  0.00     0.018 C 
ATOM      9  C   UNL A   1      30.420  27.092  23.157  1.00  0.00     0.010 C 
BRANCH   8  10
ATOM     10  C   UNL A   1      30.607  26.576  25.621  1.00  0.00     0.002 C 
ATOM     11  C   UNL A   1      31.707  25.913  26.443  1.00  0.00     0.004 C 
ENDBRANCH   8  10
ENDBRANCH   7   8
BRANCH   7  12
ATOM     12  N   UNL A   1      33.042  26.397  23.204  1.00  0.00    -0.373 N 
ATOM     13  H   UNL A   1      32.896  26.715  22.284  1.00  0.00     0.161 HD
BRANCH  12  14
ATOM     14  C   UNL A   1      33.542  25.115  23.352  1.00  0.00     0.036 A 
ATOM     15  C   UNL A   1      32.927  23.979  22.821  1.00  0.00     0.027 A 
ATOM     16  C   UNL A   1      34.623  24.925  24.227  1.00  0.00     0.043 A 
ATOM     17  C   UNL A   1      33.328  22.694  23.205  1.00  0.00     0.024 A 
ATOM     18  C   UNL A   1      35.021  23.646  24.631  1.00  0.00     0.038 A 
ATOM     19  C   UNL A   1      34.360  22.524  24.128  1.00  0.00     0.055 A 
ATOM     20  Br  UNL A   1      36.409  23.531  25.921  1.00  0.00    -0.049 Br
ATOM     21  Cl  UNL A   1      34.735  20.914  24.627  1.00  0.00    -0.083 Cl
ENDBRANCH  12  14
ENDBRANCH   7  12
ENDBRANCH   4   7
ENDBRANCH   2   3
ENDBRANCH   1   2
BRANCH   1  22
ATOM     22  C   UNL A   1      32.234  31.325  26.846  1.00  0.00     0.023 C 
BRANCH  22  23
ATOM     23  C   UNL A   1      33.140  32.279  27.614  1.00  0.00     0.116 C 
BRANCH  23  24
ATOM     24  N   UNL A   1      32.633  33.644  27.684  1.00  0.00    -0.352 N 
ATOM     25  C   UNL A   1      33.077  34.666  28.494  1.00  0.00     0.251 C 
ATOM     26  H   UNL A   1      31.885  33.860  27.081  1.00  0.00     0.163 HD
ATOM     27  O   UNL A   1      32.516  35.755  28.515  1.00  0.00    -0.269 OA
BRANCH  25  28
ATOM     28  C   UNL A   1      34.217  34.391  29.386  1.00  0.00     0.039 A 
ATOM     29  C   UNL A   1      35.519  34.469  28.886  1.00  0.00     0.014 A 
ATOM     30  C   UNL A   1      33.967  33.891  30.666  1.00  0.00     0.014 A 
ATOM     31  C   UNL A   1      36.553  33.876  29.598  1.00  0.00     0.010 A 
ATOM     32  C   UNL A   1      35.021  33.358  31.409  1.00  0.00     0.010 A 
ATOM     33  C   UNL A   1      36.308  33.287  30.851  1.00  0.00    -0.014 A 
BRANCH  33  34
ATOM     34  C   UNL A   1      37.395  32.538  31.527  1.00  0.00     0.031 A 
ATOM     35  C   UNL A   1      38.146  31.456  30.798  1.00  0.00     0.074 A 
ATOM     36  C   UNL A   1      37.765  32.893  32.771  1.00  0.00     0.049 A 
ATOM     37  N   UNL A   1      39.131  30.703  31.221  1.00  0.00    -0.248 NA
ATOM     38  C   UNL A   1      37.741  31.185  29.410  1.00  0.00     0.031 C 
ATOM     39  C   UNL A   1      37.144  33.957  33.560  1.00  0.00     0.029 A 
ATOM     40  N   UNL A   1      38.775  32.425  33.571  1.00  0.00    -0.354 N 
ATOM     41  C   UNL A   1      39.449  29.862  30.163  1.00  0.00     0.074 A 
ATOM     42  C   UNL A   1      38.539  30.178  29.083  1.00  0.00     0.031 C 
ATOM     43  C   UNL A   1      37.829  34.107  34.703  1.00  0.00     0.029 A 
ATOM     44  C   UNL A   1      38.895  33.111  34.753  1.00  0.00     0.049 A 
ATOM     45  H   UNL A   1      39.356  31.670  33.322  1.00  0.00     0.167 HD
ATOM     46  C   UNL A   1      40.419  28.918  30.094  1.00  0.00     0.037 A 
ATOM     47  C   UNL A   1      39.765  32.951  35.766  1.00  0.00     0.037 A 
ATOM     48  C   UNL A   1      41.336  28.615  31.162  1.00  0.00     0.049 A 
ATOM     49  C   UNL A   1      40.792  31.861  35.690  1.00  0.00     0.074 A 
ATOM     50  C   UNL A   1      42.341  27.663  31.196  1.00  0.00     0.029 A 
ATOM     51  N   UNL A   1      41.365  29.270  32.384  1.00  0.00    -0.354 N 
ATOM     52  N   UNL A   1      41.045  31.032  34.708  1.00  0.00    -0.248 NA
ATOM     53  C   UNL A   1      41.638  31.669  36.876  1.00  0.00     0.031 C 
ATOM     54  C   UNL A   1      42.961  27.725  32.449  1.00  0.00     0.029 A 
ATOM     55  C   UNL A   1      42.365  28.737  33.184  1.00  0.00     0.049 A 
ATOM     56  H   UNL A   1      40.765  30.005  32.646  1.00  0.00     0.167 HD
ATOM     57  C   UNL A   1      42.076  30.219  35.154  1.00  0.00     0.074 A 
ATOM     58  C   UNL A   1      42.419  30.670  36.487  1.00  0.00     0.031 C 
ATOM     59  C   UNL A   1      42.680  29.186  34.515  1.00  0.00     0.037 A 
BRANCH  46  60
ATOM     60  C   UNL A   1      40.528  28.130  28.823  1.00  0.00     0.064 A 
ATOM     61  C   UNL A   1      41.332  28.563  27.759  1.00  0.00     0.173 A 
ATOM     62  C   UNL A   1      39.849  26.910  28.680  1.00  0.00     0.173 A 
ATOM     63  F   UNL A   1      41.988  29.729  27.840  1.00  0.00    -0.203 F 
ATOM     64  C   UNL A   1      41.437  27.812  26.589  1.00  0.00     0.198 A 
ATOM     65  C   UNL A   1      39.973  26.152  27.518  1.00  0.00     0.198 A 
ATOM     66  F   UNL A   1      39.069  26.450  29.670  1.00  0.00    -0.203 F 
ATOM     67  F   UNL A   1      42.179  28.265  25.570  1.00  0.00    -0.200 F 
ATOM     68  C   UNL A   1      40.762  26.606  26.472  1.00  0.00     0.200 A 
ATOM     69  F   UNL A   1      39.326  24.983  27.410  1.00  0.00    -0.200 F 
ATOM     70  F   UNL A   1      40.866  25.886  25.348  1.00  0.00    -0.200 F 
ENDBRANCH  46  60
BRANCH  47  71
ATOM     71  C   UNL A   1      39.698  33.870  36.928  1.00  0.00     0.064 A 
ATOM     72  C   UNL A   1      40.374  35.096  36.906  1.00  0.00     0.173 A 
ATOM     73  C   UNL A   1      38.914  33.569  38.052  1.00  0.00     0.173 A 
ATOM     74  F   UNL A   1      41.148  35.415  35.859  1.00  0.00    -0.203 F 
ATOM     75  C   UNL A   1      40.262  35.993  37.965  1.00  0.00     0.198 A 
ATOM     76  C   UNL A   1      38.787  34.476  39.099  1.00  0.00     0.198 A 
ATOM     77  F   UNL A   1      38.249  32.407  38.114  1.00  0.00    -0.203 F 
ATOM     78  F   UNL A   1      40.927  37.157  37.928  1.00  0.00    -0.200 F 
ATOM     79  C   UNL A   1      39.460  35.688  39.055  1.00  0.00     0.200 A 
ATOM     80  F   UNL A   1      38.001  34.183  40.145  1.00  0.00    -0.200 F 
ATOM     81  F   UNL A   1      39.336  36.562  40.063  1.00  0.00    -0.200 F 
ENDBRANCH  47  71
BRANCH  59  82
ATOM     82  C   UNL A   1      43.768  28.472  35.256  1.00  0.00     0.064 A 
ATOM     83  C   UNL A   1      43.478  27.419  36.135  1.00  0.00     0.173 A 
ATOM     84  C   UNL A   1      45.113  28.817  35.058  1.00  0.00     0.173 A 
ATOM     85  F   UNL A   1      42.205  27.064  36.365  1.00  0.00    -0.203 F 
ATOM     86  C   UNL A   1      44.497  26.746  36.804  1.00  0.00     0.198 A 
ATOM     87  C   UNL A   1      46.130  28.129  35.713  1.00  0.00     0.198 A 
ATOM     88  F   UNL A   1      45.439  29.815  34.223  1.00  0.00    -0.203 F 
ATOM     89  F   UNL A   1      44.197  25.766  37.667  1.00  0.00    -0.200 F 
ATOM     90  C   UNL A   1      45.821  27.098  36.588  1.00  0.00     0.200 A 
ATOM     91  F   UNL A   1      47.409  28.464  35.499  1.00  0.00    -0.200 F 
ATOM     92  F   UNL A   1      46.801  26.448  37.232  1.00  0.00    -0.200 F 
ENDBRANCH  59  82
ENDBRANCH  33  34
ENDBRANCH  25  28
ENDBRANCH  23  24
ENDBRANCH  22  23
ENDBRANCH   1  22
TORSDOF 15
ENDMDL
