MODEL 1
REMARK VINA RESULT:     -11.5      0.000      0.000
REMARK SMILES CC(C)(Nc1cccc(F)c1C#N)C(C)(C)C(=O)NCCCCNC(=O)c1ccc(-c2c3nc(c(-c4c(F)c(F)c(F)c(F)c4F)c4ccc([nH]4)c(-c4c(F)c(F)c(F)c(F)c4F)c4nc(c(-c5c(F)c(F)c(F)c(F)c5F)c5ccc2[nH]5)C=C4)C=C3)cc1
REMARK SMILES IDX 20 1 19 2 17 3 18 4 14 6 15 7 16 8 2 9 1 10 3 11 4 12 5 14
REMARK SMILES IDX 6 15 11 16 7 17 9 18 8 19 10 20 12 21 13 22 21 23 22 24
REMARK SMILES IDX 23 25 24 26 25 27 26 29 27 30 28 31 89 32 29 33 88 34 30 35
REMARK SMILES IDX 31 36 32 37 82 38 33 39 87 40 81 41 83 42 34 43 86 44 80 45
REMARK SMILES IDX 79 46 35 48 67 49 47 50 66 51 48 52 51 53 65 54 84 55 49 56
REMARK SMILES IDX 50 57 64 59 85 60 52 61 36 62 37 63 45 64 38 65 39 66 43 67
REMARK SMILES IDX 46 68 40 69 41 70 44 71 42 72 68 73 69 74 77 75 70 76 71 77
REMARK SMILES IDX 75 78 78 79 72 80 73 81 76 82 74 83 53 84 54 85 62 86 55 87
REMARK SMILES IDX 56 88 60 89 63 90 57 91 58 92 61 93 59 94
REMARK H PARENT 19 5 4 13 24 28 83 47 51 58
REMARK Flexibility Score: inf
ROOT
ATOM      1  C   UNL A   1      32.101  30.055  25.543  1.00  0.00     0.116 C 
ENDROOT
BRANCH   1   2
ATOM      2  N   UNL A   1      32.452  28.747  26.059  1.00  0.00    -0.356 N 
ATOM      3  C   UNL A   1      31.679  27.631  25.973  1.00  0.00     0.228 C 
ATOM      4  O   UNL A   1      31.356  27.133  27.052  1.00  0.00    -0.274 OA
ATOM      5  H   UNL A   1      33.322  28.659  26.511  1.00  0.00     0.163 HD
BRANCH   3   6
ATOM      6  C   UNL A   1      31.152  27.090  24.632  1.00  0.00     0.066 C 
ATOM      7  C   UNL A   1      30.529  28.150  23.684  1.00  0.00     0.024 C 
ATOM      8  C   UNL A   1      29.979  26.163  25.067  1.00  0.00     0.024 C 
BRANCH   6   9
ATOM      9  C   UNL A   1      32.316  26.271  23.869  1.00  0.00     0.046 C 
ATOM     10  C   UNL A   1      33.012  27.204  22.835  1.00  0.00     0.035 C 
ATOM     11  C   UNL A   1      31.802  25.057  23.046  1.00  0.00     0.035 C 
BRANCH   9  12
ATOM     12  N   UNL A   1      33.419  25.703  24.714  1.00  0.00    -0.378 N 
ATOM     13  H   UNL A   1      33.871  26.348  25.305  1.00  0.00     0.161 HD
BRANCH  12  14
ATOM     14  C   UNL A   1      33.892  24.407  24.783  1.00  0.00     0.056 A 
ATOM     15  C   UNL A   1      34.773  23.965  23.776  1.00  0.00     0.027 A 
ATOM     16  C   UNL A   1      33.503  23.471  25.757  1.00  0.00     0.111 A 
ATOM     17  C   UNL A   1      35.374  22.703  23.826  1.00  0.00     0.005 A 
ATOM     18  C   UNL A   1      34.159  22.238  25.836  1.00  0.00     0.143 A 
ATOM     19  C   UNL A   1      35.102  21.854  24.891  1.00  0.00     0.041 A 
ATOM     20  F   UNL A   1      33.880  21.383  26.834  1.00  0.00    -0.205 F 
BRANCH  16  21
ATOM     21  C   UNL A   1      32.375  23.660  26.619  1.00  0.00     0.104 C 
ATOM     22  N   UNL A   1      31.463  23.704  27.339  1.00  0.00    -0.192 NA
ENDBRANCH  16  21
ENDBRANCH  12  14
ENDBRANCH   9  12
ENDBRANCH   6   9
ENDBRANCH   3   6
ENDBRANCH   1   2
BRANCH   1  23
ATOM     23  C   UNL A   1      31.196  30.803  26.521  1.00  0.00     0.023 C 
BRANCH  23  24
ATOM     24  C   UNL A   1      31.367  32.322  26.511  1.00  0.00     0.023 C 
BRANCH  24  25
ATOM     25  C   UNL A   1      32.647  32.822  27.167  1.00  0.00     0.116 C 
BRANCH  25  26
ATOM     26  N   UNL A   1      32.501  34.162  27.715  1.00  0.00    -0.352 N 
ATOM     27  C   UNL A   1      33.177  34.759  28.747  1.00  0.00     0.251 C 
ATOM     28  H   UNL A   1      31.817  34.721  27.282  1.00  0.00     0.163 HD
ATOM     29  O   UNL A   1      32.795  35.839  29.187  1.00  0.00    -0.269 OA
BRANCH  27  30
ATOM     30  C   UNL A   1      34.358  34.096  29.333  1.00  0.00     0.039 A 
ATOM     31  C   UNL A   1      34.160  33.091  30.282  1.00  0.00     0.014 A 
ATOM     32  C   UNL A   1      35.652  34.476  28.968  1.00  0.00     0.014 A 
ATOM     33  C   UNL A   1      35.263  32.449  30.843  1.00  0.00     0.010 A 
ATOM     34  C   UNL A   1      36.746  33.772  29.457  1.00  0.00     0.010 A 
ATOM     35  C   UNL A   1      36.565  32.772  30.423  1.00  0.00    -0.014 A 
BRANCH  35  36
ATOM     36  C   UNL A   1      37.745  32.109  31.031  1.00  0.00     0.031 A 
ATOM     37  C   UNL A   1      38.199  32.503  32.411  1.00  0.00     0.074 A 
ATOM     38  C   UNL A   1      38.417  31.173  30.336  1.00  0.00     0.049 A 
ATOM     39  N   UNL A   1      39.202  32.043  33.116  1.00  0.00    -0.248 NA
ATOM     40  C   UNL A   1      37.443  33.575  33.079  1.00  0.00     0.031 C 
ATOM     41  C   UNL A   1      38.107  30.747  28.969  1.00  0.00     0.029 A 
ATOM     42  N   UNL A   1      39.502  30.409  30.683  1.00  0.00    -0.354 N 
ATOM     43  C   UNL A   1      39.201  32.775  34.297  1.00  0.00     0.074 A 
ATOM     44  C   UNL A   1      38.144  33.755  34.187  1.00  0.00     0.031 C 
ATOM     45  C   UNL A   1      38.959  29.775  28.608  1.00  0.00     0.029 A 
ATOM     46  C   UNL A   1      39.895  29.533  29.701  1.00  0.00     0.049 A 
ATOM     47  H   UNL A   1      39.955  30.481  31.554  1.00  0.00     0.167 HD
ATOM     48  C   UNL A   1      39.990  32.624  35.387  1.00  0.00     0.037 A 
ATOM     49  C   UNL A   1      40.899  28.635  29.688  1.00  0.00     0.037 A 
ATOM     50  C   UNL A   1      41.027  31.632  35.498  1.00  0.00     0.049 A 
ATOM     51  C   UNL A   1      41.756  28.484  30.917  1.00  0.00     0.074 A 
ATOM     52  C   UNL A   1      41.851  31.362  36.575  1.00  0.00     0.029 A 
ATOM     53  N   UNL A   1      41.382  30.746  34.491  1.00  0.00    -0.354 N 
ATOM     54  N   UNL A   1      41.698  29.129  32.057  1.00  0.00    -0.248 NA
ATOM     55  C   UNL A   1      42.807  27.459  30.863  1.00  0.00     0.031 C 
ATOM     56  C   UNL A   1      42.742  30.350  36.202  1.00  0.00     0.029 A 
ATOM     57  C   UNL A   1      42.425  29.939  34.917  1.00  0.00     0.049 A 
ATOM     58  H   UNL A   1      40.955  30.698  33.604  1.00  0.00     0.167 HD
ATOM     59  C   UNL A   1      42.673  28.563  32.868  1.00  0.00     0.074 A 
ATOM     60  C   UNL A   1      43.296  27.509  32.093  1.00  0.00     0.031 C 
ATOM     61  C   UNL A   1      43.022  28.884  34.139  1.00  0.00     0.037 A 
BRANCH  48  62
ATOM     62  C   UNL A   1      39.761  33.552  36.546  1.00  0.00     0.064 A 
ATOM     63  C   UNL A   1      38.884  33.224  37.592  1.00  0.00     0.173 A 
ATOM     64  C   UNL A   1      40.456  34.768  36.633  1.00  0.00     0.173 A 
ATOM     65  F   UNL A   1      38.184  32.081  37.554  1.00  0.00    -0.203 F 
ATOM     66  C   UNL A   1      38.688  34.092  38.664  1.00  0.00     0.198 A 
ATOM     67  C   UNL A   1      40.284  35.617  37.724  1.00  0.00     0.198 A 
ATOM     68  F   UNL A   1      41.309  35.131  35.664  1.00  0.00    -0.203 F 
ATOM     69  F   UNL A   1      37.805  33.781  39.623  1.00  0.00    -0.200 F 
ATOM     70  C   UNL A   1      39.394  35.283  38.734  1.00  0.00     0.200 A 
ATOM     71  F   UNL A   1      40.978  36.760  37.796  1.00  0.00    -0.200 F 
ATOM     72  F   UNL A   1      39.214  36.111  39.771  1.00  0.00    -0.200 F 
ENDBRANCH  48  62
BRANCH  49  73
ATOM     73  C   UNL A   1      41.129  27.787  28.489  1.00  0.00     0.064 A 
ATOM     74  C   UNL A   1      42.032  28.177  27.490  1.00  0.00     0.173 A 
ATOM     75  C   UNL A   1      40.432  26.584  28.303  1.00  0.00     0.173 A 
ATOM     76  F   UNL A   1      42.710  29.327  27.611  1.00  0.00    -0.203 F 
ATOM     77  C   UNL A   1      42.202  27.415  26.335  1.00  0.00     0.198 A 
ATOM     78  C   UNL A   1      40.630  25.806  27.163  1.00  0.00     0.198 A 
ATOM     79  F   UNL A   1      39.562  26.160  29.231  1.00  0.00    -0.203 F 
ATOM     80  F   UNL A   1      43.025  27.845  25.368  1.00  0.00    -0.200 F 
ATOM     81  C   UNL A   1      41.504  26.228  26.175  1.00  0.00     0.200 A 
ATOM     82  F   UNL A   1      39.965  24.650  27.021  1.00  0.00    -0.200 F 
ATOM     83  F   UNL A   1      41.666  25.498  25.064  1.00  0.00    -0.200 F 
ENDBRANCH  49  73
BRANCH  61  84
ATOM     84  C   UNL A   1      44.082  28.043  34.793  1.00  0.00     0.064 A 
ATOM     85  C   UNL A   1      43.774  26.865  35.490  1.00  0.00     0.173 A 
ATOM     86  C   UNL A   1      45.431  28.422  34.714  1.00  0.00     0.173 A 
ATOM     87  F   UNL A   1      42.500  26.460  35.605  1.00  0.00    -0.203 F 
ATOM     88  C   UNL A   1      44.770  26.126  36.123  1.00  0.00     0.198 A 
ATOM     89  C   UNL A   1      46.428  27.661  35.313  1.00  0.00     0.198 A 
ATOM     90  F   UNL A   1      45.783  29.533  34.049  1.00  0.00    -0.203 F 
ATOM     91  F   UNL A   1      44.444  25.045  36.845  1.00  0.00    -0.200 F 
ATOM     92  C   UNL A   1      46.097  26.521  36.030  1.00  0.00     0.200 A 
ATOM     93  F   UNL A   1      47.711  28.034  35.205  1.00  0.00    -0.200 F 
ATOM     94  F   UNL A   1      47.054  25.811  36.641  1.00  0.00    -0.200 F 
ENDBRANCH  61  84
ENDBRANCH  35  36
ENDBRANCH  27  30
ENDBRANCH  25  26
ENDBRANCH  24  25
ENDBRANCH  23  24
ENDBRANCH   1  23
TORSDOF 15
ENDMDL
MODEL 2
REMARK VINA RESULT:     -11.5      5.362     10.775
REMARK SMILES CC(C)(Nc1cccc(F)c1C#N)C(C)(C)C(=O)NCCCCNC(=O)c1ccc(-c2c3nc(c(-c4c(F)c(F)c(F)c(F)c4F)c4ccc([nH]4)c(-c4c(F)c(F)c(F)c(F)c4F)c4nc(c(-c5c(F)c(F)c(F)c(F)c5F)c5ccc2[nH]5)C=C4)C=C3)cc1
REMARK SMILES IDX 20 1 19 2 17 3 18 4 14 6 15 7 16 8 2 9 1 10 3 11 4 12 5 14
REMARK SMILES IDX 6 15 11 16 7 17 9 18 8 19 10 20 12 21 13 22 21 23 22 24
REMARK SMILES IDX 23 25 24 26 25 27 26 29 27 30 28 31 89 32 29 33 88 34 30 35
REMARK SMILES IDX 31 36 32 37 82 38 33 39 87 40 81 41 83 42 34 43 86 44 80 45
REMARK SMILES IDX 79 46 35 48 67 49 47 50 66 51 48 52 51 53 65 54 84 55 49 56
REMARK SMILES IDX 50 57 64 59 85 60 52 61 36 62 37 63 45 64 38 65 39 66 43 67
REMARK SMILES IDX 46 68 40 69 41 70 44 71 42 72 68 73 69 74 77 75 70 76 71 77
REMARK SMILES IDX 75 78 78 79 72 80 73 81 76 82 74 83 53 84 54 85 62 86 55 87
REMARK SMILES IDX 56 88 60 89 63 90 57 91 58 92 61 93 59 94
REMARK H PARENT 19 5 4 13 24 28 83 47 51 58
REMARK Flexibility Score: inf
ROOT
ATOM      1  C   UNL A   1      35.940  21.128  25.463  1.00  0.00     0.116 C 
ENDROOT
BRANCH   1   2
ATOM      2  N   UNL A   1      34.746  21.449  24.707  1.00  0.00    -0.356 N 
ATOM      3  C   UNL A   1      33.541  21.786  25.240  1.00  0.00     0.228 C 
ATOM      4  O   UNL A   1      32.609  21.037  24.943  1.00  0.00    -0.274 OA
ATOM      5  H   UNL A   1      34.814  21.421  23.725  1.00  0.00     0.163 HD
BRANCH   3   6
ATOM      6  C   UNL A   1      33.370  22.951  26.230  1.00  0.00     0.066 C 
ATOM      7  C   UNL A   1      34.465  24.049  26.165  1.00  0.00     0.024 C 
ATOM      8  C   UNL A   1      33.540  22.258  27.615  1.00  0.00     0.024 C 
BRANCH   6   9
ATOM      9  C   UNL A   1      31.905  23.610  26.062  1.00  0.00     0.046 C 
ATOM     10  C   UNL A   1      31.931  25.071  26.599  1.00  0.00     0.035 C 
ATOM     11  C   UNL A   1      30.791  22.894  26.875  1.00  0.00     0.035 C 
BRANCH   9  12
ATOM     12  N   UNL A   1      31.349  23.696  24.670  1.00  0.00    -0.378 N 
ATOM     13  H   UNL A   1      30.952  22.863  24.324  1.00  0.00     0.161 HD
BRANCH  12  14
ATOM     14  C   UNL A   1      31.313  24.772  23.805  1.00  0.00     0.056 A 
ATOM     15  C   UNL A   1      30.150  25.566  23.779  1.00  0.00     0.027 A 
ATOM     16  C   UNL A   1      32.336  25.095  22.897  1.00  0.00     0.111 A 
ATOM     17  C   UNL A   1      30.071  26.729  23.006  1.00  0.00     0.005 A 
ATOM     18  C   UNL A   1      32.275  26.295  22.180  1.00  0.00     0.143 A 
ATOM     19  C   UNL A   1      31.160  27.121  22.240  1.00  0.00     0.041 A 
ATOM     20  F   UNL A   1      33.300  26.671  21.399  1.00  0.00    -0.205 F 
BRANCH  16  21
ATOM     21  C   UNL A   1      33.403  24.199  22.568  1.00  0.00     0.104 C 
ATOM     22  N   UNL A   1      34.332  23.561  22.279  1.00  0.00    -0.192 NA
ENDBRANCH  16  21
ENDBRANCH  12  14
ENDBRANCH   9  12
ENDBRANCH   6   9
ENDBRANCH   3   6
ENDBRANCH   1   2
BRANCH   1  23
ATOM     23  C   UNL A   1      37.135  20.919  24.534  1.00  0.00     0.023 C 
BRANCH  23  24
ATOM     24  C   UNL A   1      38.066  19.776  24.941  1.00  0.00     0.023 C 
BRANCH  24  25
ATOM     25  C   UNL A   1      39.106  20.147  25.990  1.00  0.00     0.116 C 
BRANCH  25  26
ATOM     26  N   UNL A   1      40.269  19.273  25.949  1.00  0.00    -0.352 N 
ATOM     27  C   UNL A   1      41.599  19.588  26.041  1.00  0.00     0.251 C 
ATOM     28  H   UNL A   1      40.071  18.315  25.839  1.00  0.00     0.163 HD
ATOM     29  O   UNL A   1      42.450  18.735  25.808  1.00  0.00    -0.269 OA
BRANCH  27  30
ATOM     30  C   UNL A   1      42.006  20.958  26.411  1.00  0.00     0.039 A 
ATOM     31  C   UNL A   1      42.151  21.910  25.400  1.00  0.00     0.014 A 
ATOM     32  C   UNL A   1      42.264  21.297  27.742  1.00  0.00     0.014 A 
ATOM     33  C   UNL A   1      42.529  23.211  25.731  1.00  0.00     0.010 A 
ATOM     34  C   UNL A   1      42.549  22.615  28.079  1.00  0.00     0.010 A 
ATOM     35  C   UNL A   1      42.715  23.579  27.075  1.00  0.00    -0.014 A 
BRANCH  35  36
ATOM     36  C   UNL A   1      43.138  24.955  27.433  1.00  0.00     0.031 A 
ATOM     37  C   UNL A   1      44.555  25.394  27.177  1.00  0.00     0.074 A 
ATOM     38  C   UNL A   1      42.258  25.797  28.006  1.00  0.00     0.049 A 
ATOM     39  N   UNL A   1      45.119  26.552  27.416  1.00  0.00    -0.248 NA
ATOM     40  C   UNL A   1      45.468  24.394  26.601  1.00  0.00     0.031 C 
ATOM     41  C   UNL A   1      40.874  25.468  28.353  1.00  0.00     0.029 A 
ATOM     42  N   UNL A   1      42.396  27.104  28.396  1.00  0.00    -0.354 N 
ATOM     43  C   UNL A   1      46.447  26.411  27.032  1.00  0.00     0.074 A 
ATOM     44  C   UNL A   1      46.623  25.040  26.609  1.00  0.00     0.031 C 
ATOM     45  C   UNL A   1      40.282  26.555  28.874  1.00  0.00     0.029 A 
ATOM     46  C   UNL A   1      41.251  27.644  28.928  1.00  0.00     0.049 A 
ATOM     47  H   UNL A   1      43.237  27.609  28.303  1.00  0.00     0.167 HD
ATOM     48  C   UNL A   1      47.424  27.348  27.005  1.00  0.00     0.037 A 
ATOM     49  C   UNL A   1      41.012  28.881  29.402  1.00  0.00     0.037 A 
ATOM     50  C   UNL A   1      47.236  28.717  27.407  1.00  0.00     0.049 A 
ATOM     51  C   UNL A   1      42.115  29.906  29.352  1.00  0.00     0.074 A 
ATOM     52  C   UNL A   1      48.145  29.760  27.373  1.00  0.00     0.029 A 
ATOM     53  N   UNL A   1      46.055  29.234  27.919  1.00  0.00    -0.354 N 
ATOM     54  N   UNL A   1      43.346  29.783  28.917  1.00  0.00    -0.248 NA
ATOM     55  C   UNL A   1      41.785  31.251  29.843  1.00  0.00     0.031 C 
ATOM     56  C   UNL A   1      47.531  30.893  27.915  1.00  0.00     0.029 A 
ATOM     57  C   UNL A   1      46.217  30.577  28.220  1.00  0.00     0.049 A 
ATOM     58  H   UNL A   1      45.224  28.722  28.049  1.00  0.00     0.167 HD
ATOM     59  C   UNL A   1      43.923  31.040  29.041  1.00  0.00     0.074 A 
ATOM     60  C   UNL A   1      42.900  31.915  29.578  1.00  0.00     0.031 C 
ATOM     61  C   UNL A   1      45.184  31.437  28.738  1.00  0.00     0.037 A 
BRANCH  48  62
ATOM     62  C   UNL A   1      48.783  26.924  26.522  1.00  0.00     0.064 A 
ATOM     63  C   UNL A   1      49.733  26.364  27.390  1.00  0.00     0.173 A 
ATOM     64  C   UNL A   1      49.126  27.044  25.167  1.00  0.00     0.173 A 
ATOM     65  F   UNL A   1      49.463  26.238  28.698  1.00  0.00    -0.203 F 
ATOM     66  C   UNL A   1      50.985  25.969  26.925  1.00  0.00     0.198 A 
ATOM     67  C   UNL A   1      50.365  26.616  24.699  1.00  0.00     0.198 A 
ATOM     68  F   UNL A   1      48.256  27.570  24.292  1.00  0.00    -0.203 F 
ATOM     69  F   UNL A   1      51.894  25.486  27.784  1.00  0.00    -0.200 F 
ATOM     70  C   UNL A   1      51.297  26.086  25.580  1.00  0.00     0.200 A 
ATOM     71  F   UNL A   1      50.659  26.717  23.396  1.00  0.00    -0.200 F 
ATOM     72  F   UNL A   1      52.498  25.695  25.132  1.00  0.00    -0.200 F 
ENDBRANCH  48  62
BRANCH  49  73
ATOM     73  C   UNL A   1      39.669  29.233  29.934  1.00  0.00     0.064 A 
ATOM     74  C   UNL A   1      39.369  29.087  31.296  1.00  0.00     0.173 A 
ATOM     75  C   UNL A   1      38.648  29.695  29.089  1.00  0.00     0.173 A 
ATOM     76  F   UNL A   1      40.304  28.633  32.143  1.00  0.00    -0.203 F 
ATOM     77  C   UNL A   1      38.092  29.356  31.786  1.00  0.00     0.198 A 
ATOM     78  C   UNL A   1      37.382  29.996  29.587  1.00  0.00     0.198 A 
ATOM     79  F   UNL A   1      38.883  29.859  27.779  1.00  0.00    -0.203 F 
ATOM     80  F   UNL A   1      37.817  29.147  33.081  1.00  0.00    -0.200 F 
ATOM     81  C   UNL A   1      37.101  29.814  30.932  1.00  0.00     0.200 A 
ATOM     82  F   UNL A   1      36.432  30.455  28.760  1.00  0.00    -0.200 F 
ATOM     83  F   UNL A   1      35.873  30.068  31.403  1.00  0.00    -0.200 F 
ENDBRANCH  49  73
BRANCH  61  84
ATOM     84  C   UNL A   1      45.508  32.894  28.918  1.00  0.00     0.064 A 
ATOM     85  C   UNL A   1      45.281  33.838  27.906  1.00  0.00     0.173 A 
ATOM     86  C   UNL A   1      46.049  33.351  30.130  1.00  0.00     0.173 A 
ATOM     87  F   UNL A   1      44.775  33.455  26.724  1.00  0.00    -0.203 F 
ATOM     88  C   UNL A   1      45.629  35.175  28.083  1.00  0.00     0.198 A 
ATOM     89  C   UNL A   1      46.358  34.693  30.318  1.00  0.00     0.198 A 
ATOM     90  F   UNL A   1      46.274  32.493  31.136  1.00  0.00    -0.203 F 
ATOM     91  F   UNL A   1      45.472  36.046  27.076  1.00  0.00    -0.200 F 
ATOM     92  C   UNL A   1      46.162  35.603  29.290  1.00  0.00     0.200 A 
ATOM     93  F   UNL A   1      46.854  35.107  31.493  1.00  0.00    -0.200 F 
ATOM     94  F   UNL A   1      46.498  36.888  29.458  1.00  0.00    -0.200 F 
ENDBRANCH  61  84
ENDBRANCH  35  36
ENDBRANCH  27  30
ENDBRANCH  25  26
ENDBRANCH  24  25
ENDBRANCH  23  24
ENDBRANCH   1  23
TORSDOF 15
ENDMDL
MODEL 3
REMARK VINA RESULT:     -11.5      0.912      2.248
REMARK SMILES CC(C)(Nc1cccc(F)c1C#N)C(C)(C)C(=O)NCCCCNC(=O)c1ccc(-c2c3nc(c(-c4c(F)c(F)c(F)c(F)c4F)c4ccc([nH]4)c(-c4c(F)c(F)c(F)c(F)c4F)c4nc(c(-c5c(F)c(F)c(F)c(F)c5F)c5ccc2[nH]5)C=C4)C=C3)cc1
REMARK SMILES IDX 20 1 19 2 17 3 18 4 14 6 15 7 16 8 2 9 1 10 3 11 4 12 5 14
REMARK SMILES IDX 6 15 11 16 7 17 9 18 8 19 10 20 12 21 13 22 21 23 22 24
REMARK SMILES IDX 23 25 24 26 25 27 26 29 27 30 28 31 89 32 29 33 88 34 30 35
REMARK SMILES IDX 31 36 32 37 82 38 33 39 87 40 81 41 83 42 34 43 86 44 80 45
REMARK SMILES IDX 79 46 35 48 67 49 47 50 66 51 48 52 51 53 65 54 84 55 49 56
REMARK SMILES IDX 50 57 64 59 85 60 52 61 36 62 37 63 45 64 38 65 39 66 43 67
REMARK SMILES IDX 46 68 40 69 41 70 44 71 42 72 68 73 69 74 77 75 70 76 71 77
REMARK SMILES IDX 75 78 78 79 72 80 73 81 76 82 74 83 53 84 54 85 62 86 55 87
REMARK SMILES IDX 56 88 60 89 63 90 57 91 58 92 61 93 59 94
REMARK H PARENT 19 5 4 13 24 28 83 47 51 58
REMARK Flexibility Score: inf
ROOT
ATOM      1  C   UNL A   1      32.462  29.609  26.365  1.00  0.00     0.116 C 
ENDROOT
BRANCH   1   2
ATOM      2  N   UNL A   1      32.074  28.215  26.293  1.00  0.00    -0.356 N 
ATOM      3  C   UNL A   1      31.641  27.572  25.175  1.00  0.00     0.228 C 
ATOM      4  O   UNL A   1      30.506  27.098  25.250  1.00  0.00    -0.274 OA
ATOM      5  H   UNL A   1      32.128  27.688  27.123  1.00  0.00     0.163 HD
BRANCH   3   6
ATOM      6  C   UNL A   1      32.458  27.534  23.872  1.00  0.00     0.066 C 
ATOM      7  C   UNL A   1      33.896  28.111  23.970  1.00  0.00     0.024 C 
ATOM      8  C   UNL A   1      31.671  28.500  22.938  1.00  0.00     0.024 C 
BRANCH   6   9
ATOM      9  C   UNL A   1      32.498  26.029  23.287  1.00  0.00     0.046 C 
ATOM     10  C   UNL A   1      33.730  25.871  22.349  1.00  0.00     0.035 C 
ATOM     11  C   UNL A   1      31.267  25.656  22.415  1.00  0.00     0.035 C 
BRANCH   9  12
ATOM     12  N   UNL A   1      32.597  24.910  24.283  1.00  0.00    -0.378 N 
ATOM     13  H   UNL A   1      31.770  24.719  24.784  1.00  0.00     0.161 HD
BRANCH  12  14
ATOM     14  C   UNL A   1      33.678  24.110  24.599  1.00  0.00     0.056 A 
ATOM     15  C   UNL A   1      34.767  24.698  25.270  1.00  0.00     0.027 A 
ATOM     16  C   UNL A   1      33.796  22.756  24.238  1.00  0.00     0.111 A 
ATOM     17  C   UNL A   1      35.855  23.938  25.713  1.00  0.00     0.005 A 
ATOM     18  C   UNL A   1      34.853  21.992  24.743  1.00  0.00     0.143 A 
ATOM     19  C   UNL A   1      35.873  22.568  25.490  1.00  0.00     0.041 A 
ATOM     20  F   UNL A   1      34.912  20.673  24.502  1.00  0.00    -0.205 F 
BRANCH  16  21
ATOM     21  C   UNL A   1      32.945  22.126  23.273  1.00  0.00     0.104 C 
ATOM     22  N   UNL A   1      32.202  21.712  22.480  1.00  0.00    -0.192 NA
ENDBRANCH  16  21
ENDBRANCH  12  14
ENDBRANCH   9  12
ENDBRANCH   6   9
ENDBRANCH   3   6
ENDBRANCH   1   2
BRANCH   1  23
ATOM     23  C   UNL A   1      31.377  30.508  25.773  1.00  0.00     0.023 C 
BRANCH  23  24
ATOM     24  C   UNL A   1      31.270  31.888  26.424  1.00  0.00     0.023 C 
BRANCH  24  25
ATOM     25  C   UNL A   1      32.574  32.419  27.005  1.00  0.00     0.116 C 
BRANCH  25  26
ATOM     26  N   UNL A   1      32.448  33.788  27.484  1.00  0.00    -0.352 N 
ATOM     27  C   UNL A   1      33.152  34.435  28.465  1.00  0.00     0.251 C 
ATOM     28  H   UNL A   1      31.757  34.328  27.037  1.00  0.00     0.163 HD
ATOM     29  O   UNL A   1      32.787  35.539  28.856  1.00  0.00    -0.269 OA
BRANCH  27  30
ATOM     30  C   UNL A   1      34.343  33.796  29.058  1.00  0.00     0.039 A 
ATOM     31  C   UNL A   1      34.161  32.744  29.958  1.00  0.00     0.014 A 
ATOM     32  C   UNL A   1      35.630  34.244  28.748  1.00  0.00     0.014 A 
ATOM     33  C   UNL A   1      35.274  32.124  30.525  1.00  0.00     0.010 A 
ATOM     34  C   UNL A   1      36.739  33.564  29.239  1.00  0.00     0.010 A 
ATOM     35  C   UNL A   1      36.573  32.518  30.157  1.00  0.00    -0.014 A 
BRANCH  35  36
ATOM     36  C   UNL A   1      37.761  31.878  30.772  1.00  0.00     0.031 A 
ATOM     37  C   UNL A   1      38.189  32.267  32.162  1.00  0.00     0.074 A 
ATOM     38  C   UNL A   1      38.466  30.967  30.074  1.00  0.00     0.049 A 
ATOM     39  N   UNL A   1      39.195  31.825  32.873  1.00  0.00    -0.248 NA
ATOM     40  C   UNL A   1      37.399  33.312  32.832  1.00  0.00     0.031 C 
ATOM     41  C   UNL A   1      38.182  30.550  28.699  1.00  0.00     0.029 A 
ATOM     42  N   UNL A   1      39.566  30.227  30.426  1.00  0.00    -0.354 N 
ATOM     43  C   UNL A   1      39.162  32.543  34.062  1.00  0.00     0.074 A 
ATOM     44  C   UNL A   1      38.081  33.497  33.951  1.00  0.00     0.031 C 
ATOM     45  C   UNL A   1      39.064  29.603  28.337  1.00  0.00     0.029 A 
ATOM     46  C   UNL A   1      39.993  29.373  29.438  1.00  0.00     0.049 A 
ATOM     47  H   UNL A   1      40.007  30.301  31.303  1.00  0.00     0.167 HD
ATOM     48  C   UNL A   1      39.942  32.400  35.159  1.00  0.00     0.037 A 
ATOM     49  C   UNL A   1      41.019  28.501  29.428  1.00  0.00     0.037 A 
ATOM     50  C   UNL A   1      41.002  31.433  35.272  1.00  0.00     0.049 A 
ATOM     51  C   UNL A   1      41.865  28.357  30.665  1.00  0.00     0.074 A 
ATOM     52  C   UNL A   1      41.821  31.171  36.356  1.00  0.00     0.029 A 
ATOM     53  N   UNL A   1      41.391  30.568  34.259  1.00  0.00    -0.354 N 
ATOM     54  N   UNL A   1      41.778  28.988  31.812  1.00  0.00    -0.248 NA
ATOM     55  C   UNL A   1      42.943  27.360  30.612  1.00  0.00     0.031 C 
ATOM     56  C   UNL A   1      42.741  30.187  35.982  1.00  0.00     0.029 A 
ATOM     57  C   UNL A   1      42.450  29.783  34.689  1.00  0.00     0.049 A 
ATOM     58  H   UNL A   1      40.977  30.519  33.367  1.00  0.00     0.167 HD
ATOM     59  C   UNL A   1      42.757  28.437  32.627  1.00  0.00     0.074 A 
ATOM     60  C   UNL A   1      43.415  27.409  31.849  1.00  0.00     0.031 C 
ATOM     61  C   UNL A   1      43.083  28.753  33.906  1.00  0.00     0.037 A 
BRANCH  48  62
ATOM     62  C   UNL A   1      39.675  33.308  36.327  1.00  0.00     0.064 A 
ATOM     63  C   UNL A   1      40.310  34.554  36.453  1.00  0.00     0.173 A 
ATOM     64  C   UNL A   1      38.744  32.946  37.312  1.00  0.00     0.173 A 
ATOM     65  F   UNL A   1      41.219  34.944  35.547  1.00  0.00    -0.203 F 
ATOM     66  C   UNL A   1      40.046  35.387  37.537  1.00  0.00     0.198 A 
ATOM     67  C   UNL A   1      38.457  33.797  38.376  1.00  0.00     0.198 A 
ATOM     68  F   UNL A   1      38.106  31.769  37.240  1.00  0.00    -0.203 F 
ATOM     69  F   UNL A   1      40.706  36.547  37.664  1.00  0.00    -0.200 F 
ATOM     70  C   UNL A   1      39.114  35.013  38.492  1.00  0.00     0.200 A 
ATOM     71  F   UNL A   1      37.545  33.440  39.290  1.00  0.00    -0.200 F 
ATOM     72  F   UNL A   1      38.853  35.821  39.529  1.00  0.00    -0.200 F 
ENDBRANCH  48  62
BRANCH  49  73
ATOM     73  C   UNL A   1      41.285  27.673  28.222  1.00  0.00     0.064 A 
ATOM     74  C   UNL A   1      40.680  26.419  28.058  1.00  0.00     0.173 A 
ATOM     75  C   UNL A   1      42.169  28.104  27.222  1.00  0.00     0.173 A 
ATOM     76  F   UNL A   1      39.840  25.953  28.993  1.00  0.00    -0.203 F 
ATOM     77  C   UNL A   1      40.976  25.613  26.960  1.00  0.00     0.198 A 
ATOM     78  C   UNL A   1      42.437  27.312  26.107  1.00  0.00     0.198 A 
ATOM     79  F   UNL A   1      42.769  29.299  27.325  1.00  0.00    -0.203 F 
ATOM     80  F   UNL A   1      40.432  24.393  26.862  1.00  0.00    -0.200 F 
ATOM     81  C   UNL A   1      41.852  26.062  25.983  1.00  0.00     0.200 A 
ATOM     82  F   UNL A   1      43.271  27.759  25.157  1.00  0.00    -0.200 F 
ATOM     83  F   UNL A   1      42.138  25.287  24.930  1.00  0.00    -0.200 F 
ENDBRANCH  49  73
BRANCH  61  84
ATOM     84  C   UNL A   1      44.156  27.931  34.564  1.00  0.00     0.064 A 
ATOM     85  C   UNL A   1      45.504  28.320  34.557  1.00  0.00     0.173 A 
ATOM     86  C   UNL A   1      43.825  26.734  35.217  1.00  0.00     0.173 A 
ATOM     87  F   UNL A   1      45.878  29.450  33.937  1.00  0.00    -0.203 F 
ATOM     88  C   UNL A   1      46.484  27.519  35.136  1.00  0.00     0.198 A 
ATOM     89  C   UNL A   1      44.801  25.956  35.831  1.00  0.00     0.198 A 
ATOM     90  F   UNL A   1      42.550  26.320  35.266  1.00  0.00    -0.203 F 
ATOM     91  F   UNL A   1      47.774  27.875  35.052  1.00  0.00    -0.200 F 
ATOM     92  C   UNL A   1      46.132  26.341  35.777  1.00  0.00     0.200 A 
ATOM     93  F   UNL A   1      44.455  24.828  36.467  1.00  0.00    -0.200 F 
ATOM     94  F   UNL A   1      47.076  25.570  36.333  1.00  0.00    -0.200 F 
ENDBRANCH  61  84
ENDBRANCH  35  36
ENDBRANCH  27  30
ENDBRANCH  25  26
ENDBRANCH  24  25
ENDBRANCH  23  24
ENDBRANCH   1  23
TORSDOF 15
ENDMDL
