MODEL 1
REMARK VINA RESULT:     -12.2      0.000      0.000
REMARK SMILES CC(C)CN(C)c1ccc([N+](=O)[O-])cc1C(=O)NCCCCNC(=O)c1ccc(-c2c3nc(c(-c4c(F)c(F)c(F)c(F)c4F)c4ccc([nH]4)c(-c4c(F)c(F)c(F)c(F)c4F)c4nc(c(-c5c(F)c(F)c(F)c(F)c5F)c5ccc2[nH]5)C=C4)C=C3)cc1
REMARK SMILES IDX 20 1 19 2 18 3 16 4 17 5 15 7 7 8 8 9 9 10 14 11 10 12 5 13
REMARK SMILES IDX 6 14 4 15 2 16 1 17 3 18 11 19 12 20 13 21 21 22 22 23 23 24
REMARK SMILES IDX 24 25 25 27 26 28 27 29 88 30 28 31 87 32 29 33 30 34 31 35
REMARK SMILES IDX 81 36 32 37 86 38 80 39 82 40 33 41 85 42 79 43 78 44 34 46
REMARK SMILES IDX 66 47 46 48 65 49 47 50 50 51 64 52 83 53 48 54 49 55 63 57
REMARK SMILES IDX 84 58 51 59 35 60 36 61 44 62 37 63 38 64 42 65 45 66 39 67
REMARK SMILES IDX 40 68 43 69 41 70 67 71 68 72 76 73 69 74 70 75 74 76 77 77
REMARK SMILES IDX 71 78 72 79 75 80 73 81 52 82 53 83 61 84 54 85 55 86 59 87
REMARK SMILES IDX 62 88 56 89 57 90 60 91 58 92
REMARK H PARENT 18 6 23 26 82 45 50 56
REMARK Flexibility Score: inf
ROOT
ATOM      1  C   UNL A   1      31.687  30.407  26.465  1.00  0.00     0.023 C 
ENDROOT
BRANCH   1   2
ATOM      2  C   UNL A   1      33.115  29.866  26.541  1.00  0.00     0.116 C 
BRANCH   2   3
ATOM      3  N   UNL A   1      33.707  29.378  25.318  1.00  0.00    -0.352 N 
ATOM      4  C   UNL A   1      33.338  28.301  24.531  1.00  0.00     0.253 C 
ATOM      5  O   UNL A   1      34.001  28.123  23.503  1.00  0.00    -0.269 OA
ATOM      6  H   UNL A   1      34.488  29.886  24.998  1.00  0.00     0.163 HD
BRANCH   4   7
ATOM      7  C   UNL A   1      32.239  27.310  24.841  1.00  0.00     0.069 A 
ATOM      8  C   UNL A   1      30.898  27.312  24.374  1.00  0.00     0.050 A 
ATOM      9  C   UNL A   1      30.002  26.355  24.917  1.00  0.00     0.034 A 
ATOM     10  C   UNL A   1      30.414  25.345  25.783  1.00  0.00     0.088 A 
ATOM     11  C   UNL A   1      32.665  26.229  25.658  1.00  0.00     0.101 A 
ATOM     12  C   UNL A   1      31.763  25.251  26.099  1.00  0.00     0.270 A 
BRANCH   8  13
ATOM     13  N   UNL A   1      30.410  28.146  23.364  1.00  0.00    -0.374 N 
ATOM     14  C   UNL A   1      30.955  27.909  22.019  1.00  0.00     0.143 C 
BRANCH  13  15
ATOM     15  C   UNL A   1      30.024  29.548  23.679  1.00  0.00     0.119 C 
BRANCH  15  16
ATOM     16  C   UNL A   1      28.722  30.039  23.006  1.00  0.00     0.002 C 
ATOM     17  C   UNL A   1      27.616  28.984  23.069  1.00  0.00     0.009 C 
ATOM     18  C   UNL A   1      28.186  31.338  23.622  1.00  0.00     0.009 C 
ENDBRANCH  15  16
ENDBRANCH  13  15
ENDBRANCH   8  13
BRANCH  12  19
ATOM     19  N   UNL A   1      32.234  24.095  26.866  1.00  0.00     0.062 N 
ATOM     20  O   UNL A   1      31.422  23.536  27.617  1.00  0.00    -0.258 OA
ATOM     21  O   UNL A   1      33.406  23.731  26.696  1.00  0.00    -0.258 OA
ENDBRANCH  12  19
ENDBRANCH   4   7
ENDBRANCH   2   3
ENDBRANCH   1   2
BRANCH   1  22
ATOM     22  C   UNL A   1      31.536  31.935  26.587  1.00  0.00     0.023 C 
BRANCH  22  23
ATOM     23  C   UNL A   1      32.646  32.717  27.302  1.00  0.00     0.116 C 
BRANCH  23  24
ATOM     24  N   UNL A   1      32.295  34.044  27.778  1.00  0.00    -0.352 N 
ATOM     25  C   UNL A   1      32.975  34.930  28.586  1.00  0.00     0.251 C 
ATOM     26  H   UNL A   1      31.418  34.367  27.469  1.00  0.00     0.163 HD
ATOM     27  O   UNL A   1      32.514  36.050  28.773  1.00  0.00    -0.269 OA
BRANCH  25  28
ATOM     28  C   UNL A   1      34.212  34.536  29.306  1.00  0.00     0.039 A 
ATOM     29  C   UNL A   1      34.072  34.090  30.625  1.00  0.00     0.014 A 
ATOM     30  C   UNL A   1      35.484  34.604  28.736  1.00  0.00     0.014 A 
ATOM     31  C   UNL A   1      35.180  33.605  31.326  1.00  0.00     0.010 A 
ATOM     32  C   UNL A   1      36.584  34.063  29.414  1.00  0.00     0.010 A 
ATOM     33  C   UNL A   1      36.437  33.525  30.703  1.00  0.00    -0.014 A 
BRANCH  33  34
ATOM     34  C   UNL A   1      37.552  32.785  31.357  1.00  0.00     0.031 A 
ATOM     35  C   UNL A   1      38.198  31.593  30.713  1.00  0.00     0.074 A 
ATOM     36  C   UNL A   1      37.949  33.164  32.589  1.00  0.00     0.049 A 
ATOM     37  N   UNL A   1      39.167  30.833  31.163  1.00  0.00    -0.248 NA
ATOM     38  C   UNL A   1      37.675  31.188  29.402  1.00  0.00     0.031 C 
ATOM     39  C   UNL A   1      37.369  34.268  33.355  1.00  0.00     0.029 A 
ATOM     40  N   UNL A   1      38.921  32.660  33.419  1.00  0.00    -0.354 N 
ATOM     41  C   UNL A   1      39.366  29.856  30.197  1.00  0.00     0.074 A 
ATOM     42  C   UNL A   1      38.385  30.095  29.157  1.00  0.00     0.031 C 
ATOM     43  C   UNL A   1      38.001  34.367  34.533  1.00  0.00     0.029 A 
ATOM     44  C   UNL A   1      39.002  33.310  34.627  1.00  0.00     0.049 A 
ATOM     45  H   UNL A   1      39.504  31.906  33.172  1.00  0.00     0.167 HD
ATOM     46  C   UNL A   1      40.288  28.861  30.174  1.00  0.00     0.037 A 
ATOM     47  C   UNL A   1      39.781  33.076  35.702  1.00  0.00     0.037 A 
ATOM     48  C   UNL A   1      41.265  28.626  31.210  1.00  0.00     0.049 A 
ATOM     49  C   UNL A   1      40.788  31.962  35.661  1.00  0.00     0.074 A 
ATOM     50  C   UNL A   1      42.294  27.701  31.233  1.00  0.00     0.029 A 
ATOM     51  N   UNL A   1      41.319  29.307  32.419  1.00  0.00    -0.354 N 
ATOM     52  N   UNL A   1      41.035  31.109  34.697  1.00  0.00    -0.248 NA
ATOM     53  C   UNL A   1      41.629  31.783  36.851  1.00  0.00     0.031 C 
ATOM     54  C   UNL A   1      42.924  27.771  32.481  1.00  0.00     0.029 A 
ATOM     55  C   UNL A   1      42.333  28.787  33.214  1.00  0.00     0.049 A 
ATOM     56  H   UNL A   1      40.726  30.050  32.676  1.00  0.00     0.167 HD
ATOM     57  C   UNL A   1      42.064  30.299  35.158  1.00  0.00     0.074 A 
ATOM     58  C   UNL A   1      42.412  30.780  36.479  1.00  0.00     0.031 C 
ATOM     59  C   UNL A   1      42.664  29.252  34.539  1.00  0.00     0.037 A 
BRANCH  46  60
ATOM     60  C   UNL A   1      40.271  27.927  28.995  1.00  0.00     0.064 A 
ATOM     61  C   UNL A   1      39.543  26.726  29.009  1.00  0.00     0.173 A 
ATOM     62  C   UNL A   1      40.975  28.249  27.824  1.00  0.00     0.173 A 
ATOM     63  F   UNL A   1      38.853  26.367  30.103  1.00  0.00    -0.203 F 
ATOM     64  C   UNL A   1      39.561  25.862  27.916  1.00  0.00     0.198 A 
ATOM     65  C   UNL A   1      40.961  27.399  26.720  1.00  0.00     0.198 A 
ATOM     66  F   UNL A   1      41.675  29.390  27.747  1.00  0.00    -0.203 F 
ATOM     67  F   UNL A   1      38.913  24.691  27.980  1.00  0.00    -0.200 F 
ATOM     68  C   UNL A   1      40.266  26.202  26.772  1.00  0.00     0.200 A 
ATOM     69  F   UNL A   1      41.629  27.738  25.608  1.00  0.00    -0.200 F 
ATOM     70  F   UNL A   1      40.284  25.369  25.722  1.00  0.00    -0.200 F 
ENDBRANCH  46  60
BRANCH  47  71
ATOM     71  C   UNL A   1      39.624  33.927  36.911  1.00  0.00     0.064 A 
ATOM     72  C   UNL A   1      40.237  35.183  36.999  1.00  0.00     0.173 A 
ATOM     73  C   UNL A   1      38.819  33.516  37.984  1.00  0.00     0.173 A 
ATOM     74  F   UNL A   1      41.033  35.611  36.007  1.00  0.00    -0.203 F 
ATOM     75  C   UNL A   1      40.058  35.994  38.118  1.00  0.00     0.198 A 
ATOM     76  C   UNL A   1      38.617  34.339  39.089  1.00  0.00     0.198 A 
ATOM     77  F   UNL A   1      38.204  32.324  37.945  1.00  0.00    -0.203 F 
ATOM     78  F   UNL A   1      40.681  37.178  38.192  1.00  0.00    -0.200 F 
ATOM     79  C   UNL A   1      39.240  35.576  39.157  1.00  0.00     0.200 A 
ATOM     80  F   UNL A   1      37.809  33.940  40.081  1.00  0.00    -0.200 F 
ATOM     81  F   UNL A   1      39.051  36.365  40.223  1.00  0.00    -0.200 F 
ENDBRANCH  47  71
BRANCH  59  82
ATOM     82  C   UNL A   1      43.765  28.549  35.282  1.00  0.00     0.064 A 
ATOM     83  C   UNL A   1      43.508  27.442  36.105  1.00  0.00     0.173 A 
ATOM     84  C   UNL A   1      45.099  28.964  35.143  1.00  0.00     0.173 A 
ATOM     85  F   UNL A   1      42.249  27.014  36.287  1.00  0.00    -0.203 F 
ATOM     86  C   UNL A   1      44.539  26.793  36.780  1.00  0.00     0.198 A 
ATOM     87  C   UNL A   1      46.131  28.293  35.794  1.00  0.00     0.198 A 
ATOM     88  F   UNL A   1      45.404  30.014  34.367  1.00  0.00    -0.203 F 
ATOM     89  F   UNL A   1      44.263  25.770  37.600  1.00  0.00    -0.200 F 
ATOM     90  C   UNL A   1      45.850  27.214  36.617  1.00  0.00     0.200 A 
ATOM     91  F   UNL A   1      47.400  28.692  35.623  1.00  0.00    -0.200 F 
ATOM     92  F   UNL A   1      46.843  26.583  37.260  1.00  0.00    -0.200 F 
ENDBRANCH  59  82
ENDBRANCH  33  34
ENDBRANCH  25  28
ENDBRANCH  23  24
ENDBRANCH  22  23
ENDBRANCH   1  22
TORSDOF 15
ENDMDL
MODEL 2
REMARK VINA RESULT:     -12.1      1.303      2.748
REMARK SMILES CC(C)CN(C)c1ccc([N+](=O)[O-])cc1C(=O)NCCCCNC(=O)c1ccc(-c2c3nc(c(-c4c(F)c(F)c(F)c(F)c4F)c4ccc([nH]4)c(-c4c(F)c(F)c(F)c(F)c4F)c4nc(c(-c5c(F)c(F)c(F)c(F)c5F)c5ccc2[nH]5)C=C4)C=C3)cc1
REMARK SMILES IDX 20 1 19 2 18 3 16 4 17 5 15 7 7 8 8 9 9 10 14 11 10 12 5 13
REMARK SMILES IDX 6 14 4 15 2 16 1 17 3 18 11 19 12 20 13 21 21 22 22 23 23 24
REMARK SMILES IDX 24 25 25 27 26 28 27 29 88 30 28 31 87 32 29 33 30 34 31 35
REMARK SMILES IDX 81 36 32 37 86 38 80 39 82 40 33 41 85 42 79 43 78 44 34 46
REMARK SMILES IDX 66 47 46 48 65 49 47 50 50 51 64 52 83 53 48 54 49 55 63 57
REMARK SMILES IDX 84 58 51 59 35 60 36 61 44 62 37 63 38 64 42 65 45 66 39 67
REMARK SMILES IDX 40 68 43 69 41 70 67 71 68 72 76 73 69 74 70 75 74 76 77 77
REMARK SMILES IDX 71 78 72 79 75 80 73 81 52 82 53 83 61 84 54 85 55 86 59 87
REMARK SMILES IDX 62 88 56 89 57 90 60 91 58 92
REMARK H PARENT 18 6 23 26 82 45 50 56
REMARK Flexibility Score: inf
ROOT
ATOM      1  C   UNL A   1      31.686  30.171  26.631  1.00  0.00     0.023 C 
ENDROOT
BRANCH   1   2
ATOM      2  C   UNL A   1      33.033  29.513  26.328  1.00  0.00     0.116 C 
BRANCH   2   3
ATOM      3  N   UNL A   1      33.473  29.501  24.952  1.00  0.00    -0.352 N 
ATOM      4  C   UNL A   1      32.842  28.988  23.832  1.00  0.00     0.253 C 
ATOM      5  O   UNL A   1      33.428  29.145  22.755  1.00  0.00    -0.269 OA
ATOM      6  H   UNL A   1      34.349  29.918  24.788  1.00  0.00     0.163 HD
BRANCH   4   7
ATOM      7  C   UNL A   1      31.539  28.221  23.820  1.00  0.00     0.069 A 
ATOM      8  C   UNL A   1      31.279  26.925  24.338  1.00  0.00     0.050 A 
ATOM      9  C   UNL A   1      30.007  26.348  24.083  1.00  0.00     0.034 A 
ATOM     10  C   UNL A   1      28.974  27.048  23.465  1.00  0.00     0.088 A 
ATOM     11  C   UNL A   1      30.455  28.954  23.267  1.00  0.00     0.101 A 
ATOM     12  C   UNL A   1      29.187  28.375  23.117  1.00  0.00     0.270 A 
BRANCH   8  13
ATOM     13  N   UNL A   1      32.162  26.197  25.141  1.00  0.00    -0.374 N 
ATOM     14  C   UNL A   1      33.275  25.541  24.436  1.00  0.00     0.143 C 
BRANCH  13  15
ATOM     15  C   UNL A   1      31.664  25.512  26.363  1.00  0.00     0.119 C 
BRANCH  15  16
ATOM     16  C   UNL A   1      31.633  23.968  26.285  1.00  0.00     0.002 C 
ATOM     17  C   UNL A   1      32.660  23.331  27.223  1.00  0.00     0.009 C 
ATOM     18  C   UNL A   1      30.253  23.383  26.611  1.00  0.00     0.009 C 
ENDBRANCH  15  16
ENDBRANCH  13  15
ENDBRANCH   8  13
BRANCH  12  19
ATOM     19  N   UNL A   1      28.059  29.171  22.627  1.00  0.00     0.062 N 
ATOM     20  O   UNL A   1      28.205  29.771  21.552  1.00  0.00    -0.258 OA
ATOM     21  O   UNL A   1      27.021  29.173  23.301  1.00  0.00    -0.258 OA
ENDBRANCH  12  19
ENDBRANCH   4   7
ENDBRANCH   2   3
ENDBRANCH   1   2
BRANCH   1  22
ATOM     22  C   UNL A   1      31.644  31.706  26.518  1.00  0.00     0.023 C 
BRANCH  22  23
ATOM     23  C   UNL A   1      32.737  32.514  27.231  1.00  0.00     0.116 C 
BRANCH  23  24
ATOM     24  N   UNL A   1      32.366  33.848  27.673  1.00  0.00    -0.352 N 
ATOM     25  C   UNL A   1      33.023  34.755  28.478  1.00  0.00     0.251 C 
ATOM     26  H   UNL A   1      31.493  34.158  27.341  1.00  0.00     0.163 HD
ATOM     27  O   UNL A   1      32.550  35.874  28.634  1.00  0.00    -0.269 OA
BRANCH  25  28
ATOM     28  C   UNL A   1      34.248  34.384  29.230  1.00  0.00     0.039 A 
ATOM     29  C   UNL A   1      34.076  33.821  30.499  1.00  0.00     0.014 A 
ATOM     30  C   UNL A   1      35.538  34.584  28.737  1.00  0.00     0.014 A 
ATOM     31  C   UNL A   1      35.179  33.353  31.218  1.00  0.00     0.010 A 
ATOM     32  C   UNL A   1      36.640  34.062  29.429  1.00  0.00     0.010 A 
ATOM     33  C   UNL A   1      36.468  33.409  30.660  1.00  0.00    -0.014 A 
BRANCH  33  34
ATOM     34  C   UNL A   1      37.599  32.692  31.312  1.00  0.00     0.031 A 
ATOM     35  C   UNL A   1      38.262  31.507  30.672  1.00  0.00     0.074 A 
ATOM     36  C   UNL A   1      37.997  33.086  32.540  1.00  0.00     0.049 A 
ATOM     37  N   UNL A   1      39.246  30.766  31.120  1.00  0.00    -0.248 NA
ATOM     38  C   UNL A   1      37.739  31.085  29.366  1.00  0.00     0.031 C 
ATOM     39  C   UNL A   1      37.402  34.184  33.302  1.00  0.00     0.029 A 
ATOM     40  N   UNL A   1      38.982  32.604  33.367  1.00  0.00    -0.354 N 
ATOM     41  C   UNL A   1      39.456  29.787  30.159  1.00  0.00     0.074 A 
ATOM     42  C   UNL A   1      38.465  30.003  29.124  1.00  0.00     0.031 C 
ATOM     43  C   UNL A   1      38.039  34.301  34.476  1.00  0.00     0.029 A 
ATOM     44  C   UNL A   1      39.059  33.262  34.570  1.00  0.00     0.049 A 
ATOM     45  H   UNL A   1      39.576  31.858  33.121  1.00  0.00     0.167 HD
ATOM     46  C   UNL A   1      40.395  28.808  30.138  1.00  0.00     0.037 A 
ATOM     47  C   UNL A   1      39.847  33.048  35.643  1.00  0.00     0.037 A 
ATOM     48  C   UNL A   1      41.381  28.596  31.169  1.00  0.00     0.049 A 
ATOM     49  C   UNL A   1      40.873  31.952  35.602  1.00  0.00     0.074 A 
ATOM     50  C   UNL A   1      42.426  27.688  31.192  1.00  0.00     0.029 A 
ATOM     51  N   UNL A   1      41.431  29.285  32.373  1.00  0.00    -0.354 N 
ATOM     52  N   UNL A   1      41.129  31.096  34.642  1.00  0.00    -0.248 NA
ATOM     53  C   UNL A   1      41.724  31.794  36.789  1.00  0.00     0.031 C 
ATOM     54  C   UNL A   1      43.062  27.777  32.436  1.00  0.00     0.029 A 
ATOM     55  C   UNL A   1      42.458  28.788  33.165  1.00  0.00     0.049 A 
ATOM     56  H   UNL A   1      40.827  30.019  32.629  1.00  0.00     0.167 HD
ATOM     57  C   UNL A   1      42.175  30.307  35.102  1.00  0.00     0.074 A 
ATOM     58  C   UNL A   1      42.522  30.802  36.418  1.00  0.00     0.031 C 
ATOM     59  C   UNL A   1      42.788  29.266  34.486  1.00  0.00     0.037 A 
BRANCH  46  60
ATOM     60  C   UNL A   1      40.387  27.866  28.964  1.00  0.00     0.064 A 
ATOM     61  C   UNL A   1      39.648  26.672  28.975  1.00  0.00     0.173 A 
ATOM     62  C   UNL A   1      41.110  28.175  27.802  1.00  0.00     0.173 A 
ATOM     63  F   UNL A   1      38.939  26.326  30.061  1.00  0.00    -0.203 F 
ATOM     64  C   UNL A   1      39.675  25.801  27.888  1.00  0.00     0.198 A 
ATOM     65  C   UNL A   1      41.106  27.318  26.703  1.00  0.00     0.198 A 
ATOM     66  F   UNL A   1      41.822  29.309  27.728  1.00  0.00    -0.203 F 
ATOM     67  F   UNL A   1      39.015  24.635  27.950  1.00  0.00    -0.200 F 
ATOM     68  C   UNL A   1      40.400  26.127  26.753  1.00  0.00     0.200 A 
ATOM     69  F   UNL A   1      41.793  27.644  25.599  1.00  0.00    -0.200 F 
ATOM     70  F   UNL A   1      40.425  25.287  25.708  1.00  0.00    -0.200 F 
ENDBRANCH  46  60
BRANCH  47  71
ATOM     71  C   UNL A   1      39.683  33.904  36.846  1.00  0.00     0.064 A 
ATOM     72  C   UNL A   1      40.313  35.151  36.943  1.00  0.00     0.173 A 
ATOM     73  C   UNL A   1      38.855  33.507  37.907  1.00  0.00     0.173 A 
ATOM     74  F   UNL A   1      41.131  35.565  35.963  1.00  0.00    -0.203 F 
ATOM     75  C   UNL A   1      40.127  35.967  38.057  1.00  0.00     0.198 A 
ATOM     76  C   UNL A   1      38.646  34.335  39.007  1.00  0.00     0.198 A 
ATOM     77  F   UNL A   1      38.223  32.324  37.860  1.00  0.00    -0.203 F 
ATOM     78  F   UNL A   1      40.766  37.142  38.139  1.00  0.00    -0.200 F 
ATOM     79  C   UNL A   1      39.285  35.563  39.083  1.00  0.00     0.200 A 
ATOM     80  F   UNL A   1      37.816  33.950  39.986  1.00  0.00    -0.200 F 
ATOM     81  F   UNL A   1      39.091  36.357  40.144  1.00  0.00    -0.200 F 
ENDBRANCH  47  71
BRANCH  59  82
ATOM     82  C   UNL A   1      43.906  28.587  35.227  1.00  0.00     0.064 A 
ATOM     83  C   UNL A   1      45.237  29.013  35.101  1.00  0.00     0.173 A 
ATOM     84  C   UNL A   1      43.641  27.519  36.099  1.00  0.00     0.173 A 
ATOM     85  F   UNL A   1      45.550  30.017  34.268  1.00  0.00    -0.203 F 
ATOM     86  C   UNL A   1      46.263  28.380  35.801  1.00  0.00     0.198 A 
ATOM     87  C   UNL A   1      44.664  26.911  36.821  1.00  0.00     0.198 A 
ATOM     88  F   UNL A   1      42.386  27.073  36.260  1.00  0.00    -0.203 F 
ATOM     89  F   UNL A   1      47.533  28.771  35.627  1.00  0.00    -0.200 F 
ATOM     90  C   UNL A   1      45.974  27.336  36.666  1.00  0.00     0.200 A 
ATOM     91  F   UNL A   1      44.381  25.911  37.668  1.00  0.00    -0.200 F 
ATOM     92  F   UNL A   1      46.960  26.734  37.346  1.00  0.00    -0.200 F 
ENDBRANCH  59  82
ENDBRANCH  33  34
ENDBRANCH  25  28
ENDBRANCH  23  24
ENDBRANCH  22  23
ENDBRANCH   1  22
TORSDOF 15
ENDMDL
MODEL 3
REMARK VINA RESULT:     -12.1      1.243      2.745
REMARK SMILES CC(C)CN(C)c1ccc([N+](=O)[O-])cc1C(=O)NCCCCNC(=O)c1ccc(-c2c3nc(c(-c4c(F)c(F)c(F)c(F)c4F)c4ccc([nH]4)c(-c4c(F)c(F)c(F)c(F)c4F)c4nc(c(-c5c(F)c(F)c(F)c(F)c5F)c5ccc2[nH]5)C=C4)C=C3)cc1
REMARK SMILES IDX 20 1 19 2 18 3 16 4 17 5 15 7 7 8 8 9 9 10 14 11 10 12 5 13
REMARK SMILES IDX 6 14 4 15 2 16 1 17 3 18 11 19 12 20 13 21 21 22 22 23 23 24
REMARK SMILES IDX 24 25 25 27 26 28 27 29 88 30 28 31 87 32 29 33 30 34 31 35
REMARK SMILES IDX 81 36 32 37 86 38 80 39 82 40 33 41 85 42 79 43 78 44 34 46
REMARK SMILES IDX 66 47 46 48 65 49 47 50 50 51 64 52 83 53 48 54 49 55 63 57
REMARK SMILES IDX 84 58 51 59 35 60 36 61 44 62 37 63 38 64 42 65 45 66 39 67
REMARK SMILES IDX 40 68 43 69 41 70 67 71 68 72 76 73 69 74 70 75 74 76 77 77
REMARK SMILES IDX 71 78 72 79 75 80 73 81 52 82 53 83 61 84 54 85 55 86 59 87
REMARK SMILES IDX 62 88 56 89 57 90 60 91 58 92
REMARK H PARENT 18 6 23 26 82 45 50 56
REMARK Flexibility Score: inf
ROOT
ATOM      1  C   UNL A   1      34.581  30.970  27.607  1.00  0.00     0.023 C 
ENDROOT
BRANCH   1   2
ATOM      2  C   UNL A   1      34.248  29.544  27.168  1.00  0.00     0.116 C 
BRANCH   2   3
ATOM      3  N   UNL A   1      33.055  28.941  27.716  1.00  0.00    -0.352 N 
ATOM      4  C   UNL A   1      32.065  28.214  27.078  1.00  0.00     0.253 C 
ATOM      5  O   UNL A   1      31.160  27.775  27.797  1.00  0.00    -0.269 OA
ATOM      6  H   UNL A   1      32.928  29.066  28.684  1.00  0.00     0.163 HD
BRANCH   4   7
ATOM      7  C   UNL A   1      31.972  27.956  25.591  1.00  0.00     0.069 A 
ATOM      8  C   UNL A   1      32.558  26.900  24.845  1.00  0.00     0.050 A 
ATOM      9  C   UNL A   1      32.452  26.944  23.430  1.00  0.00     0.034 A 
ATOM     10  C   UNL A   1      31.692  27.902  22.762  1.00  0.00     0.088 A 
ATOM     11  C   UNL A   1      31.133  28.877  24.907  1.00  0.00     0.101 A 
ATOM     12  C   UNL A   1      30.983  28.829  23.515  1.00  0.00     0.270 A 
BRANCH   8  13
ATOM     13  N   UNL A   1      33.178  25.780  25.406  1.00  0.00    -0.374 N 
ATOM     14  C   UNL A   1      34.248  25.171  24.600  1.00  0.00     0.143 C 
BRANCH  13  15
ATOM     15  C   UNL A   1      32.400  24.855  26.272  1.00  0.00     0.119 C 
BRANCH  15  16
ATOM     16  C   UNL A   1      31.104  24.297  25.642  1.00  0.00     0.002 C 
ATOM     17  C   UNL A   1      30.966  22.790  25.863  1.00  0.00     0.009 C 
ATOM     18  C   UNL A   1      29.839  24.981  26.176  1.00  0.00     0.009 C 
ENDBRANCH  15  16
ENDBRANCH  13  15
ENDBRANCH   8  13
BRANCH  12  19
ATOM     19  N   UNL A   1      30.047  29.728  22.835  1.00  0.00     0.062 N 
ATOM     20  O   UNL A   1      30.013  29.690  21.597  1.00  0.00    -0.258 OA
ATOM     21  O   UNL A   1      29.328  30.449  23.540  1.00  0.00    -0.258 OA
ENDBRANCH  12  19
ENDBRANCH   4   7
ENDBRANCH   2   3
ENDBRANCH   1   2
BRANCH   1  22
ATOM     22  C   UNL A   1      33.389  31.834  28.059  1.00  0.00     0.023 C 
BRANCH  22  23
ATOM     23  C   UNL A   1      32.848  32.887  27.083  1.00  0.00     0.116 C 
BRANCH  23  24
ATOM     24  N   UNL A   1      32.396  34.137  27.670  1.00  0.00    -0.352 N 
ATOM     25  C   UNL A   1      32.989  34.978  28.588  1.00  0.00     0.251 C 
ATOM     26  H   UNL A   1      31.511  34.435  27.359  1.00  0.00     0.163 HD
ATOM     27  O   UNL A   1      32.450  36.043  28.863  1.00  0.00    -0.269 OA
BRANCH  25  28
ATOM     28  C   UNL A   1      34.222  34.589  29.316  1.00  0.00     0.039 A 
ATOM     29  C   UNL A   1      34.079  34.174  30.645  1.00  0.00     0.014 A 
ATOM     30  C   UNL A   1      35.495  34.634  28.744  1.00  0.00     0.014 A 
ATOM     31  C   UNL A   1      35.183  33.696  31.356  1.00  0.00     0.010 A 
ATOM     32  C   UNL A   1      36.591  34.099  29.435  1.00  0.00     0.010 A 
ATOM     33  C   UNL A   1      36.439  33.592  30.735  1.00  0.00    -0.014 A 
BRANCH  33  34
ATOM     34  C   UNL A   1      37.549  32.857  31.405  1.00  0.00     0.031 A 
ATOM     35  C   UNL A   1      38.203  31.661  30.776  1.00  0.00     0.074 A 
ATOM     36  C   UNL A   1      37.933  33.245  32.639  1.00  0.00     0.049 A 
ATOM     37  N   UNL A   1      39.168  30.905  31.240  1.00  0.00    -0.248 NA
ATOM     38  C   UNL A   1      37.694  31.248  29.462  1.00  0.00     0.031 C 
ATOM     39  C   UNL A   1      37.343  34.352  33.392  1.00  0.00     0.029 A 
ATOM     40  N   UNL A   1      38.897  32.747  33.482  1.00  0.00    -0.354 N 
ATOM     41  C   UNL A   1      39.378  29.923  30.283  1.00  0.00     0.074 A 
ATOM     42  C   UNL A   1      38.407  30.154  29.231  1.00  0.00     0.031 C 
ATOM     43  C   UNL A   1      37.963  34.460  34.576  1.00  0.00     0.029 A 
ATOM     44  C   UNL A   1      38.965  33.404  34.686  1.00  0.00     0.049 A 
ATOM     45  H   UNL A   1      39.483  31.992  33.246  1.00  0.00     0.167 HD
ATOM     46  C   UNL A   1      40.301  28.929  30.276  1.00  0.00     0.037 A 
ATOM     47  C   UNL A   1      39.732  33.179  35.771  1.00  0.00     0.037 A 
ATOM     48  C   UNL A   1      41.268  28.702  31.323  1.00  0.00     0.049 A 
ATOM     49  C   UNL A   1      40.741  32.066  35.747  1.00  0.00     0.074 A 
ATOM     50  C   UNL A   1      42.297  27.778  31.363  1.00  0.00     0.029 A 
ATOM     51  N   UNL A   1      41.309  29.390  32.528  1.00  0.00    -0.354 N 
ATOM     52  N   UNL A   1      40.999  31.207  34.791  1.00  0.00    -0.248 NA
ATOM     53  C   UNL A   1      41.570  31.896  36.947  1.00  0.00     0.031 C 
ATOM     54  C   UNL A   1      42.914  27.857  32.617  1.00  0.00     0.029 A 
ATOM     55  C   UNL A   1      42.315  28.877  33.336  1.00  0.00     0.049 A 
ATOM     56  H   UNL A   1      40.712  30.134  32.774  1.00  0.00     0.167 HD
ATOM     57  C   UNL A   1      42.025  30.401  35.268  1.00  0.00     0.074 A 
ATOM     58  C   UNL A   1      42.359  30.890  36.590  1.00  0.00     0.031 C 
ATOM     59  C   UNL A   1      42.631  29.351  34.662  1.00  0.00     0.037 A 
BRANCH  46  60
ATOM     60  C   UNL A   1      40.297  27.987  29.102  1.00  0.00     0.064 A 
ATOM     61  C   UNL A   1      39.543  26.803  29.103  1.00  0.00     0.173 A 
ATOM     62  C   UNL A   1      41.041  28.286  27.950  1.00  0.00     0.173 A 
ATOM     63  F   UNL A   1      38.814  26.466  30.179  1.00  0.00    -0.203 F 
ATOM     64  C   UNL A   1      39.573  25.931  28.017  1.00  0.00     0.198 A 
ATOM     65  C   UNL A   1      41.040  27.429  26.851  1.00  0.00     0.198 A 
ATOM     66  F   UNL A   1      41.768  29.410  27.887  1.00  0.00    -0.203 F 
ATOM     67  F   UNL A   1      38.898  24.774  28.070  1.00  0.00    -0.200 F 
ATOM     68  C   UNL A   1      40.318  26.247  26.891  1.00  0.00     0.200 A 
ATOM     69  F   UNL A   1      41.747  27.745  25.757  1.00  0.00    -0.200 F 
ATOM     70  F   UNL A   1      40.347  25.407  25.848  1.00  0.00    -0.200 F 
ENDBRANCH  46  60
BRANCH  47  71
ATOM     71  C   UNL A   1      39.562  34.038  36.972  1.00  0.00     0.064 A 
ATOM     72  C   UNL A   1      38.783  33.621  38.059  1.00  0.00     0.173 A 
ATOM     73  C   UNL A   1      40.212  35.277  37.071  1.00  0.00     0.173 A 
ATOM     74  F   UNL A   1      38.125  32.453  38.002  1.00  0.00    -0.203 F 
ATOM     75  C   UNL A   1      38.655  34.414  39.198  1.00  0.00     0.198 A 
ATOM     76  C   UNL A   1      40.108  36.055  38.222  1.00  0.00     0.198 A 
ATOM     77  F   UNL A   1      40.976  35.718  36.060  1.00  0.00    -0.203 F 
ATOM     78  F   UNL A   1      37.879  34.006  40.212  1.00  0.00    -0.200 F 
ATOM     79  C   UNL A   1      39.326  35.624  39.283  1.00  0.00     0.200 A 
ATOM     80  F   UNL A   1      40.775  37.214  38.307  1.00  0.00    -0.200 F 
ATOM     81  F   UNL A   1      39.220  36.376  40.387  1.00  0.00    -0.200 F 
ENDBRANCH  47  71
BRANCH  59  82
ATOM     82  C   UNL A   1      43.726  28.654  35.421  1.00  0.00     0.064 A 
ATOM     83  C   UNL A   1      43.448  27.625  36.335  1.00  0.00     0.173 A 
ATOM     84  C   UNL A   1      45.071  28.993  35.208  1.00  0.00     0.173 A 
ATOM     85  F   UNL A   1      42.179  27.273  36.589  1.00  0.00    -0.203 F 
ATOM     86  C   UNL A   1      44.473  26.981  37.024  1.00  0.00     0.198 A 
ATOM     87  C   UNL A   1      46.095  28.324  35.874  1.00  0.00     0.198 A 
ATOM     88  F   UNL A   1      45.395  29.966  34.343  1.00  0.00    -0.203 F 
ATOM     89  F   UNL A   1      44.181  26.036  37.929  1.00  0.00    -0.200 F 
ATOM     90  C   UNL A   1      45.795  27.325  36.787  1.00  0.00     0.200 A 
ATOM     91  F   UNL A   1      47.373  28.648  35.633  1.00  0.00    -0.200 F 
ATOM     92  F   UNL A   1      46.781  26.697  37.444  1.00  0.00    -0.200 F 
ENDBRANCH  59  82
ENDBRANCH  33  34
ENDBRANCH  25  28
ENDBRANCH  23  24
ENDBRANCH  22  23
ENDBRANCH   1  22
TORSDOF 15
ENDMDL
