MODEL 1
REMARK VINA RESULT:     -11.2      0.000      0.000
REMARK SMILES CC(=O)Oc1ccc(Br)cc1C(=O)NCC(=O)NCCCCNC(=O)c1ccc(-c2c3nc(c(-c4c(F)c(F)c(F)c(F)c4F)c4ccc([nH]4)c(-c4c(F)c(F)c(F)c(F)c4F)c4nc(c(-c5c(F)c(F)c(F)c(F)c5F)c5ccc2[nH]5)C=C4)C=C3)cc1
REMARK SMILES IDX 19 1 18 2 16 3 17 4 15 6 14 7 12 8 13 9 11 11 5 12 6 13 7 14
REMARK SMILES IDX 10 15 8 16 9 17 4 18 2 19 1 20 3 21 20 22 21 23 22 24 23 25
REMARK SMILES IDX 24 26 25 28 26 29 27 30 88 31 28 32 87 33 29 34 30 35 31 36
REMARK SMILES IDX 81 37 32 38 86 39 80 40 82 41 33 42 85 43 79 44 78 45 34 47
REMARK SMILES IDX 66 48 46 49 65 50 47 51 50 52 64 53 83 54 48 55 49 56 63 58
REMARK SMILES IDX 84 59 51 60 35 61 36 62 44 63 37 64 38 65 42 66 45 67 39 68
REMARK SMILES IDX 40 69 43 70 41 71 67 72 68 73 76 74 69 75 70 76 74 77 77 78
REMARK SMILES IDX 71 79 72 80 75 81 73 82 52 83 53 84 61 85 54 86 55 87 59 88
REMARK SMILES IDX 62 89 56 90 57 91 60 92 58 93
REMARK H PARENT 18 5 14 10 23 27 82 46 50 57
REMARK Flexibility Score: inf
ROOT
ATOM      1  C   UNL A   1      43.237  19.960  25.741  1.00  0.00     0.116 C 
ENDROOT
BRANCH   1   2
ATOM      2  N   UNL A   1      44.157  18.852  25.644  1.00  0.00    -0.355 N 
ATOM      3  C   UNL A   1      45.460  18.810  25.272  1.00  0.00     0.239 C 
ATOM      4  O   UNL A   1      46.028  17.717  25.381  1.00  0.00    -0.273 OA
ATOM      5  H   UNL A   1      43.773  17.979  25.889  1.00  0.00     0.163 HD
BRANCH   3   6
ATOM      6  C   UNL A   1      46.289  20.056  24.920  1.00  0.00     0.216 C 
BRANCH   6   7
ATOM      7  N   UNL A   1      45.692  21.240  24.338  1.00  0.00    -0.343 N 
ATOM      8  C   UNL A   1      45.652  22.580  24.591  1.00  0.00     0.255 C 
ATOM      9  O   UNL A   1      45.256  23.248  23.627  1.00  0.00    -0.269 OA
ATOM     10  H   UNL A   1      45.169  21.014  23.535  1.00  0.00     0.164 HD
BRANCH   8  11
ATOM     11  C   UNL A   1      45.909  23.313  25.875  1.00  0.00     0.083 A 
ATOM     12  C   UNL A   1      46.892  24.252  26.219  1.00  0.00     0.143 A 
ATOM     13  C   UNL A   1      46.915  24.837  27.505  1.00  0.00     0.049 A 
ATOM     14  C   UNL A   1      46.008  24.453  28.488  1.00  0.00     0.019 A 
ATOM     15  C   UNL A   1      44.996  22.949  26.901  1.00  0.00     0.033 A 
ATOM     16  C   UNL A   1      45.051  23.502  28.181  1.00  0.00     0.019 A 
ATOM     17  Br  UNL A   1      43.811  22.954  29.497  1.00  0.00    -0.051 Br
BRANCH  12  18
ATOM     18  O   UNL A   1      47.833  24.743  25.307  1.00  0.00    -0.426 OA
BRANCH  18  19
ATOM     19  C   UNL A   1      47.459  25.900  24.616  1.00  0.00     0.308 C 
ATOM     20  C   UNL A   1      48.653  26.464  23.902  1.00  0.00     0.139 C 
ATOM     21  O   UNL A   1      46.352  26.422  24.625  1.00  0.00    -0.252 OA
ENDBRANCH  18  19
ENDBRANCH  12  18
ENDBRANCH   8  11
ENDBRANCH   6   7
ENDBRANCH   3   6
ENDBRANCH   1   2
BRANCH   1  22
ATOM     22  C   UNL A   1      41.857  19.520  26.215  1.00  0.00     0.023 C 
BRANCH  22  23
ATOM     23  C   UNL A   1      41.417  20.174  27.526  1.00  0.00     0.023 C 
BRANCH  23  24
ATOM     24  C   UNL A   1      40.856  21.586  27.385  1.00  0.00     0.116 C 
BRANCH  24  25
ATOM     25  N   UNL A   1      39.642  21.638  26.588  1.00  0.00    -0.352 N 
ATOM     26  C   UNL A   1      38.836  22.722  26.321  1.00  0.00     0.251 C 
ATOM     27  H   UNL A   1      39.358  20.785  26.185  1.00  0.00     0.163 HD
ATOM     28  O   UNL A   1      37.771  22.582  25.744  1.00  0.00    -0.269 OA
BRANCH  26  29
ATOM     29  C   UNL A   1      39.265  24.064  26.773  1.00  0.00     0.039 A 
ATOM     30  C   UNL A   1      39.018  24.441  28.096  1.00  0.00     0.014 A 
ATOM     31  C   UNL A   1      39.920  24.936  25.900  1.00  0.00     0.014 A 
ATOM     32  C   UNL A   1      39.479  25.674  28.559  1.00  0.00     0.010 A 
ATOM     33  C   UNL A   1      40.442  26.133  26.382  1.00  0.00     0.010 A 
ATOM     34  C   UNL A   1      40.220  26.518  27.714  1.00  0.00    -0.014 A 
BRANCH  34  35
ATOM     35  C   UNL A   1      40.746  27.819  28.195  1.00  0.00     0.031 A 
ATOM     36  C   UNL A   1      42.231  28.044  28.271  1.00  0.00     0.074 A 
ATOM     37  C   UNL A   1      39.896  28.773  28.619  1.00  0.00     0.049 A 
ATOM     38  N   UNL A   1      42.892  29.077  28.729  1.00  0.00    -0.248 NA
ATOM     39  C   UNL A   1      43.089  26.947  27.796  1.00  0.00     0.031 C 
ATOM     40  C   UNL A   1      38.437  28.658  28.639  1.00  0.00     0.029 A 
ATOM     41  N   UNL A   1      40.137  30.026  29.126  1.00  0.00    -0.354 N 
ATOM     42  C   UNL A   1      44.235  28.746  28.614  1.00  0.00     0.074 A 
ATOM     43  C   UNL A   1      44.297  27.397  28.097  1.00  0.00     0.031 C 
ATOM     44  C   UNL A   1      37.913  29.800  29.113  1.00  0.00     0.029 A 
ATOM     45  C   UNL A   1      38.997  30.713  29.463  1.00  0.00     0.049 A 
ATOM     46  H   UNL A   1      41.042  30.395  29.239  1.00  0.00     0.167 HD
ATOM     47  C   UNL A   1      45.321  29.509  28.890  1.00  0.00     0.037 A 
ATOM     48  C   UNL A   1      38.845  31.941  29.995  1.00  0.00     0.037 A 
ATOM     49  C   UNL A   1      45.256  30.861  29.376  1.00  0.00     0.049 A 
ATOM     50  C   UNL A   1      40.068  32.771  30.285  1.00  0.00     0.074 A 
ATOM     51  C   UNL A   1      46.296  31.736  29.636  1.00  0.00     0.029 A 
ATOM     52  N   UNL A   1      44.080  31.536  29.673  1.00  0.00    -0.354 N 
ATOM     53  N   UNL A   1      41.332  32.472  30.113  1.00  0.00    -0.248 NA
ATOM     54  C   UNL A   1      39.839  34.115  30.834  1.00  0.00     0.031 C 
ATOM     55  C   UNL A   1      45.751  32.927  30.132  1.00  0.00     0.029 A 
ATOM     56  C   UNL A   1      44.370  32.812  30.130  1.00  0.00     0.049 A 
ATOM     57  H   UNL A   1      43.175  31.163  29.577  1.00  0.00     0.167 HD
ATOM     58  C   UNL A   1      42.047  33.599  30.496  1.00  0.00     0.074 A 
ATOM     59  C   UNL A   1      41.074  34.593  30.900  1.00  0.00     0.031 C 
ATOM     60  C   UNL A   1      43.388  33.795  30.510  1.00  0.00     0.037 A 
BRANCH  47  61
ATOM     61  C   UNL A   1      46.673  28.895  28.666  1.00  0.00     0.064 A 
ATOM     62  C   UNL A   1      47.380  29.087  27.469  1.00  0.00     0.173 A 
ATOM     63  C   UNL A   1      47.282  28.127  29.670  1.00  0.00     0.173 A 
ATOM     64  F   UNL A   1      46.837  29.802  26.472  1.00  0.00    -0.203 F 
ATOM     65  C   UNL A   1      48.630  28.506  27.273  1.00  0.00     0.198 A 
ATOM     66  C   UNL A   1      48.547  27.575  29.483  1.00  0.00     0.198 A 
ATOM     67  F   UNL A   1      46.653  27.915  30.836  1.00  0.00    -0.203 F 
ATOM     68  F   UNL A   1      49.261  28.659  26.100  1.00  0.00    -0.200 F 
ATOM     69  C   UNL A   1      49.215  27.758  28.282  1.00  0.00     0.200 A 
ATOM     70  F   UNL A   1      49.117  26.862  30.464  1.00  0.00    -0.200 F 
ATOM     71  F   UNL A   1      50.422  27.204  28.094  1.00  0.00    -0.200 F 
ENDBRANCH  47  61
BRANCH  48  72
ATOM     72  C   UNL A   1      37.484  32.475  30.258  1.00  0.00     0.064 A 
ATOM     73  C   UNL A   1      36.842  32.238  31.482  1.00  0.00     0.173 A 
ATOM     74  C   UNL A   1      36.793  33.222  29.293  1.00  0.00     0.173 A 
ATOM     75  F   UNL A   1      37.455  31.513  32.429  1.00  0.00    -0.203 F 
ATOM     76  C   UNL A   1      35.553  32.707  31.722  1.00  0.00     0.198 A 
ATOM     77  C   UNL A   1      35.514  33.714  29.545  1.00  0.00     0.198 A 
ATOM     78  F   UNL A   1      37.363  33.480  28.108  1.00  0.00    -0.203 F 
ATOM     79  F   UNL A   1      34.944  32.424  32.881  1.00  0.00    -0.200 F 
ATOM     80  C   UNL A   1      34.891  33.449  30.755  1.00  0.00     0.200 A 
ATOM     81  F   UNL A   1      34.883  34.443  28.613  1.00  0.00    -0.200 F 
ATOM     82  F   UNL A   1      33.651  33.901  30.986  1.00  0.00    -0.200 F 
ENDBRANCH  48  72
BRANCH  60  83
ATOM     83  C   UNL A   1      43.882  35.150  30.928  1.00  0.00     0.064 A 
ATOM     84  C   UNL A   1      44.217  35.439  32.258  1.00  0.00     0.173 A 
ATOM     85  C   UNL A   1      44.056  36.162  29.971  1.00  0.00     0.173 A 
ATOM     86  F   UNL A   1      44.054  34.509  33.212  1.00  0.00    -0.203 F 
ATOM     87  C   UNL A   1      44.679  36.701  32.621  1.00  0.00     0.198 A 
ATOM     88  C   UNL A   1      44.549  37.413  30.333  1.00  0.00     0.198 A 
ATOM     89  F   UNL A   1      43.760  35.935  28.683  1.00  0.00    -0.203 F 
ATOM     90  F   UNL A   1      44.944  36.972  33.907  1.00  0.00    -0.200 F 
ATOM     91  C   UNL A   1      44.851  37.684  31.658  1.00  0.00     0.200 A 
ATOM     92  F   UNL A   1      44.729  38.356  29.398  1.00  0.00    -0.200 F 
ATOM     93  F   UNL A   1      45.303  38.896  32.009  1.00  0.00    -0.200 F 
ENDBRANCH  60  83
ENDBRANCH  34  35
ENDBRANCH  26  29
ENDBRANCH  24  25
ENDBRANCH  23  24
ENDBRANCH  22  23
ENDBRANCH   1  22
TORSDOF 15
ENDMDL
MODEL 2
REMARK VINA RESULT:     -11.1      1.241      2.162
REMARK SMILES CC(=O)Oc1ccc(Br)cc1C(=O)NCC(=O)NCCCCNC(=O)c1ccc(-c2c3nc(c(-c4c(F)c(F)c(F)c(F)c4F)c4ccc([nH]4)c(-c4c(F)c(F)c(F)c(F)c4F)c4nc(c(-c5c(F)c(F)c(F)c(F)c5F)c5ccc2[nH]5)C=C4)C=C3)cc1
REMARK SMILES IDX 19 1 18 2 16 3 17 4 15 6 14 7 12 8 13 9 11 11 5 12 6 13 7 14
REMARK SMILES IDX 10 15 8 16 9 17 4 18 2 19 1 20 3 21 20 22 21 23 22 24 23 25
REMARK SMILES IDX 24 26 25 28 26 29 27 30 88 31 28 32 87 33 29 34 30 35 31 36
REMARK SMILES IDX 81 37 32 38 86 39 80 40 82 41 33 42 85 43 79 44 78 45 34 47
REMARK SMILES IDX 66 48 46 49 65 50 47 51 50 52 64 53 83 54 48 55 49 56 63 58
REMARK SMILES IDX 84 59 51 60 35 61 36 62 44 63 37 64 38 65 42 66 45 67 39 68
REMARK SMILES IDX 40 69 43 70 41 71 67 72 68 73 76 74 69 75 70 76 74 77 77 78
REMARK SMILES IDX 71 79 72 80 75 81 73 82 52 83 53 84 61 85 54 86 55 87 59 88
REMARK SMILES IDX 62 89 56 90 57 91 60 92 58 93
REMARK H PARENT 18 5 14 10 23 27 82 46 50 57
REMARK Flexibility Score: inf
ROOT
ATOM      1  C   UNL A   1      43.233  19.876  25.746  1.00  0.00     0.116 C 
ENDROOT
BRANCH   1   2
ATOM      2  N   UNL A   1      44.179  18.791  25.644  1.00  0.00    -0.355 N 
ATOM      3  C   UNL A   1      45.482  18.782  25.269  1.00  0.00     0.239 C 
ATOM      4  O   UNL A   1      46.077  17.702  25.375  1.00  0.00    -0.273 OA
ATOM      5  H   UNL A   1      43.817  17.908  25.888  1.00  0.00     0.163 HD
BRANCH   3   6
ATOM      6  C   UNL A   1      46.279  20.048  24.917  1.00  0.00     0.216 C 
BRANCH   6   7
ATOM      7  N   UNL A   1      45.662  21.199  24.293  1.00  0.00    -0.343 N 
ATOM      8  C   UNL A   1      45.595  22.546  24.499  1.00  0.00     0.255 C 
ATOM      9  O   UNL A   1      45.188  23.172  23.512  1.00  0.00    -0.269 OA
ATOM     10  H   UNL A   1      45.145  20.935  23.497  1.00  0.00     0.164 HD
BRANCH   8  11
ATOM     11  C   UNL A   1      45.834  23.328  25.757  1.00  0.00     0.083 A 
ATOM     12  C   UNL A   1      46.781  24.317  26.061  1.00  0.00     0.143 A 
ATOM     13  C   UNL A   1      46.794  24.942  27.328  1.00  0.00     0.049 A 
ATOM     14  C   UNL A   1      45.913  24.552  28.333  1.00  0.00     0.019 A 
ATOM     15  C   UNL A   1      44.949  22.959  26.804  1.00  0.00     0.033 A 
ATOM     16  C   UNL A   1      44.994  23.553  28.066  1.00  0.00     0.019 A 
ATOM     17  Br  UNL A   1      43.791  22.995  29.412  1.00  0.00    -0.051 Br
BRANCH  12  18
ATOM     18  O   UNL A   1      47.692  24.818  25.123  1.00  0.00    -0.426 OA
BRANCH  18  19
ATOM     19  C   UNL A   1      47.456  26.127  24.691  1.00  0.00     0.308 C 
ATOM     20  C   UNL A   1      48.692  26.953  24.901  1.00  0.00     0.139 C 
ATOM     21  O   UNL A   1      46.398  26.567  24.261  1.00  0.00    -0.252 OA
ENDBRANCH  18  19
ENDBRANCH  12  18
ENDBRANCH   8  11
ENDBRANCH   6   7
ENDBRANCH   3   6
ENDBRANCH   1   2
BRANCH   1  22
ATOM     22  C   UNL A   1      42.043  19.518  26.628  1.00  0.00     0.023 C 
BRANCH  22  23
ATOM     23  C   UNL A   1      41.510  20.693  27.451  1.00  0.00     0.023 C 
BRANCH  23  24
ATOM     24  C   UNL A   1      41.231  21.964  26.654  1.00  0.00     0.116 C 
BRANCH  24  25
ATOM     25  N   UNL A   1      39.906  21.980  26.056  1.00  0.00    -0.352 N 
ATOM     26  C   UNL A   1      38.946  22.964  26.124  1.00  0.00     0.251 C 
ATOM     27  H   UNL A   1      39.664  21.181  25.533  1.00  0.00     0.163 HD
ATOM     28  O   UNL A   1      37.826  22.776  25.681  1.00  0.00    -0.269 OA
BRANCH  26  29
ATOM     29  C   UNL A   1      39.281  24.251  26.773  1.00  0.00     0.039 A 
ATOM     30  C   UNL A   1      38.908  24.452  28.104  1.00  0.00     0.014 A 
ATOM     31  C   UNL A   1      39.973  25.244  26.076  1.00  0.00     0.014 A 
ATOM     32  C   UNL A   1      39.279  25.630  28.754  1.00  0.00     0.010 A 
ATOM     33  C   UNL A   1      40.404  26.385  26.745  1.00  0.00     0.010 A 
ATOM     34  C   UNL A   1      40.054  26.594  28.088  1.00  0.00    -0.014 A 
BRANCH  34  35
ATOM     35  C   UNL A   1      40.486  27.840  28.770  1.00  0.00     0.031 A 
ATOM     36  C   UNL A   1      41.904  27.976  29.251  1.00  0.00     0.074 A 
ATOM     37  C   UNL A   1      39.594  28.818  29.009  1.00  0.00     0.049 A 
ATOM     38  N   UNL A   1      42.460  28.948  29.930  1.00  0.00    -0.248 NA
ATOM     39  C   UNL A   1      42.812  26.857  28.956  1.00  0.00     0.031 C 
ATOM     40  C   UNL A   1      38.179  28.785  28.634  1.00  0.00     0.029 A 
ATOM     41  N   UNL A   1      39.741  30.030  29.638  1.00  0.00    -0.354 N 
ATOM     42  C   UNL A   1      43.770  28.548  30.157  1.00  0.00     0.074 A 
ATOM     43  C   UNL A   1      43.912  27.223  29.594  1.00  0.00     0.031 C 
ATOM     44  C   UNL A   1      37.594  29.931  29.020  1.00  0.00     0.029 A 
ATOM     45  C   UNL A   1      38.582  30.764  29.700  1.00  0.00     0.049 A 
ATOM     46  H   UNL A   1      40.597  30.343  30.009  1.00  0.00     0.167 HD
ATOM     47  C   UNL A   1      44.772  29.235  30.757  1.00  0.00     0.037 A 
ATOM     48  C   UNL A   1      38.344  31.972  30.246  1.00  0.00     0.037 A 
ATOM     49  C   UNL A   1      44.636  30.564  31.289  1.00  0.00     0.049 A 
ATOM     50  C   UNL A   1      39.478  32.717  30.900  1.00  0.00     0.074 A 
ATOM     51  C   UNL A   1      45.602  31.366  31.869  1.00  0.00     0.029 A 
ATOM     52  N   UNL A   1      43.452  31.289  31.304  1.00  0.00    -0.354 N 
ATOM     53  N   UNL A   1      40.728  32.356  31.053  1.00  0.00    -0.248 NA
ATOM     54  C   UNL A   1      39.166  34.044  31.449  1.00  0.00     0.031 C 
ATOM     55  C   UNL A   1      44.995  32.560  32.273  1.00  0.00     0.029 A 
ATOM     56  C   UNL A   1      43.661  32.524  31.897  1.00  0.00     0.049 A 
ATOM     57  H   UNL A   1      42.591  30.973  30.947  1.00  0.00     0.167 HD
ATOM     58  C   UNL A   1      41.359  33.422  31.679  1.00  0.00     0.074 A 
ATOM     59  C   UNL A   1      40.356  34.448  31.870  1.00  0.00     0.031 C 
ATOM     60  C   UNL A   1      42.655  33.541  32.062  1.00  0.00     0.037 A 
BRANCH  47  61
ATOM     61  C   UNL A   1      46.108  28.557  30.864  1.00  0.00     0.064 A 
ATOM     62  C   UNL A   1      46.471  27.819  32.000  1.00  0.00     0.173 A 
ATOM     63  C   UNL A   1      47.028  28.625  29.806  1.00  0.00     0.173 A 
ATOM     64  F   UNL A   1      45.633  27.734  33.045  1.00  0.00    -0.203 F 
ATOM     65  C   UNL A   1      47.715  27.201  32.088  1.00  0.00     0.198 A 
ATOM     66  C   UNL A   1      48.258  27.978  29.884  1.00  0.00     0.198 A 
ATOM     67  F   UNL A   1      46.732  29.314  28.693  1.00  0.00    -0.203 F 
ATOM     68  F   UNL A   1      48.059  26.547  33.207  1.00  0.00    -0.200 F 
ATOM     69  C   UNL A   1      48.605  27.275  31.028  1.00  0.00     0.200 A 
ATOM     70  F   UNL A   1      49.113  28.039  28.853  1.00  0.00    -0.200 F 
ATOM     71  F   UNL A   1      49.801  26.675  31.111  1.00  0.00    -0.200 F 
ENDBRANCH  47  61
BRANCH  48  72
ATOM     72  C   UNL A   1      36.986  32.569  30.170  1.00  0.00     0.064 A 
ATOM     73  C   UNL A   1      36.579  33.289  29.036  1.00  0.00     0.173 A 
ATOM     74  C   UNL A   1      36.072  32.444  31.225  1.00  0.00     0.173 A 
ATOM     75  F   UNL A   1      37.426  33.452  28.009  1.00  0.00    -0.203 F 
ATOM     76  C   UNL A   1      35.320  33.880  28.972  1.00  0.00     0.198 A 
ATOM     77  C   UNL A   1      34.802  33.013  31.148  1.00  0.00     0.198 A 
ATOM     78  F   UNL A   1      36.409  31.763  32.329  1.00  0.00    -0.203 F 
ATOM     79  F   UNL A   1      34.976  34.605  27.899  1.00  0.00    -0.200 F 
ATOM     80  C   UNL A   1      34.430  33.738  30.026  1.00  0.00     0.200 A 
ATOM     81  F   UNL A   1      33.939  32.861  32.163  1.00  0.00    -0.200 F 
ATOM     82  F   UNL A   1      33.218  34.307  29.965  1.00  0.00    -0.200 F 
ENDBRANCH  48  72
BRANCH  60  83
ATOM     83  C   UNL A   1      43.075  34.845  32.677  1.00  0.00     0.064 A 
ATOM     84  C   UNL A   1      43.094  35.037  34.066  1.00  0.00     0.173 A 
ATOM     85  C   UNL A   1      43.498  35.906  31.860  1.00  0.00     0.173 A 
ATOM     86  F   UNL A   1      42.685  34.059  34.888  1.00  0.00    -0.203 F 
ATOM     87  C   UNL A   1      43.493  36.253  34.613  1.00  0.00     0.198 A 
ATOM     88  C   UNL A   1      43.926  37.109  32.414  1.00  0.00     0.198 A 
ATOM     89  F   UNL A   1      43.507  35.771  30.526  1.00  0.00    -0.203 F 
ATOM     90  F   UNL A   1      43.454  36.432  35.942  1.00  0.00    -0.200 F 
ATOM     91  C   UNL A   1      43.915  37.285  33.789  1.00  0.00     0.200 A 
ATOM     92  F   UNL A   1      44.348  38.099  31.615  1.00  0.00    -0.200 F 
ATOM     93  F   UNL A   1      44.305  38.452  34.319  1.00  0.00    -0.200 F 
ENDBRANCH  60  83
ENDBRANCH  34  35
ENDBRANCH  26  29
ENDBRANCH  24  25
ENDBRANCH  23  24
ENDBRANCH  22  23
ENDBRANCH   1  22
TORSDOF 15
ENDMDL
MODEL 3
REMARK VINA RESULT:     -10.9      6.795     12.237
REMARK SMILES CC(=O)Oc1ccc(Br)cc1C(=O)NCC(=O)NCCCCNC(=O)c1ccc(-c2c3nc(c(-c4c(F)c(F)c(F)c(F)c4F)c4ccc([nH]4)c(-c4c(F)c(F)c(F)c(F)c4F)c4nc(c(-c5c(F)c(F)c(F)c(F)c5F)c5ccc2[nH]5)C=C4)C=C3)cc1
REMARK SMILES IDX 19 1 18 2 16 3 17 4 15 6 14 7 12 8 13 9 11 11 5 12 6 13 7 14
REMARK SMILES IDX 10 15 8 16 9 17 4 18 2 19 1 20 3 21 20 22 21 23 22 24 23 25
REMARK SMILES IDX 24 26 25 28 26 29 27 30 88 31 28 32 87 33 29 34 30 35 31 36
REMARK SMILES IDX 81 37 32 38 86 39 80 40 82 41 33 42 85 43 79 44 78 45 34 47
REMARK SMILES IDX 66 48 46 49 65 50 47 51 50 52 64 53 83 54 48 55 49 56 63 58
REMARK SMILES IDX 84 59 51 60 35 61 36 62 44 63 37 64 38 65 42 66 45 67 39 68
REMARK SMILES IDX 40 69 43 70 41 71 67 72 68 73 76 74 69 75 70 76 74 77 77 78
REMARK SMILES IDX 71 79 72 80 75 81 73 82 52 83 53 84 61 85 54 86 55 87 59 88
REMARK SMILES IDX 62 89 56 90 57 91 60 92 58 93
REMARK H PARENT 18 5 14 10 23 27 82 46 50 57
REMARK Flexibility Score: inf
ROOT
ATOM      1  C   UNL A   1      34.055  32.209  27.989  1.00  0.00     0.116 C 
ENDROOT
BRANCH   1   2
ATOM      2  N   UNL A   1      35.108  31.240  28.184  1.00  0.00    -0.355 N 
ATOM      3  C   UNL A   1      35.209  29.948  27.786  1.00  0.00     0.239 C 
ATOM      4  O   UNL A   1      36.287  29.386  28.015  1.00  0.00    -0.273 OA
ATOM      5  H   UNL A   1      35.883  31.574  28.692  1.00  0.00     0.163 HD
BRANCH   3   6
ATOM      6  C   UNL A   1      34.159  29.235  26.919  1.00  0.00     0.216 C 
BRANCH   6   7
ATOM      7  N   UNL A   1      32.857  28.865  27.434  1.00  0.00    -0.343 N 
ATOM      8  C   UNL A   1      31.820  28.054  27.075  1.00  0.00     0.255 C 
ATOM      9  O   UNL A   1      31.031  27.830  28.001  1.00  0.00    -0.269 OA
ATOM     10  H   UNL A   1      32.666  29.330  28.281  1.00  0.00     0.164 HD
BRANCH   8  11
ATOM     11  C   UNL A   1      31.465  27.510  25.722  1.00  0.00     0.083 A 
ATOM     12  C   UNL A   1      31.518  26.204  25.211  1.00  0.00     0.143 A 
ATOM     13  C   UNL A   1      31.096  25.925  23.892  1.00  0.00     0.049 A 
ATOM     14  C   UNL A   1      30.679  26.943  23.039  1.00  0.00     0.019 A 
ATOM     15  C   UNL A   1      31.029  28.521  24.825  1.00  0.00     0.033 A 
ATOM     16  C   UNL A   1      30.652  28.243  23.511  1.00  0.00     0.019 A 
ATOM     17  Br  UNL A   1      30.099  29.647  22.374  1.00  0.00    -0.051 Br
BRANCH  12  18
ATOM     18  O   UNL A   1      31.885  25.096  25.983  1.00  0.00    -0.426 OA
BRANCH  18  19
ATOM     19  C   UNL A   1      30.839  24.241  26.349  1.00  0.00     0.308 C 
ATOM     20  C   UNL A   1      31.170  22.838  25.930  1.00  0.00     0.139 C 
ATOM     21  O   UNL A   1      29.785  24.573  26.874  1.00  0.00    -0.252 OA
ENDBRANCH  18  19
ENDBRANCH  12  18
ENDBRANCH   8  11
ENDBRANCH   6   7
ENDBRANCH   3   6
ENDBRANCH   1   2
BRANCH   1  22
ATOM     22  C   UNL A   1      34.191  33.399  28.931  1.00  0.00     0.023 C 
BRANCH  22  23
ATOM     23  C   UNL A   1      33.095  34.453  28.755  1.00  0.00     0.023 C 
BRANCH  23  24
ATOM     24  C   UNL A   1      33.414  35.820  29.352  1.00  0.00     0.116 C 
BRANCH  24  25
ATOM     25  N   UNL A   1      32.526  36.186  30.443  1.00  0.00    -0.352 N 
ATOM     26  C   UNL A   1      32.615  35.846  31.773  1.00  0.00     0.251 C 
ATOM     27  H   UNL A   1      31.758  36.752  30.196  1.00  0.00     0.163 HD
ATOM     28  O   UNL A   1      31.714  36.118  32.550  1.00  0.00    -0.269 OA
BRANCH  26  29
ATOM     29  C   UNL A   1      33.809  35.114  32.249  1.00  0.00     0.039 A 
ATOM     30  C   UNL A   1      33.655  33.812  32.731  1.00  0.00     0.014 A 
ATOM     31  C   UNL A   1      35.074  35.706  32.204  1.00  0.00     0.014 A 
ATOM     32  C   UNL A   1      34.780  33.082  33.117  1.00  0.00     0.010 A 
ATOM     33  C   UNL A   1      36.201  34.953  32.520  1.00  0.00     0.010 A 
ATOM     34  C   UNL A   1      36.064  33.636  32.988  1.00  0.00    -0.014 A 
BRANCH  34  35
ATOM     35  C   UNL A   1      37.276  32.865  33.363  1.00  0.00     0.031 A 
ATOM     36  C   UNL A   1      37.979  33.160  34.658  1.00  0.00     0.074 A 
ATOM     37  C   UNL A   1      37.778  31.947  32.515  1.00  0.00     0.049 A 
ATOM     38  N   UNL A   1      39.089  32.654  35.134  1.00  0.00    -0.248 NA
ATOM     39  C   UNL A   1      37.370  34.184  35.522  1.00  0.00     0.031 C 
ATOM     40  C   UNL A   1      37.213  31.604  31.208  1.00  0.00     0.029 A 
ATOM     41  N   UNL A   1      38.884  31.141  32.621  1.00  0.00    -0.354 N 
ATOM     42  C   UNL A   1      39.317  33.308  36.337  1.00  0.00     0.074 A 
ATOM     43  C   UNL A   1      38.264  34.288  36.492  1.00  0.00     0.031 C 
ATOM     44  C   UNL A   1      37.964  30.644  30.644  1.00  0.00     0.029 A 
ATOM     45  C   UNL A   1      39.080  30.329  31.531  1.00  0.00     0.049 A 
ATOM     46  H   UNL A   1      39.480  31.146  33.404  1.00  0.00     0.167 HD
ATOM     47  C   UNL A   1      40.301  33.094  37.244  1.00  0.00     0.037 A 
ATOM     48  C   UNL A   1      40.053  29.433  31.277  1.00  0.00     0.037 A 
ATOM     49  C   UNL A   1      41.330  32.099  37.101  1.00  0.00     0.049 A 
ATOM     50  C   UNL A   1      41.131  29.209  32.305  1.00  0.00     0.074 A 
ATOM     51  C   UNL A   1      42.341  31.768  37.985  1.00  0.00     0.029 A 
ATOM     52  N   UNL A   1      41.477  31.272  35.996  1.00  0.00    -0.354 N 
ATOM     53  N   UNL A   1      41.300  29.789  33.468  1.00  0.00    -0.248 NA
ATOM     54  C   UNL A   1      42.147  28.196  31.987  1.00  0.00     0.031 C 
ATOM     55  C   UNL A   1      43.125  30.769  37.398  1.00  0.00     0.029 A 
ATOM     56  C   UNL A   1      42.571  30.440  36.171  1.00  0.00     0.049 A 
ATOM     57  H   UNL A   1      40.891  31.275  35.205  1.00  0.00     0.167 HD
ATOM     58  C   UNL A   1      42.416  29.188  34.035  1.00  0.00     0.074 A 
ATOM     59  C   UNL A   1      42.878  28.190  33.093  1.00  0.00     0.031 C 
ATOM     60  C   UNL A   1      43.005  29.439  35.230  1.00  0.00     0.037 A 
BRANCH  47  61
ATOM     61  C   UNL A   1      40.306  33.953  38.476  1.00  0.00     0.064 A 
ATOM     62  C   UNL A   1      39.612  33.580  39.637  1.00  0.00     0.173 A 
ATOM     63  C   UNL A   1      41.034  35.152  38.506  1.00  0.00     0.173 A 
ATOM     64  F   UNL A   1      38.889  32.449  39.656  1.00  0.00    -0.203 F 
ATOM     65  C   UNL A   1      39.620  34.389  40.770  1.00  0.00     0.198 A 
ATOM     66  C   UNL A   1      41.067  35.943  39.652  1.00  0.00     0.198 A 
ATOM     67  F   UNL A   1      41.720  35.556  37.425  1.00  0.00    -0.203 F 
ATOM     68  F   UNL A   1      38.905  34.037  41.847  1.00  0.00    -0.200 F 
ATOM     69  C   UNL A   1      40.353  35.565  40.779  1.00  0.00     0.200 A 
ATOM     70  F   UNL A   1      41.786  37.073  39.664  1.00  0.00    -0.200 F 
ATOM     71  F   UNL A   1      40.365  36.341  41.872  1.00  0.00    -0.200 F 
ENDBRANCH  47  61
BRANCH  48  72
ATOM     72  C   UNL A   1      40.037  28.656  30.011  1.00  0.00     0.064 A 
ATOM     73  C   UNL A   1      39.426  27.394  29.949  1.00  0.00     0.173 A 
ATOM     74  C   UNL A   1      40.638  29.147  28.843  1.00  0.00     0.173 A 
ATOM     75  F   UNL A   1      38.855  26.874  31.046  1.00  0.00    -0.203 F 
ATOM     76  C   UNL A   1      39.437  26.645  28.775  1.00  0.00     0.198 A 
ATOM     77  C   UNL A   1      40.624  28.408  27.662  1.00  0.00     0.198 A 
ATOM     78  F   UNL A   1      41.232  30.348  28.847  1.00  0.00    -0.203 F 
ATOM     79  F   UNL A   1      38.890  25.422  28.758  1.00  0.00    -0.200 F 
ATOM     80  C   UNL A   1      40.032  27.155  27.631  1.00  0.00     0.200 A 
ATOM     81  F   UNL A   1      41.187  28.910  26.554  1.00  0.00    -0.200 F 
ATOM     82  F   UNL A   1      40.042  26.434  26.501  1.00  0.00    -0.200 F 
ENDBRANCH  48  72
BRANCH  60  83
ATOM     83  C   UNL A   1      44.181  28.587  35.611  1.00  0.00     0.064 A 
ATOM     84  C   UNL A   1      45.495  28.946  35.278  1.00  0.00     0.173 A 
ATOM     85  C   UNL A   1      43.989  27.410  36.352  1.00  0.00     0.173 A 
ATOM     86  F   UNL A   1      45.730  30.054  34.558  1.00  0.00    -0.203 F 
ATOM     87  C   UNL A   1      46.571  28.144  35.647  1.00  0.00     0.198 A 
ATOM     88  C   UNL A   1      45.070  26.628  36.747  1.00  0.00     0.198 A 
ATOM     89  F   UNL A   1      42.753  27.027  36.704  1.00  0.00    -0.203 F 
ATOM     90  F   UNL A   1      47.814  28.479  35.273  1.00  0.00    -0.200 F 
ATOM     91  C   UNL A   1      46.359  26.990  36.386  1.00  0.00     0.200 A 
ATOM     92  F   UNL A   1      44.863  25.521  37.474  1.00  0.00    -0.200 F 
ATOM     93  F   UNL A   1      47.397  26.222  36.746  1.00  0.00    -0.200 F 
ENDBRANCH  60  83
ENDBRANCH  34  35
ENDBRANCH  26  29
ENDBRANCH  24  25
ENDBRANCH  23  24
ENDBRANCH  22  23
ENDBRANCH   1  22
TORSDOF 15
ENDMDL
