MODEL 1
REMARK VINA RESULT:     -11.0      0.000      0.000
REMARK SMILES C=CC[N@@H+](CC(=O)NCCCCNC(=O)c1ccc(-c2c3nc(c(-c4c(F)c(F)c(F)c(F)c4F)c4ccc([nH]4)c(-c4c(F)c(F)c(F)c(F)c4F)c4nc(c(-c5c(F)c(F)c(F)c(F)c5F)c5ccc2[nH]5)C=C4)C=C3)cc1)C[C@H]1C[N@@H+](C(C)C)CCO1
REMARK SMILES IDX 9 1 8 2 6 3 7 4 5 6 4 7 3 9 2 10 1 11 79 12 80 13 81 14
REMARK SMILES IDX 88 15 82 16 87 17 86 18 83 20 84 21 85 22 10 23 11 24 12 25
REMARK SMILES IDX 13 26 14 27 15 29 16 30 17 31 78 32 18 33 77 34 19 35 20 36
REMARK SMILES IDX 21 37 71 38 22 39 76 40 70 41 72 42 23 43 75 44 69 45 68 46
REMARK SMILES IDX 24 48 56 49 36 50 55 51 37 52 40 53 54 54 73 55 38 56 39 57
REMARK SMILES IDX 53 59 74 60 41 61 25 62 26 63 34 64 27 65 28 66 32 67 35 68
REMARK SMILES IDX 29 69 30 70 33 71 31 72 57 73 58 74 66 75 59 76 60 77 64 78
REMARK SMILES IDX 67 79 61 80 62 81 65 82 63 83 42 84 43 85 51 86 44 87 45 88
REMARK SMILES IDX 49 89 52 90 46 91 47 92 50 93 48 94
REMARK H PARENT 8 5 4 8 82 19 13 28 72 47 40 58
REMARK Flexibility Score: inf
ROOT
ATOM      1  C   UNL A   1      31.497  29.865  25.373  1.00  0.00     0.116 C 
ENDROOT
BRANCH   1   2
ATOM      2  N   UNL A   1      32.664  29.521  24.588  1.00  0.00    -0.351 N 
ATOM      3  C   UNL A   1      32.782  29.097  23.295  1.00  0.00     0.275 C 
ATOM      4  O   UNL A   1      33.931  28.935  22.870  1.00  0.00    -0.269 OA
ATOM      5  H   UNL A   1      33.519  29.606  25.069  1.00  0.00     0.163 HD
BRANCH   3   6
ATOM      6  C   UNL A   1      31.575  28.853  22.385  1.00  0.00     0.363 C 
BRANCH   6   7
ATOM      7  N   UNL A   1      30.833  27.587  22.579  1.00  0.00    -0.322 N 
ATOM      8  H   UNL A   1      30.635  27.161  21.673  1.00  0.00     0.348 HD
BRANCH   7   9
ATOM      9  C   UNL A   1      29.460  27.794  22.990  1.00  0.00     0.290 C 
BRANCH   9  10
ATOM     10  C   UNL A   1      28.823  29.141  22.880  1.00  0.00     0.025 C 
ATOM     11  C   UNL A   1      27.505  29.333  23.062  1.00  0.00     0.010 C 
ENDBRANCH   9  10
ENDBRANCH   7   9
BRANCH   7  12
ATOM     12  C   UNL A   1      31.622  26.399  22.955  1.00  0.00     0.301 C 
BRANCH  12  13
ATOM     13  C   UNL A   1      31.477  25.721  24.353  1.00  0.00     0.228 C 
ATOM     14  C   UNL A   1      31.770  24.214  24.421  1.00  0.00     0.300 C 
ATOM     15  O   UNL A   1      32.140  26.454  25.409  1.00  0.00    -0.361 OA
ATOM     16  N   UNL A   1      33.173  23.821  24.614  1.00  0.00    -0.329 N 
ATOM     17  C   UNL A   1      33.482  26.068  25.710  1.00  0.00     0.222 C 
ATOM     18  C   UNL A   1      33.712  24.551  25.759  1.00  0.00     0.291 C 
ATOM     19  H   UNL A   1      33.239  22.836  24.868  1.00  0.00     0.348 HD
BRANCH  16  20
ATOM     20  C   UNL A   1      33.957  23.791  23.375  1.00  0.00     0.177 C 
ATOM     21  C   UNL A   1      35.400  23.287  23.409  1.00  0.00     0.075 C 
ATOM     22  C   UNL A   1      33.158  22.991  22.344  1.00  0.00     0.075 C 
ENDBRANCH  16  20
ENDBRANCH  12  13
ENDBRANCH   7  12
ENDBRANCH   6   7
ENDBRANCH   3   6
ENDBRANCH   1   2
BRANCH   1  23
ATOM     23  C   UNL A   1      31.881  30.541  26.691  1.00  0.00     0.023 C 
BRANCH  23  24
ATOM     24  C   UNL A   1      31.597  32.027  26.807  1.00  0.00     0.023 C 
BRANCH  24  25
ATOM     25  C   UNL A   1      32.782  32.844  27.270  1.00  0.00     0.116 C 
BRANCH  25  26
ATOM     26  N   UNL A   1      32.441  34.210  27.650  1.00  0.00    -0.352 N 
ATOM     27  C   UNL A   1      32.998  34.980  28.649  1.00  0.00     0.251 C 
ATOM     28  H   UNL A   1      31.723  34.636  27.129  1.00  0.00     0.163 HD
ATOM     29  O   UNL A   1      32.551  36.078  28.926  1.00  0.00    -0.269 OA
BRANCH  27  30
ATOM     30  C   UNL A   1      34.130  34.412  29.408  1.00  0.00     0.039 A 
ATOM     31  C   UNL A   1      33.873  33.544  30.471  1.00  0.00     0.014 A 
ATOM     32  C   UNL A   1      35.438  34.655  28.982  1.00  0.00     0.014 A 
ATOM     33  C   UNL A   1      34.935  32.857  31.058  1.00  0.00     0.010 A 
ATOM     34  C   UNL A   1      36.468  33.877  29.478  1.00  0.00     0.010 A 
ATOM     35  C   UNL A   1      36.233  32.988  30.537  1.00  0.00    -0.014 A 
BRANCH  35  36
ATOM     36  C   UNL A   1      37.383  32.249  31.108  1.00  0.00     0.031 A 
ATOM     37  C   UNL A   1      37.872  32.613  32.483  1.00  0.00     0.074 A 
ATOM     38  C   UNL A   1      38.031  31.331  30.367  1.00  0.00     0.049 A 
ATOM     39  N   UNL A   1      38.925  32.184  33.131  1.00  0.00    -0.248 NA
ATOM     40  C   UNL A   1      37.103  33.640  33.208  1.00  0.00     0.031 C 
ATOM     41  C   UNL A   1      37.691  30.953  28.994  1.00  0.00     0.029 A 
ATOM     42  N   UNL A   1      39.122  30.554  30.664  1.00  0.00    -0.354 N 
ATOM     43  C   UNL A   1      38.958  32.911  34.312  1.00  0.00     0.074 A 
ATOM     44  C   UNL A   1      37.869  33.859  34.264  1.00  0.00     0.031 C 
ATOM     45  C   UNL A   1      38.536  29.995  28.578  1.00  0.00     0.029 A 
ATOM     46  C   UNL A   1      39.496  29.717  29.642  1.00  0.00     0.049 A 
ATOM     47  H   UNL A   1      39.593  30.594  31.527  1.00  0.00     0.167 HD
ATOM     48  C   UNL A   1      39.801  32.775  35.362  1.00  0.00     0.037 A 
ATOM     49  C   UNL A   1      40.504  28.826  29.578  1.00  0.00     0.037 A 
ATOM     50  C   UNL A   1      40.839  31.785  35.425  1.00  0.00     0.049 A 
ATOM     51  C   UNL A   1      41.395  28.654  30.780  1.00  0.00     0.074 A 
ATOM     52  C   UNL A   1      41.695  31.496  36.470  1.00  0.00     0.029 A 
ATOM     53  N   UNL A   1      41.152  30.912  34.392  1.00  0.00    -0.354 N 
ATOM     54  N   UNL A   1      41.370  29.292  31.925  1.00  0.00    -0.248 NA
ATOM     55  C   UNL A   1      42.446  27.633  30.684  1.00  0.00     0.031 C 
ATOM     56  C   UNL A   1      42.551  30.469  36.058  1.00  0.00     0.029 A 
ATOM     57  C   UNL A   1      42.198  30.089  34.772  1.00  0.00     0.049 A 
ATOM     58  H   UNL A   1      40.696  30.881  33.520  1.00  0.00     0.167 HD
ATOM     59  C   UNL A   1      42.380  28.734  32.695  1.00  0.00     0.074 A 
ATOM     60  C   UNL A   1      42.989  27.694  31.892  1.00  0.00     0.031 C 
ATOM     61  C   UNL A   1      42.774  29.053  33.954  1.00  0.00     0.037 A 
BRANCH  48  62
ATOM     62  C   UNL A   1      39.615  33.705  36.525  1.00  0.00     0.064 A 
ATOM     63  C   UNL A   1      40.223  34.970  36.565  1.00  0.00     0.173 A 
ATOM     64  C   UNL A   1      38.809  33.333  37.611  1.00  0.00     0.173 A 
ATOM     65  F   UNL A   1      41.018  35.368  35.560  1.00  0.00    -0.203 F 
ATOM     66  C   UNL A   1      40.058  35.812  37.661  1.00  0.00     0.198 A 
ATOM     67  C   UNL A   1      38.620  34.191  38.691  1.00  0.00     0.198 A 
ATOM     68  F   UNL A   1      38.204  32.135  37.626  1.00  0.00    -0.203 F 
ATOM     69  F   UNL A   1      40.698  36.989  37.701  1.00  0.00    -0.200 F 
ATOM     70  C   UNL A   1      39.252  35.425  38.720  1.00  0.00     0.200 A 
ATOM     71  F   UNL A   1      37.831  33.820  39.710  1.00  0.00    -0.200 F 
ATOM     72  F   UNL A   1      39.092  36.238  39.773  1.00  0.00    -0.200 F 
ENDBRANCH  48  62
BRANCH  49  73
ATOM     73  C   UNL A   1      40.694  28.000  28.357  1.00  0.00     0.064 A 
ATOM     74  C   UNL A   1      40.091  26.739  28.240  1.00  0.00     0.173 A 
ATOM     75  C   UNL A   1      41.477  28.449  27.283  1.00  0.00     0.173 A 
ATOM     76  F   UNL A   1      39.346  26.259  29.247  1.00  0.00    -0.203 F 
ATOM     77  C   UNL A   1      40.280  25.950  27.108  1.00  0.00     0.198 A 
ATOM     78  C   UNL A   1      41.644  27.670  26.139  1.00  0.00     0.198 A 
ATOM     79  F   UNL A   1      42.069  29.650  27.340  1.00  0.00    -0.203 F 
ATOM     80  F   UNL A   1      39.727  24.732  27.044  1.00  0.00    -0.200 F 
ATOM     81  C   UNL A   1      41.052  26.418  26.056  1.00  0.00     0.200 A 
ATOM     82  F   UNL A   1      42.379  28.131  25.119  1.00  0.00    -0.200 F 
ATOM     83  F   UNL A   1      41.232  25.661  24.966  1.00  0.00    -0.200 F 
ENDBRANCH  49  73
BRANCH  61  84
ATOM     84  C   UNL A   1      43.890  28.247  34.547  1.00  0.00     0.064 A 
ATOM     85  C   UNL A   1      43.646  27.040  35.216  1.00  0.00     0.173 A 
ATOM     86  C   UNL A   1      45.221  28.663  34.396  1.00  0.00     0.173 A 
ATOM     87  F   UNL A   1      42.388  26.608  35.397  1.00  0.00    -0.203 F 
ATOM     88  C   UNL A   1      44.697  26.288  35.735  1.00  0.00     0.198 A 
ATOM     89  C   UNL A   1      46.270  27.894  34.889  1.00  0.00     0.198 A 
ATOM     90  F   UNL A   1      45.504  29.807  33.754  1.00  0.00    -0.203 F 
ATOM     91  F   UNL A   1      44.440  25.159  36.409  1.00  0.00    -0.200 F 
ATOM     92  C   UNL A   1      46.006  26.711  35.562  1.00  0.00     0.200 A 
ATOM     93  F   UNL A   1      47.535  28.296  34.709  1.00  0.00    -0.200 F 
ATOM     94  F   UNL A   1      47.017  25.980  36.054  1.00  0.00    -0.200 F 
ENDBRANCH  61  84
ENDBRANCH  35  36
ENDBRANCH  27  30
ENDBRANCH  25  26
ENDBRANCH  24  25
ENDBRANCH  23  24
ENDBRANCH   1  23
TORSDOF 17
ENDMDL
MODEL 2
REMARK VINA RESULT:     -10.8      0.826      1.976
REMARK SMILES C=CC[N@@H+](CC(=O)NCCCCNC(=O)c1ccc(-c2c3nc(c(-c4c(F)c(F)c(F)c(F)c4F)c4ccc([nH]4)c(-c4c(F)c(F)c(F)c(F)c4F)c4nc(c(-c5c(F)c(F)c(F)c(F)c5F)c5ccc2[nH]5)C=C4)C=C3)cc1)C[C@H]1C[N@@H+](C(C)C)CCO1
REMARK SMILES IDX 9 1 8 2 6 3 7 4 5 6 4 7 3 9 2 10 1 11 79 12 80 13 81 14
REMARK SMILES IDX 88 15 82 16 87 17 86 18 83 20 84 21 85 22 10 23 11 24 12 25
REMARK SMILES IDX 13 26 14 27 15 29 16 30 17 31 78 32 18 33 77 34 19 35 20 36
REMARK SMILES IDX 21 37 71 38 22 39 76 40 70 41 72 42 23 43 75 44 69 45 68 46
REMARK SMILES IDX 24 48 56 49 36 50 55 51 37 52 40 53 54 54 73 55 38 56 39 57
REMARK SMILES IDX 53 59 74 60 41 61 25 62 26 63 34 64 27 65 28 66 32 67 35 68
REMARK SMILES IDX 29 69 30 70 33 71 31 72 57 73 58 74 66 75 59 76 60 77 64 78
REMARK SMILES IDX 67 79 61 80 62 81 65 82 63 83 42 84 43 85 51 86 44 87 45 88
REMARK SMILES IDX 49 89 52 90 46 91 47 92 50 93 48 94
REMARK H PARENT 8 5 4 8 82 19 13 28 72 47 40 58
REMARK Flexibility Score: inf
ROOT
ATOM      1  C   UNL A   1      31.553  29.646  25.459  1.00  0.00     0.116 C 
ENDROOT
BRANCH   1   2
ATOM      2  N   UNL A   1      32.635  29.600  24.497  1.00  0.00    -0.351 N 
ATOM      3  C   UNL A   1      33.332  28.545  23.981  1.00  0.00     0.275 C 
ATOM      4  O   UNL A   1      34.174  28.810  23.117  1.00  0.00    -0.269 OA
ATOM      5  H   UNL A   1      32.916  30.480  24.157  1.00  0.00     0.163 HD
BRANCH   3   6
ATOM      6  C   UNL A   1      33.087  27.095  24.409  1.00  0.00     0.363 C 
BRANCH   6   7
ATOM      7  N   UNL A   1      32.676  26.143  23.352  1.00  0.00    -0.322 N 
ATOM      8  H   UNL A   1      33.045  26.448  22.451  1.00  0.00     0.348 HD
BRANCH   7   9
ATOM      9  C   UNL A   1      31.270  26.239  23.020  1.00  0.00     0.290 C 
BRANCH   9  10
ATOM     10  C   UNL A   1      30.239  26.390  24.092  1.00  0.00     0.025 C 
ATOM     11  C   UNL A   1      28.961  26.704  23.824  1.00  0.00     0.010 C 
ENDBRANCH   9  10
ENDBRANCH   7   9
BRANCH   7  12
ATOM     12  C   UNL A   1      33.453  24.895  23.237  1.00  0.00     0.301 C 
BRANCH  12  13
ATOM     13  C   UNL A   1      33.026  23.587  23.972  1.00  0.00     0.228 C 
ATOM     14  C   UNL A   1      34.011  22.408  23.909  1.00  0.00     0.300 C 
ATOM     15  O   UNL A   1      32.545  23.823  25.316  1.00  0.00    -0.361 OA
ATOM     16  N   UNL A   1      35.073  22.378  24.924  1.00  0.00    -0.329 N 
ATOM     17  C   UNL A   1      33.508  23.727  26.367  1.00  0.00     0.222 C 
ATOM     18  C   UNL A   1      34.465  22.533  26.245  1.00  0.00     0.291 C 
ATOM     19  H   UNL A   1      35.527  21.465  24.944  1.00  0.00     0.348 HD
BRANCH  16  20
ATOM     20  C   UNL A   1      36.236  23.206  24.592  1.00  0.00     0.177 C 
ATOM     21  C   UNL A   1      37.462  23.185  25.505  1.00  0.00     0.075 C 
ATOM     22  C   UNL A   1      36.655  22.857  23.162  1.00  0.00     0.075 C 
ENDBRANCH  16  20
ENDBRANCH  12  13
ENDBRANCH   7  12
ENDBRANCH   6   7
ENDBRANCH   3   6
ENDBRANCH   1   2
BRANCH   1  23
ATOM     23  C   UNL A   1      31.955  30.401  26.727  1.00  0.00     0.023 C 
BRANCH  23  24
ATOM     24  C   UNL A   1      31.676  31.892  26.755  1.00  0.00     0.023 C 
BRANCH  24  25
ATOM     25  C   UNL A   1      32.850  32.728  27.214  1.00  0.00     0.116 C 
BRANCH  25  26
ATOM     26  N   UNL A   1      32.487  34.086  27.603  1.00  0.00    -0.352 N 
ATOM     27  C   UNL A   1      33.025  34.855  28.612  1.00  0.00     0.251 C 
ATOM     28  H   UNL A   1      31.766  34.505  27.081  1.00  0.00     0.163 HD
ATOM     29  O   UNL A   1      32.561  35.945  28.896  1.00  0.00    -0.269 OA
BRANCH  27  30
ATOM     30  C   UNL A   1      34.161  34.296  29.375  1.00  0.00     0.039 A 
ATOM     31  C   UNL A   1      33.909  33.416  30.428  1.00  0.00     0.014 A 
ATOM     32  C   UNL A   1      35.467  34.561  28.960  1.00  0.00     0.014 A 
ATOM     33  C   UNL A   1      34.976  32.739  31.017  1.00  0.00     0.010 A 
ATOM     34  C   UNL A   1      36.505  33.793  29.457  1.00  0.00     0.010 A 
ATOM     35  C   UNL A   1      36.276  32.892  30.506  1.00  0.00    -0.014 A 
BRANCH  35  36
ATOM     36  C   UNL A   1      37.431  32.165  31.079  1.00  0.00     0.031 A 
ATOM     37  C   UNL A   1      37.911  32.530  32.457  1.00  0.00     0.074 A 
ATOM     38  C   UNL A   1      38.093  31.257  30.337  1.00  0.00     0.049 A 
ATOM     39  N   UNL A   1      38.966  32.111  33.107  1.00  0.00    -0.248 NA
ATOM     40  C   UNL A   1      37.128  33.546  33.183  1.00  0.00     0.031 C 
ATOM     41  C   UNL A   1      37.763  30.880  28.962  1.00  0.00     0.029 A 
ATOM     42  N   UNL A   1      39.192  30.492  30.636  1.00  0.00    -0.354 N 
ATOM     43  C   UNL A   1      38.987  32.835  34.291  1.00  0.00     0.074 A 
ATOM     44  C   UNL A   1      37.887  33.770  34.242  1.00  0.00     0.031 C 
ATOM     45  C   UNL A   1      38.620  29.933  28.546  1.00  0.00     0.029 A 
ATOM     46  C   UNL A   1      39.580  29.662  29.612  1.00  0.00     0.049 A 
ATOM     47  H   UNL A   1      39.659  30.535  31.501  1.00  0.00     0.167 HD
ATOM     48  C   UNL A   1      39.828  32.705  35.344  1.00  0.00     0.037 A 
ATOM     49  C   UNL A   1      40.598  28.783  29.550  1.00  0.00     0.037 A 
ATOM     50  C   UNL A   1      40.876  31.727  35.407  1.00  0.00     0.049 A 
ATOM     51  C   UNL A   1      41.486  28.619  30.754  1.00  0.00     0.074 A 
ATOM     52  C   UNL A   1      41.732  31.444  36.455  1.00  0.00     0.029 A 
ATOM     53  N   UNL A   1      41.204  30.861  34.372  1.00  0.00    -0.354 N 
ATOM     54  N   UNL A   1      41.450  29.252  31.901  1.00  0.00    -0.248 NA
ATOM     55  C   UNL A   1      42.550  27.610  30.659  1.00  0.00     0.031 C 
ATOM     56  C   UNL A   1      42.602  30.428  36.043  1.00  0.00     0.029 A 
ATOM     57  C   UNL A   1      42.258  30.049  34.753  1.00  0.00     0.049 A 
ATOM     58  H   UNL A   1      40.752  30.827  33.499  1.00  0.00     0.167 HD
ATOM     59  C   UNL A   1      42.463  28.703  32.673  1.00  0.00     0.074 A 
ATOM     60  C   UNL A   1      43.087  27.673  31.869  1.00  0.00     0.031 C 
ATOM     61  C   UNL A   1      42.849  29.023  33.934  1.00  0.00     0.037 A 
BRANCH  48  62
ATOM     62  C   UNL A   1      39.627  33.628  36.510  1.00  0.00     0.064 A 
ATOM     63  C   UNL A   1      38.811  33.278  37.597  1.00  0.00     0.173 A 
ATOM     64  C   UNL A   1      40.269  34.875  36.548  1.00  0.00     0.173 A 
ATOM     65  F   UNL A   1      38.160  32.104  37.603  1.00  0.00    -0.203 F 
ATOM     66  C   UNL A   1      38.617  34.155  38.662  1.00  0.00     0.198 A 
ATOM     67  C   UNL A   1      40.098  35.736  37.630  1.00  0.00     0.198 A 
ATOM     68  F   UNL A   1      41.060  35.261  35.536  1.00  0.00    -0.203 F 
ATOM     69  F   UNL A   1      37.785  33.821  39.658  1.00  0.00    -0.200 F 
ATOM     70  C   UNL A   1      39.266  35.380  38.680  1.00  0.00     0.200 A 
ATOM     71  F   UNL A   1      40.735  36.915  37.652  1.00  0.00    -0.200 F 
ATOM     72  F   UNL A   1      39.082  36.221  39.707  1.00  0.00    -0.200 F 
ENDBRANCH  48  62
BRANCH  49  73
ATOM     73  C   UNL A   1      40.802  27.964  28.326  1.00  0.00     0.064 A 
ATOM     74  C   UNL A   1      40.232  26.688  28.212  1.00  0.00     0.173 A 
ATOM     75  C   UNL A   1      41.565  28.435  27.247  1.00  0.00     0.173 A 
ATOM     76  F   UNL A   1      39.508  26.187  29.224  1.00  0.00    -0.203 F 
ATOM     77  C   UNL A   1      40.435  25.905  27.078  1.00  0.00     0.198 A 
ATOM     78  C   UNL A   1      41.746  27.662  26.102  1.00  0.00     0.198 A 
ATOM     79  F   UNL A   1      42.125  29.652  27.302  1.00  0.00    -0.203 F 
ATOM     80  F   UNL A   1      39.915  24.672  27.016  1.00  0.00    -0.200 F 
ATOM     81  C   UNL A   1      41.188  26.395  26.021  1.00  0.00     0.200 A 
ATOM     82  F   UNL A   1      42.461  28.143  25.077  1.00  0.00    -0.200 F 
ATOM     83  F   UNL A   1      41.380  25.643  24.929  1.00  0.00    -0.200 F 
ENDBRANCH  49  73
BRANCH  61  84
ATOM     84  C   UNL A   1      43.972  28.228  34.529  1.00  0.00     0.064 A 
ATOM     85  C   UNL A   1      45.302  28.659  34.440  1.00  0.00     0.173 A 
ATOM     86  C   UNL A   1      43.704  27.050  35.241  1.00  0.00     0.173 A 
ATOM     87  F   UNL A   1      45.608  29.773  33.757  1.00  0.00    -0.203 F 
ATOM     88  C   UNL A   1      46.330  27.925  35.024  1.00  0.00     0.198 A 
ATOM     89  C   UNL A   1      44.731  26.334  35.850  1.00  0.00     0.198 A 
ATOM     90  F   UNL A   1      42.445  26.602  35.362  1.00  0.00    -0.203 F 
ATOM     91  F   UNL A   1      47.600  28.330  34.890  1.00  0.00    -0.200 F 
ATOM     92  C   UNL A   1      46.043  26.769  35.736  1.00  0.00     0.200 A 
ATOM     93  F   UNL A   1      44.450  25.227  36.549  1.00  0.00    -0.200 F 
ATOM     94  F   UNL A   1      47.033  26.069  36.306  1.00  0.00    -0.200 F 
ENDBRANCH  61  84
ENDBRANCH  35  36
ENDBRANCH  27  30
ENDBRANCH  25  26
ENDBRANCH  24  25
ENDBRANCH  23  24
ENDBRANCH   1  23
TORSDOF 17
ENDMDL
MODEL 3
REMARK VINA RESULT:     -10.8      5.413      9.834
REMARK SMILES C=CC[N@@H+](CC(=O)NCCCCNC(=O)c1ccc(-c2c3nc(c(-c4c(F)c(F)c(F)c(F)c4F)c4ccc([nH]4)c(-c4c(F)c(F)c(F)c(F)c4F)c4nc(c(-c5c(F)c(F)c(F)c(F)c5F)c5ccc2[nH]5)C=C4)C=C3)cc1)C[C@H]1C[N@@H+](C(C)C)CCO1
REMARK SMILES IDX 9 1 8 2 6 3 7 4 5 6 4 7 3 9 2 10 1 11 79 12 80 13 81 14
REMARK SMILES IDX 88 15 82 16 87 17 86 18 83 20 84 21 85 22 10 23 11 24 12 25
REMARK SMILES IDX 13 26 14 27 15 29 16 30 17 31 78 32 18 33 77 34 19 35 20 36
REMARK SMILES IDX 21 37 71 38 22 39 76 40 70 41 72 42 23 43 75 44 69 45 68 46
REMARK SMILES IDX 24 48 56 49 36 50 55 51 37 52 40 53 54 54 73 55 38 56 39 57
REMARK SMILES IDX 53 59 74 60 41 61 25 62 26 63 34 64 27 65 28 66 32 67 35 68
REMARK SMILES IDX 29 69 30 70 33 71 31 72 57 73 58 74 66 75 59 76 60 77 64 78
REMARK SMILES IDX 67 79 61 80 62 81 65 82 63 83 42 84 43 85 51 86 44 87 45 88
REMARK SMILES IDX 49 89 52 90 46 91 47 92 50 93 48 94
REMARK H PARENT 8 5 4 8 82 19 13 28 72 47 40 58
REMARK Flexibility Score: inf
ROOT
ATOM      1  C   UNL A   1      37.366  22.773  25.596  1.00  0.00     0.116 C 
ENDROOT
BRANCH   1   2
ATOM      2  N   UNL A   1      36.126  22.758  26.345  1.00  0.00    -0.351 N 
ATOM      3  C   UNL A   1      34.946  23.413  26.139  1.00  0.00     0.275 C 
ATOM      4  O   UNL A   1      34.026  23.153  26.923  1.00  0.00    -0.269 OA
ATOM      5  H   UNL A   1      36.136  22.177  27.139  1.00  0.00     0.163 HD
BRANCH   3   6
ATOM      6  C   UNL A   1      34.731  24.402  24.989  1.00  0.00     0.363 C 
BRANCH   6   7
ATOM      7  N   UNL A   1      33.842  23.968  23.888  1.00  0.00    -0.322 N 
ATOM      8  H   UNL A   1      32.879  23.916  24.222  1.00  0.00     0.348 HD
BRANCH   7   9
ATOM      9  C   UNL A   1      33.998  22.569  23.552  1.00  0.00     0.290 C 
BRANCH   9  10
ATOM     10  C   UNL A   1      32.839  21.629  23.628  1.00  0.00     0.025 C 
ATOM     11  C   UNL A   1      32.099  21.307  22.554  1.00  0.00     0.010 C 
ENDBRANCH   9  10
ENDBRANCH   7   9
BRANCH   7  12
ATOM     12  C   UNL A   1      33.436  24.996  22.911  1.00  0.00     0.301 C 
BRANCH  12  13
ATOM     13  C   UNL A   1      31.961  25.131  22.420  1.00  0.00     0.228 C 
ATOM     14  C   UNL A   1      30.863  24.767  23.433  1.00  0.00     0.300 C 
ATOM     15  O   UNL A   1      31.697  26.390  21.759  1.00  0.00    -0.361 OA
ATOM     16  N   UNL A   1      30.429  25.830  24.349  1.00  0.00    -0.329 N 
ATOM     17  C   UNL A   1      31.192  27.448  22.575  1.00  0.00     0.222 C 
ATOM     18  C   UNL A   1      30.101  27.021  23.568  1.00  0.00     0.291 C 
ATOM     19  H   UNL A   1      29.562  25.570  24.819  1.00  0.00     0.348 HD
BRANCH  16  20
ATOM     20  C   UNL A   1      31.289  25.986  25.527  1.00  0.00     0.177 C 
ATOM     21  C   UNL A   1      31.186  27.255  26.373  1.00  0.00     0.075 C 
ATOM     22  C   UNL A   1      31.078  24.758  26.416  1.00  0.00     0.075 C 
ENDBRANCH  16  20
ENDBRANCH  12  13
ENDBRANCH   7  12
ENDBRANCH   6   7
ENDBRANCH   3   6
ENDBRANCH   1   2
BRANCH   1  23
ATOM     23  C   UNL A   1      37.424  21.637  24.574  1.00  0.00     0.023 C 
BRANCH  23  24
ATOM     24  C   UNL A   1      38.050  20.333  25.032  1.00  0.00     0.023 C 
BRANCH  24  25
ATOM     25  C   UNL A   1      39.291  20.511  25.878  1.00  0.00     0.116 C 
BRANCH  25  26
ATOM     26  N   UNL A   1      40.147  19.332  25.919  1.00  0.00    -0.352 N 
ATOM     27  C   UNL A   1      41.512  19.278  26.104  1.00  0.00     0.251 C 
ATOM     28  H   UNL A   1      39.695  18.467  25.799  1.00  0.00     0.163 HD
ATOM     29  O   UNL A   1      42.122  18.226  26.020  1.00  0.00    -0.269 OA
BRANCH  27  30
ATOM     30  C   UNL A   1      42.225  20.545  26.364  1.00  0.00     0.039 A 
ATOM     31  C   UNL A   1      42.601  21.350  25.287  1.00  0.00     0.014 A 
ATOM     32  C   UNL A   1      42.407  20.977  27.679  1.00  0.00     0.014 A 
ATOM     33  C   UNL A   1      43.093  22.630  25.537  1.00  0.00     0.010 A 
ATOM     34  C   UNL A   1      42.772  22.290  27.917  1.00  0.00     0.010 A 
ATOM     35  C   UNL A   1      43.142  23.123  26.851  1.00  0.00    -0.014 A 
BRANCH  35  36
ATOM     36  C   UNL A   1      43.624  24.489  27.157  1.00  0.00     0.031 A 
ATOM     37  C   UNL A   1      42.656  25.497  27.712  1.00  0.00     0.074 A 
ATOM     38  C   UNL A   1      44.888  24.843  26.855  1.00  0.00     0.049 A 
ATOM     39  N   UNL A   1      42.826  26.774  27.943  1.00  0.00    -0.248 NA
ATOM     40  C   UNL A   1      41.291  25.016  27.996  1.00  0.00     0.031 C 
ATOM     41  C   UNL A   1      45.892  23.970  26.243  1.00  0.00     0.029 A 
ATOM     42  N   UNL A   1      45.541  26.038  27.013  1.00  0.00    -0.354 N 
ATOM     43  C   UNL A   1      41.590  27.245  28.361  1.00  0.00     0.074 A 
ATOM     44  C   UNL A   1      40.660  26.142  28.283  1.00  0.00     0.031 C 
ATOM     45  C   UNL A   1      47.042  24.649  26.107  1.00  0.00     0.029 A 
ATOM     46  C   UNL A   1      46.847  26.012  26.589  1.00  0.00     0.049 A 
ATOM     47  H   UNL A   1      45.114  26.839  27.393  1.00  0.00     0.167 HD
ATOM     48  C   UNL A   1      41.266  28.482  28.807  1.00  0.00     0.037 A 
ATOM     49  C   UNL A   1      47.778  26.986  26.593  1.00  0.00     0.037 A 
ATOM     50  C   UNL A   1      42.214  29.551  28.941  1.00  0.00     0.049 A 
ATOM     51  C   UNL A   1      47.409  28.337  27.143  1.00  0.00     0.074 A 
ATOM     52  C   UNL A   1      42.022  30.816  29.463  1.00  0.00     0.029 A 
ATOM     53  N   UNL A   1      43.546  29.471  28.556  1.00  0.00    -0.354 N 
ATOM     54  N   UNL A   1      46.256  28.752  27.612  1.00  0.00    -0.248 NA
ATOM     55  C   UNL A   1      48.471  29.351  27.178  1.00  0.00     0.031 C 
ATOM     56  C   UNL A   1      43.229  31.515  29.362  1.00  0.00     0.029 A 
ATOM     57  C   UNL A   1      44.185  30.670  28.818  1.00  0.00     0.049 A 
ATOM     58  H   UNL A   1      43.972  28.678  28.157  1.00  0.00     0.167 HD
ATOM     59  C   UNL A   1      46.459  30.063  28.019  1.00  0.00     0.074 A 
ATOM     60  C   UNL A   1      47.850  30.368  27.759  1.00  0.00     0.031 C 
ATOM     61  C   UNL A   1      45.575  30.939  28.559  1.00  0.00     0.037 A 
BRANCH  48  62
ATOM     62  C   UNL A   1      39.838  28.726  29.197  1.00  0.00     0.064 A 
ATOM     63  C   UNL A   1      39.376  28.481  30.500  1.00  0.00     0.173 A 
ATOM     64  C   UNL A   1      38.920  29.226  28.261  1.00  0.00     0.173 A 
ATOM     65  F   UNL A   1      40.208  27.986  31.430  1.00  0.00    -0.203 F 
ATOM     66  C   UNL A   1      38.042  28.692  30.841  1.00  0.00     0.198 A 
ATOM     67  C   UNL A   1      37.595  29.467  28.615  1.00  0.00     0.198 A 
ATOM     68  F   UNL A   1      39.308  29.478  27.002  1.00  0.00    -0.203 F 
ATOM     69  F   UNL A   1      37.614  28.392  32.075  1.00  0.00    -0.200 F 
ATOM     70  C   UNL A   1      37.155  29.191  29.900  1.00  0.00     0.200 A 
ATOM     71  F   UNL A   1      36.740  29.960  27.708  1.00  0.00    -0.200 F 
ATOM     72  F   UNL A   1      35.873  29.398  30.231  1.00  0.00    -0.200 F 
ENDBRANCH  48  62
BRANCH  49  73
ATOM     73  C   UNL A   1      49.152  26.705  26.102  1.00  0.00     0.064 A 
ATOM     74  C   UNL A   1      50.117  26.139  26.948  1.00  0.00     0.173 A 
ATOM     75  C   UNL A   1      49.534  26.994  24.783  1.00  0.00     0.173 A 
ATOM     76  F   UNL A   1      49.806  25.860  28.223  1.00  0.00    -0.203 F 
ATOM     77  C   UNL A   1      51.413  25.891  26.503  1.00  0.00     0.198 A 
ATOM     78  C   UNL A   1      50.824  26.722  24.330  1.00  0.00     0.198 A 
ATOM     79  F   UNL A   1      48.648  27.528  23.930  1.00  0.00    -0.203 F 
ATOM     80  F   UNL A   1      52.325  25.391  27.347  1.00  0.00    -0.200 F 
ATOM     81  C   UNL A   1      51.764  26.178  25.192  1.00  0.00     0.200 A 
ATOM     82  F   UNL A   1      51.155  26.987  23.060  1.00  0.00    -0.200 F 
ATOM     83  F   UNL A   1      53.010  25.938  24.763  1.00  0.00    -0.200 F 
ENDBRANCH  49  73
BRANCH  61  84
ATOM     84  C   UNL A   1      46.096  32.294  28.932  1.00  0.00     0.064 A 
ATOM     85  C   UNL A   1      46.054  33.369  28.033  1.00  0.00     0.173 A 
ATOM     86  C   UNL A   1      46.593  32.531  30.222  1.00  0.00     0.173 A 
ATOM     87  F   UNL A   1      45.598  33.188  26.783  1.00  0.00    -0.203 F 
ATOM     88  C   UNL A   1      46.513  34.629  28.406  1.00  0.00     0.198 A 
ATOM     89  C   UNL A   1      47.023  33.798  30.601  1.00  0.00     0.198 A 
ATOM     90  F   UNL A   1      46.645  31.535  31.120  1.00  0.00    -0.203 F 
ATOM     91  F   UNL A   1      46.505  35.632  27.518  1.00  0.00    -0.200 F 
ATOM     92  C   UNL A   1      46.988  34.844  29.691  1.00  0.00     0.200 A 
ATOM     93  F   UNL A   1      47.468  34.008  31.847  1.00  0.00    -0.200 F 
ATOM     94  F   UNL A   1      47.421  36.060  30.051  1.00  0.00    -0.200 F 
ENDBRANCH  61  84
ENDBRANCH  35  36
ENDBRANCH  27  30
ENDBRANCH  25  26
ENDBRANCH  24  25
ENDBRANCH  23  24
ENDBRANCH   1  23
TORSDOF 17
ENDMDL
