MODEL 1
REMARK VINA RESULT:     -13.2      0.000      0.000
REMARK SMILES Cc1nn(-c2cc(Cl)ccc2Cl)nc1C(=O)NCCCCNC(=O)c1ccc(-c2c3nc(c(-c4c(F)c(F)c(F)c(F)c4F)c4ccc([nH]4)c(-c4c(F)c(F)c(F)c(F)c4F)c4nc(c(-c5c(F)c(F)c(F)c(F)c5F)c5ccc2[nH]5)C=C4)C=C3)cc1
REMARK SMILES IDX 20 1 19 2 18 3 17 4 15 5 16 6 14 8 1 9 2 10 3 11 4 12 13 13
REMARK SMILES IDX 5 14 6 15 11 16 7 17 10 18 12 19 8 20 9 21 21 22 22 23 23 24
REMARK SMILES IDX 24 26 25 27 26 28 87 29 27 30 86 31 28 32 29 33 30 34 80 35
REMARK SMILES IDX 31 36 85 37 79 38 81 39 32 40 84 41 78 42 77 43 33 45 65 46
REMARK SMILES IDX 45 47 64 48 46 49 49 50 63 51 82 52 47 53 48 54 62 56 83 57
REMARK SMILES IDX 50 58 34 59 35 60 43 61 36 62 37 63 41 64 44 65 38 66 39 67
REMARK SMILES IDX 42 68 40 69 66 70 67 71 75 72 68 73 69 74 73 75 76 76 70 77
REMARK SMILES IDX 71 78 74 79 72 80 51 81 52 82 60 83 53 84 54 85 58 86 61 87
REMARK SMILES IDX 55 88 56 89 59 90 57 91
REMARK H PARENT 17 7 22 25 81 44 49 55
REMARK Flexibility Score: inf
ROOT
ATOM      1  C   UNL A   1      32.590  30.283  27.011  1.00  0.00     0.023 C 
ENDROOT
BRANCH   1   2
ATOM      2  C   UNL A   1      32.408  28.826  27.435  1.00  0.00     0.023 C 
BRANCH   2   3
ATOM      3  C   UNL A   1      32.180  27.780  26.347  1.00  0.00     0.116 C 
BRANCH   3   4
ATOM      4  N   UNL A   1      31.098  26.858  26.578  1.00  0.00    -0.351 N 
ATOM      5  C   UNL A   1      30.898  25.571  26.124  1.00  0.00     0.273 C 
ATOM      6  O   UNL A   1      29.842  25.051  26.501  1.00  0.00    -0.267 OA
ATOM      7  H   UNL A   1      30.381  27.204  27.157  1.00  0.00     0.163 HD
BRANCH   5   8
ATOM      8  C   UNL A   1      31.842  24.836  25.250  1.00  0.00     0.173 A 
ATOM      9  C   UNL A   1      31.406  25.360  22.657  1.00  0.00     0.071 C 
ATOM     10  C   UNL A   1      32.081  24.784  23.842  1.00  0.00     0.093 A 
ATOM     11  N   UNL A   1      33.188  24.074  23.599  1.00  0.00    -0.153 NA
ATOM     12  N   UNL A   1      33.624  23.757  24.828  1.00  0.00    -0.149 N 
ATOM     13  N   UNL A   1      32.779  24.052  25.838  1.00  0.00    -0.143 NA
BRANCH  12  14
ATOM     14  C   UNL A   1      34.841  23.072  25.037  1.00  0.00     0.106 A 
ATOM     15  C   UNL A   1      35.968  23.821  25.423  1.00  0.00     0.052 A 
ATOM     16  C   UNL A   1      34.945  21.680  24.884  1.00  0.00     0.068 A 
ATOM     17  C   UNL A   1      37.169  23.170  25.703  1.00  0.00     0.043 A 
ATOM     18  C   UNL A   1      36.170  21.048  25.135  1.00  0.00     0.024 A 
ATOM     19  Cl  UNL A   1      33.691  20.668  24.250  1.00  0.00    -0.082 Cl
ATOM     20  Cl  UNL A   1      38.525  24.072  26.254  1.00  0.00    -0.084 Cl
ATOM     21  C   UNL A   1      37.276  21.789  25.556  1.00  0.00     0.022 A 
ENDBRANCH  12  14
ENDBRANCH   5   8
ENDBRANCH   3   4
ENDBRANCH   2   3
ENDBRANCH   1   2
BRANCH   1  22
ATOM     22  C   UNL A   1      33.970  30.869  27.261  1.00  0.00     0.116 C 
BRANCH  22  23
ATOM     23  N   UNL A   1      34.034  31.784  28.396  1.00  0.00    -0.352 N 
ATOM     24  C   UNL A   1      34.963  31.773  29.425  1.00  0.00     0.251 C 
ATOM     25  H   UNL A   1      33.342  32.483  28.435  1.00  0.00     0.163 HD
ATOM     26  O   UNL A   1      34.738  32.328  30.486  1.00  0.00    -0.269 OA
BRANCH  24  27
ATOM     27  C   UNL A   1      36.241  31.062  29.210  1.00  0.00     0.039 A 
ATOM     28  C   UNL A   1      37.455  31.752  29.231  1.00  0.00     0.014 A 
ATOM     29  C   UNL A   1      36.211  29.680  29.027  1.00  0.00     0.014 A 
ATOM     30  C   UNL A   1      38.641  31.023  29.163  1.00  0.00     0.010 A 
ATOM     31  C   UNL A   1      37.377  28.952  29.085  1.00  0.00     0.010 A 
ATOM     32  C   UNL A   1      38.597  29.616  29.130  1.00  0.00    -0.014 A 
BRANCH  32  33
ATOM     33  C   UNL A   1      39.820  28.846  29.363  1.00  0.00     0.031 A 
ATOM     34  C   UNL A   1      40.101  28.657  30.813  1.00  0.00     0.074 A 
ATOM     35  C   UNL A   1      40.512  28.188  28.403  1.00  0.00     0.049 A 
ATOM     36  N   UNL A   1      41.060  29.188  31.495  1.00  0.00    -0.248 NA
ATOM     37  C   UNL A   1      39.112  27.949  31.648  1.00  0.00     0.031 C 
ATOM     38  C   UNL A   1      40.126  28.028  26.996  1.00  0.00     0.029 A 
ATOM     39  N   UNL A   1      41.648  27.426  28.485  1.00  0.00    -0.354 N 
ATOM     40  C   UNL A   1      40.952  28.652  32.777  1.00  0.00     0.074 A 
ATOM     41  C   UNL A   1      39.630  28.100  32.870  1.00  0.00     0.031 C 
ATOM     42  C   UNL A   1      40.851  27.037  26.432  1.00  0.00     0.029 A 
ATOM     43  C   UNL A   1      41.871  26.612  27.372  1.00  0.00     0.049 A 
ATOM     44  H   UNL A   1      42.255  27.450  29.260  1.00  0.00     0.167 HD
ATOM     45  C   UNL A   1      42.087  28.396  33.488  1.00  0.00     0.037 A 
ATOM     46  C   UNL A   1      42.817  25.649  27.230  1.00  0.00     0.037 A 
ATOM     47  C   UNL A   1      43.205  29.075  32.882  1.00  0.00     0.049 A 
ATOM     48  C   UNL A   1      43.890  25.933  28.208  1.00  0.00     0.074 A 
ATOM     49  C   UNL A   1      43.696  30.359  32.806  1.00  0.00     0.029 A 
ATOM     50  N   UNL A   1      43.757  28.367  31.852  1.00  0.00    -0.354 N 
ATOM     51  N   UNL A   1      44.685  26.963  28.122  1.00  0.00    -0.248 NA
ATOM     52  C   UNL A   1      43.877  25.252  29.497  1.00  0.00     0.031 C 
ATOM     53  C   UNL A   1      44.508  30.409  31.632  1.00  0.00     0.029 A 
ATOM     54  C   UNL A   1      44.544  29.143  31.054  1.00  0.00     0.049 A 
ATOM     55  H   UNL A   1      43.604  27.406  31.702  1.00  0.00     0.167 HD
ATOM     56  C   UNL A   1      44.908  27.317  29.434  1.00  0.00     0.074 A 
ATOM     57  C   UNL A   1      44.554  26.145  30.223  1.00  0.00     0.031 C 
ATOM     58  C   UNL A   1      44.999  28.631  29.785  1.00  0.00     0.037 A 
BRANCH  45  59
ATOM     59  C   UNL A   1      42.335  27.141  34.315  1.00  0.00     0.064 A 
ATOM     60  C   UNL A   1      41.967  27.155  35.681  1.00  0.00     0.173 A 
ATOM     61  C   UNL A   1      43.202  26.091  33.943  1.00  0.00     0.173 A 
ATOM     62  F   UNL A   1      41.155  28.110  36.161  1.00  0.00    -0.203 F 
ATOM     63  C   UNL A   1      42.497  26.249  36.606  1.00  0.00     0.198 A 
ATOM     64  C   UNL A   1      43.695  25.163  34.862  1.00  0.00     0.198 A 
ATOM     65  F   UNL A   1      43.703  25.974  32.711  1.00  0.00    -0.203 F 
ATOM     66  F   UNL A   1      42.216  26.386  37.909  1.00  0.00    -0.200 F 
ATOM     67  C   UNL A   1      43.369  25.260  36.197  1.00  0.00     0.200 A 
ATOM     68  F   UNL A   1      44.559  24.224  34.448  1.00  0.00    -0.200 F 
ATOM     69  F   UNL A   1      43.929  24.431  37.087  1.00  0.00    -0.200 F 
ENDBRANCH  45  59
BRANCH  46  70
ATOM     70  C   UNL A   1      42.794  24.379  26.461  1.00  0.00     0.064 A 
ATOM     71  C   UNL A   1      43.584  24.214  25.308  1.00  0.00     0.173 A 
ATOM     72  C   UNL A   1      42.246  23.207  27.013  1.00  0.00     0.173 A 
ATOM     73  F   UNL A   1      44.169  25.274  24.731  1.00  0.00    -0.203 F 
ATOM     74  C   UNL A   1      43.856  22.948  24.775  1.00  0.00     0.198 A 
ATOM     75  C   UNL A   1      42.514  21.944  26.477  1.00  0.00     0.198 A 
ATOM     76  F   UNL A   1      41.526  23.255  28.143  1.00  0.00    -0.203 F 
ATOM     77  F   UNL A   1      44.678  22.827  23.723  1.00  0.00    -0.200 F 
ATOM     78  C   UNL A   1      43.335  21.814  25.371  1.00  0.00     0.200 A 
ATOM     79  F   UNL A   1      42.032  20.850  27.083  1.00  0.00    -0.200 F 
ATOM     80  F   UNL A   1      43.657  20.596  24.910  1.00  0.00    -0.200 F 
ENDBRANCH  46  70
BRANCH  58  81
ATOM     81  C   UNL A   1      45.479  29.598  28.755  1.00  0.00     0.064 A 
ATOM     82  C   UNL A   1      44.655  30.320  27.879  1.00  0.00     0.173 A 
ATOM     83  C   UNL A   1      46.857  29.849  28.713  1.00  0.00     0.173 A 
ATOM     84  F   UNL A   1      43.322  30.183  27.909  1.00  0.00    -0.203 F 
ATOM     85  C   UNL A   1      45.203  31.233  26.977  1.00  0.00     0.198 A 
ATOM     86  C   UNL A   1      47.395  30.787  27.843  1.00  0.00     0.198 A 
ATOM     87  F   UNL A   1      47.683  29.204  29.553  1.00  0.00    -0.203 F 
ATOM     88  F   UNL A   1      44.406  31.903  26.131  1.00  0.00    -0.200 F 
ATOM     89  C   UNL A   1      46.570  31.471  26.967  1.00  0.00     0.200 A 
ATOM     90  F   UNL A   1      48.711  31.039  27.869  1.00  0.00    -0.200 F 
ATOM     91  F   UNL A   1      47.091  32.375  26.126  1.00  0.00    -0.200 F 
ENDBRANCH  58  81
ENDBRANCH  32  33
ENDBRANCH  24  27
ENDBRANCH  22  23
ENDBRANCH   1  22
TORSDOF 12
ENDMDL
MODEL 2
REMARK VINA RESULT:     -13.2      3.632      8.920
REMARK SMILES Cc1nn(-c2cc(Cl)ccc2Cl)nc1C(=O)NCCCCNC(=O)c1ccc(-c2c3nc(c(-c4c(F)c(F)c(F)c(F)c4F)c4ccc([nH]4)c(-c4c(F)c(F)c(F)c(F)c4F)c4nc(c(-c5c(F)c(F)c(F)c(F)c5F)c5ccc2[nH]5)C=C4)C=C3)cc1
REMARK SMILES IDX 20 1 19 2 18 3 17 4 15 5 16 6 14 8 1 9 2 10 3 11 4 12 13 13
REMARK SMILES IDX 5 14 6 15 11 16 7 17 10 18 12 19 8 20 9 21 21 22 22 23 23 24
REMARK SMILES IDX 24 26 25 27 26 28 87 29 27 30 86 31 28 32 29 33 30 34 80 35
REMARK SMILES IDX 31 36 85 37 79 38 81 39 32 40 84 41 78 42 77 43 33 45 65 46
REMARK SMILES IDX 45 47 64 48 46 49 49 50 63 51 82 52 47 53 48 54 62 56 83 57
REMARK SMILES IDX 50 58 34 59 35 60 43 61 36 62 37 63 41 64 44 65 38 66 39 67
REMARK SMILES IDX 42 68 40 69 66 70 67 71 75 72 68 73 69 74 73 75 76 76 70 77
REMARK SMILES IDX 71 78 74 79 72 80 51 81 52 82 60 83 53 84 54 85 58 86 61 87
REMARK SMILES IDX 55 88 56 89 59 90 57 91
REMARK H PARENT 17 7 22 25 81 44 49 55
REMARK Flexibility Score: inf
ROOT
ATOM      1  C   UNL A   1      36.105  22.812  24.845  1.00  0.00     0.023 C 
ENDROOT
BRANCH   1   2
ATOM      2  C   UNL A   1      35.151  23.995  25.007  1.00  0.00     0.023 C 
BRANCH   2   3
ATOM      3  C   UNL A   1      33.876  24.015  24.167  1.00  0.00     0.116 C 
BRANCH   3   4
ATOM      4  N   UNL A   1      33.965  24.703  22.906  1.00  0.00    -0.351 N 
ATOM      5  C   UNL A   1      33.382  25.877  22.476  1.00  0.00     0.273 C 
ATOM      6  O   UNL A   1      33.656  26.191  21.312  1.00  0.00    -0.267 OA
ATOM      7  H   UNL A   1      34.538  24.261  22.238  1.00  0.00     0.163 HD
BRANCH   5   8
ATOM      8  C   UNL A   1      32.491  26.721  23.306  1.00  0.00     0.173 A 
ATOM      9  C   UNL A   1      33.653  27.405  25.624  1.00  0.00     0.071 C 
ATOM     10  C   UNL A   1      32.617  27.382  24.567  1.00  0.00     0.093 A 
ATOM     11  N   UNL A   1      31.551  28.163  24.773  1.00  0.00    -0.153 NA
ATOM     12  N   UNL A   1      30.839  28.013  23.646  1.00  0.00    -0.149 N 
ATOM     13  N   UNL A   1      31.274  27.049  22.808  1.00  0.00    -0.143 NA
BRANCH  12  14
ATOM     14  C   UNL A   1      29.657  28.748  23.403  1.00  0.00     0.106 A 
ATOM     15  C   UNL A   1      29.773  30.125  23.142  1.00  0.00     0.052 A 
ATOM     16  C   UNL A   1      28.392  28.139  23.403  1.00  0.00     0.068 A 
ATOM     17  C   UNL A   1      28.635  30.868  22.832  1.00  0.00     0.043 A 
ATOM     18  C   UNL A   1      27.256  28.911  23.125  1.00  0.00     0.024 A 
ATOM     19  Cl  UNL A   1      28.092  26.501  23.876  1.00  0.00    -0.082 Cl
ATOM     20  Cl  UNL A   1      28.781  32.535  22.432  1.00  0.00    -0.084 Cl
ATOM     21  C   UNL A   1      27.377  30.269  22.827  1.00  0.00     0.022 A 
ENDBRANCH  12  14
ENDBRANCH   5   8
ENDBRANCH   3   4
ENDBRANCH   2   3
ENDBRANCH   1   2
BRANCH   1  22
ATOM     22  C   UNL A   1      37.581  23.132  25.029  1.00  0.00     0.116 C 
BRANCH  22  23
ATOM     23  N   UNL A   1      38.401  21.980  25.388  1.00  0.00    -0.352 N 
ATOM     24  C   UNL A   1      39.571  21.986  26.133  1.00  0.00     0.251 C 
ATOM     25  H   UNL A   1      38.091  21.103  25.065  1.00  0.00     0.163 HD
ATOM     26  O   UNL A   1      40.358  21.059  26.082  1.00  0.00    -0.269 OA
BRANCH  24  27
ATOM     27  C   UNL A   1      39.849  23.157  26.992  1.00  0.00     0.039 A 
ATOM     28  C   UNL A   1      41.064  23.274  27.670  1.00  0.00     0.014 A 
ATOM     29  C   UNL A   1      38.886  24.163  27.078  1.00  0.00     0.014 A 
ATOM     30  C   UNL A   1      41.337  24.456  28.355  1.00  0.00     0.010 A 
ATOM     31  C   UNL A   1      39.204  25.374  27.648  1.00  0.00     0.010 A 
ATOM     32  C   UNL A   1      40.419  25.522  28.308  1.00  0.00    -0.014 A 
BRANCH  32  33
ATOM     33  C   UNL A   1      40.827  26.853  28.761  1.00  0.00     0.031 A 
ATOM     34  C   UNL A   1      42.056  27.332  28.072  1.00  0.00     0.074 A 
ATOM     35  C   UNL A   1      40.077  27.663  29.546  1.00  0.00     0.049 A 
ATOM     36  N   UNL A   1      43.228  27.490  28.592  1.00  0.00    -0.248 NA
ATOM     37  C   UNL A   1      42.043  27.483  26.605  1.00  0.00     0.031 C 
ATOM     38  C   UNL A   1      38.702  27.423  29.997  1.00  0.00     0.029 A 
ATOM     39  N   UNL A   1      40.328  28.923  30.025  1.00  0.00    -0.354 N 
ATOM     40  C   UNL A   1      44.020  28.027  27.580  1.00  0.00     0.074 A 
ATOM     41  C   UNL A   1      43.320  27.781  26.350  1.00  0.00     0.031 C 
ATOM     42  C   UNL A   1      38.161  28.575  30.452  1.00  0.00     0.029 A 
ATOM     43  C   UNL A   1      39.195  29.591  30.494  1.00  0.00     0.049 A 
ATOM     44  H   UNL A   1      41.228  29.322  30.037  1.00  0.00     0.167 HD
ATOM     45  C   UNL A   1      44.982  28.938  27.902  1.00  0.00     0.037 A 
ATOM     46  C   UNL A   1      39.103  30.888  30.883  1.00  0.00     0.037 A 
ATOM     47  C   UNL A   1      45.225  28.909  29.323  1.00  0.00     0.049 A 
ATOM     48  C   UNL A   1      40.468  31.348  31.222  1.00  0.00     0.074 A 
ATOM     49  C   UNL A   1      45.873  28.097  30.227  1.00  0.00     0.029 A 
ATOM     50  N   UNL A   1      44.340  29.676  30.026  1.00  0.00    -0.354 N 
ATOM     51  N   UNL A   1      41.137  30.911  32.252  1.00  0.00    -0.248 NA
ATOM     52  C   UNL A   1      41.250  32.058  30.216  1.00  0.00     0.031 C 
ATOM     53  C   UNL A   1      45.277  28.358  31.498  1.00  0.00     0.029 A 
ATOM     54  C   UNL A   1      44.326  29.364  31.353  1.00  0.00     0.049 A 
ATOM     55  H   UNL A   1      43.778  30.375  29.622  1.00  0.00     0.167 HD
ATOM     56  C   UNL A   1      42.442  30.891  31.813  1.00  0.00     0.074 A 
ATOM     57  C   UNL A   1      42.478  31.767  30.650  1.00  0.00     0.031 C 
ATOM     58  C   UNL A   1      43.281  29.888  32.198  1.00  0.00     0.037 A 
BRANCH  45  59
ATOM     59  C   UNL A   1      45.272  30.215  27.122  1.00  0.00     0.064 A 
ATOM     60  C   UNL A   1      46.624  30.582  26.917  1.00  0.00     0.173 A 
ATOM     61  C   UNL A   1      44.334  31.239  26.878  1.00  0.00     0.173 A 
ATOM     62  F   UNL A   1      47.612  29.699  27.127  1.00  0.00    -0.203 F 
ATOM     63  C   UNL A   1      47.000  31.889  26.588  1.00  0.00     0.198 A 
ATOM     64  C   UNL A   1      44.711  32.531  26.507  1.00  0.00     0.198 A 
ATOM     65  F   UNL A   1      43.025  31.082  27.092  1.00  0.00    -0.203 F 
ATOM     66  F   UNL A   1      48.298  32.215  26.533  1.00  0.00    -0.200 F 
ATOM     67  C   UNL A   1      46.043  32.865  26.393  1.00  0.00     0.200 A 
ATOM     68  F   UNL A   1      43.768  33.470  26.346  1.00  0.00    -0.200 F 
ATOM     69  F   UNL A   1      46.398  34.131  26.141  1.00  0.00    -0.200 F 
ENDBRANCH  45  59
BRANCH  46  70
ATOM     70  C   UNL A   1      37.969  31.842  30.800  1.00  0.00     0.064 A 
ATOM     71  C   UNL A   1      37.314  32.088  29.579  1.00  0.00     0.173 A 
ATOM     72  C   UNL A   1      37.308  32.285  31.961  1.00  0.00     0.173 A 
ATOM     73  F   UNL A   1      37.859  31.675  28.425  1.00  0.00    -0.203 F 
ATOM     74  C   UNL A   1      36.051  32.689  29.527  1.00  0.00     0.198 A 
ATOM     75  C   UNL A   1      36.048  32.889  31.907  1.00  0.00     0.198 A 
ATOM     76  F   UNL A   1      37.824  32.048  33.175  1.00  0.00    -0.203 F 
ATOM     77  F   UNL A   1      35.426  32.833  28.349  1.00  0.00    -0.200 F 
ATOM     78  C   UNL A   1      35.412  33.072  30.692  1.00  0.00     0.200 A 
ATOM     79  F   UNL A   1      35.424  33.224  33.045  1.00  0.00    -0.200 F 
ATOM     80  F   UNL A   1      34.169  33.575  30.651  1.00  0.00    -0.200 F 
ENDBRANCH  46  70
BRANCH  58  81
ATOM     81  C   UNL A   1      43.020  29.222  33.508  1.00  0.00     0.064 A 
ATOM     82  C   UNL A   1      43.408  29.721  34.759  1.00  0.00     0.173 A 
ATOM     83  C   UNL A   1      42.266  28.040  33.479  1.00  0.00     0.173 A 
ATOM     84  F   UNL A   1      44.070  30.882  34.868  1.00  0.00    -0.203 F 
ATOM     85  C   UNL A   1      43.078  29.038  35.931  1.00  0.00     0.198 A 
ATOM     86  C   UNL A   1      41.906  27.385  34.648  1.00  0.00     0.198 A 
ATOM     87  F   UNL A   1      41.846  27.540  32.306  1.00  0.00    -0.203 F 
ATOM     88  F   UNL A   1      43.473  29.516  37.121  1.00  0.00    -0.200 F 
ATOM     89  C   UNL A   1      42.321  27.878  35.874  1.00  0.00     0.200 A 
ATOM     90  F   UNL A   1      41.140  26.287  34.585  1.00  0.00    -0.200 F 
ATOM     91  F   UNL A   1      41.973  27.242  37.001  1.00  0.00    -0.200 F 
ENDBRANCH  58  81
ENDBRANCH  32  33
ENDBRANCH  24  27
ENDBRANCH  22  23
ENDBRANCH   1  22
TORSDOF 12
ENDMDL
MODEL 3
REMARK VINA RESULT:     -13.1      3.651      8.895
REMARK SMILES Cc1nn(-c2cc(Cl)ccc2Cl)nc1C(=O)NCCCCNC(=O)c1ccc(-c2c3nc(c(-c4c(F)c(F)c(F)c(F)c4F)c4ccc([nH]4)c(-c4c(F)c(F)c(F)c(F)c4F)c4nc(c(-c5c(F)c(F)c(F)c(F)c5F)c5ccc2[nH]5)C=C4)C=C3)cc1
REMARK SMILES IDX 20 1 19 2 18 3 17 4 15 5 16 6 14 8 1 9 2 10 3 11 4 12 13 13
REMARK SMILES IDX 5 14 6 15 11 16 7 17 10 18 12 19 8 20 9 21 21 22 22 23 23 24
REMARK SMILES IDX 24 26 25 27 26 28 87 29 27 30 86 31 28 32 29 33 30 34 80 35
REMARK SMILES IDX 31 36 85 37 79 38 81 39 32 40 84 41 78 42 77 43 33 45 65 46
REMARK SMILES IDX 45 47 64 48 46 49 49 50 63 51 82 52 47 53 48 54 62 56 83 57
REMARK SMILES IDX 50 58 34 59 35 60 43 61 36 62 37 63 41 64 44 65 38 66 39 67
REMARK SMILES IDX 42 68 40 69 66 70 67 71 75 72 68 73 69 74 73 75 76 76 70 77
REMARK SMILES IDX 71 78 74 79 72 80 51 81 52 82 60 83 53 84 54 85 58 86 61 87
REMARK SMILES IDX 55 88 56 89 59 90 57 91
REMARK H PARENT 17 7 22 25 81 44 49 55
REMARK Flexibility Score: inf
ROOT
ATOM      1  C   UNL A   1      36.188  23.279  25.218  1.00  0.00     0.023 C 
ENDROOT
BRANCH   1   2
ATOM      2  C   UNL A   1      35.014  24.252  25.318  1.00  0.00     0.023 C 
BRANCH   2   3
ATOM      3  C   UNL A   1      33.844  24.074  24.353  1.00  0.00     0.116 C 
BRANCH   3   4
ATOM      4  N   UNL A   1      33.977  24.727  23.077  1.00  0.00    -0.351 N 
ATOM      5  C   UNL A   1      33.429  25.902  22.604  1.00  0.00     0.273 C 
ATOM      6  O   UNL A   1      33.736  26.180  21.440  1.00  0.00    -0.267 OA
ATOM      7  H   UNL A   1      34.554  24.256  22.434  1.00  0.00     0.163 HD
BRANCH   5   8
ATOM      8  C   UNL A   1      32.538  26.785  23.392  1.00  0.00     0.173 A 
ATOM      9  C   UNL A   1      33.693  27.567  25.682  1.00  0.00     0.071 C 
ATOM     10  C   UNL A   1      32.661  27.501  24.622  1.00  0.00     0.093 A 
ATOM     11  N   UNL A   1      31.598  28.296  24.789  1.00  0.00    -0.153 NA
ATOM     12  N   UNL A   1      30.890  28.098  23.666  1.00  0.00    -0.149 N 
ATOM     13  N   UNL A   1      31.325  27.096  22.874  1.00  0.00    -0.143 NA
BRANCH  12  14
ATOM     14  C   UNL A   1      29.713  28.826  23.386  1.00  0.00     0.106 A 
ATOM     15  C   UNL A   1      29.829  30.205  23.130  1.00  0.00     0.052 A 
ATOM     16  C   UNL A   1      28.452  28.211  23.344  1.00  0.00     0.068 A 
ATOM     17  C   UNL A   1      28.697  30.942  22.784  1.00  0.00     0.043 A 
ATOM     18  C   UNL A   1      27.321  28.976  23.029  1.00  0.00     0.024 A 
ATOM     19  Cl  UNL A   1      28.146  26.570  23.805  1.00  0.00    -0.082 Cl
ATOM     20  Cl  UNL A   1      28.847  32.609  22.390  1.00  0.00    -0.084 Cl
ATOM     21  C   UNL A   1      27.444  30.335  22.737  1.00  0.00     0.022 A 
ENDBRANCH  12  14
ENDBRANCH   5   8
ENDBRANCH   3   4
ENDBRANCH   2   3
ENDBRANCH   1   2
BRANCH   1  22
ATOM     22  C   UNL A   1      37.410  23.641  26.047  1.00  0.00     0.116 C 
BRANCH  22  23
ATOM     23  N   UNL A   1      38.307  22.521  26.310  1.00  0.00    -0.352 N 
ATOM     24  C   UNL A   1      39.676  22.580  26.524  1.00  0.00     0.251 C 
ATOM     25  H   UNL A   1      37.896  21.627  26.336  1.00  0.00     0.163 HD
ATOM     26  O   UNL A   1      40.381  21.597  26.383  1.00  0.00    -0.269 OA
BRANCH  24  27
ATOM     27  C   UNL A   1      40.269  23.874  26.924  1.00  0.00     0.039 A 
ATOM     28  C   UNL A   1      39.953  25.048  26.238  1.00  0.00     0.014 A 
ATOM     29  C   UNL A   1      41.121  23.902  28.028  1.00  0.00     0.014 A 
ATOM     30  C   UNL A   1      40.425  26.261  26.735  1.00  0.00     0.010 A 
ATOM     31  C   UNL A   1      41.483  25.105  28.589  1.00  0.00     0.010 A 
ATOM     32  C   UNL A   1      41.158  26.289  27.936  1.00  0.00    -0.014 A 
BRANCH  32  33
ATOM     33  C   UNL A   1      41.392  27.565  28.616  1.00  0.00     0.031 A 
ATOM     34  C   UNL A   1      42.637  28.233  28.150  1.00  0.00     0.074 A 
ATOM     35  C   UNL A   1      40.493  28.190  29.413  1.00  0.00     0.049 A 
ATOM     36  N   UNL A   1      43.728  28.400  28.821  1.00  0.00    -0.248 NA
ATOM     37  C   UNL A   1      42.765  28.600  26.727  1.00  0.00     0.031 C 
ATOM     38  C   UNL A   1      39.105  27.781  29.661  1.00  0.00     0.029 A 
ATOM     39  N   UNL A   1      40.574  29.379  30.089  1.00  0.00    -0.354 N 
ATOM     40  C   UNL A   1      44.570  29.141  27.993  1.00  0.00     0.074 A 
ATOM     41  C   UNL A   1      44.029  29.029  26.668  1.00  0.00     0.031 C 
ATOM     42  C   UNL A   1      38.415  28.807  30.205  1.00  0.00     0.029 A 
ATOM     43  C   UNL A   1      39.341  29.881  30.511  1.00  0.00     0.049 A 
ATOM     44  H   UNL A   1      41.428  29.839  30.263  1.00  0.00     0.167 HD
ATOM     45  C   UNL A   1      45.404  30.064  28.551  1.00  0.00     0.037 A 
ATOM     46  C   UNL A   1      39.090  31.096  31.063  1.00  0.00     0.037 A 
ATOM     47  C   UNL A   1      45.499  29.841  29.972  1.00  0.00     0.049 A 
ATOM     48  C   UNL A   1      40.363  31.601  31.621  1.00  0.00     0.074 A 
ATOM     49  C   UNL A   1      46.119  28.955  30.823  1.00  0.00     0.029 A 
ATOM     50  N   UNL A   1      44.478  30.426  30.667  1.00  0.00    -0.354 N 
ATOM     51  N   UNL A   1      40.957  31.068  32.652  1.00  0.00    -0.248 NA
ATOM     52  C   UNL A   1      41.178  32.512  30.823  1.00  0.00     0.031 C 
ATOM     53  C   UNL A   1      45.372  28.978  32.040  1.00  0.00     0.029 A 
ATOM     54  C   UNL A   1      44.352  29.918  31.926  1.00  0.00     0.049 A 
ATOM     55  H   UNL A   1      43.899  31.133  30.301  1.00  0.00     0.167 HD
ATOM     56  C   UNL A   1      42.298  31.213  32.371  1.00  0.00     0.074 A 
ATOM     57  C   UNL A   1      42.376  32.253  31.353  1.00  0.00     0.031 C 
ATOM     58  C   UNL A   1      43.180  30.230  32.707  1.00  0.00     0.037 A 
BRANCH  45  59
ATOM     59  C   UNL A   1      45.656  31.461  27.996  1.00  0.00     0.064 A 
ATOM     60  C   UNL A   1      44.538  32.275  27.698  1.00  0.00     0.173 A 
ATOM     61  C   UNL A   1      46.875  31.894  27.433  1.00  0.00     0.173 A 
ATOM     62  F   UNL A   1      43.320  31.962  28.166  1.00  0.00    -0.203 F 
ATOM     63  C   UNL A   1      44.624  33.373  26.835  1.00  0.00     0.198 A 
ATOM     64  C   UNL A   1      46.964  33.017  26.607  1.00  0.00     0.198 A 
ATOM     65  F   UNL A   1      48.011  31.202  27.555  1.00  0.00    -0.203 F 
ATOM     66  F   UNL A   1      43.512  34.034  26.484  1.00  0.00    -0.200 F 
ATOM     67  C   UNL A   1      45.836  33.737  26.282  1.00  0.00     0.200 A 
ATOM     68  F   UNL A   1      48.146  33.338  26.061  1.00  0.00    -0.200 F 
ATOM     69  F   UNL A   1      45.913  34.747  25.407  1.00  0.00    -0.200 F 
ENDBRANCH  45  59
BRANCH  46  70
ATOM     70  C   UNL A   1      37.888  31.962  30.982  1.00  0.00     0.064 A 
ATOM     71  C   UNL A   1      37.583  32.673  29.807  1.00  0.00     0.173 A 
ATOM     72  C   UNL A   1      36.856  31.862  31.934  1.00  0.00     0.173 A 
ATOM     73  F   UNL A   1      38.498  32.794  28.833  1.00  0.00    -0.203 F 
ATOM     74  C   UNL A   1      36.308  33.202  29.573  1.00  0.00     0.198 A 
ATOM     75  C   UNL A   1      35.585  32.395  31.702  1.00  0.00     0.198 A 
ATOM     76  F   UNL A   1      37.031  31.158  33.061  1.00  0.00    -0.203 F 
ATOM     77  F   UNL A   1      36.036  33.804  28.406  1.00  0.00    -0.200 F 
ATOM     78  C   UNL A   1      35.306  33.047  30.514  1.00  0.00     0.200 A 
ATOM     79  F   UNL A   1      34.612  32.208  32.605  1.00  0.00    -0.200 F 
ATOM     80  F   UNL A   1      34.063  33.483  30.260  1.00  0.00    -0.200 F 
ENDBRANCH  46  70
BRANCH  58  81
ATOM     81  C   UNL A   1      42.846  29.359  33.871  1.00  0.00     0.064 A 
ATOM     82  C   UNL A   1      42.112  28.165  33.803  1.00  0.00     0.173 A 
ATOM     83  C   UNL A   1      43.368  29.735  35.116  1.00  0.00     0.173 A 
ATOM     84  F   UNL A   1      41.641  27.707  32.634  1.00  0.00    -0.203 F 
ATOM     85  C   UNL A   1      41.889  27.401  34.948  1.00  0.00     0.198 A 
ATOM     86  C   UNL A   1      43.177  28.952  36.246  1.00  0.00     0.198 A 
ATOM     87  F   UNL A   1      44.101  30.855  35.226  1.00  0.00    -0.203 F 
ATOM     88  F   UNL A   1      41.169  26.271  34.873  1.00  0.00    -0.200 F 
ATOM     89  C   UNL A   1      42.428  27.791  36.165  1.00  0.00     0.200 A 
ATOM     90  F   UNL A   1      43.736  29.316  37.408  1.00  0.00    -0.200 F 
ATOM     91  F   UNL A   1      42.244  27.038  37.258  1.00  0.00    -0.200 F 
ENDBRANCH  58  81
ENDBRANCH  32  33
ENDBRANCH  24  27
ENDBRANCH  22  23
ENDBRANCH   1  22
TORSDOF 12
ENDMDL
