MODEL 1
REMARK VINA RESULT:     -12.7      0.000      0.000
REMARK SMILES C[C@H]1[C@H](C(=O)NCCCCNC(=O)c2ccc(-c3c4nc(c(-c5c(F)c(F)c(F)c(F)c5F)c5ccc([nH]5)c(-c5c(F)c(F)c(F)c(F)c5F)c5nc(c(-c6c(F)c(F)c(F)c(F)c6F)c6ccc3[nH]6)C=C5)C=C4)cc2)CCN1C(=O)[C@H]1CC[C@@H](C[NH3+])CC1
REMARK SMILES IDX 7 1 6 2 4 3 5 4 3 6 1 7 2 8 79 9 77 10 78 11 80 12 81 13
REMARK SMILES IDX 82 14 89 15 83 16 88 17 84 18 85 19 86 20 87 21 8 25 9 26
REMARK SMILES IDX 10 27 11 28 12 29 13 31 14 32 15 33 76 34 16 35 75 36 17 37
REMARK SMILES IDX 18 38 19 39 69 40 20 41 74 42 68 43 70 44 21 45 73 46 67 47
REMARK SMILES IDX 66 48 22 50 54 51 34 52 53 53 35 54 38 55 52 56 71 57 36 58
REMARK SMILES IDX 37 59 51 61 72 62 39 63 23 64 24 65 32 66 25 67 26 68 30 69
REMARK SMILES IDX 33 70 27 71 28 72 31 73 29 74 55 75 56 76 64 77 57 78 58 79
REMARK SMILES IDX 62 80 65 81 59 82 60 83 63 84 61 85 40 86 41 87 49 88 42 89
REMARK SMILES IDX 43 90 47 91 50 92 44 93 45 94 48 95 46 96
REMARK H PARENT 6 5 87 22 87 23 87 24 11 30 70 49 38 60
REMARK Flexibility Score: inf
ROOT
ATOM      1  C   UNL A   1      32.766  30.020  26.976  1.00  0.00     0.116 C 
ENDROOT
BRANCH   1   2
ATOM      2  N   UNL A   1      32.243  28.743  27.408  1.00  0.00    -0.356 N 
ATOM      3  C   UNL A   1      31.808  27.672  26.698  1.00  0.00     0.225 C 
ATOM      4  O   UNL A   1      31.333  26.734  27.346  1.00  0.00    -0.275 OA
ATOM      5  H   UNL A   1      32.193  28.632  28.384  1.00  0.00     0.163 HD
BRANCH   3   6
ATOM      6  C   UNL A   1      31.869  27.587  25.182  1.00  0.00     0.102 C 
ATOM      7  C   UNL A   1      33.717  28.405  23.738  1.00  0.00     0.032 C 
ATOM      8  C   UNL A   1      33.262  27.229  24.617  1.00  0.00     0.094 C 
ATOM      9  N   UNL A   1      33.052  26.004  23.829  1.00  0.00    -0.339 N 
ATOM     10  C   UNL A   1      30.872  26.629  24.531  1.00  0.00     0.037 C 
ATOM     11  C   UNL A   1      31.654  25.928  23.432  1.00  0.00     0.120 C 
BRANCH   9  12
ATOM     12  C   UNL A   1      33.910  25.001  23.408  1.00  0.00     0.225 C 
ATOM     13  O   UNL A   1      33.968  24.719  22.204  1.00  0.00    -0.275 OA
BRANCH  12  14
ATOM     14  C   UNL A   1      34.759  24.142  24.368  1.00  0.00     0.078 C 
ATOM     15  C   UNL A   1      34.107  23.837  25.713  1.00  0.00     0.014 C 
ATOM     16  C   UNL A   1      35.339  22.914  23.671  1.00  0.00     0.014 C 
ATOM     17  C   UNL A   1      34.938  22.893  26.585  1.00  0.00     0.010 C 
ATOM     18  C   UNL A   1      36.119  21.983  24.595  1.00  0.00     0.010 C 
ATOM     19  C   UNL A   1      35.318  21.596  25.847  1.00  0.00     0.044 C 
BRANCH  19  20
ATOM     20  C   UNL A   1      34.068  20.732  25.562  1.00  0.00     0.262 C 
BRANCH  20  21
ATOM     21  N   UNL A   1      33.347  20.350  26.772  1.00  0.00    -0.357 N 
ATOM     22  H   UNL A   1      33.363  21.123  27.437  1.00  0.00     0.344 HD
ATOM     23  H   UNL A   1      33.794  19.532  27.189  1.00  0.00     0.344 HD
ATOM     24  H   UNL A   1      32.381  20.124  26.535  1.00  0.00     0.344 HD
ENDBRANCH  20  21
ENDBRANCH  19  20
ENDBRANCH  12  14
ENDBRANCH   9  12
ENDBRANCH   3   6
ENDBRANCH   1   2
BRANCH   1  25
ATOM     25  C   UNL A   1      31.716  30.812  26.202  1.00  0.00     0.023 C 
BRANCH  25  26
ATOM     26  C   UNL A   1      31.444  32.223  26.692  1.00  0.00     0.023 C 
BRANCH  26  27
ATOM     27  C   UNL A   1      32.613  32.896  27.388  1.00  0.00     0.116 C 
BRANCH  27  28
ATOM     28  N   UNL A   1      32.366  34.290  27.724  1.00  0.00    -0.352 N 
ATOM     29  C   UNL A   1      33.005  35.089  28.646  1.00  0.00     0.251 C 
ATOM     30  H   UNL A   1      31.639  34.724  27.222  1.00  0.00     0.163 HD
ATOM     31  O   UNL A   1      32.600  36.220  28.876  1.00  0.00    -0.269 OA
BRANCH  29  32
ATOM     32  C   UNL A   1      34.161  34.547  29.388  1.00  0.00     0.039 A 
ATOM     33  C   UNL A   1      33.943  33.922  30.618  1.00  0.00     0.014 A 
ATOM     34  C   UNL A   1      35.443  34.597  28.838  1.00  0.00     0.014 A 
ATOM     35  C   UNL A   1      34.999  33.267  31.251  1.00  0.00     0.010 A 
ATOM     36  C   UNL A   1      36.467  33.858  29.416  1.00  0.00     0.010 A 
ATOM     37  C   UNL A   1      36.256  33.187  30.630  1.00  0.00    -0.014 A 
BRANCH  37  38
ATOM     38  C   UNL A   1      37.371  32.413  31.230  1.00  0.00     0.031 A 
ATOM     39  C   UNL A   1      37.869  32.764  32.604  1.00  0.00     0.074 A 
ATOM     40  C   UNL A   1      37.988  31.457  30.508  1.00  0.00     0.049 A 
ATOM     41  N   UNL A   1      38.889  32.278  33.265  1.00  0.00    -0.248 NA
ATOM     42  C   UNL A   1      37.146  33.829  33.315  1.00  0.00     0.031 C 
ATOM     43  C   UNL A   1      37.638  31.067  29.140  1.00  0.00     0.029 A 
ATOM     44  N   UNL A   1      39.048  30.645  30.822  1.00  0.00    -0.354 N 
ATOM     45  C   UNL A   1      38.941  32.994  34.452  1.00  0.00     0.074 A 
ATOM     46  C   UNL A   1      37.891  33.987  34.398  1.00  0.00     0.031 C 
ATOM     47  C   UNL A   1      38.451  30.075  28.743  1.00  0.00     0.029 A 
ATOM     48  C   UNL A   1      39.401  29.783  29.812  1.00  0.00     0.049 A 
ATOM     49  H   UNL A   1      39.514  30.677  31.688  1.00  0.00     0.167 HD
ATOM     50  C   UNL A   1      39.773  32.822  35.506  1.00  0.00     0.037 A 
ATOM     51  C   UNL A   1      40.384  28.864  29.755  1.00  0.00     0.037 A 
ATOM     52  C   UNL A   1      40.789  31.806  35.574  1.00  0.00     0.049 A 
ATOM     53  C   UNL A   1      41.281  28.676  30.949  1.00  0.00     0.074 A 
ATOM     54  C   UNL A   1      41.634  31.499  36.625  1.00  0.00     0.029 A 
ATOM     55  N   UNL A   1      41.091  30.926  34.545  1.00  0.00    -0.354 N 
ATOM     56  N   UNL A   1      41.275  29.311  32.095  1.00  0.00    -0.248 NA
ATOM     57  C   UNL A   1      42.316  27.640  30.842  1.00  0.00     0.031 C 
ATOM     58  C   UNL A   1      42.476  30.457  36.218  1.00  0.00     0.029 A 
ATOM     59  C   UNL A   1      42.125  30.087  34.930  1.00  0.00     0.049 A 
ATOM     60  H   UNL A   1      40.640  30.903  33.670  1.00  0.00     0.167 HD
ATOM     61  C   UNL A   1      42.284  28.735  32.855  1.00  0.00     0.074 A 
ATOM     62  C   UNL A   1      42.873  27.690  32.044  1.00  0.00     0.031 C 
ATOM     63  C   UNL A   1      42.689  29.045  34.111  1.00  0.00     0.037 A 
BRANCH  50  64
ATOM     64  C   UNL A   1      39.608  33.745  36.677  1.00  0.00     0.064 A 
ATOM     65  C   UNL A   1      40.214  35.011  36.707  1.00  0.00     0.173 A 
ATOM     66  C   UNL A   1      38.815  33.372  37.773  1.00  0.00     0.173 A 
ATOM     67  F   UNL A   1      40.995  35.408  35.690  1.00  0.00    -0.203 F 
ATOM     68  C   UNL A   1      40.058  35.855  37.802  1.00  0.00     0.198 A 
ATOM     69  C   UNL A   1      38.637  34.233  38.853  1.00  0.00     0.198 A 
ATOM     70  F   UNL A   1      38.211  32.175  37.794  1.00  0.00    -0.203 F 
ATOM     71  F   UNL A   1      40.691  37.037  37.830  1.00  0.00    -0.200 F 
ATOM     72  C   UNL A   1      39.265  35.468  38.871  1.00  0.00     0.200 A 
ATOM     73  F   UNL A   1      37.860  33.862  39.881  1.00  0.00    -0.200 F 
ATOM     74  F   UNL A   1      39.111  36.285  39.923  1.00  0.00    -0.200 F 
ENDBRANCH  50  64
BRANCH  51  75
ATOM     75  C   UNL A   1      40.550  28.027  28.538  1.00  0.00     0.064 A 
ATOM     76  C   UNL A   1      41.329  28.474  27.462  1.00  0.00     0.173 A 
ATOM     77  C   UNL A   1      39.934  26.774  28.422  1.00  0.00     0.173 A 
ATOM     78  F   UNL A   1      41.922  29.676  27.519  1.00  0.00    -0.203 F 
ATOM     79  C   UNL A   1      41.470  27.707  26.308  1.00  0.00     0.198 A 
ATOM     80  C   UNL A   1      40.097  25.995  27.278  1.00  0.00     0.198 A 
ATOM     81  F   UNL A   1      39.181  26.299  29.425  1.00  0.00    -0.203 F 
ATOM     82  F   UNL A   1      42.185  28.178  25.277  1.00  0.00    -0.200 F 
ATOM     83  C   UNL A   1      40.859  26.467  26.218  1.00  0.00     0.200 A 
ATOM     84  F   UNL A   1      39.515  24.791  27.200  1.00  0.00    -0.200 F 
ATOM     85  F   UNL A   1      40.997  25.728  25.109  1.00  0.00    -0.200 F 
ENDBRANCH  51  75
BRANCH  63  86
ATOM     86  C   UNL A   1      43.798  28.224  34.698  1.00  0.00     0.064 A 
ATOM     87  C   UNL A   1      43.543  27.028  35.384  1.00  0.00     0.173 A 
ATOM     88  C   UNL A   1      45.134  28.617  34.532  1.00  0.00     0.173 A 
ATOM     89  F   UNL A   1      42.280  26.618  35.580  1.00  0.00    -0.203 F 
ATOM     90  C   UNL A   1      44.586  26.267  35.903  1.00  0.00     0.198 A 
ATOM     91  C   UNL A   1      46.176  27.838  35.028  1.00  0.00     0.198 A 
ATOM     92  F   UNL A   1      45.431  29.749  33.877  1.00  0.00    -0.203 F 
ATOM     93  F   UNL A   1      44.318  25.150  36.594  1.00  0.00    -0.200 F 
ATOM     94  C   UNL A   1      45.900  26.668  35.719  1.00  0.00     0.200 A 
ATOM     95  F   UNL A   1      47.447  28.221  34.837  1.00  0.00    -0.200 F 
ATOM     96  F   UNL A   1      46.903  25.929  36.213  1.00  0.00    -0.200 F 
ENDBRANCH  63  86
ENDBRANCH  37  38
ENDBRANCH  29  32
ENDBRANCH  27  28
ENDBRANCH  26  27
ENDBRANCH  25  26
ENDBRANCH   1  25
TORSDOF 15
ENDMDL
MODEL 2
REMARK VINA RESULT:     -12.6      0.666      7.425
REMARK SMILES C[C@H]1[C@H](C(=O)NCCCCNC(=O)c2ccc(-c3c4nc(c(-c5c(F)c(F)c(F)c(F)c5F)c5ccc([nH]5)c(-c5c(F)c(F)c(F)c(F)c5F)c5nc(c(-c6c(F)c(F)c(F)c(F)c6F)c6ccc3[nH]6)C=C5)C=C4)cc2)CCN1C(=O)[C@H]1CC[C@@H](C[NH3+])CC1
REMARK SMILES IDX 7 1 6 2 4 3 5 4 3 6 1 7 2 8 79 9 77 10 78 11 80 12 81 13
REMARK SMILES IDX 82 14 89 15 83 16 88 17 84 18 85 19 86 20 87 21 8 25 9 26
REMARK SMILES IDX 10 27 11 28 12 29 13 31 14 32 15 33 76 34 16 35 75 36 17 37
REMARK SMILES IDX 18 38 19 39 69 40 20 41 74 42 68 43 70 44 21 45 73 46 67 47
REMARK SMILES IDX 66 48 22 50 54 51 34 52 53 53 35 54 38 55 52 56 71 57 36 58
REMARK SMILES IDX 37 59 51 61 72 62 39 63 23 64 24 65 32 66 25 67 26 68 30 69
REMARK SMILES IDX 33 70 27 71 28 72 31 73 29 74 55 75 56 76 64 77 57 78 58 79
REMARK SMILES IDX 62 80 65 81 59 82 60 83 63 84 61 85 40 86 41 87 49 88 42 89
REMARK SMILES IDX 43 90 47 91 50 92 44 93 45 94 48 95 46 96
REMARK H PARENT 6 5 87 22 87 23 87 24 11 30 70 49 38 60
REMARK Flexibility Score: inf
ROOT
ATOM      1  C   UNL A   1      32.935  29.771  27.225  1.00  0.00     0.116 C 
ENDROOT
BRANCH   1   2
ATOM      2  N   UNL A   1      32.345  28.486  27.532  1.00  0.00    -0.356 N 
ATOM      3  C   UNL A   1      31.886  27.501  26.723  1.00  0.00     0.225 C 
ATOM      4  O   UNL A   1      31.352  26.533  27.275  1.00  0.00    -0.275 OA
ATOM      5  H   UNL A   1      32.264  28.295  28.494  1.00  0.00     0.163 HD
BRANCH   3   6
ATOM      6  C   UNL A   1      31.985  27.543  25.206  1.00  0.00     0.102 C 
ATOM      7  C   UNL A   1      33.922  28.363  23.884  1.00  0.00     0.032 C 
ATOM      8  C   UNL A   1      33.371  27.148  24.646  1.00  0.00     0.094 C 
ATOM      9  N   UNL A   1      33.109  26.010  23.749  1.00  0.00    -0.339 N 
ATOM     10  C   UNL A   1      30.951  26.709  24.450  1.00  0.00     0.037 C 
ATOM     11  C   UNL A   1      31.722  26.057  23.313  1.00  0.00     0.120 C 
BRANCH   9  12
ATOM     12  C   UNL A   1      33.917  24.995  23.263  1.00  0.00     0.225 C 
ATOM     13  O   UNL A   1      33.801  24.641  22.082  1.00  0.00    -0.275 OA
BRANCH  12  14
ATOM     14  C   UNL A   1      34.918  24.207  24.132  1.00  0.00     0.078 C 
ATOM     15  C   UNL A   1      34.393  23.777  25.498  1.00  0.00     0.014 C 
ATOM     16  C   UNL A   1      35.591  23.083  23.348  1.00  0.00     0.014 C 
ATOM     17  C   UNL A   1      35.381  22.906  26.277  1.00  0.00     0.010 C 
ATOM     18  C   UNL A   1      36.532  22.217  24.183  1.00  0.00     0.010 C 
ATOM     19  C   UNL A   1      35.861  21.692  25.461  1.00  0.00     0.044 C 
BRANCH  19  20
ATOM     20  C   UNL A   1      34.704  20.698  25.212  1.00  0.00     0.262 C 
BRANCH  20  21
ATOM     21  N   UNL A   1      35.162  19.338  24.951  1.00  0.00    -0.357 N 
ATOM     22  H   UNL A   1      34.661  18.687  25.556  1.00  0.00     0.344 HD
ATOM     23  H   UNL A   1      36.164  19.275  25.138  1.00  0.00     0.344 HD
ATOM     24  H   UNL A   1      34.984  19.100  23.975  1.00  0.00     0.344 HD
ENDBRANCH  20  21
ENDBRANCH  19  20
ENDBRANCH  12  14
ENDBRANCH   9  12
ENDBRANCH   3   6
ENDBRANCH   1   2
BRANCH   1  25
ATOM     25  C   UNL A   1      32.009  30.606  26.347  1.00  0.00     0.023 C 
BRANCH  25  26
ATOM     26  C   UNL A   1      31.618  31.969  26.891  1.00  0.00     0.023 C 
BRANCH  26  27
ATOM     27  C   UNL A   1      32.767  32.790  27.448  1.00  0.00     0.116 C 
BRANCH  27  28
ATOM     28  N   UNL A   1      32.416  34.178  27.713  1.00  0.00    -0.352 N 
ATOM     29  C   UNL A   1      32.978  35.062  28.607  1.00  0.00     0.251 C 
ATOM     30  H   UNL A   1      31.670  34.535  27.178  1.00  0.00     0.163 HD
ATOM     31  O   UNL A   1      32.490  36.170  28.777  1.00  0.00    -0.269 OA
BRANCH  29  32
ATOM     32  C   UNL A   1      34.153  34.637  29.394  1.00  0.00     0.039 A 
ATOM     33  C   UNL A   1      33.967  34.205  30.709  1.00  0.00     0.014 A 
ATOM     34  C   UNL A   1      35.422  34.604  28.812  1.00  0.00     0.014 A 
ATOM     35  C   UNL A   1      35.040  33.652  31.408  1.00  0.00     0.010 A 
ATOM     36  C   UNL A   1      36.462  33.961  29.470  1.00  0.00     0.010 A 
ATOM     37  C   UNL A   1      36.282  33.480  30.775  1.00  0.00    -0.014 A 
BRANCH  37  38
ATOM     38  C   UNL A   1      37.414  32.806  31.458  1.00  0.00     0.031 A 
ATOM     39  C   UNL A   1      38.099  31.642  30.797  1.00  0.00     0.074 A 
ATOM     40  C   UNL A   1      37.769  33.185  32.701  1.00  0.00     0.049 A 
ATOM     41  N   UNL A   1      39.038  30.859  31.263  1.00  0.00    -0.248 NA
ATOM     42  C   UNL A   1      37.639  31.288  29.445  1.00  0.00     0.031 C 
ATOM     43  C   UNL A   1      37.140  34.258  33.473  1.00  0.00     0.029 A 
ATOM     44  N   UNL A   1      38.740  32.699  33.540  1.00  0.00    -0.354 N 
ATOM     45  C   UNL A   1      39.261  29.911  30.274  1.00  0.00     0.074 A 
ATOM     46  C   UNL A   1      38.320  30.178  29.209  1.00  0.00     0.031 C 
ATOM     47  C   UNL A   1      37.758  34.367  34.661  1.00  0.00     0.029 A 
ATOM     48  C   UNL A   1      38.800  33.350  34.749  1.00  0.00     0.049 A 
ATOM     49  H   UNL A   1      39.337  31.954  33.300  1.00  0.00     0.167 HD
ATOM     50  C   UNL A   1      40.186  28.924  30.245  1.00  0.00     0.037 A 
ATOM     51  C   UNL A   1      39.605  33.144  35.808  1.00  0.00     0.037 A 
ATOM     52  C   UNL A   1      41.148  28.689  31.288  1.00  0.00     0.049 A 
ATOM     53  C   UNL A   1      40.641  32.054  35.742  1.00  0.00     0.074 A 
ATOM     54  C   UNL A   1      42.175  27.763  31.322  1.00  0.00     0.029 A 
ATOM     55  N   UNL A   1      41.202  29.393  32.481  1.00  0.00    -0.354 N 
ATOM     56  N   UNL A   1      40.890  31.209  34.772  1.00  0.00    -0.248 NA
ATOM     57  C   UNL A   1      41.510  31.894  36.915  1.00  0.00     0.031 C 
ATOM     58  C   UNL A   1      42.828  27.881  32.554  1.00  0.00     0.029 A 
ATOM     59  C   UNL A   1      42.236  28.909  33.268  1.00  0.00     0.049 A 
ATOM     60  H   UNL A   1      40.596  30.127  32.733  1.00  0.00     0.167 HD
ATOM     61  C   UNL A   1      41.959  30.437  35.205  1.00  0.00     0.074 A 
ATOM     62  C   UNL A   1      42.320  30.923  36.520  1.00  0.00     0.031 C 
ATOM     63  C   UNL A   1      42.585  29.415  34.571  1.00  0.00     0.037 A 
BRANCH  50  64
ATOM     64  C   UNL A   1      40.209  28.032  29.038  1.00  0.00     0.064 A 
ATOM     65  C   UNL A   1      40.940  28.369  27.888  1.00  0.00     0.173 A 
ATOM     66  C   UNL A   1      39.512  26.814  29.038  1.00  0.00     0.173 A 
ATOM     67  F   UNL A   1      41.611  29.531  27.833  1.00  0.00    -0.203 F 
ATOM     68  C   UNL A   1      40.948  27.537  26.774  1.00  0.00     0.198 A 
ATOM     69  C   UNL A   1      39.548  25.969  27.931  1.00  0.00     0.198 A 
ATOM     70  F   UNL A   1      38.800  26.443  30.112  1.00  0.00    -0.203 F 
ATOM     71  F   UNL A   1      41.611  27.906  25.668  1.00  0.00    -0.200 F 
ATOM     72  C   UNL A   1      40.258  26.335  26.799  1.00  0.00     0.200 A 
ATOM     73  F   UNL A   1      38.889  24.802  27.962  1.00  0.00    -0.200 F 
ATOM     74  F   UNL A   1      40.270  25.530  25.726  1.00  0.00    -0.200 F 
ENDBRANCH  50  64
BRANCH  51  75
ATOM     75  C   UNL A   1      39.488  34.010  37.011  1.00  0.00     0.064 A 
ATOM     76  C   UNL A   1      38.736  33.598  38.120  1.00  0.00     0.173 A 
ATOM     77  C   UNL A   1      40.114  35.262  37.076  1.00  0.00     0.173 A 
ATOM     78  F   UNL A   1      38.101  32.417  38.097  1.00  0.00    -0.203 F 
ATOM     79  C   UNL A   1      38.600  34.414  39.241  1.00  0.00     0.198 A 
ATOM     80  C   UNL A   1      40.000  36.066  38.208  1.00  0.00     0.198 A 
ATOM     81  F   UNL A   1      40.849  35.700  36.042  1.00  0.00    -0.203 F 
ATOM     82  F   UNL A   1      37.840  34.014  40.269  1.00  0.00    -0.200 F 
ATOM     83  C   UNL A   1      39.236  35.645  39.286  1.00  0.00     0.200 A 
ATOM     84  F   UNL A   1      40.626  37.250  38.253  1.00  0.00    -0.200 F 
ATOM     85  F   UNL A   1      39.107  36.428  40.366  1.00  0.00    -0.200 F 
ENDBRANCH  51  75
BRANCH  63  86
ATOM     86  C   UNL A   1      43.745  28.777  35.276  1.00  0.00     0.064 A 
ATOM     87  C   UNL A   1      45.057  29.237  35.099  1.00  0.00     0.173 A 
ATOM     88  C   UNL A   1      43.532  27.718  36.172  1.00  0.00     0.173 A 
ATOM     89  F   UNL A   1      45.311  30.237  34.241  1.00  0.00    -0.203 F 
ATOM     90  C   UNL A   1      46.118  28.647  35.778  1.00  0.00     0.198 A 
ATOM     91  C   UNL A   1      44.593  27.149  36.871  1.00  0.00     0.198 A 
ATOM     92  F   UNL A   1      42.295  27.246  36.382  1.00  0.00    -0.203 F 
ATOM     93  F   UNL A   1      47.370  29.074  35.561  1.00  0.00    -0.200 F 
ATOM     94  C   UNL A   1      45.885  27.609  36.668  1.00  0.00     0.200 A 
ATOM     95  F   UNL A   1      44.365  26.155  37.741  1.00  0.00    -0.200 F 
ATOM     96  F   UNL A   1      46.909  27.048  37.327  1.00  0.00    -0.200 F 
ENDBRANCH  63  86
ENDBRANCH  37  38
ENDBRANCH  29  32
ENDBRANCH  27  28
ENDBRANCH  26  27
ENDBRANCH  25  26
ENDBRANCH   1  25
TORSDOF 15
ENDMDL
MODEL 3
REMARK VINA RESULT:     -12.6      0.642      7.251
REMARK SMILES C[C@H]1[C@H](C(=O)NCCCCNC(=O)c2ccc(-c3c4nc(c(-c5c(F)c(F)c(F)c(F)c5F)c5ccc([nH]5)c(-c5c(F)c(F)c(F)c(F)c5F)c5nc(c(-c6c(F)c(F)c(F)c(F)c6F)c6ccc3[nH]6)C=C5)C=C4)cc2)CCN1C(=O)[C@H]1CC[C@@H](C[NH3+])CC1
REMARK SMILES IDX 7 1 6 2 4 3 5 4 3 6 1 7 2 8 79 9 77 10 78 11 80 12 81 13
REMARK SMILES IDX 82 14 89 15 83 16 88 17 84 18 85 19 86 20 87 21 8 25 9 26
REMARK SMILES IDX 10 27 11 28 12 29 13 31 14 32 15 33 76 34 16 35 75 36 17 37
REMARK SMILES IDX 18 38 19 39 69 40 20 41 74 42 68 43 70 44 21 45 73 46 67 47
REMARK SMILES IDX 66 48 22 50 54 51 34 52 53 53 35 54 38 55 52 56 71 57 36 58
REMARK SMILES IDX 37 59 51 61 72 62 39 63 23 64 24 65 32 66 25 67 26 68 30 69
REMARK SMILES IDX 33 70 27 71 28 72 31 73 29 74 55 75 56 76 64 77 57 78 58 79
REMARK SMILES IDX 62 80 65 81 59 82 60 83 63 84 61 85 40 86 41 87 49 88 42 89
REMARK SMILES IDX 43 90 47 91 50 92 44 93 45 94 48 95 46 96
REMARK H PARENT 6 5 87 22 87 23 87 24 11 30 70 49 38 60
REMARK Flexibility Score: inf
ROOT
ATOM      1  C   UNL A   1      32.917  29.783  27.172  1.00  0.00     0.116 C 
ENDROOT
BRANCH   1   2
ATOM      2  N   UNL A   1      32.299  28.514  27.486  1.00  0.00    -0.356 N 
ATOM      3  C   UNL A   1      31.821  27.533  26.681  1.00  0.00     0.225 C 
ATOM      4  O   UNL A   1      31.265  26.581  27.237  1.00  0.00    -0.275 OA
ATOM      5  H   UNL A   1      32.210  28.330  28.448  1.00  0.00     0.163 HD
BRANCH   3   6
ATOM      6  C   UNL A   1      31.927  27.563  25.164  1.00  0.00     0.102 C 
ATOM      7  C   UNL A   1      33.857  28.399  23.843  1.00  0.00     0.032 C 
ATOM      8  C   UNL A   1      33.320  27.182  24.614  1.00  0.00     0.094 C 
ATOM      9  N   UNL A   1      33.079  26.033  23.726  1.00  0.00    -0.339 N 
ATOM     10  C   UNL A   1      30.908  26.707  24.412  1.00  0.00     0.037 C 
ATOM     11  C   UNL A   1      31.693  26.056  23.284  1.00  0.00     0.120 C 
BRANCH   9  12
ATOM     12  C   UNL A   1      33.903  25.026  23.253  1.00  0.00     0.225 C 
ATOM     13  O   UNL A   1      33.787  24.647  22.079  1.00  0.00    -0.275 OA
BRANCH  12  14
ATOM     14  C   UNL A   1      34.926  24.273  24.129  1.00  0.00     0.078 C 
ATOM     15  C   UNL A   1      34.465  23.974  25.552  1.00  0.00     0.014 C 
ATOM     16  C   UNL A   1      35.517  23.065  23.406  1.00  0.00     0.014 C 
ATOM     17  C   UNL A   1      35.467  23.133  26.346  1.00  0.00     0.010 C 
ATOM     18  C   UNL A   1      36.474  22.236  24.258  1.00  0.00     0.010 C 
ATOM     19  C   UNL A   1      35.860  21.840  25.608  1.00  0.00     0.044 C 
BRANCH  19  20
ATOM     20  C   UNL A   1      34.659  20.872  25.504  1.00  0.00     0.262 C 
BRANCH  20  21
ATOM     21  N   UNL A   1      35.013  19.578  24.933  1.00  0.00    -0.357 N 
ATOM     22  H   UNL A   1      34.878  18.848  25.633  1.00  0.00     0.344 HD
ATOM     23  H   UNL A   1      35.990  19.592  24.639  1.00  0.00     0.344 HD
ATOM     24  H   UNL A   1      34.419  19.389  24.125  1.00  0.00     0.344 HD
ENDBRANCH  20  21
ENDBRANCH  19  20
ENDBRANCH  12  14
ENDBRANCH   9  12
ENDBRANCH   3   6
ENDBRANCH   1   2
BRANCH   1  25
ATOM     25  C   UNL A   1      32.009  30.635  26.291  1.00  0.00     0.023 C 
BRANCH  25  26
ATOM     26  C   UNL A   1      31.611  31.990  26.849  1.00  0.00     0.023 C 
BRANCH  26  27
ATOM     27  C   UNL A   1      32.748  32.792  27.454  1.00  0.00     0.116 C 
BRANCH  27  28
ATOM     28  N   UNL A   1      32.410  34.187  27.701  1.00  0.00    -0.352 N 
ATOM     29  C   UNL A   1      32.978  35.076  28.585  1.00  0.00     0.251 C 
ATOM     30  H   UNL A   1      31.670  34.544  27.159  1.00  0.00     0.163 HD
ATOM     31  O   UNL A   1      32.501  36.192  28.739  1.00  0.00    -0.269 OA
BRANCH  29  32
ATOM     32  C   UNL A   1      34.147  34.651  29.381  1.00  0.00     0.039 A 
ATOM     33  C   UNL A   1      33.946  34.184  30.681  1.00  0.00     0.014 A 
ATOM     34  C   UNL A   1      35.425  34.651  28.820  1.00  0.00     0.014 A 
ATOM     35  C   UNL A   1      35.017  33.630  31.385  1.00  0.00     0.010 A 
ATOM     36  C   UNL A   1      36.464  34.008  29.479  1.00  0.00     0.010 A 
ATOM     37  C   UNL A   1      36.271  33.492  30.769  1.00  0.00    -0.014 A 
BRANCH  37  38
ATOM     38  C   UNL A   1      37.402  32.819  31.453  1.00  0.00     0.031 A 
ATOM     39  C   UNL A   1      38.091  31.659  30.792  1.00  0.00     0.074 A 
ATOM     40  C   UNL A   1      37.752  33.195  32.699  1.00  0.00     0.049 A 
ATOM     41  N   UNL A   1      39.031  30.876  31.259  1.00  0.00    -0.248 NA
ATOM     42  C   UNL A   1      37.637  31.307  29.437  1.00  0.00     0.031 C 
ATOM     43  C   UNL A   1      37.119  34.266  33.472  1.00  0.00     0.029 A 
ATOM     44  N   UNL A   1      38.722  32.710  33.540  1.00  0.00    -0.354 N 
ATOM     45  C   UNL A   1      39.259  29.931  30.269  1.00  0.00     0.074 A 
ATOM     46  C   UNL A   1      38.322  30.199  29.201  1.00  0.00     0.031 C 
ATOM     47  C   UNL A   1      37.732  34.373  34.661  1.00  0.00     0.029 A 
ATOM     48  C   UNL A   1      38.776  33.357  34.750  1.00  0.00     0.049 A 
ATOM     49  H   UNL A   1      39.321  31.967  33.300  1.00  0.00     0.167 HD
ATOM     50  C   UNL A   1      40.187  28.946  30.240  1.00  0.00     0.037 A 
ATOM     51  C   UNL A   1      39.578  33.151  35.812  1.00  0.00     0.037 A 
ATOM     52  C   UNL A   1      41.146  28.710  31.285  1.00  0.00     0.049 A 
ATOM     53  C   UNL A   1      40.616  32.063  35.747  1.00  0.00     0.074 A 
ATOM     54  C   UNL A   1      42.175  27.787  31.320  1.00  0.00     0.029 A 
ATOM     55  N   UNL A   1      41.194  29.412  32.481  1.00  0.00    -0.354 N 
ATOM     56  N   UNL A   1      40.871  31.221  34.775  1.00  0.00    -0.248 NA
ATOM     57  C   UNL A   1      41.481  31.902  36.922  1.00  0.00     0.031 C 
ATOM     58  C   UNL A   1      42.823  27.903  32.555  1.00  0.00     0.029 A 
ATOM     59  C   UNL A   1      42.226  28.928  33.269  1.00  0.00     0.049 A 
ATOM     60  H   UNL A   1      40.585  30.143  32.732  1.00  0.00     0.167 HD
ATOM     61  C   UNL A   1      41.940  30.450  35.209  1.00  0.00     0.074 A 
ATOM     62  C   UNL A   1      42.295  30.934  36.527  1.00  0.00     0.031 C 
ATOM     63  C   UNL A   1      42.570  29.431  34.575  1.00  0.00     0.037 A 
BRANCH  50  64
ATOM     64  C   UNL A   1      40.216  28.058  29.031  1.00  0.00     0.064 A 
ATOM     65  C   UNL A   1      40.951  28.399  27.885  1.00  0.00     0.173 A 
ATOM     66  C   UNL A   1      39.521  26.839  29.024  1.00  0.00     0.173 A 
ATOM     67  F   UNL A   1      41.620  29.562  27.835  1.00  0.00    -0.203 F 
ATOM     68  C   UNL A   1      40.964  27.569  26.768  1.00  0.00     0.198 A 
ATOM     69  C   UNL A   1      39.562  25.997  27.916  1.00  0.00     0.198 A 
ATOM     70  F   UNL A   1      38.806  26.463  30.095  1.00  0.00    -0.203 F 
ATOM     71  F   UNL A   1      41.630  27.943  25.665  1.00  0.00    -0.200 F 
ATOM     72  C   UNL A   1      40.276  26.366  26.787  1.00  0.00     0.200 A 
ATOM     73  F   UNL A   1      38.906  24.829  27.941  1.00  0.00    -0.200 F 
ATOM     74  F   UNL A   1      40.294  25.565  25.712  1.00  0.00    -0.200 F 
ENDBRANCH  50  64
BRANCH  51  75
ATOM     75  C   UNL A   1      39.454  34.014  37.016  1.00  0.00     0.064 A 
ATOM     76  C   UNL A   1      40.099  35.257  37.076  1.00  0.00     0.173 A 
ATOM     77  C   UNL A   1      38.699  33.616  38.128  1.00  0.00     0.173 A 
ATOM     78  F   UNL A   1      40.850  35.672  36.045  1.00  0.00    -0.203 F 
ATOM     79  C   UNL A   1      40.008  36.061  38.210  1.00  0.00     0.198 A 
ATOM     80  C   UNL A   1      38.587  34.433  39.251  1.00  0.00     0.198 A 
ATOM     81  F   UNL A   1      38.059  32.437  38.119  1.00  0.00    -0.203 F 
ATOM     82  F   UNL A   1      40.671  37.225  38.257  1.00  0.00    -0.200 F 
ATOM     83  C   UNL A   1      39.249  35.651  39.294  1.00  0.00     0.200 A 
ATOM     84  F   UNL A   1      37.842  34.039  40.293  1.00  0.00    -0.200 F 
ATOM     85  F   UNL A   1      39.160  36.426  40.384  1.00  0.00    -0.200 F 
ENDBRANCH  51  75
BRANCH  63  86
ATOM     86  C   UNL A   1      43.728  28.794  35.282  1.00  0.00     0.064 A 
ATOM     87  C   UNL A   1      43.551  27.714  36.160  1.00  0.00     0.173 A 
ATOM     88  C   UNL A   1      45.037  29.242  35.045  1.00  0.00     0.173 A 
ATOM     89  F   UNL A   1      42.317  27.260  36.429  1.00  0.00    -0.203 F 
ATOM     90  C   UNL A   1      44.639  27.120  36.790  1.00  0.00     0.198 A 
ATOM     91  C   UNL A   1      46.125  28.627  35.656  1.00  0.00     0.198 A 
ATOM     92  F   UNL A   1      45.261  30.267  34.209  1.00  0.00    -0.203 F 
ATOM     93  F   UNL A   1      44.443  26.119  37.659  1.00  0.00    -0.200 F 
ATOM     94  C   UNL A   1      45.925  27.572  36.534  1.00  0.00     0.200 A 
ATOM     95  F   UNL A   1      47.369  29.056  35.397  1.00  0.00    -0.200 F 
ATOM     96  F   UNL A   1      46.973  26.993  37.137  1.00  0.00    -0.200 F 
ENDBRANCH  63  86
ENDBRANCH  37  38
ENDBRANCH  29  32
ENDBRANCH  27  28
ENDBRANCH  26  27
ENDBRANCH  25  26
ENDBRANCH   1  25
TORSDOF 15
ENDMDL
