MODEL 1
REMARK VINA RESULT:     -13.8      0.000      0.000
REMARK SMILES Cc1ccc(S(=O)(=O)N2CCN(C(=O)[C@H]3CCCC[C@H]3C(=O)NCCCCNC(=O)c3ccc(-c4c5nc(c(-c6c(F)c(F)c(F)c(F)c6F)c6ccc([nH]6)c(-c6c(F)c(F)c(F)c(F)c6F)c6nc(c(-c7c(F)c(F)c(F)c(F)c7F)c7ccc4[nH]7)C=C6)C=C5)cc3)CC2)cc1C
REMARK SMILES IDX 25 1 24 2 23 3 21 4 22 5 20 7 15 8 16 9 17 10 19 11 18 12
REMARK SMILES IDX 13 13 9 14 10 15 95 16 11 17 94 18 12 19 14 20 6 21 7 22
REMARK SMILES IDX 8 23 5 24 1 25 2 26 3 27 97 28 4 29 96 30 98 31 26 32 27 33
REMARK SMILES IDX 28 34 29 35 30 37 31 38 32 39 93 40 33 41 92 42 34 43 35 44
REMARK SMILES IDX 36 45 86 46 37 47 91 48 85 49 87 50 38 51 90 52 84 53 83 54
REMARK SMILES IDX 39 56 71 57 51 58 70 59 52 60 55 61 69 62 88 63 53 64 54 65
REMARK SMILES IDX 68 67 89 68 56 69 40 70 41 71 49 72 42 73 43 74 47 75 50 76
REMARK SMILES IDX 44 77 45 78 48 79 46 80 72 81 73 82 81 83 74 84 75 85 79 86
REMARK SMILES IDX 82 87 76 88 77 89 80 90 78 91 57 92 58 93 66 94 59 95 60 96
REMARK SMILES IDX 64 97 67 98 61 99 62 100 65 101 63 102
REMARK H PARENT 23 6 28 36 87 55 55 66
REMARK Flexibility Score: inf
ROOT
ATOM      1  C   UNL A   1      31.732  30.623  26.251  1.00  0.00     0.023 C 
ENDROOT
BRANCH   1   2
ATOM      2  C   UNL A   1      32.566  29.695  27.130  1.00  0.00     0.116 C 
BRANCH   2   3
ATOM      3  N   UNL A   1      31.939  28.404  27.307  1.00  0.00    -0.356 N 
ATOM      4  C   UNL A   1      31.382  27.545  26.411  1.00  0.00     0.223 C 
ATOM      5  O   UNL A   1      30.792  26.563  26.875  1.00  0.00    -0.275 OA
ATOM      6  H   UNL A   1      31.909  28.092  28.240  1.00  0.00     0.163 HD
BRANCH   4   7
ATOM      7  C   UNL A   1      31.499  27.708  24.888  1.00  0.00     0.091 C 
ATOM      8  C   UNL A   1      32.783  27.149  24.208  1.00  0.00     0.091 C 
ATOM      9  C   UNL A   1      32.724  27.247  22.677  1.00  0.00     0.014 C 
ATOM     10  C   UNL A   1      31.399  26.777  22.098  1.00  0.00     0.001 C 
ATOM     11  C   UNL A   1      30.163  27.455  24.165  1.00  0.00     0.014 C 
ATOM     12  C   UNL A   1      30.259  27.616  22.655  1.00  0.00     0.001 C 
BRANCH   8  13
ATOM     13  C   UNL A   1      33.332  25.837  24.772  1.00  0.00     0.226 C 
ATOM     14  N   UNL A   1      32.654  21.746  24.414  1.00  0.00    -0.194 NA
ATOM     15  C   UNL A   1      31.775  22.436  25.361  1.00  0.00     0.124 C 
ATOM     16  C   UNL A   1      32.839  22.460  23.139  1.00  0.00     0.124 C 
ATOM     17  C   UNL A   1      32.319  23.836  25.628  1.00  0.00     0.136 C 
ATOM     18  C   UNL A   1      33.335  23.897  23.364  1.00  0.00     0.136 C 
ATOM     19  N   UNL A   1      32.678  24.640  24.454  1.00  0.00    -0.340 N 
ATOM     20  O   UNL A   1      34.393  25.811  25.395  1.00  0.00    -0.275 OA
BRANCH  14  21
ATOM     21  S   UNL A   1      33.437  20.319  24.797  1.00  0.00     0.243 S 
ATOM     22  O   UNL A   1      33.358  19.445  23.642  1.00  0.00    -0.207 OA
ATOM     23  O   UNL A   1      32.946  19.902  26.091  1.00  0.00    -0.207 OA
BRANCH  21  24
ATOM     24  C   UNL A   1      35.169  20.684  25.020  1.00  0.00     0.082 A 
ATOM     25  C   UNL A   1      39.318  21.665  25.736  1.00  0.00     0.044 C 
ATOM     26  C   UNL A   1      37.867  21.370  25.474  1.00  0.00    -0.048 A 
ATOM     27  C   UNL A   1      37.504  20.076  25.068  1.00  0.00     0.005 A 
ATOM     28  C   UNL A   1      36.858  22.338  25.648  1.00  0.00    -0.047 A 
ATOM     29  C   UNL A   1      36.168  19.734  24.850  1.00  0.00     0.022 A 
ATOM     30  C   UNL A   1      35.516  21.986  25.404  1.00  0.00     0.025 A 
ATOM     31  C   UNL A   1      37.146  23.748  26.090  1.00  0.00     0.044 C 
ENDBRANCH  21  24
ENDBRANCH  14  21
ENDBRANCH   8  13
ENDBRANCH   4   7
ENDBRANCH   2   3
ENDBRANCH   1   2
BRANCH   1  32
ATOM     32  C   UNL A   1      31.458  32.005  26.805  1.00  0.00     0.023 C 
BRANCH  32  33
ATOM     33  C   UNL A   1      32.705  32.744  27.259  1.00  0.00     0.116 C 
BRANCH  33  34
ATOM     34  N   UNL A   1      32.467  34.136  27.640  1.00  0.00    -0.352 N 
ATOM     35  C   UNL A   1      33.054  34.894  28.627  1.00  0.00     0.251 C 
ATOM     36  H   UNL A   1      31.783  34.603  27.108  1.00  0.00     0.163 HD
ATOM     37  O   UNL A   1      32.645  36.024  28.873  1.00  0.00    -0.269 OA
BRANCH  35  38
ATOM     38  C   UNL A   1      34.166  34.316  29.403  1.00  0.00     0.039 A 
ATOM     39  C   UNL A   1      33.894  33.484  30.491  1.00  0.00     0.014 A 
ATOM     40  C   UNL A   1      35.478  34.542  28.994  1.00  0.00     0.014 A 
ATOM     41  C   UNL A   1      34.943  32.799  31.105  1.00  0.00     0.010 A 
ATOM     42  C   UNL A   1      36.496  33.762  29.514  1.00  0.00     0.010 A 
ATOM     43  C   UNL A   1      36.244  32.893  30.586  1.00  0.00    -0.014 A 
BRANCH  43  44
ATOM     44  C   UNL A   1      37.386  32.143  31.160  1.00  0.00     0.031 A 
ATOM     45  C   UNL A   1      37.873  32.499  32.539  1.00  0.00     0.074 A 
ATOM     46  C   UNL A   1      38.048  31.238  30.414  1.00  0.00     0.049 A 
ATOM     47  N   UNL A   1      38.959  32.123  33.160  1.00  0.00    -0.248 NA
ATOM     48  C   UNL A   1      37.053  33.463  33.295  1.00  0.00     0.031 C 
ATOM     49  C   UNL A   1      37.720  30.865  29.036  1.00  0.00     0.029 A 
ATOM     50  N   UNL A   1      39.154  30.481  30.707  1.00  0.00    -0.354 N 
ATOM     51  C   UNL A   1      38.975  32.839  34.351  1.00  0.00     0.074 A 
ATOM     52  C   UNL A   1      37.830  33.720  34.335  1.00  0.00     0.031 C 
ATOM     53  C   UNL A   1      38.589  29.930  28.614  1.00  0.00     0.029 A 
ATOM     54  C   UNL A   1      39.553  29.666  29.677  1.00  0.00     0.049 A 
ATOM     55  H   UNL A   1      39.618  30.519  31.574  1.00  0.00     0.167 HD
ATOM     56  C   UNL A   1      39.846  32.743  35.382  1.00  0.00     0.037 A 
ATOM     57  C   UNL A   1      40.585  28.803  29.606  1.00  0.00     0.037 A 
ATOM     58  C   UNL A   1      40.937  31.810  35.419  1.00  0.00     0.049 A 
ATOM     59  C   UNL A   1      41.480  28.642  30.804  1.00  0.00     0.074 A 
ATOM     60  C   UNL A   1      41.852  31.587  36.433  1.00  0.00     0.029 A 
ATOM     61  N   UNL A   1      41.240  30.920  34.399  1.00  0.00    -0.354 N 
ATOM     62  N   UNL A   1      41.464  29.295  31.941  1.00  0.00    -0.248 NA
ATOM     63  C   UNL A   1      42.526  27.614  30.718  1.00  0.00     0.031 C 
ATOM     64  C   UNL A   1      42.715  30.565  36.021  1.00  0.00     0.029 A 
ATOM     65  C   UNL A   1      42.317  30.133  34.766  1.00  0.00     0.049 A 
ATOM     66  H   UNL A   1      40.761  30.859  33.542  1.00  0.00     0.167 HD
ATOM     67  C   UNL A   1      42.474  28.741  32.714  1.00  0.00     0.074 A 
ATOM     68  C   UNL A   1      43.074  27.687  31.922  1.00  0.00     0.031 C 
ATOM     69  C   UNL A   1      42.874  29.073  33.965  1.00  0.00     0.037 A 
BRANCH  56  70
ATOM     70  C   UNL A   1      39.624  33.648  36.557  1.00  0.00     0.064 A 
ATOM     71  C   UNL A   1      38.842  33.247  37.652  1.00  0.00     0.173 A 
ATOM     72  C   UNL A   1      40.197  34.927  36.596  1.00  0.00     0.173 A 
ATOM     73  F   UNL A   1      38.254  32.041  37.655  1.00  0.00    -0.203 F 
ATOM     74  C   UNL A   1      38.611  34.106  38.723  1.00  0.00     0.198 A 
ATOM     75  C   UNL A   1      39.991  35.772  37.683  1.00  0.00     0.198 A 
ATOM     76  F   UNL A   1      40.955  35.360  35.577  1.00  0.00    -0.203 F 
ATOM     77  F   UNL A   1      37.809  33.723  39.725  1.00  0.00    -0.200 F 
ATOM     78  C   UNL A   1      39.191  35.365  38.741  1.00  0.00     0.200 A 
ATOM     79  F   UNL A   1      40.560  36.985  37.705  1.00  0.00    -0.200 F 
ATOM     80  F   UNL A   1      38.970  36.190  39.773  1.00  0.00    -0.200 F 
ENDBRANCH  56  70
BRANCH  57  81
ATOM     81  C   UNL A   1      40.793  27.991  28.379  1.00  0.00     0.064 A 
ATOM     82  C   UNL A   1      40.245  26.706  28.271  1.00  0.00     0.173 A 
ATOM     83  C   UNL A   1      41.539  28.476  27.296  1.00  0.00     0.173 A 
ATOM     84  F   UNL A   1      39.537  26.193  29.289  1.00  0.00    -0.203 F 
ATOM     85  C   UNL A   1      40.456  25.924  27.137  1.00  0.00     0.198 A 
ATOM     86  C   UNL A   1      41.729  27.703  26.151  1.00  0.00     0.198 A 
ATOM     87  F   UNL A   1      42.077  29.703  27.345  1.00  0.00    -0.203 F 
ATOM     88  F   UNL A   1      39.958  24.682  27.079  1.00  0.00    -0.200 F 
ATOM     89  C   UNL A   1      41.195  26.425  26.076  1.00  0.00     0.200 A 
ATOM     90  F   UNL A   1      42.431  28.195  25.122  1.00  0.00    -0.200 F 
ATOM     91  F   UNL A   1      41.397  25.674  24.985  1.00  0.00    -0.200 F 
ENDBRANCH  57  81
BRANCH  69  92
ATOM     92  C   UNL A   1      43.976  28.260  34.571  1.00  0.00     0.064 A 
ATOM     93  C   UNL A   1      45.318  28.645  34.459  1.00  0.00     0.173 A 
ATOM     94  C   UNL A   1      43.675  27.109  35.315  1.00  0.00     0.173 A 
ATOM     95  F   UNL A   1      45.652  29.730  33.746  1.00  0.00    -0.203 F 
ATOM     96  C   UNL A   1      46.327  27.891  35.054  1.00  0.00     0.198 A 
ATOM     97  C   UNL A   1      44.684  26.373  35.929  1.00  0.00     0.198 A 
ATOM     98  F   UNL A   1      42.403  26.707  35.454  1.00  0.00    -0.203 F 
ATOM     99  F   UNL A   1      47.608  28.254  34.903  1.00  0.00    -0.200 F 
ATOM    100  C   UNL A   1      46.008  26.761  35.793  1.00  0.00     0.200 A 
ATOM    101  F   UNL A   1      44.374  25.287  36.651  1.00  0.00    -0.200 F 
ATOM    102  F   UNL A   1      46.980  26.043  36.370  1.00  0.00    -0.200 F 
ENDBRANCH  69  92
ENDBRANCH  43  44
ENDBRANCH  35  38
ENDBRANCH  33  34
ENDBRANCH  32  33
ENDBRANCH   1  32
TORSDOF 14
ENDMDL
MODEL 2
REMARK VINA RESULT:     -13.6      0.728      7.094
REMARK SMILES Cc1ccc(S(=O)(=O)N2CCN(C(=O)[C@H]3CCCC[C@H]3C(=O)NCCCCNC(=O)c3ccc(-c4c5nc(c(-c6c(F)c(F)c(F)c(F)c6F)c6ccc([nH]6)c(-c6c(F)c(F)c(F)c(F)c6F)c6nc(c(-c7c(F)c(F)c(F)c(F)c7F)c7ccc4[nH]7)C=C6)C=C5)cc3)CC2)cc1C
REMARK SMILES IDX 25 1 24 2 23 3 21 4 22 5 20 7 15 8 16 9 17 10 19 11 18 12
REMARK SMILES IDX 13 13 9 14 10 15 95 16 11 17 94 18 12 19 14 20 6 21 7 22
REMARK SMILES IDX 8 23 5 24 1 25 2 26 3 27 97 28 4 29 96 30 98 31 26 32 27 33
REMARK SMILES IDX 28 34 29 35 30 37 31 38 32 39 93 40 33 41 92 42 34 43 35 44
REMARK SMILES IDX 36 45 86 46 37 47 91 48 85 49 87 50 38 51 90 52 84 53 83 54
REMARK SMILES IDX 39 56 71 57 51 58 70 59 52 60 55 61 69 62 88 63 53 64 54 65
REMARK SMILES IDX 68 67 89 68 56 69 40 70 41 71 49 72 42 73 43 74 47 75 50 76
REMARK SMILES IDX 44 77 45 78 48 79 46 80 72 81 73 82 81 83 74 84 75 85 79 86
REMARK SMILES IDX 82 87 76 88 77 89 80 90 78 91 57 92 58 93 66 94 59 95 60 96
REMARK SMILES IDX 64 97 67 98 61 99 62 100 65 101 63 102
REMARK H PARENT 23 6 28 36 87 55 55 66
REMARK Flexibility Score: inf
ROOT
ATOM      1  C   UNL A   1      32.281  30.389  26.243  1.00  0.00     0.023 C 
ENDROOT
BRANCH   1   2
ATOM      2  C   UNL A   1      32.908  29.351  27.170  1.00  0.00     0.116 C 
BRANCH   2   3
ATOM      3  N   UNL A   1      32.078  28.175  27.310  1.00  0.00    -0.356 N 
ATOM      4  C   UNL A   1      31.367  27.463  26.395  1.00  0.00     0.223 C 
ATOM      5  O   UNL A   1      30.632  26.571  26.833  1.00  0.00    -0.275 OA
ATOM      6  H   UNL A   1      32.018  27.828  28.229  1.00  0.00     0.163 HD
BRANCH   4   7
ATOM      7  C   UNL A   1      31.475  27.675  24.877  1.00  0.00     0.091 C 
ATOM      8  C   UNL A   1      32.730  27.092  24.164  1.00  0.00     0.091 C 
ATOM      9  C   UNL A   1      32.660  27.248  22.638  1.00  0.00     0.014 C 
ATOM     10  C   UNL A   1      31.312  26.851  22.057  1.00  0.00     0.001 C 
ATOM     11  C   UNL A   1      30.123  27.501  24.160  1.00  0.00     0.014 C 
ATOM     12  C   UNL A   1      30.212  27.713  22.656  1.00  0.00     0.001 C 
BRANCH   8  13
ATOM     13  C   UNL A   1      33.232  25.740  24.674  1.00  0.00     0.226 C 
ATOM     14  N   UNL A   1      32.277  21.705  24.317  1.00  0.00    -0.194 NA
ATOM     15  C   UNL A   1      31.508  22.433  25.329  1.00  0.00     0.124 C 
ATOM     16  C   UNL A   1      32.421  22.425  23.041  1.00  0.00     0.124 C 
ATOM     17  C   UNL A   1      32.155  23.792  25.574  1.00  0.00     0.136 C 
ATOM     18  C   UNL A   1      33.019  23.825  23.248  1.00  0.00     0.136 C 
ATOM     19  N   UNL A   1      32.484  24.591  24.388  1.00  0.00    -0.340 N 
ATOM     20  O   UNL A   1      34.328  25.639  25.224  1.00  0.00    -0.275 OA
BRANCH  14  21
ATOM     21  S   UNL A   1      32.993  20.226  24.630  1.00  0.00     0.243 S 
ATOM     22  O   UNL A   1      32.876  19.414  23.434  1.00  0.00    -0.207 OA
ATOM     23  O   UNL A   1      32.480  19.769  25.902  1.00  0.00    -0.207 OA
BRANCH  21  24
ATOM     24  C   UNL A   1      34.739  20.500  24.870  1.00  0.00     0.082 A 
ATOM     25  C   UNL A   1      38.926  21.267  25.625  1.00  0.00     0.044 C 
ATOM     26  C   UNL A   1      37.464  21.047  25.348  1.00  0.00    -0.048 A 
ATOM     27  C   UNL A   1      37.036  19.765  24.966  1.00  0.00     0.005 A 
ATOM     28  C   UNL A   1      36.509  22.073  25.486  1.00  0.00    -0.047 A 
ATOM     29  C   UNL A   1      35.686  19.493  24.736  1.00  0.00     0.022 A 
ATOM     30  C   UNL A   1      35.152  21.789  25.230  1.00  0.00     0.025 A 
ATOM     31  C   UNL A   1      36.869  23.474  25.901  1.00  0.00     0.044 C 
ENDBRANCH  21  24
ENDBRANCH  14  21
ENDBRANCH   8  13
ENDBRANCH   4   7
ENDBRANCH   2   3
ENDBRANCH   1   2
BRANCH   1  32
ATOM     32  C   UNL A   1      31.809  31.671  26.894  1.00  0.00     0.023 C 
BRANCH  32  33
ATOM     33  C   UNL A   1      32.935  32.563  27.386  1.00  0.00     0.116 C 
BRANCH  33  34
ATOM     34  N   UNL A   1      32.533  33.946  27.642  1.00  0.00    -0.352 N 
ATOM     35  C   UNL A   1      33.002  34.842  28.575  1.00  0.00     0.251 C 
ATOM     36  H   UNL A   1      31.818  34.287  27.058  1.00  0.00     0.163 HD
ATOM     37  O   UNL A   1      32.462  35.935  28.716  1.00  0.00    -0.269 OA
BRANCH  35  38
ATOM     38  C   UNL A   1      34.146  34.459  29.421  1.00  0.00     0.039 A 
ATOM     39  C   UNL A   1      33.921  33.875  30.669  1.00  0.00     0.014 A 
ATOM     40  C   UNL A   1      35.442  34.609  28.931  1.00  0.00     0.014 A 
ATOM     41  C   UNL A   1      35.000  33.352  31.382  1.00  0.00     0.010 A 
ATOM     42  C   UNL A   1      36.489  33.972  29.574  1.00  0.00     0.010 A 
ATOM     43  C   UNL A   1      36.284  33.350  30.814  1.00  0.00    -0.014 A 
BRANCH  43  44
ATOM     44  C   UNL A   1      37.456  32.755  31.498  1.00  0.00     0.031 A 
ATOM     45  C   UNL A   1      38.190  31.622  30.833  1.00  0.00     0.074 A 
ATOM     46  C   UNL A   1      37.786  33.144  32.745  1.00  0.00     0.049 A 
ATOM     47  N   UNL A   1      39.106  30.826  31.318  1.00  0.00    -0.248 NA
ATOM     48  C   UNL A   1      37.789  31.302  29.451  1.00  0.00     0.031 C 
ATOM     49  C   UNL A   1      37.101  34.177  33.525  1.00  0.00     0.029 A 
ATOM     50  N   UNL A   1      38.775  32.697  33.584  1.00  0.00    -0.354 N 
ATOM     51  C   UNL A   1      39.351  29.888  30.323  1.00  0.00     0.074 A 
ATOM     52  C   UNL A   1      38.441  30.170  29.236  1.00  0.00     0.031 C 
ATOM     53  C   UNL A   1      37.707  34.303  34.718  1.00  0.00     0.029 A 
ATOM     54  C   UNL A   1      38.798  33.338  34.799  1.00  0.00     0.049 A 
ATOM     55  H   UNL A   1      39.408  31.985  33.340  1.00  0.00     0.167 HD
ATOM     56  C   UNL A   1      40.277  28.902  30.301  1.00  0.00     0.037 A 
ATOM     57  C   UNL A   1      39.613  33.160  35.856  1.00  0.00     0.037 A 
ATOM     58  C   UNL A   1      41.227  28.677  31.354  1.00  0.00     0.049 A 
ATOM     59  C   UNL A   1      40.701  32.123  35.767  1.00  0.00     0.074 A 
ATOM     60  C   UNL A   1      42.245  27.743  31.418  1.00  0.00     0.029 A 
ATOM     61  N   UNL A   1      41.290  29.423  32.522  1.00  0.00    -0.354 N 
ATOM     62  N   UNL A   1      40.949  31.268  34.806  1.00  0.00    -0.248 NA
ATOM     63  C   UNL A   1      41.630  32.039  36.902  1.00  0.00     0.031 C 
ATOM     64  C   UNL A   1      42.921  27.919  32.631  1.00  0.00     0.029 A 
ATOM     65  C   UNL A   1      42.341  28.982  33.306  1.00  0.00     0.049 A 
ATOM     66  H   UNL A   1      40.677  30.156  32.758  1.00  0.00     0.167 HD
ATOM     67  C   UNL A   1      42.077  30.564  35.204  1.00  0.00     0.074 A 
ATOM     68  C   UNL A   1      42.472  31.103  36.489  1.00  0.00     0.031 C 
ATOM     69  C   UNL A   1      42.727  29.559  34.568  1.00  0.00     0.037 A 
BRANCH  56  70
ATOM     70  C   UNL A   1      40.321  28.025  29.084  1.00  0.00     0.064 A 
ATOM     71  C   UNL A   1      41.060  28.386  27.947  1.00  0.00     0.173 A 
ATOM     72  C   UNL A   1      39.621  26.810  29.051  1.00  0.00     0.173 A 
ATOM     73  F   UNL A   1      41.731  29.548  27.920  1.00  0.00    -0.203 F 
ATOM     74  C   UNL A   1      41.066  27.584  26.809  1.00  0.00     0.198 A 
ATOM     75  C   UNL A   1      39.656  25.994  27.924  1.00  0.00     0.198 A 
ATOM     76  F   UNL A   1      38.900  26.415  30.112  1.00  0.00    -0.203 F 
ATOM     77  F   UNL A   1      41.729  27.983  25.715  1.00  0.00    -0.200 F 
ATOM     78  C   UNL A   1      40.370  26.385  26.801  1.00  0.00     0.200 A 
ATOM     79  F   UNL A   1      38.991  24.830  27.919  1.00  0.00    -0.200 F 
ATOM     80  F   UNL A   1      40.378  25.613  25.706  1.00  0.00    -0.200 F 
ENDBRANCH  56  70
BRANCH  57  81
ATOM     81  C   UNL A   1      39.466  34.014  37.062  1.00  0.00     0.064 A 
ATOM     82  C   UNL A   1      40.035  35.294  37.107  1.00  0.00     0.173 A 
ATOM     83  C   UNL A   1      38.759  33.575  38.191  1.00  0.00     0.173 A 
ATOM     84  F   UNL A   1      40.735  35.751  36.056  1.00  0.00    -0.203 F 
ATOM     85  C   UNL A   1      39.927  36.094  38.242  1.00  0.00     0.198 A 
ATOM     86  C   UNL A   1      38.629  34.386  39.317  1.00  0.00     0.198 A 
ATOM     87  F   UNL A   1      38.187  32.363  38.195  1.00  0.00    -0.203 F 
ATOM     88  F   UNL A   1      40.519  37.295  38.273  1.00  0.00    -0.200 F 
ATOM     89  C   UNL A   1      39.220  35.640  39.345  1.00  0.00     0.200 A 
ATOM     90  F   UNL A   1      37.933  33.951  40.376  1.00  0.00    -0.200 F 
ATOM     91  F   UNL A   1      39.114  36.410  40.437  1.00  0.00    -0.200 F 
ENDBRANCH  57  81
BRANCH  69  92
ATOM     92  C   UNL A   1      43.956  29.014  35.226  1.00  0.00     0.064 A 
ATOM     93  C   UNL A   1      45.229  29.529  34.944  1.00  0.00     0.173 A 
ATOM     94  C   UNL A   1      43.850  27.998  36.187  1.00  0.00     0.173 A 
ATOM     95  F   UNL A   1      45.378  30.492  34.023  1.00  0.00    -0.203 F 
ATOM     96  C   UNL A   1      46.358  29.029  35.588  1.00  0.00     0.198 A 
ATOM     97  C   UNL A   1      44.977  27.518  36.846  1.00  0.00     0.198 A 
ATOM     98  F   UNL A   1      42.651  27.479  36.494  1.00  0.00    -0.203 F 
ATOM     99  F   UNL A   1      47.570  29.508  35.276  1.00  0.00    -0.200 F 
ATOM    100  C   UNL A   1      46.230  28.030  36.542  1.00  0.00     0.200 A 
ATOM    101  F   UNL A   1      44.852  26.560  37.775  1.00  0.00    -0.200 F 
ATOM    102  F   UNL A   1      47.317  27.556  37.165  1.00  0.00    -0.200 F 
ENDBRANCH  69  92
ENDBRANCH  43  44
ENDBRANCH  35  38
ENDBRANCH  33  34
ENDBRANCH  32  33
ENDBRANCH   1  32
TORSDOF 14
ENDMDL
MODEL 3
REMARK VINA RESULT:     -13.6      5.530     11.461
REMARK SMILES Cc1ccc(S(=O)(=O)N2CCN(C(=O)[C@H]3CCCC[C@H]3C(=O)NCCCCNC(=O)c3ccc(-c4c5nc(c(-c6c(F)c(F)c(F)c(F)c6F)c6ccc([nH]6)c(-c6c(F)c(F)c(F)c(F)c6F)c6nc(c(-c7c(F)c(F)c(F)c(F)c7F)c7ccc4[nH]7)C=C6)C=C5)cc3)CC2)cc1C
REMARK SMILES IDX 25 1 24 2 23 3 21 4 22 5 20 7 15 8 16 9 17 10 19 11 18 12
REMARK SMILES IDX 13 13 9 14 10 15 95 16 11 17 94 18 12 19 14 20 6 21 7 22
REMARK SMILES IDX 8 23 5 24 1 25 2 26 3 27 97 28 4 29 96 30 98 31 26 32 27 33
REMARK SMILES IDX 28 34 29 35 30 37 31 38 32 39 93 40 33 41 92 42 34 43 35 44
REMARK SMILES IDX 36 45 86 46 37 47 91 48 85 49 87 50 38 51 90 52 84 53 83 54
REMARK SMILES IDX 39 56 71 57 51 58 70 59 52 60 55 61 69 62 88 63 53 64 54 65
REMARK SMILES IDX 68 67 89 68 56 69 40 70 41 71 49 72 42 73 43 74 47 75 50 76
REMARK SMILES IDX 44 77 45 78 48 79 46 80 72 81 73 82 81 83 74 84 75 85 79 86
REMARK SMILES IDX 82 87 76 88 77 89 80 90 78 91 57 92 58 93 66 94 59 95 60 96
REMARK SMILES IDX 64 97 67 98 61 99 62 100 65 101 63 102
REMARK H PARENT 23 6 28 36 87 55 55 66
REMARK Flexibility Score: inf
ROOT
ATOM      1  C   UNL A   1      40.541  21.342  26.132  1.00  0.00     0.023 C 
ENDROOT
BRANCH   1   2
ATOM      2  C   UNL A   1      39.089  21.751  26.363  1.00  0.00     0.116 C 
BRANCH   2   3
ATOM      3  N   UNL A   1      38.450  22.203  25.147  1.00  0.00    -0.356 N 
ATOM      4  C   UNL A   1      37.205  21.979  24.649  1.00  0.00     0.223 C 
ATOM      5  O   UNL A   1      36.981  22.389  23.505  1.00  0.00    -0.275 OA
ATOM      6  H   UNL A   1      39.017  22.773  24.579  1.00  0.00     0.163 HD
BRANCH   4   7
ATOM      7  C   UNL A   1      36.076  21.307  25.445  1.00  0.00     0.091 C 
ATOM      8  C   UNL A   1      35.204  22.221  26.356  1.00  0.00     0.091 C 
ATOM      9  C   UNL A   1      34.030  21.463  26.991  1.00  0.00     0.014 C 
ATOM     10  C   UNL A   1      33.278  20.586  26.003  1.00  0.00     0.001 C 
ATOM     11  C   UNL A   1      35.336  20.232  24.626  1.00  0.00     0.014 C 
ATOM     12  C   UNL A   1      34.218  19.553  25.401  1.00  0.00     0.001 C 
BRANCH   8  13
ATOM     13  C   UNL A   1      34.882  23.612  25.809  1.00  0.00     0.226 C 
ATOM     14  N   UNL A   1      31.707  25.614  24.010  1.00  0.00    -0.194 NA
ATOM     15  C   UNL A   1      32.542  24.834  23.094  1.00  0.00     0.124 C 
ATOM     16  C   UNL A   1      31.371  24.912  25.260  1.00  0.00     0.124 C 
ATOM     17  C   UNL A   1      33.822  24.415  23.809  1.00  0.00     0.136 C 
ATOM     18  C   UNL A   1      32.633  24.422  25.988  1.00  0.00     0.136 C 
ATOM     19  N   UNL A   1      33.668  23.809  25.137  1.00  0.00    -0.340 N 
ATOM     20  O   UNL A   1      35.613  24.572  26.050  1.00  0.00    -0.275 OA
BRANCH  14  21
ATOM     21  S   UNL A   1      31.257  27.192  23.686  1.00  0.00     0.243 S 
ATOM     22  O   UNL A   1      29.854  27.333  24.028  1.00  0.00    -0.207 OA
ATOM     23  O   UNL A   1      31.743  27.507  22.361  1.00  0.00    -0.207 OA
BRANCH  21  24
ATOM     24  C   UNL A   1      32.146  28.259  24.805  1.00  0.00     0.082 A 
ATOM     25  C   UNL A   1      34.126  30.868  27.626  1.00  0.00     0.044 C 
ATOM     26  C   UNL A   1      33.415  30.000  26.625  1.00  0.00    -0.048 A 
ATOM     27  C   UNL A   1      34.029  28.807  26.211  1.00  0.00     0.005 A 
ATOM     28  C   UNL A   1      32.145  30.328  26.111  1.00  0.00    -0.047 A 
ATOM     29  C   UNL A   1      33.397  27.942  25.316  1.00  0.00     0.022 A 
ATOM     30  C   UNL A   1      31.528  29.456  25.191  1.00  0.00     0.025 A 
ATOM     31  C   UNL A   1      31.403  31.578  26.501  1.00  0.00     0.044 C 
ENDBRANCH  21  24
ENDBRANCH  14  21
ENDBRANCH   8  13
ENDBRANCH   4   7
ENDBRANCH   2   3
ENDBRANCH   1   2
BRANCH   1  32
ATOM     32  C   UNL A   1      40.826  19.856  26.120  1.00  0.00     0.023 C 
BRANCH  32  33
ATOM     33  C   UNL A   1      42.184  19.485  26.689  1.00  0.00     0.116 C 
BRANCH  33  34
ATOM     34  N   UNL A   1      43.082  18.850  25.724  1.00  0.00    -0.352 N 
ATOM     35  C   UNL A   1      44.062  19.404  24.933  1.00  0.00     0.251 C 
ATOM     36  H   UNL A   1      42.967  17.877  25.626  1.00  0.00     0.163 HD
ATOM     37  O   UNL A   1      44.646  18.724  24.096  1.00  0.00    -0.269 OA
BRANCH  35  38
ATOM     38  C   UNL A   1      44.381  20.834  25.090  1.00  0.00     0.039 A 
ATOM     39  C   UNL A   1      43.778  21.775  24.253  1.00  0.00     0.014 A 
ATOM     40  C   UNL A   1      45.220  21.240  26.126  1.00  0.00     0.014 A 
ATOM     41  C   UNL A   1      43.944  23.134  24.524  1.00  0.00     0.010 A 
ATOM     42  C   UNL A   1      45.273  22.578  26.472  1.00  0.00     0.010 A 
ATOM     43  C   UNL A   1      44.649  23.543  25.667  1.00  0.00    -0.014 A 
BRANCH  43  44
ATOM     44  C   UNL A   1      44.806  24.969  26.037  1.00  0.00     0.031 A 
ATOM     45  C   UNL A   1      46.158  25.615  25.890  1.00  0.00     0.074 A 
ATOM     46  C   UNL A   1      43.786  25.641  26.605  1.00  0.00     0.049 A 
ATOM     47  N   UNL A   1      46.578  26.774  26.327  1.00  0.00    -0.248 NA
ATOM     48  C   UNL A   1      47.196  24.818  25.213  1.00  0.00     0.031 C 
ATOM     49  C   UNL A   1      42.452  25.098  26.872  1.00  0.00     0.029 A 
ATOM     50  N   UNL A   1      43.721  26.926  27.079  1.00  0.00    -0.354 N 
ATOM     51  C   UNL A   1      47.933  26.818  26.022  1.00  0.00     0.074 A 
ATOM     52  C   UNL A   1      48.279  25.548  25.426  1.00  0.00     0.031 C 
ATOM     53  C   UNL A   1      41.694  26.052  27.438  1.00  0.00     0.029 A 
ATOM     54  C   UNL A   1      42.497  27.259  27.604  1.00  0.00     0.049 A 
ATOM     55  H   UNL A   1      44.480  27.551  27.046  1.00  0.00     0.167 HD
ATOM     56  C   UNL A   1      48.802  27.841  26.188  1.00  0.00     0.037 A 
ATOM     57  C   UNL A   1      42.077  28.413  28.157  1.00  0.00     0.037 A 
ATOM     58  C   UNL A   1      48.431  29.126  26.711  1.00  0.00     0.049 A 
ATOM     59  C   UNL A   1      43.036  29.570  28.239  1.00  0.00     0.074 A 
ATOM     60  C   UNL A   1      49.214  30.255  26.876  1.00  0.00     0.029 A 
ATOM     61  N   UNL A   1      47.150  29.460  27.128  1.00  0.00    -0.354 N 
ATOM     62  N   UNL A   1      44.305  29.616  27.912  1.00  0.00    -0.248 NA
ATOM     63  C   UNL A   1      42.502  30.839  28.751  1.00  0.00     0.031 C 
ATOM     64  C   UNL A   1      48.407  31.271  27.401  1.00  0.00     0.029 A 
ATOM     65  C   UNL A   1      47.116  30.782  27.533  1.00  0.00     0.049 A 
ATOM     66  H   UNL A   1      46.380  28.846  27.135  1.00  0.00     0.167 HD
ATOM     67  C   UNL A   1      44.714  30.920  28.150  1.00  0.00     0.074 A 
ATOM     68  C   UNL A   1      43.554  31.637  28.637  1.00  0.00     0.031 C 
ATOM     69  C   UNL A   1      45.938  31.475  27.986  1.00  0.00     0.037 A 
BRANCH  56  70
ATOM     70  C   UNL A   1      50.224  27.613  25.767  1.00  0.00     0.064 A 
ATOM     71  C   UNL A   1      50.606  27.672  24.417  1.00  0.00     0.173 A 
ATOM     72  C   UNL A   1      51.217  27.335  26.716  1.00  0.00     0.173 A 
ATOM     73  F   UNL A   1      49.689  27.914  23.467  1.00  0.00    -0.203 F 
ATOM     74  C   UNL A   1      51.919  27.423  24.030  1.00  0.00     0.198 A 
ATOM     75  C   UNL A   1      52.537  27.119  26.330  1.00  0.00     0.198 A 
ATOM     76  F   UNL A   1      50.908  27.269  28.021  1.00  0.00    -0.203 F 
ATOM     77  F   UNL A   1      52.244  27.422  22.731  1.00  0.00    -0.200 F 
ATOM     78  C   UNL A   1      52.886  27.153  24.988  1.00  0.00     0.200 A 
ATOM     79  F   UNL A   1      53.473  26.867  27.256  1.00  0.00    -0.200 F 
ATOM     80  F   UNL A   1      54.150  26.916  24.615  1.00  0.00    -0.200 F 
ENDBRANCH  56  70
BRANCH  57  81
ATOM     81  C   UNL A   1      40.674  28.548  28.625  1.00  0.00     0.064 A 
ATOM     82  C   UNL A   1      39.670  28.998  27.756  1.00  0.00     0.173 A 
ATOM     83  C   UNL A   1      40.305  28.232  29.940  1.00  0.00     0.173 A 
ATOM     84  F   UNL A   1      39.978  29.328  26.492  1.00  0.00    -0.203 F 
ATOM     85  C   UNL A   1      38.355  29.154  28.190  1.00  0.00     0.198 A 
ATOM     86  C   UNL A   1      38.984  28.363  30.367  1.00  0.00     0.198 A 
ATOM     87  F   UNL A   1      41.225  27.786  30.807  1.00  0.00    -0.203 F 
ATOM     88  F   UNL A   1      37.426  29.630  27.351  1.00  0.00    -0.200 F 
ATOM     89  C   UNL A   1      38.013  28.832  29.495  1.00  0.00     0.200 A 
ATOM     90  F   UNL A   1      38.653  28.038  31.624  1.00  0.00    -0.200 F 
ATOM     91  F   UNL A   1      36.748  28.980  29.913  1.00  0.00    -0.200 F 
ENDBRANCH  57  81
BRANCH  69  92
ATOM     92  C   UNL A   1      46.074  32.936  28.287  1.00  0.00     0.064 A 
ATOM     93  C   UNL A   1      46.425  33.393  29.564  1.00  0.00     0.173 A 
ATOM     94  C   UNL A   1      45.898  33.884  27.268  1.00  0.00     0.173 A 
ATOM     95  F   UNL A   1      46.590  32.522  30.570  1.00  0.00    -0.203 F 
ATOM     96  C   UNL A   1      46.574  34.754  29.817  1.00  0.00     0.198 A 
ATOM     97  C   UNL A   1      46.072  35.242  27.519  1.00  0.00     0.198 A 
ATOM     98  F   UNL A   1      45.567  33.493  26.028  1.00  0.00    -0.203 F 
ATOM     99  F   UNL A   1      46.872  35.173  31.055  1.00  0.00    -0.200 F 
ATOM    100  C   UNL A   1      46.404  35.675  28.794  1.00  0.00     0.200 A 
ATOM    101  F   UNL A   1      45.918  36.131  26.528  1.00  0.00    -0.200 F 
ATOM    102  F   UNL A   1      46.556  36.984  29.039  1.00  0.00    -0.200 F 
ENDBRANCH  69  92
ENDBRANCH  43  44
ENDBRANCH  35  38
ENDBRANCH  33  34
ENDBRANCH  32  33
ENDBRANCH   1  32
TORSDOF 14
ENDMDL
