MODEL 1
REMARK VINA RESULT:     -12.1      0.000      0.000
REMARK SMILES C[C@H](C(=O)NCCCCNC(=O)c1ccc(-c2c3nc(c(-c4c(F)c(F)c(F)c(F)c4F)c4ccc([nH]4)c(-c4c(F)c(F)c(F)c(F)c4F)c4nc(c(-c5c(F)c(F)c(F)c(F)c5F)c5ccc2[nH]5)C=C4)C=C3)cc1)[C@@H](C)Nc1ccccc1Oc1ccccc1
REMARK SMILES IDX 6 1 5 2 3 3 4 4 2 6 1 7 76 8 77 9 78 10 79 12 80 13 84 14
REMARK SMILES IDX 81 15 83 16 82 17 85 18 86 19 87 20 91 21 88 22 90 23 89 24
REMARK SMILES IDX 7 25 8 26 9 27 10 28 11 29 12 31 13 32 14 33 75 34 15 35
REMARK SMILES IDX 74 36 16 37 17 38 18 39 68 40 19 41 73 42 67 43 69 44 20 45
REMARK SMILES IDX 72 46 66 47 65 48 21 50 53 51 33 52 52 53 34 54 37 55 51 56
REMARK SMILES IDX 70 57 35 58 36 59 50 61 71 62 38 63 22 64 23 65 31 66 24 67
REMARK SMILES IDX 25 68 29 69 32 70 26 71 27 72 30 73 28 74 54 75 55 76 63 77
REMARK SMILES IDX 56 78 57 79 61 80 64 81 58 82 59 83 62 84 60 85 39 86 40 87
REMARK SMILES IDX 48 88 41 89 42 90 46 91 49 92 43 93 44 94 47 95 45 96
REMARK H PARENT 5 5 78 11 10 30 69 49 37 60
REMARK Flexibility Score: inf
ROOT
ATOM      1  C   UNL A   1      31.374  27.585  25.711  1.00  0.00     0.116 C 
ENDROOT
BRANCH   1   2
ATOM      2  N   UNL A   1      32.490  27.222  24.861  1.00  0.00    -0.356 N 
ATOM      3  C   UNL A   1      32.792  26.078  24.192  1.00  0.00     0.224 C 
ATOM      4  O   UNL A   1      33.858  26.082  23.569  1.00  0.00    -0.275 OA
ATOM      5  H   UNL A   1      33.155  27.940  24.748  1.00  0.00     0.163 HD
BRANCH   3   6
ATOM      6  C   UNL A   1      31.861  24.859  24.199  1.00  0.00     0.097 C 
ATOM      7  C   UNL A   1      31.547  24.525  22.731  1.00  0.00     0.020 C 
BRANCH   6   8
ATOM      8  C   UNL A   1      32.547  23.679  24.938  1.00  0.00     0.088 C 
ATOM      9  C   UNL A   1      31.524  22.671  25.468  1.00  0.00     0.031 C 
BRANCH   8  10
ATOM     10  N   UNL A   1      33.467  22.932  24.084  1.00  0.00    -0.379 N 
ATOM     11  H   UNL A   1      33.170  22.725  23.168  1.00  0.00     0.160 HD
BRANCH  10  12
ATOM     12  C   UNL A   1      34.733  22.488  24.466  1.00  0.00     0.078 A 
ATOM     13  C   UNL A   1      35.746  23.473  24.438  1.00  0.00     0.029 A 
ATOM     14  C   UNL A   1      35.110  21.202  24.919  1.00  0.00     0.150 A 
ATOM     15  C   UNL A   1      37.062  23.209  24.822  1.00  0.00     0.002 A 
ATOM     16  C   UNL A   1      36.443  20.935  25.285  1.00  0.00     0.049 A 
ATOM     17  C   UNL A   1      37.415  21.933  25.232  1.00  0.00     0.004 A 
BRANCH  14  18
ATOM     18  O   UNL A   1      34.204  20.267  25.378  1.00  0.00    -0.455 OA
BRANCH  18  19
ATOM     19  C   UNL A   1      33.824  19.182  24.624  1.00  0.00     0.127 A 
ATOM     20  C   UNL A   1      32.624  19.392  23.927  1.00  0.00     0.047 A 
ATOM     21  C   UNL A   1      34.535  18.001  24.424  1.00  0.00     0.047 A 
ATOM     22  C   UNL A   1      32.179  18.480  22.975  1.00  0.00     0.004 A 
ATOM     23  C   UNL A   1      34.078  17.076  23.472  1.00  0.00     0.004 A 
ATOM     24  C   UNL A   1      32.914  17.324  22.739  1.00  0.00     0.000 A 
ENDBRANCH  18  19
ENDBRANCH  14  18
ENDBRANCH  10  12
ENDBRANCH   8  10
ENDBRANCH   6   8
ENDBRANCH   3   6
ENDBRANCH   1   2
BRANCH   1  25
ATOM     25  C   UNL A   1      31.846  28.120  27.067  1.00  0.00     0.023 C 
BRANCH  25  26
ATOM     26  C   UNL A   1      31.759  29.633  27.239  1.00  0.00     0.023 C 
BRANCH  26  27
ATOM     27  C   UNL A   1      32.820  30.401  26.476  1.00  0.00     0.116 C 
BRANCH  27  28
ATOM     28  N   UNL A   1      32.793  31.822  26.784  1.00  0.00    -0.352 N 
ATOM     29  C   UNL A   1      33.601  32.551  27.621  1.00  0.00     0.251 C 
ATOM     30  H   UNL A   1      32.092  32.338  26.324  1.00  0.00     0.163 HD
ATOM     31  O   UNL A   1      33.306  33.709  27.896  1.00  0.00    -0.269 OA
BRANCH  29  32
ATOM     32  C   UNL A   1      34.820  31.942  28.195  1.00  0.00     0.039 A 
ATOM     33  C   UNL A   1      34.779  30.608  28.611  1.00  0.00     0.014 A 
ATOM     34  C   UNL A   1      35.987  32.691  28.371  1.00  0.00     0.014 A 
ATOM     35  C   UNL A   1      35.907  30.028  29.191  1.00  0.00     0.010 A 
ATOM     36  C   UNL A   1      37.140  32.084  28.844  1.00  0.00     0.010 A 
ATOM     37  C   UNL A   1      37.096  30.764  29.309  1.00  0.00    -0.014 A 
BRANCH  37  38
ATOM     38  C   UNL A   1      38.272  30.223  30.026  1.00  0.00     0.031 A 
ATOM     39  C   UNL A   1      38.499  30.617  31.462  1.00  0.00     0.074 A 
ATOM     40  C   UNL A   1      39.150  29.433  29.382  1.00  0.00     0.049 A 
ATOM     41  N   UNL A   1      39.497  30.327  32.257  1.00  0.00    -0.248 NA
ATOM     42  C   UNL A   1      37.488  31.498  32.073  1.00  0.00     0.031 C 
ATOM     43  C   UNL A   1      39.062  29.039  27.975  1.00  0.00     0.029 A 
ATOM     44  N   UNL A   1      40.294  28.825  29.828  1.00  0.00    -0.354 N 
ATOM     45  C   UNL A   1      39.252  31.023  33.434  1.00  0.00     0.074 A 
ATOM     46  C   UNL A   1      38.050  31.798  33.232  1.00  0.00     0.031 C 
ATOM     47  C   UNL A   1      40.088  28.223  27.684  1.00  0.00     0.029 A 
ATOM     48  C   UNL A   1      40.917  28.059  28.874  1.00  0.00     0.049 A 
ATOM     49  H   UNL A   1      40.636  28.928  30.745  1.00  0.00     0.167 HD
ATOM     50  C   UNL A   1      39.952  30.994  34.594  1.00  0.00     0.037 A 
ATOM     51  C   UNL A   1      42.024  27.301  28.966  1.00  0.00     0.037 A 
ATOM     52  C   UNL A   1      41.104  30.160  34.805  1.00  0.00     0.049 A 
ATOM     53  C   UNL A   1      42.734  27.215  30.290  1.00  0.00     0.074 A 
ATOM     54  C   UNL A   1      41.850  29.988  35.955  1.00  0.00     0.029 A 
ATOM     55  N   UNL A   1      41.663  29.339  33.835  1.00  0.00    -0.354 N 
ATOM     56  N   UNL A   1      42.463  27.828  31.417  1.00  0.00    -0.248 NA
ATOM     57  C   UNL A   1      43.894  26.316  30.360  1.00  0.00     0.031 C 
ATOM     58  C   UNL A   1      42.877  29.080  35.675  1.00  0.00     0.029 A 
ATOM     59  C   UNL A   1      42.745  28.657  34.361  1.00  0.00     0.049 A 
ATOM     60  H   UNL A   1      41.339  29.257  32.909  1.00  0.00     0.167 HD
ATOM     61  C   UNL A   1      43.390  27.362  32.338  1.00  0.00     0.074 A 
ATOM     62  C   UNL A   1      44.226  26.407  31.639  1.00  0.00     0.031 C 
ATOM     63  C   UNL A   1      43.540  27.694  33.645  1.00  0.00     0.037 A 
BRANCH  50  64
ATOM     64  C   UNL A   1      39.478  31.873  35.714  1.00  0.00     0.064 A 
ATOM     65  C   UNL A   1      40.001  33.161  35.915  1.00  0.00     0.173 A 
ATOM     66  C   UNL A   1      38.486  31.426  36.599  1.00  0.00     0.173 A 
ATOM     67  F   UNL A   1      40.964  33.632  35.109  1.00  0.00    -0.203 F 
ATOM     68  C   UNL A   1      39.578  33.950  36.983  1.00  0.00     0.198 A 
ATOM     69  C   UNL A   1      38.041  32.231  37.646  1.00  0.00     0.198 A 
ATOM     70  F   UNL A   1      37.948  30.205  36.453  1.00  0.00    -0.203 F 
ATOM     71  F   UNL A   1      40.141  35.147  37.192  1.00  0.00    -0.200 F 
ATOM     72  C   UNL A   1      38.594  33.486  37.843  1.00  0.00     0.200 A 
ATOM     73  F   UNL A   1      37.082  31.786  38.471  1.00  0.00    -0.200 F 
ATOM     74  F   UNL A   1      38.188  34.246  38.870  1.00  0.00    -0.200 F 
ENDBRANCH  50  64
BRANCH  51  75
ATOM     75  C   UNL A   1      42.477  26.505  27.797  1.00  0.00     0.064 A 
ATOM     76  C   UNL A   1      43.461  27.003  26.932  1.00  0.00     0.173 A 
ATOM     77  C   UNL A   1      41.951  25.235  27.524  1.00  0.00     0.173 A 
ATOM     78  F   UNL A   1      43.984  28.220  27.143  1.00  0.00    -0.203 F 
ATOM     79  C   UNL A   1      43.887  26.271  25.825  1.00  0.00     0.198 A 
ATOM     80  C   UNL A   1      42.395  24.491  26.432  1.00  0.00     0.198 A 
ATOM     81  F   UNL A   1      41.015  24.709  28.328  1.00  0.00    -0.203 F 
ATOM     82  F   UNL A   1      44.799  26.789  24.993  1.00  0.00    -0.200 F 
ATOM     83  C   UNL A   1      43.357  25.013  25.579  1.00  0.00     0.200 A 
ATOM     84  F   UNL A   1      41.892  23.271  26.205  1.00  0.00    -0.200 F 
ATOM     85  F   UNL A   1      43.769  24.307  24.518  1.00  0.00    -0.200 F 
ENDBRANCH  51  75
BRANCH  63  86
ATOM     86  C   UNL A   1      44.611  26.976  34.410  1.00  0.00     0.064 A 
ATOM     87  C   UNL A   1      45.909  27.493  34.522  1.00  0.00     0.173 A 
ATOM     88  C   UNL A   1      44.319  25.772  35.069  1.00  0.00     0.173 A 
ATOM     89  F   UNL A   1      46.237  28.634  33.899  1.00  0.00    -0.203 F 
ATOM     90  C   UNL A   1      46.887  26.813  35.241  1.00  0.00     0.198 A 
ATOM     91  C   UNL A   1      45.291  25.110  35.811  1.00  0.00     0.198 A 
ATOM     92  F   UNL A   1      43.087  25.244  34.999  1.00  0.00    -0.203 F 
ATOM     93  F   UNL A   1      48.136  27.297  35.294  1.00  0.00    -0.200 F 
ATOM     94  C   UNL A   1      46.576  25.626  35.889  1.00  0.00     0.200 A 
ATOM     95  F   UNL A   1      44.987  23.970  36.447  1.00  0.00    -0.200 F 
ATOM     96  F   UNL A   1      47.519  24.973  36.584  1.00  0.00    -0.200 F 
ENDBRANCH  63  86
ENDBRANCH  37  38
ENDBRANCH  29  32
ENDBRANCH  27  28
ENDBRANCH  26  27
ENDBRANCH  25  26
ENDBRANCH   1  25
TORSDOF 16
ENDMDL
MODEL 2
REMARK VINA RESULT:     -12.1      4.703      8.807
REMARK SMILES C[C@H](C(=O)NCCCCNC(=O)c1ccc(-c2c3nc(c(-c4c(F)c(F)c(F)c(F)c4F)c4ccc([nH]4)c(-c4c(F)c(F)c(F)c(F)c4F)c4nc(c(-c5c(F)c(F)c(F)c(F)c5F)c5ccc2[nH]5)C=C4)C=C3)cc1)[C@@H](C)Nc1ccccc1Oc1ccccc1
REMARK SMILES IDX 6 1 5 2 3 3 4 4 2 6 1 7 76 8 77 9 78 10 79 12 80 13 84 14
REMARK SMILES IDX 81 15 83 16 82 17 85 18 86 19 87 20 91 21 88 22 90 23 89 24
REMARK SMILES IDX 7 25 8 26 9 27 10 28 11 29 12 31 13 32 14 33 75 34 15 35
REMARK SMILES IDX 74 36 16 37 17 38 18 39 68 40 19 41 73 42 67 43 69 44 20 45
REMARK SMILES IDX 72 46 66 47 65 48 21 50 53 51 33 52 52 53 34 54 37 55 51 56
REMARK SMILES IDX 70 57 35 58 36 59 50 61 71 62 38 63 22 64 23 65 31 66 24 67
REMARK SMILES IDX 25 68 29 69 32 70 26 71 27 72 30 73 28 74 54 75 55 76 63 77
REMARK SMILES IDX 56 78 57 79 61 80 64 81 58 82 59 83 62 84 60 85 39 86 40 87
REMARK SMILES IDX 48 88 41 89 42 90 46 91 49 92 43 93 44 94 47 95 45 96
REMARK H PARENT 5 5 78 11 10 30 69 49 37 60
REMARK Flexibility Score: inf
ROOT
ATOM      1  C   UNL A   1      36.998  22.125  25.403  1.00  0.00     0.116 C 
ENDROOT
BRANCH   1   2
ATOM      2  N   UNL A   1      35.966  21.910  26.397  1.00  0.00    -0.356 N 
ATOM      3  C   UNL A   1      34.680  21.477  26.297  1.00  0.00     0.224 C 
ATOM      4  O   UNL A   1      34.041  21.434  27.352  1.00  0.00    -0.275 OA
ATOM      5  H   UNL A   1      36.248  22.116  27.317  1.00  0.00     0.163 HD
BRANCH   3   6
ATOM      6  C   UNL A   1      34.063  21.057  24.957  1.00  0.00     0.097 C 
ATOM      7  C   UNL A   1      33.489  19.644  25.150  1.00  0.00     0.020 C 
BRANCH   6   8
ATOM      8  C   UNL A   1      32.976  22.083  24.535  1.00  0.00     0.088 C 
ATOM      9  C   UNL A   1      31.630  21.787  25.201  1.00  0.00     0.031 C 
BRANCH   8  10
ATOM     10  N   UNL A   1      33.325  23.456  24.889  1.00  0.00    -0.379 N 
ATOM     11  H   UNL A   1      33.601  23.630  25.818  1.00  0.00     0.160 HD
BRANCH  10  12
ATOM     12  C   UNL A   1      33.298  24.541  24.012  1.00  0.00     0.078 A 
ATOM     13  C   UNL A   1      32.580  24.325  22.815  1.00  0.00     0.029 A 
ATOM     14  C   UNL A   1      33.853  25.829  24.196  1.00  0.00     0.150 A 
ATOM     15  C   UNL A   1      32.425  25.314  21.842  1.00  0.00     0.002 A 
ATOM     16  C   UNL A   1      33.712  26.818  23.203  1.00  0.00     0.049 A 
ATOM     17  C   UNL A   1      33.005  26.559  22.030  1.00  0.00     0.004 A 
BRANCH  14  18
ATOM     18  O   UNL A   1      34.223  26.323  25.431  1.00  0.00    -0.455 OA
BRANCH  18  19
ATOM     19  C   UNL A   1      33.436  27.206  26.133  1.00  0.00     0.127 A 
ATOM     20  C   UNL A   1      34.081  28.423  26.399  1.00  0.00     0.047 A 
ATOM     21  C   UNL A   1      32.101  27.045  26.494  1.00  0.00     0.047 A 
ATOM     22  C   UNL A   1      33.384  29.502  26.936  1.00  0.00     0.004 A 
ATOM     23  C   UNL A   1      31.403  28.129  27.048  1.00  0.00     0.004 A 
ATOM     24  C   UNL A   1      32.038  29.358  27.252  1.00  0.00     0.000 A 
ENDBRANCH  18  19
ENDBRANCH  14  18
ENDBRANCH  10  12
ENDBRANCH   8  10
ENDBRANCH   6   8
ENDBRANCH   3   6
ENDBRANCH   1   2
BRANCH   1  25
ATOM     25  C   UNL A   1      37.144  20.919  24.470  1.00  0.00     0.023 C 
BRANCH  25  26
ATOM     26  C   UNL A   1      38.012  19.783  25.001  1.00  0.00     0.023 C 
BRANCH  26  27
ATOM     27  C   UNL A   1      39.182  20.245  25.844  1.00  0.00     0.116 C 
BRANCH  27  28
ATOM     28  N   UNL A   1      40.200  19.214  25.979  1.00  0.00    -0.352 N 
ATOM     29  C   UNL A   1      41.558  19.340  26.125  1.00  0.00     0.251 C 
ATOM     30  H   UNL A   1      39.864  18.288  25.965  1.00  0.00     0.163 HD
ATOM     31  O   UNL A   1      42.275  18.349  26.036  1.00  0.00    -0.269 OA
BRANCH  29  32
ATOM     32  C   UNL A   1      42.160  20.666  26.382  1.00  0.00     0.039 A 
ATOM     33  C   UNL A   1      42.271  21.114  27.702  1.00  0.00     0.014 A 
ATOM     34  C   UNL A   1      42.569  21.490  25.330  1.00  0.00     0.014 A 
ATOM     35  C   UNL A   1      42.799  22.378  27.963  1.00  0.00     0.010 A 
ATOM     36  C   UNL A   1      43.195  22.698  25.594  1.00  0.00     0.010 A 
ATOM     37  C   UNL A   1      43.266  23.178  26.908  1.00  0.00    -0.014 A 
BRANCH  37  38
ATOM     38  C   UNL A   1      43.720  24.568  27.134  1.00  0.00     0.031 A 
ATOM     39  C   UNL A   1      42.735  25.585  27.651  1.00  0.00     0.074 A 
ATOM     40  C   UNL A   1      44.981  24.924  26.830  1.00  0.00     0.049 A 
ATOM     41  N   UNL A   1      42.891  26.869  27.848  1.00  0.00    -0.248 NA
ATOM     42  C   UNL A   1      41.375  25.099  27.938  1.00  0.00     0.031 C 
ATOM     43  C   UNL A   1      46.000  24.037  26.267  1.00  0.00     0.029 A 
ATOM     44  N   UNL A   1      45.619  26.130  26.950  1.00  0.00    -0.354 N 
ATOM     45  C   UNL A   1      41.644  27.342  28.237  1.00  0.00     0.074 A 
ATOM     46  C   UNL A   1      40.728  26.226  28.188  1.00  0.00     0.031 C 
ATOM     47  C   UNL A   1      47.147  24.721  26.125  1.00  0.00     0.029 A 
ATOM     48  C   UNL A   1      46.936  26.097  26.563  1.00  0.00     0.049 A 
ATOM     49  H   UNL A   1      45.175  26.944  27.282  1.00  0.00     0.167 HD
ATOM     50  C   UNL A   1      41.301  28.591  28.631  1.00  0.00     0.037 A 
ATOM     51  C   UNL A   1      47.864  27.070  26.580  1.00  0.00     0.037 A 
ATOM     52  C   UNL A   1      42.240  29.674  28.747  1.00  0.00     0.049 A 
ATOM     53  C   UNL A   1      47.480  28.427  27.106  1.00  0.00     0.074 A 
ATOM     54  C   UNL A   1      42.027  30.960  29.206  1.00  0.00     0.029 A 
ATOM     55  N   UNL A   1      43.584  29.581  28.416  1.00  0.00    -0.354 N 
ATOM     56  N   UNL A   1      46.315  28.852  27.529  1.00  0.00    -0.248 NA
ATOM     57  C   UNL A   1      48.547  29.434  27.174  1.00  0.00     0.031 C 
ATOM     58  C   UNL A   1      43.240  31.654  29.129  1.00  0.00     0.029 A 
ATOM     59  C   UNL A   1      44.215  30.787  28.661  1.00  0.00     0.049 A 
ATOM     60  H   UNL A   1      44.024  28.776  28.058  1.00  0.00     0.167 HD
ATOM     61  C   UNL A   1      46.514  30.159  27.949  1.00  0.00     0.074 A 
ATOM     62  C   UNL A   1      47.916  30.454  27.738  1.00  0.00     0.031 C 
ATOM     63  C   UNL A   1      45.618  31.039  28.463  1.00  0.00     0.037 A 
BRANCH  50  64
ATOM     64  C   UNL A   1      39.861  28.839  28.977  1.00  0.00     0.064 A 
ATOM     65  C   UNL A   1      38.940  29.301  28.022  1.00  0.00     0.173 A 
ATOM     66  C   UNL A   1      39.392  28.612  30.279  1.00  0.00     0.173 A 
ATOM     67  F   UNL A   1      39.339  29.552  26.766  1.00  0.00    -0.203 F 
ATOM     68  C   UNL A   1      37.617  29.564  28.368  1.00  0.00     0.198 A 
ATOM     69  C   UNL A   1      38.059  28.843  30.614  1.00  0.00     0.198 A 
ATOM     70  F   UNL A   1      40.227  28.168  31.231  1.00  0.00    -0.203 F 
ATOM     71  F   UNL A   1      36.775  30.067  27.455  1.00  0.00    -0.200 F 
ATOM     72  C   UNL A   1      37.176  29.328  29.662  1.00  0.00     0.200 A 
ATOM     73  F   UNL A   1      37.632  28.605  31.862  1.00  0.00    -0.200 F 
ATOM     74  F   UNL A   1      35.902  29.581  29.993  1.00  0.00    -0.200 F 
ENDBRANCH  50  64
BRANCH  51  75
ATOM     75  C   UNL A   1      49.257  26.773  26.162  1.00  0.00     0.064 A 
ATOM     76  C   UNL A   1      49.667  26.987  24.838  1.00  0.00     0.173 A 
ATOM     77  C   UNL A   1      50.208  26.283  27.067  1.00  0.00     0.173 A 
ATOM     78  F   UNL A   1      48.789  27.441  23.931  1.00  0.00    -0.203 F 
ATOM     79  C   UNL A   1      50.969  26.702  24.430  1.00  0.00     0.198 A 
ATOM     80  C   UNL A   1      51.518  26.023  26.665  1.00  0.00     0.198 A 
ATOM     81  F   UNL A   1      49.870  26.072  28.348  1.00  0.00    -0.203 F 
ATOM     82  F   UNL A   1      51.320  26.878  23.150  1.00  0.00    -0.200 F 
ATOM     83  C   UNL A   1      51.894  26.225  25.346  1.00  0.00     0.200 A 
ATOM     84  F   UNL A   1      52.413  25.576  27.555  1.00  0.00    -0.200 F 
ATOM     85  F   UNL A   1      53.147  25.955  24.955  1.00  0.00    -0.200 F 
ENDBRANCH  51  75
BRANCH  63  86
ATOM     86  C   UNL A   1      46.145  32.379  28.881  1.00  0.00     0.064 A 
ATOM     87  C   UNL A   1      46.633  32.608  30.176  1.00  0.00     0.173 A 
ATOM     88  C   UNL A   1      46.194  33.435  27.959  1.00  0.00     0.173 A 
ATOM     89  F   UNL A   1      46.594  31.631  31.093  1.00  0.00    -0.203 F 
ATOM     90  C   UNL A   1      47.122  33.858  30.542  1.00  0.00     0.198 A 
ATOM     91  C   UNL A   1      46.711  34.676  28.321  1.00  0.00     0.198 A 
ATOM     92  F   UNL A   1      45.749  33.261  26.706  1.00  0.00    -0.203 F 
ATOM     93  F   UNL A   1      47.536  34.071  31.799  1.00  0.00    -0.200 F 
ATOM     94  C   UNL A   1      47.166  34.888  29.613  1.00  0.00     0.200 A 
ATOM     95  F   UNL A   1      46.765  35.666  27.420  1.00  0.00    -0.200 F 
ATOM     96  F   UNL A   1      47.641  36.091  29.968  1.00  0.00    -0.200 F 
ENDBRANCH  63  86
ENDBRANCH  37  38
ENDBRANCH  29  32
ENDBRANCH  27  28
ENDBRANCH  26  27
ENDBRANCH  25  26
ENDBRANCH   1  25
TORSDOF 16
ENDMDL
MODEL 3
REMARK VINA RESULT:     -11.9      4.548      8.353
REMARK SMILES C[C@H](C(=O)NCCCCNC(=O)c1ccc(-c2c3nc(c(-c4c(F)c(F)c(F)c(F)c4F)c4ccc([nH]4)c(-c4c(F)c(F)c(F)c(F)c4F)c4nc(c(-c5c(F)c(F)c(F)c(F)c5F)c5ccc2[nH]5)C=C4)C=C3)cc1)[C@@H](C)Nc1ccccc1Oc1ccccc1
REMARK SMILES IDX 6 1 5 2 3 3 4 4 2 6 1 7 76 8 77 9 78 10 79 12 80 13 84 14
REMARK SMILES IDX 81 15 83 16 82 17 85 18 86 19 87 20 91 21 88 22 90 23 89 24
REMARK SMILES IDX 7 25 8 26 9 27 10 28 11 29 12 31 13 32 14 33 75 34 15 35
REMARK SMILES IDX 74 36 16 37 17 38 18 39 68 40 19 41 73 42 67 43 69 44 20 45
REMARK SMILES IDX 72 46 66 47 65 48 21 50 53 51 33 52 52 53 34 54 37 55 51 56
REMARK SMILES IDX 70 57 35 58 36 59 50 61 71 62 38 63 22 64 23 65 31 66 24 67
REMARK SMILES IDX 25 68 29 69 32 70 26 71 27 72 30 73 28 74 54 75 55 76 63 77
REMARK SMILES IDX 56 78 57 79 61 80 64 81 58 82 59 83 62 84 60 85 39 86 40 87
REMARK SMILES IDX 48 88 41 89 42 90 46 91 49 92 43 93 44 94 47 95 45 96
REMARK H PARENT 5 5 78 11 10 30 69 49 37 60
REMARK Flexibility Score: inf
ROOT
ATOM      1  C   UNL A   1      38.061  23.748  26.057  1.00  0.00     0.116 C 
ENDROOT
BRANCH   1   2
ATOM      2  N   UNL A   1      36.756  23.303  26.503  1.00  0.00    -0.356 N 
ATOM      3  C   UNL A   1      35.524  23.378  25.933  1.00  0.00     0.224 C 
ATOM      4  O   UNL A   1      34.591  22.922  26.601  1.00  0.00    -0.275 OA
ATOM      5  H   UNL A   1      36.764  22.864  27.384  1.00  0.00     0.163 HD
BRANCH   3   6
ATOM      6  C   UNL A   1      35.305  23.980  24.539  1.00  0.00     0.097 C 
ATOM      7  C   UNL A   1      34.417  22.996  23.759  1.00  0.00     0.020 C 
BRANCH   6   8
ATOM      8  C   UNL A   1      34.655  25.384  24.671  1.00  0.00     0.088 C 
ATOM      9  C   UNL A   1      33.699  25.676  23.513  1.00  0.00     0.031 C 
BRANCH   8  10
ATOM     10  N   UNL A   1      33.883  25.539  25.901  1.00  0.00    -0.379 N 
ATOM     11  H   UNL A   1      33.762  24.740  26.465  1.00  0.00     0.160 HD
BRANCH  10  12
ATOM     12  C   UNL A   1      33.304  26.730  26.339  1.00  0.00     0.078 A 
ATOM     13  C   UNL A   1      34.058  27.894  26.076  1.00  0.00     0.029 A 
ATOM     14  C   UNL A   1      32.046  26.914  26.961  1.00  0.00     0.150 A 
ATOM     15  C   UNL A   1      33.612  29.173  26.415  1.00  0.00     0.002 A 
ATOM     16  C   UNL A   1      31.609  28.203  27.321  1.00  0.00     0.049 A 
ATOM     17  C   UNL A   1      32.390  29.326  27.054  1.00  0.00     0.004 A 
BRANCH  14  18
ATOM     18  O   UNL A   1      31.040  25.969  26.927  1.00  0.00    -0.455 OA
BRANCH  18  19
ATOM     19  C   UNL A   1      30.758  25.240  25.796  1.00  0.00     0.127 A 
ATOM     20  C   UNL A   1      30.193  26.014  24.771  1.00  0.00     0.047 A 
ATOM     21  C   UNL A   1      31.058  23.901  25.558  1.00  0.00     0.047 A 
ATOM     22  C   UNL A   1      30.009  25.489  23.495  1.00  0.00     0.004 A 
ATOM     23  C   UNL A   1      30.861  23.370  24.273  1.00  0.00     0.004 A 
ATOM     24  C   UNL A   1      30.354  24.167  23.242  1.00  0.00     0.000 A 
ENDBRANCH  18  19
ENDBRANCH  14  18
ENDBRANCH  10  12
ENDBRANCH   8  10
ENDBRANCH   6   8
ENDBRANCH   3   6
ENDBRANCH   1   2
BRANCH   1  25
ATOM     25  C   UNL A   1      39.167  22.782  26.492  1.00  0.00     0.023 C 
BRANCH  25  26
ATOM     26  C   UNL A   1      39.225  21.466  25.722  1.00  0.00     0.023 C 
BRANCH  26  27
ATOM     27  C   UNL A   1      39.512  20.258  26.591  1.00  0.00     0.116 C 
BRANCH  27  28
ATOM     28  N   UNL A   1      40.606  19.455  26.066  1.00  0.00    -0.352 N 
ATOM     29  C   UNL A   1      41.916  19.802  25.843  1.00  0.00     0.251 C 
ATOM     30  H   UNL A   1      40.374  18.527  25.837  1.00  0.00     0.163 HD
ATOM     31  O   UNL A   1      42.649  19.043  25.219  1.00  0.00    -0.269 OA
BRANCH  29  32
ATOM     32  C   UNL A   1      42.442  21.088  26.349  1.00  0.00     0.039 A 
ATOM     33  C   UNL A   1      42.518  21.292  27.730  1.00  0.00     0.014 A 
ATOM     34  C   UNL A   1      42.813  22.111  25.471  1.00  0.00     0.014 A 
ATOM     35  C   UNL A   1      42.975  22.513  28.226  1.00  0.00     0.010 A 
ATOM     36  C   UNL A   1      43.371  23.281  25.962  1.00  0.00     0.010 A 
ATOM     37  C   UNL A   1      43.406  23.515  27.343  1.00  0.00    -0.014 A 
BRANCH  37  38
ATOM     38  C   UNL A   1      43.782  24.863  27.827  1.00  0.00     0.031 A 
ATOM     39  C   UNL A   1      42.693  25.844  28.177  1.00  0.00     0.074 A 
ATOM     40  C   UNL A   1      45.077  25.216  27.899  1.00  0.00     0.049 A 
ATOM     41  N   UNL A   1      42.789  27.096  28.544  1.00  0.00    -0.248 NA
ATOM     42  C   UNL A   1      41.306  25.366  28.048  1.00  0.00     0.031 C 
ATOM     43  C   UNL A   1      46.209  24.367  27.527  1.00  0.00     0.029 A 
ATOM     44  N   UNL A   1      45.659  26.387  28.309  1.00  0.00    -0.354 N 
ATOM     45  C   UNL A   1      41.483  27.558  28.646  1.00  0.00     0.074 A 
ATOM     46  C   UNL A   1      40.614  26.477  28.242  1.00  0.00     0.031 C 
ATOM     47  C   UNL A   1      47.352  25.033  27.761  1.00  0.00     0.029 A 
ATOM     48  C   UNL A   1      47.031  26.361  28.275  1.00  0.00     0.049 A 
ATOM     49  H   UNL A   1      45.141  27.172  28.600  1.00  0.00     0.167 HD
ATOM     50  C   UNL A   1      41.045  28.767  29.070  1.00  0.00     0.037 A 
ATOM     51  C   UNL A   1      47.920  27.303  28.635  1.00  0.00     0.037 A 
ATOM     52  C   UNL A   1      41.918  29.808  29.540  1.00  0.00     0.049 A 
ATOM     53  C   UNL A   1      47.409  28.607  29.187  1.00  0.00     0.074 A 
ATOM     54  C   UNL A   1      41.590  31.044  30.063  1.00  0.00     0.029 A 
ATOM     55  N   UNL A   1      43.303  29.716  29.560  1.00  0.00    -0.354 N 
ATOM     56  N   UNL A   1      46.172  29.015  29.337  1.00  0.00    -0.248 NA
ATOM     57  C   UNL A   1      48.419  29.574  29.636  1.00  0.00     0.031 C 
ATOM     58  C   UNL A   1      42.779  31.712  30.378  1.00  0.00     0.029 A 
ATOM     59  C   UNL A   1      43.845  30.874  30.088  1.00  0.00     0.049 A 
ATOM     60  H   UNL A   1      43.823  28.942  29.244  1.00  0.00     0.167 HD
ATOM     61  C   UNL A   1      46.251  30.265  29.932  1.00  0.00     0.074 A 
ATOM     62  C   UNL A   1      47.660  30.545  30.124  1.00  0.00     0.031 C 
ATOM     63  C   UNL A   1      45.251  31.110  30.288  1.00  0.00     0.037 A 
BRANCH  50  64
ATOM     64  C   UNL A   1      39.564  29.014  29.056  1.00  0.00     0.064 A 
ATOM     65  C   UNL A   1      38.886  29.374  27.880  1.00  0.00     0.173 A 
ATOM     66  C   UNL A   1      38.810  28.889  30.232  1.00  0.00     0.173 A 
ATOM     67  F   UNL A   1      39.561  29.525  26.730  1.00  0.00    -0.203 F 
ATOM     68  C   UNL A   1      37.518  29.638  27.891  1.00  0.00     0.198 A 
ATOM     69  C   UNL A   1      37.436  29.120  30.232  1.00  0.00     0.198 A 
ATOM     70  F   UNL A   1      39.406  28.544  31.384  1.00  0.00    -0.203 F 
ATOM     71  F   UNL A   1      36.907  30.045  26.770  1.00  0.00    -0.200 F 
ATOM     72  C   UNL A   1      36.793  29.504  29.066  1.00  0.00     0.200 A 
ATOM     73  F   UNL A   1      36.736  28.981  31.367  1.00  0.00    -0.200 F 
ATOM     74  F   UNL A   1      35.478  29.758  29.076  1.00  0.00    -0.200 F 
ENDBRANCH  50  64
BRANCH  51  75
ATOM     75  C   UNL A   1      49.375  27.016  28.563  1.00  0.00     0.064 A 
ATOM     76  C   UNL A   1      50.050  26.462  29.659  1.00  0.00     0.173 A 
ATOM     77  C   UNL A   1      50.118  27.276  27.403  1.00  0.00     0.173 A 
ATOM     78  F   UNL A   1      49.384  26.209  30.796  1.00  0.00    -0.203 F 
ATOM     79  C   UNL A   1      51.417  26.197  29.607  1.00  0.00     0.198 A 
ATOM     80  C   UNL A   1      51.481  26.987  27.342  1.00  0.00     0.198 A 
ATOM     81  F   UNL A   1      49.518  27.796  26.322  1.00  0.00    -0.203 F 
ATOM     82  F   UNL A   1      52.043  25.706  30.684  1.00  0.00    -0.200 F 
ATOM     83  C   UNL A   1      52.130  26.456  28.447  1.00  0.00     0.200 A 
ATOM     84  F   UNL A   1      52.165  27.224  26.215  1.00  0.00    -0.200 F 
ATOM     85  F   UNL A   1      53.444  26.198  28.395  1.00  0.00    -0.200 F 
ENDBRANCH  51  75
BRANCH  63  86
ATOM     86  C   UNL A   1      45.647  32.384  30.970  1.00  0.00     0.064 A 
ATOM     87  C   UNL A   1      45.897  33.560  30.247  1.00  0.00     0.173 A 
ATOM     88  C   UNL A   1      45.743  32.435  32.369  1.00  0.00     0.173 A 
ATOM     89  F   UNL A   1      45.830  33.555  28.908  1.00  0.00    -0.203 F 
ATOM     90  C   UNL A   1      46.259  34.734  30.900  1.00  0.00     0.198 A 
ATOM     91  C   UNL A   1      46.077  33.618  33.020  1.00  0.00     0.198 A 
ATOM     92  F   UNL A   1      45.503  31.338  33.103  1.00  0.00    -0.203 F 
ATOM     93  F   UNL A   1      46.543  35.833  30.188  1.00  0.00    -0.200 F 
ATOM     94  C   UNL A   1      46.343  34.764  32.285  1.00  0.00     0.200 A 
ATOM     95  F   UNL A   1      46.146  33.649  34.358  1.00  0.00    -0.200 F 
ATOM     96  F   UNL A   1      46.690  35.897  32.912  1.00  0.00    -0.200 F 
ENDBRANCH  63  86
ENDBRANCH  37  38
ENDBRANCH  29  32
ENDBRANCH  27  28
ENDBRANCH  26  27
ENDBRANCH  25  26
ENDBRANCH   1  25
TORSDOF 16
ENDMDL
