MODEL 1
REMARK VINA RESULT:     -12.9      0.000      0.000
REMARK SMILES Cc1ccccc1N[C@H](C(=O)NCCCCNC(=O)c1ccc(-c2c3nc(c(-c4c(F)c(F)c(F)c(F)c4F)c4ccc([nH]4)c(-c4c(F)c(F)c(F)c(F)c4F)c4nc(c(-c5c(F)c(F)c(F)c(F)c5F)c5ccc2[nH]5)C=C4)C=C3)cc1)c1ccccc1
REMARK SMILES IDX 14 1 13 2 12 3 10 4 11 5 9 7 8 8 7 10 1 11 2 12 3 13 4 14
REMARK SMILES IDX 6 15 5 16 83 17 84 18 88 19 85 20 87 21 86 22 15 23 16 24
REMARK SMILES IDX 17 25 18 26 19 28 20 29 21 30 82 31 22 32 81 33 23 34 24 35
REMARK SMILES IDX 25 36 75 37 26 38 80 39 74 40 76 41 27 42 79 43 73 44 72 45
REMARK SMILES IDX 28 47 60 48 40 49 59 50 41 51 44 52 58 53 77 54 42 55 43 56
REMARK SMILES IDX 57 58 78 59 45 60 29 61 30 62 38 63 31 64 32 65 36 66 39 67
REMARK SMILES IDX 33 68 34 69 37 70 35 71 61 72 62 73 70 74 63 75 64 76 68 77
REMARK SMILES IDX 71 78 65 79 66 80 69 81 67 82 46 83 47 84 55 85 48 86 49 87
REMARK SMILES IDX 53 88 56 89 50 90 51 91 54 92 52 93
REMARK H PARENT 12 6 8 9 17 27 76 46 44 57
REMARK Flexibility Score: inf
ROOT
ATOM      1  C   UNL A   1      31.761  29.309  26.527  1.00  0.00     0.023 C 
ENDROOT
BRANCH   1   2
ATOM      2  C   UNL A   1      31.761  28.079  27.429  1.00  0.00     0.116 C 
BRANCH   2   3
ATOM      3  N   UNL A   1      31.106  26.925  26.838  1.00  0.00    -0.354 N 
ATOM      4  C   UNL A   1      31.692  25.886  26.156  1.00  0.00     0.247 C 
ATOM      5  O   UNL A   1      30.969  24.933  25.844  1.00  0.00    -0.272 OA
ATOM      6  H   UNL A   1      30.128  26.882  26.940  1.00  0.00     0.163 HD
BRANCH   4   7
ATOM      7  C   UNL A   1      33.209  25.909  25.779  1.00  0.00     0.200 C 
BRANCH   7   8
ATOM      8  N   UNL A   1      33.775  24.566  26.069  1.00  0.00    -0.370 N 
ATOM      9  H   UNL A   1      33.286  24.129  26.803  1.00  0.00     0.161 HD
BRANCH   8  10
ATOM     10  C   UNL A   1      34.788  23.758  25.604  1.00  0.00     0.038 A 
ATOM     11  C   UNL A   1      33.098  22.217  24.426  1.00  0.00     0.046 C 
ATOM     12  C   UNL A   1      34.479  22.553  24.930  1.00  0.00    -0.028 A 
ATOM     13  C   UNL A   1      35.492  21.619  24.616  1.00  0.00     0.005 A 
ATOM     14  C   UNL A   1      36.828  21.893  24.878  1.00  0.00     0.000 A 
ATOM     15  C   UNL A   1      36.152  24.054  25.695  1.00  0.00     0.026 A 
ATOM     16  C   UNL A   1      37.161  23.135  25.380  1.00  0.00     0.002 A 
ENDBRANCH   8  10
ENDBRANCH   7   8
BRANCH   7  17
ATOM     17  C   UNL A   1      33.525  26.566  24.446  1.00  0.00    -0.016 A 
ATOM     18  C   UNL A   1      33.289  25.875  23.246  1.00  0.00     0.006 A 
ATOM     19  C   UNL A   1      34.054  27.865  24.358  1.00  0.00     0.006 A 
ATOM     20  C   UNL A   1      33.290  26.556  22.032  1.00  0.00     0.000 A 
ATOM     21  C   UNL A   1      34.075  28.544  23.145  1.00  0.00     0.000 A 
ATOM     22  C   UNL A   1      33.632  27.901  21.997  1.00  0.00     0.000 A 
ENDBRANCH   7  17
ENDBRANCH   4   7
ENDBRANCH   2   3
ENDBRANCH   1   2
BRANCH   1  23
ATOM     23  C   UNL A   1      32.591  30.477  27.058  1.00  0.00     0.023 C 
BRANCH  23  24
ATOM     24  C   UNL A   1      34.076  30.173  27.217  1.00  0.00     0.116 C 
BRANCH  24  25
ATOM     25  N   UNL A   1      34.880  31.282  27.695  1.00  0.00    -0.352 N 
ATOM     26  C   UNL A   1      36.130  31.301  28.296  1.00  0.00     0.251 C 
ATOM     27  H   UNL A   1      34.469  32.169  27.574  1.00  0.00     0.163 HD
ATOM     28  O   UNL A   1      36.545  32.353  28.747  1.00  0.00    -0.269 OA
BRANCH  26  29
ATOM     29  C   UNL A   1      37.023  30.103  28.285  1.00  0.00     0.039 A 
ATOM     30  C   UNL A   1      37.025  29.279  29.425  1.00  0.00     0.014 A 
ATOM     31  C   UNL A   1      37.948  29.859  27.276  1.00  0.00     0.014 A 
ATOM     32  C   UNL A   1      38.073  28.381  29.642  1.00  0.00     0.010 A 
ATOM     33  C   UNL A   1      39.033  29.048  27.526  1.00  0.00     0.010 A 
ATOM     34  C   UNL A   1      39.122  28.352  28.731  1.00  0.00    -0.014 A 
BRANCH  34  35
ATOM     35  C   UNL A   1      40.432  27.788  29.001  1.00  0.00     0.031 A 
ATOM     36  C   UNL A   1      40.846  26.478  28.470  1.00  0.00     0.074 A 
ATOM     37  C   UNL A   1      41.361  28.614  29.530  1.00  0.00     0.049 A 
ATOM     38  N   UNL A   1      41.842  25.806  28.944  1.00  0.00    -0.248 NA
ATOM     39  C   UNL A   1      40.178  25.809  27.357  1.00  0.00     0.031 C 
ATOM     40  C   UNL A   1      42.809  28.458  29.479  1.00  0.00     0.029 A 
ATOM     41  N   UNL A   1      41.154  29.731  30.348  1.00  0.00    -0.354 N 
ATOM     42  C   UNL A   1      42.134  24.817  28.041  1.00  0.00     0.074 A 
ATOM     43  C   UNL A   1      41.024  24.801  27.114  1.00  0.00     0.031 C 
ATOM     44  C   UNL A   1      43.363  29.236  30.418  1.00  0.00     0.029 A 
ATOM     45  C   UNL A   1      42.279  29.820  31.188  1.00  0.00     0.049 A 
ATOM     46  H   UNL A   1      40.377  30.333  30.338  1.00  0.00     0.167 HD
ATOM     47  C   UNL A   1      43.355  24.214  28.077  1.00  0.00     0.037 A 
ATOM     48  C   UNL A   1      42.169  29.768  32.545  1.00  0.00     0.037 A 
ATOM     49  C   UNL A   1      44.211  24.785  29.112  1.00  0.00     0.049 A 
ATOM     50  C   UNL A   1      42.918  28.599  33.129  1.00  0.00     0.074 A 
ATOM     51  C   UNL A   1      45.220  25.733  29.065  1.00  0.00     0.029 A 
ATOM     52  N   UNL A   1      43.861  24.655  30.454  1.00  0.00    -0.354 N 
ATOM     53  N   UNL A   1      43.261  27.555  32.426  1.00  0.00    -0.248 NA
ATOM     54  C   UNL A   1      43.362  28.507  34.514  1.00  0.00     0.031 C 
ATOM     55  C   UNL A   1      45.461  26.192  30.382  1.00  0.00     0.029 A 
ATOM     56  C   UNL A   1      44.611  25.512  31.237  1.00  0.00     0.049 A 
ATOM     57  H   UNL A   1      43.174  24.038  30.797  1.00  0.00     0.167 HD
ATOM     58  C   UNL A   1      43.975  26.687  33.204  1.00  0.00     0.074 A 
ATOM     59  C   UNL A   1      44.003  27.323  34.508  1.00  0.00     0.031 C 
ATOM     60  C   UNL A   1      44.484  25.530  32.688  1.00  0.00     0.037 A 
BRANCH  47  61
ATOM     61  C   UNL A   1      43.840  23.316  26.968  1.00  0.00     0.064 A 
ATOM     62  C   UNL A   1      44.772  23.760  26.006  1.00  0.00     0.173 A 
ATOM     63  C   UNL A   1      43.387  21.995  26.801  1.00  0.00     0.173 A 
ATOM     64  F   UNL A   1      45.329  24.975  26.077  1.00  0.00    -0.203 F 
ATOM     65  C   UNL A   1      45.154  22.973  24.918  1.00  0.00     0.198 A 
ATOM     66  C   UNL A   1      43.731  21.225  25.686  1.00  0.00     0.198 A 
ATOM     67  F   UNL A   1      42.605  21.416  27.725  1.00  0.00    -0.203 F 
ATOM     68  F   UNL A   1      46.038  23.450  24.030  1.00  0.00    -0.200 F 
ATOM     69  C   UNL A   1      44.611  21.717  24.741  1.00  0.00     0.200 A 
ATOM     70  F   UNL A   1      43.197  20.005  25.528  1.00  0.00    -0.200 F 
ATOM     71  F   UNL A   1      44.943  20.981  23.672  1.00  0.00    -0.200 F 
ENDBRANCH  47  61
BRANCH  48  72
ATOM     72  C   UNL A   1      40.899  30.364  33.030  1.00  0.00     0.064 A 
ATOM     73  C   UNL A   1      40.782  31.767  32.954  1.00  0.00     0.173 A 
ATOM     74  C   UNL A   1      39.715  29.615  33.069  1.00  0.00     0.173 A 
ATOM     75  F   UNL A   1      41.889  32.526  32.901  1.00  0.00    -0.203 F 
ATOM     76  C   UNL A   1      39.545  32.382  32.782  1.00  0.00     0.198 A 
ATOM     77  C   UNL A   1      38.476  30.239  32.903  1.00  0.00     0.198 A 
ATOM     78  F   UNL A   1      39.763  28.277  33.119  1.00  0.00    -0.203 F 
ATOM     79  F   UNL A   1      39.481  33.707  32.582  1.00  0.00    -0.200 F 
ATOM     80  C   UNL A   1      38.395  31.614  32.722  1.00  0.00     0.200 A 
ATOM     81  F   UNL A   1      37.362  29.496  32.818  1.00  0.00    -0.200 F 
ATOM     82  F   UNL A   1      37.218  32.191  32.444  1.00  0.00    -0.200 F 
ENDBRANCH  48  72
BRANCH  60  83
ATOM     83  C   UNL A   1      45.025  24.358  33.470  1.00  0.00     0.064 A 
ATOM     84  C   UNL A   1      44.313  23.170  33.693  1.00  0.00     0.173 A 
ATOM     85  C   UNL A   1      46.383  24.338  33.885  1.00  0.00     0.173 A 
ATOM     86  F   UNL A   1      43.058  23.012  33.252  1.00  0.00    -0.203 F 
ATOM     87  C   UNL A   1      44.892  22.069  34.328  1.00  0.00     0.198 A 
ATOM     88  C   UNL A   1      46.974  23.215  34.458  1.00  0.00     0.198 A 
ATOM     89  F   UNL A   1      47.190  25.395  33.716  1.00  0.00    -0.203 F 
ATOM     90  F   UNL A   1      44.155  20.972  34.552  1.00  0.00    -0.200 F 
ATOM     91  C   UNL A   1      46.225  22.084  34.695  1.00  0.00     0.200 A 
ATOM     92  F   UNL A   1      48.282  23.232  34.756  1.00  0.00    -0.200 F 
ATOM     93  F   UNL A   1      46.790  21.006  35.252  1.00  0.00    -0.200 F 
ENDBRANCH  60  83
ENDBRANCH  34  35
ENDBRANCH  26  29
ENDBRANCH  24  25
ENDBRANCH  23  24
ENDBRANCH   1  23
TORSDOF 14
ENDMDL
MODEL 2
REMARK VINA RESULT:     -12.9      1.045      1.926
REMARK SMILES Cc1ccccc1N[C@H](C(=O)NCCCCNC(=O)c1ccc(-c2c3nc(c(-c4c(F)c(F)c(F)c(F)c4F)c4ccc([nH]4)c(-c4c(F)c(F)c(F)c(F)c4F)c4nc(c(-c5c(F)c(F)c(F)c(F)c5F)c5ccc2[nH]5)C=C4)C=C3)cc1)c1ccccc1
REMARK SMILES IDX 14 1 13 2 12 3 10 4 11 5 9 7 8 8 7 10 1 11 2 12 3 13 4 14
REMARK SMILES IDX 6 15 5 16 83 17 84 18 88 19 85 20 87 21 86 22 15 23 16 24
REMARK SMILES IDX 17 25 18 26 19 28 20 29 21 30 82 31 22 32 81 33 23 34 24 35
REMARK SMILES IDX 25 36 75 37 26 38 80 39 74 40 76 41 27 42 79 43 73 44 72 45
REMARK SMILES IDX 28 47 60 48 40 49 59 50 41 51 44 52 58 53 77 54 42 55 43 56
REMARK SMILES IDX 57 58 78 59 45 60 29 61 30 62 38 63 31 64 32 65 36 66 39 67
REMARK SMILES IDX 33 68 34 69 37 70 35 71 61 72 62 73 70 74 63 75 64 76 68 77
REMARK SMILES IDX 71 78 65 79 66 80 69 81 67 82 46 83 47 84 55 85 48 86 49 87
REMARK SMILES IDX 53 88 56 89 50 90 51 91 54 92 52 93
REMARK H PARENT 12 6 8 9 17 27 76 46 44 57
REMARK Flexibility Score: inf
ROOT
ATOM      1  C   UNL A   1      32.459  28.301  27.251  1.00  0.00     0.023 C 
ENDROOT
BRANCH   1   2
ATOM      2  C   UNL A   1      31.449  27.590  26.356  1.00  0.00     0.116 C 
BRANCH   2   3
ATOM      3  N   UNL A   1      31.122  26.247  26.801  1.00  0.00    -0.354 N 
ATOM      4  C   UNL A   1      31.884  25.110  26.670  1.00  0.00     0.247 C 
ATOM      5  O   UNL A   1      31.478  24.087  27.234  1.00  0.00    -0.272 OA
ATOM      6  H   UNL A   1      30.253  26.138  27.250  1.00  0.00     0.163 HD
BRANCH   4   7
ATOM      7  C   UNL A   1      33.205  25.105  25.836  1.00  0.00     0.200 C 
BRANCH   7   8
ATOM      8  N   UNL A   1      34.021  23.942  26.273  1.00  0.00    -0.370 N 
ATOM      9  H   UNL A   1      33.704  23.596  27.139  1.00  0.00     0.161 HD
BRANCH   8  10
ATOM     10  C   UNL A   1      35.091  23.208  25.813  1.00  0.00     0.038 A 
ATOM     11  C   UNL A   1      33.527  21.364  24.936  1.00  0.00     0.046 C 
ATOM     12  C   UNL A   1      34.887  21.910  25.292  1.00  0.00    -0.028 A 
ATOM     13  C   UNL A   1      35.984  21.069  24.994  1.00  0.00     0.005 A 
ATOM     14  C   UNL A   1      37.290  21.521  25.119  1.00  0.00     0.000 A 
ATOM     15  C   UNL A   1      36.412  23.667  25.764  1.00  0.00     0.026 A 
ATOM     16  C   UNL A   1      37.502  22.841  25.464  1.00  0.00     0.002 A 
ENDBRANCH   8  10
ENDBRANCH   7   8
BRANCH   7  17
ATOM     17  C   UNL A   1      33.022  25.354  24.348  1.00  0.00    -0.016 A 
ATOM     18  C   UNL A   1      32.190  24.513  23.590  1.00  0.00     0.006 A 
ATOM     19  C   UNL A   1      33.661  26.413  23.681  1.00  0.00     0.006 A 
ATOM     20  C   UNL A   1      31.780  24.894  22.316  1.00  0.00     0.000 A 
ATOM     21  C   UNL A   1      33.269  26.788  22.402  1.00  0.00     0.000 A 
ATOM     22  C   UNL A   1      32.283  26.059  21.751  1.00  0.00     0.000 A 
ENDBRANCH   7  17
ENDBRANCH   4   7
ENDBRANCH   2   3
ENDBRANCH   1   2
BRANCH   1  23
ATOM     23  C   UNL A   1      32.325  29.823  27.261  1.00  0.00     0.023 C 
BRANCH  23  24
ATOM     24  C   UNL A   1      33.549  30.567  26.741  1.00  0.00     0.116 C 
BRANCH  24  25
ATOM     25  N   UNL A   1      34.090  31.565  27.645  1.00  0.00    -0.352 N 
ATOM     26  C   UNL A   1      35.103  31.477  28.588  1.00  0.00     0.251 C 
ATOM     27  H   UNL A   1      33.666  32.451  27.579  1.00  0.00     0.163 HD
ATOM     28  O   UNL A   1      35.286  32.419  29.338  1.00  0.00    -0.269 OA
BRANCH  26  29
ATOM     29  C   UNL A   1      36.050  30.321  28.616  1.00  0.00     0.039 A 
ATOM     30  C   UNL A   1      36.275  29.691  29.854  1.00  0.00     0.014 A 
ATOM     31  C   UNL A   1      36.819  29.946  27.521  1.00  0.00     0.014 A 
ATOM     32  C   UNL A   1      37.392  28.873  30.035  1.00  0.00     0.010 A 
ATOM     33  C   UNL A   1      37.973  29.220  27.713  1.00  0.00     0.010 A 
ATOM     34  C   UNL A   1      38.287  28.730  28.980  1.00  0.00    -0.014 A 
BRANCH  34  35
ATOM     35  C   UNL A   1      39.653  28.257  29.118  1.00  0.00     0.031 A 
ATOM     36  C   UNL A   1      40.075  26.930  28.637  1.00  0.00     0.074 A 
ATOM     37  C   UNL A   1      40.589  29.170  29.456  1.00  0.00     0.049 A 
ATOM     38  N   UNL A   1      41.162  26.352  29.026  1.00  0.00    -0.248 NA
ATOM     39  C   UNL A   1      39.314  26.139  27.675  1.00  0.00     0.031 C 
ATOM     40  C   UNL A   1      42.026  29.084  29.228  1.00  0.00     0.029 A 
ATOM     41  N   UNL A   1      40.420  30.339  30.207  1.00  0.00    -0.354 N 
ATOM     42  C   UNL A   1      41.398  25.307  28.170  1.00  0.00     0.074 A 
ATOM     43  C   UNL A   1      40.182  25.158  27.400  1.00  0.00     0.031 C 
ATOM     44  C   UNL A   1      42.646  29.964  30.024  1.00  0.00     0.029 A 
ATOM     45  C   UNL A   1      41.635  30.555  30.884  1.00  0.00     0.049 A 
ATOM     46  H   UNL A   1      39.613  30.898  30.255  1.00  0.00     0.167 HD
ATOM     47  C   UNL A   1      42.647  24.771  28.090  1.00  0.00     0.037 A 
ATOM     48  C   UNL A   1      41.701  30.609  32.243  1.00  0.00     0.037 A 
ATOM     49  C   UNL A   1      43.591  25.470  28.958  1.00  0.00     0.049 A 
ATOM     50  C   UNL A   1      42.589  29.532  32.811  1.00  0.00     0.074 A 
ATOM     51  C   UNL A   1      44.527  26.460  28.707  1.00  0.00     0.029 A 
ATOM     52  N   UNL A   1      43.423  25.433  30.340  1.00  0.00    -0.354 N 
ATOM     53  N   UNL A   1      42.903  28.452  32.149  1.00  0.00    -0.248 NA
ATOM     54  C   UNL A   1      43.209  29.578  34.128  1.00  0.00     0.031 C 
ATOM     55  C   UNL A   1      44.905  27.038  29.943  1.00  0.00     0.029 A 
ATOM     56  C   UNL A   1      44.213  26.389  30.951  1.00  0.00     0.049 A 
ATOM     57  H   UNL A   1      42.824  24.812  30.816  1.00  0.00     0.167 HD
ATOM     58  C   UNL A   1      43.761  27.689  32.890  1.00  0.00     0.074 A 
ATOM     59  C   UNL A   1      43.915  28.431  34.128  1.00  0.00     0.031 C 
ATOM     60  C   UNL A   1      44.270  26.520  32.400  1.00  0.00     0.037 A 
BRANCH  47  61
ATOM     61  C   UNL A   1      43.042  23.811  26.998  1.00  0.00     0.064 A 
ATOM     62  C   UNL A   1      42.757  22.432  27.082  1.00  0.00     0.173 A 
ATOM     63  C   UNL A   1      43.735  24.213  25.842  1.00  0.00     0.173 A 
ATOM     64  F   UNL A   1      42.054  21.921  28.100  1.00  0.00    -0.203 F 
ATOM     65  C   UNL A   1      43.204  21.518  26.126  1.00  0.00     0.198 A 
ATOM     66  C   UNL A   1      44.225  23.293  24.910  1.00  0.00     0.198 A 
ATOM     67  F   UNL A   1      43.944  25.513  25.584  1.00  0.00    -0.203 F 
ATOM     68  F   UNL A   1      42.910  20.217  26.260  1.00  0.00    -0.200 F 
ATOM     69  C   UNL A   1      43.963  21.944  25.055  1.00  0.00     0.200 A 
ATOM     70  F   UNL A   1      44.959  23.722  23.873  1.00  0.00    -0.200 F 
ATOM     71  F   UNL A   1      44.431  21.061  24.162  1.00  0.00    -0.200 F 
ENDBRANCH  47  61
BRANCH  48  72
ATOM     72  C   UNL A   1      40.469  31.178  32.844  1.00  0.00     0.064 A 
ATOM     73  C   UNL A   1      40.280  32.569  32.717  1.00  0.00     0.173 A 
ATOM     74  C   UNL A   1      39.333  30.386  33.056  1.00  0.00     0.173 A 
ATOM     75  F   UNL A   1      41.338  33.369  32.499  1.00  0.00    -0.203 F 
ATOM     76  C   UNL A   1      39.005  33.125  32.662  1.00  0.00     0.198 A 
ATOM     77  C   UNL A   1      38.056  30.950  33.007  1.00  0.00     0.198 A 
ATOM     78  F   UNL A   1      39.448  29.054  33.163  1.00  0.00    -0.203 F 
ATOM     79  F   UNL A   1      38.857  34.433  32.409  1.00  0.00    -0.200 F 
ATOM     80  C   UNL A   1      37.892  32.309  32.772  1.00  0.00     0.200 A 
ATOM     81  F   UNL A   1      36.975  30.159  33.087  1.00  0.00    -0.200 F 
ATOM     82  F   UNL A   1      36.665  32.823  32.606  1.00  0.00    -0.200 F 
ENDBRANCH  48  72
BRANCH  60  83
ATOM     83  C   UNL A   1      44.977  25.446  33.190  1.00  0.00     0.064 A 
ATOM     84  C   UNL A   1      46.369  25.278  33.211  1.00  0.00     0.173 A 
ATOM     85  C   UNL A   1      44.255  24.638  34.107  1.00  0.00     0.173 A 
ATOM     86  F   UNL A   1      47.180  26.053  32.479  1.00  0.00    -0.203 F 
ATOM     87  C   UNL A   1      46.989  24.341  34.042  1.00  0.00     0.198 A 
ATOM     88  C   UNL A   1      44.882  23.752  34.979  1.00  0.00     0.198 A 
ATOM     89  F   UNL A   1      42.920  24.706  34.211  1.00  0.00    -0.203 F 
ATOM     90  F   UNL A   1      48.320  24.193  33.994  1.00  0.00    -0.200 F 
ATOM     91  C   UNL A   1      46.249  23.591  34.937  1.00  0.00     0.200 A 
ATOM     92  F   UNL A   1      44.151  23.074  35.877  1.00  0.00    -0.200 F 
ATOM     93  F   UNL A   1      46.853  22.735  35.770  1.00  0.00    -0.200 F 
ENDBRANCH  60  83
ENDBRANCH  34  35
ENDBRANCH  26  29
ENDBRANCH  24  25
ENDBRANCH  23  24
ENDBRANCH   1  23
TORSDOF 14
ENDMDL
MODEL 3
REMARK VINA RESULT:     -12.9      0.534      1.254
REMARK SMILES Cc1ccccc1N[C@H](C(=O)NCCCCNC(=O)c1ccc(-c2c3nc(c(-c4c(F)c(F)c(F)c(F)c4F)c4ccc([nH]4)c(-c4c(F)c(F)c(F)c(F)c4F)c4nc(c(-c5c(F)c(F)c(F)c(F)c5F)c5ccc2[nH]5)C=C4)C=C3)cc1)c1ccccc1
REMARK SMILES IDX 14 1 13 2 12 3 10 4 11 5 9 7 8 8 7 10 1 11 2 12 3 13 4 14
REMARK SMILES IDX 6 15 5 16 83 17 84 18 88 19 85 20 87 21 86 22 15 23 16 24
REMARK SMILES IDX 17 25 18 26 19 28 20 29 21 30 82 31 22 32 81 33 23 34 24 35
REMARK SMILES IDX 25 36 75 37 26 38 80 39 74 40 76 41 27 42 79 43 73 44 72 45
REMARK SMILES IDX 28 47 60 48 40 49 59 50 41 51 44 52 58 53 77 54 42 55 43 56
REMARK SMILES IDX 57 58 78 59 45 60 29 61 30 62 38 63 31 64 32 65 36 66 39 67
REMARK SMILES IDX 33 68 34 69 37 70 35 71 61 72 62 73 70 74 63 75 64 76 68 77
REMARK SMILES IDX 71 78 65 79 66 80 69 81 67 82 46 83 47 84 55 85 48 86 49 87
REMARK SMILES IDX 53 88 56 89 50 90 51 91 54 92 52 93
REMARK H PARENT 12 6 8 9 17 27 76 46 44 57
REMARK Flexibility Score: inf
ROOT
ATOM      1  C   UNL A   1      31.703  29.414  26.756  1.00  0.00     0.023 C 
ENDROOT
BRANCH   1   2
ATOM      2  C   UNL A   1      32.008  28.204  27.632  1.00  0.00     0.116 C 
BRANCH   2   3
ATOM      3  N   UNL A   1      31.262  27.014  27.261  1.00  0.00    -0.354 N 
ATOM      4  C   UNL A   1      31.670  25.989  26.440  1.00  0.00     0.247 C 
ATOM      5  O   UNL A   1      30.930  25.002  26.355  1.00  0.00    -0.272 OA
ATOM      6  H   UNL A   1      30.358  26.932  27.642  1.00  0.00     0.163 HD
BRANCH   4   7
ATOM      7  C   UNL A   1      33.009  26.069  25.640  1.00  0.00     0.200 C 
BRANCH   7   8
ATOM      8  N   UNL A   1      33.550  24.691  25.508  1.00  0.00    -0.370 N 
ATOM      9  H   UNL A   1      32.873  24.022  25.763  1.00  0.00     0.161 HD
BRANCH   8  10
ATOM     10  C   UNL A   1      34.725  24.081  25.133  1.00  0.00     0.038 A 
ATOM     11  C   UNL A   1      33.878  23.803  22.719  1.00  0.00     0.046 C 
ATOM     12  C   UNL A   1      34.852  23.527  23.838  1.00  0.00    -0.028 A 
ATOM     13  C   UNL A   1      35.971  22.733  23.496  1.00  0.00     0.005 A 
ATOM     14  C   UNL A   1      37.018  22.547  24.389  1.00  0.00     0.000 A 
ATOM     15  C   UNL A   1      35.873  24.000  25.928  1.00  0.00     0.026 A 
ATOM     16  C   UNL A   1      36.987  23.220  25.594  1.00  0.00     0.002 A 
ENDBRANCH   8  10
ENDBRANCH   7   8
BRANCH   7  17
ATOM     17  C   UNL A   1      32.965  26.959  24.409  1.00  0.00    -0.016 A 
ATOM     18  C   UNL A   1      31.977  26.761  23.431  1.00  0.00     0.006 A 
ATOM     19  C   UNL A   1      33.890  27.997  24.202  1.00  0.00     0.006 A 
ATOM     20  C   UNL A   1      31.739  27.735  22.465  1.00  0.00     0.000 A 
ATOM     21  C   UNL A   1      33.669  28.962  23.226  1.00  0.00     0.000 A 
ATOM     22  C   UNL A   1      32.556  28.856  22.403  1.00  0.00     0.000 A 
ENDBRANCH   7  17
ENDBRANCH   4   7
ENDBRANCH   2   3
ENDBRANCH   1   2
BRANCH   1  23
ATOM     23  C   UNL A   1      32.574  30.635  27.048  1.00  0.00     0.023 C 
BRANCH  23  24
ATOM     24  C   UNL A   1      34.049  30.320  27.264  1.00  0.00     0.116 C 
BRANCH  24  25
ATOM     25  N   UNL A   1      34.820  31.386  27.876  1.00  0.00    -0.352 N 
ATOM     26  C   UNL A   1      36.025  31.354  28.561  1.00  0.00     0.251 C 
ATOM     27  H   UNL A   1      34.420  32.282  27.791  1.00  0.00     0.163 HD
ATOM     28  O   UNL A   1      36.410  32.368  29.114  1.00  0.00    -0.269 OA
BRANCH  26  29
ATOM     29  C   UNL A   1      36.916  30.154  28.524  1.00  0.00     0.039 A 
ATOM     30  C   UNL A   1      36.955  29.334  29.667  1.00  0.00     0.014 A 
ATOM     31  C   UNL A   1      37.806  29.904  27.486  1.00  0.00     0.014 A 
ATOM     32  C   UNL A   1      38.007  28.435  29.852  1.00  0.00     0.010 A 
ATOM     33  C   UNL A   1      38.897  29.092  27.702  1.00  0.00     0.010 A 
ATOM     34  C   UNL A   1      39.025  28.401  28.906  1.00  0.00    -0.014 A 
BRANCH  34  35
ATOM     35  C   UNL A   1      40.343  27.835  29.134  1.00  0.00     0.031 A 
ATOM     36  C   UNL A   1      40.739  26.525  28.588  1.00  0.00     0.074 A 
ATOM     37  C   UNL A   1      41.288  28.659  29.636  1.00  0.00     0.049 A 
ATOM     38  N   UNL A   1      41.748  25.853  29.029  1.00  0.00    -0.248 NA
ATOM     39  C   UNL A   1      40.036  25.860  27.494  1.00  0.00     0.031 C 
ATOM     40  C   UNL A   1      42.734  28.502  29.539  1.00  0.00     0.029 A 
ATOM     41  N   UNL A   1      41.108  29.775  30.462  1.00  0.00    -0.354 N 
ATOM     42  C   UNL A   1      42.012  24.865  28.116  1.00  0.00     0.074 A 
ATOM     43  C   UNL A   1      40.874  24.851  27.223  1.00  0.00     0.031 C 
ATOM     44  C   UNL A   1      43.318  29.278  30.462  1.00  0.00     0.029 A 
ATOM     45  C   UNL A   1      42.259  29.862  31.267  1.00  0.00     0.049 A 
ATOM     46  H   UNL A   1      40.331  30.378  30.478  1.00  0.00     0.167 HD
ATOM     47  C   UNL A   1      43.232  24.260  28.112  1.00  0.00     0.037 A 
ATOM     48  C   UNL A   1      42.191  29.806  32.626  1.00  0.00     0.037 A 
ATOM     49  C   UNL A   1      44.121  24.829  29.121  1.00  0.00     0.049 A 
ATOM     50  C   UNL A   1      42.957  28.636  33.185  1.00  0.00     0.074 A 
ATOM     51  C   UNL A   1      45.129  25.777  29.045  1.00  0.00     0.029 A 
ATOM     52  N   UNL A   1      43.812  24.696  30.473  1.00  0.00    -0.354 N 
ATOM     53  N   UNL A   1      43.277  27.593  32.469  1.00  0.00    -0.248 NA
ATOM     54  C   UNL A   1      43.444  28.541  34.555  1.00  0.00     0.031 C 
ATOM     55  C   UNL A   1      45.411  26.232  30.355  1.00  0.00     0.029 A 
ATOM     56  C   UNL A   1      44.587  25.551  31.234  1.00  0.00     0.049 A 
ATOM     57  H   UNL A   1      43.137  24.079  30.836  1.00  0.00     0.167 HD
ATOM     58  C   UNL A   1      44.014  26.723  33.222  1.00  0.00     0.074 A 
ATOM     59  C   UNL A   1      44.083  27.356  34.527  1.00  0.00     0.031 C 
ATOM     60  C   UNL A   1      44.506  25.566  32.688  1.00  0.00     0.037 A 
BRANCH  47  61
ATOM     61  C   UNL A   1      43.682  23.365  26.987  1.00  0.00     0.064 A 
ATOM     62  C   UNL A   1      43.125  22.085  26.787  1.00  0.00     0.173 A 
ATOM     63  C   UNL A   1      44.694  23.729  26.080  1.00  0.00     0.173 A 
ATOM     64  F   UNL A   1      42.115  21.633  27.540  1.00  0.00    -0.203 F 
ATOM     65  C   UNL A   1      43.601  21.207  25.811  1.00  0.00     0.198 A 
ATOM     66  C   UNL A   1      45.205  22.833  25.135  1.00  0.00     0.198 A 
ATOM     67  F   UNL A   1      45.206  24.969  26.083  1.00  0.00    -0.203 F 
ATOM     68  F   UNL A   1      43.038  19.999  25.671  1.00  0.00    -0.200 F 
ATOM     69  C   UNL A   1      44.661  21.569  25.005  1.00  0.00     0.200 A 
ATOM     70  F   UNL A   1      46.233  23.200  24.357  1.00  0.00    -0.200 F 
ATOM     71  F   UNL A   1      45.148  20.709  24.099  1.00  0.00    -0.200 F 
ENDBRANCH  47  61
BRANCH  48  72
ATOM     72  C   UNL A   1      40.937  30.402  33.152  1.00  0.00     0.064 A 
ATOM     73  C   UNL A   1      40.835  31.808  33.119  1.00  0.00     0.173 A 
ATOM     74  C   UNL A   1      39.745  29.666  33.192  1.00  0.00     0.173 A 
ATOM     75  F   UNL A   1      41.949  32.556  33.066  1.00  0.00    -0.203 F 
ATOM     76  C   UNL A   1      39.602  32.442  32.987  1.00  0.00     0.198 A 
ATOM     77  C   UNL A   1      38.510  30.308  33.067  1.00  0.00     0.198 A 
ATOM     78  F   UNL A   1      39.778  28.326  33.202  1.00  0.00    -0.203 F 
ATOM     79  F   UNL A   1      39.550  33.772  32.826  1.00  0.00    -0.200 F 
ATOM     80  C   UNL A   1      38.442  31.689  32.927  1.00  0.00     0.200 A 
ATOM     81  F   UNL A   1      37.387  29.580  32.981  1.00  0.00    -0.200 F 
ATOM     82  F   UNL A   1      37.267  32.286  32.687  1.00  0.00    -0.200 F 
ENDBRANCH  48  72
BRANCH  60  83
ATOM     83  C   UNL A   1      45.070  24.393  33.450  1.00  0.00     0.064 A 
ATOM     84  C   UNL A   1      44.330  23.250  33.789  1.00  0.00     0.173 A 
ATOM     85  C   UNL A   1      46.461  24.316  33.723  1.00  0.00     0.173 A 
ATOM     86  F   UNL A   1      43.029  23.143  33.486  1.00  0.00    -0.203 F 
ATOM     87  C   UNL A   1      44.919  22.140  34.399  1.00  0.00     0.198 A 
ATOM     88  C   UNL A   1      47.056  23.182  34.271  1.00  0.00     0.198 A 
ATOM     89  F   UNL A   1      47.295  25.325  33.433  1.00  0.00    -0.203 F 
ATOM     90  F   UNL A   1      44.159  21.090  34.737  1.00  0.00    -0.200 F 
ATOM     91  C   UNL A   1      46.283  22.098  34.624  1.00  0.00     0.200 A 
ATOM     92  F   UNL A   1      48.387  23.141  34.430  1.00  0.00    -0.200 F 
ATOM     93  F   UNL A   1      46.851  21.010  35.157  1.00  0.00    -0.200 F 
ENDBRANCH  60  83
ENDBRANCH  34  35
ENDBRANCH  26  29
ENDBRANCH  24  25
ENDBRANCH  23  24
ENDBRANCH   1  23
TORSDOF 14
ENDMDL
