MODEL 1
REMARK VINA RESULT:     -12.1      0.000      0.000
REMARK SMILES O=C(NCCCCNC(=O)[C@H]1CC[N@@H+]1CCc1ccccc1)c1ccc(-c2c3nc(c(-c4c(F)c(F)c(F)c(F)c4F)c4ccc([nH]4)c(-c4c(F)c(F)c(F)c(F)c4F)c4nc(c(-c5c(F)c(F)c(F)c(F)c5F)c5ccc2[nH]5)C=C4)C=C3)cc1
REMARK SMILES IDX 6 1 5 2 4 3 3 4 1 5 2 6 23 8 24 9 85 10 25 11 84 12 26 13
REMARK SMILES IDX 27 14 28 15 78 16 29 17 83 18 77 19 79 20 30 21 82 22 76 23
REMARK SMILES IDX 75 24 31 26 63 27 43 28 62 29 44 30 47 31 61 32 80 33 45 34
REMARK SMILES IDX 46 35 60 37 81 38 48 39 32 40 33 41 41 42 34 43 35 44 39 45
REMARK SMILES IDX 42 46 36 47 37 48 40 49 38 50 64 51 65 52 73 53 66 54 67 55
REMARK SMILES IDX 71 56 74 57 68 58 69 59 72 60 70 61 49 62 50 63 58 64 51 65
REMARK SMILES IDX 52 66 56 67 59 68 53 69 54 70 57 71 55 72 7 73 8 74 9 75
REMARK SMILES IDX 10 77 11 78 12 79 14 80 13 81 15 83 16 84 17 85 18 86 22 87
REMARK SMILES IDX 19 88 21 89 20 90
REMARK H PARENT 3 7 79 25 47 36 8 76 14 82
REMARK Flexibility Score: inf
ROOT
ATOM      1  C   UNL A   1      31.403  31.202  26.172  1.00  0.00     0.023 C 
ENDROOT
BRANCH   1   2
ATOM      2  C   UNL A   1      31.415  32.694  26.510  1.00  0.00     0.023 C 
BRANCH   2   3
ATOM      3  C   UNL A   1      32.519  33.136  27.461  1.00  0.00     0.116 C 
BRANCH   3   4
ATOM      4  N   UNL A   1      32.435  34.546  27.804  1.00  0.00    -0.352 N 
ATOM      5  O   UNL A   1      32.859  36.409  29.006  1.00  0.00    -0.269 OA
ATOM      6  C   UNL A   1      33.155  35.255  28.739  1.00  0.00     0.251 C 
ATOM      7  H   UNL A   1      31.770  35.067  27.298  1.00  0.00     0.163 HD
BRANCH   6   8
ATOM      8  C   UNL A   1      34.280  34.596  29.441  1.00  0.00     0.039 A 
ATOM      9  C   UNL A   1      35.567  34.617  28.899  1.00  0.00     0.014 A 
ATOM     10  C   UNL A   1      34.037  33.948  30.656  1.00  0.00     0.014 A 
ATOM     11  C   UNL A   1      36.578  33.874  29.497  1.00  0.00     0.010 A 
ATOM     12  C   UNL A   1      35.077  33.269  31.298  1.00  0.00     0.010 A 
ATOM     13  C   UNL A   1      36.347  33.202  30.708  1.00  0.00    -0.014 A 
BRANCH  13  14
ATOM     14  C   UNL A   1      37.473  32.494  31.369  1.00  0.00     0.031 A 
ATOM     15  C   UNL A   1      38.211  31.384  30.677  1.00  0.00     0.074 A 
ATOM     16  C   UNL A   1      37.839  32.883  32.605  1.00  0.00     0.049 A 
ATOM     17  N   UNL A   1      39.225  30.673  31.109  1.00  0.00    -0.248 NA
ATOM     18  C   UNL A   1      37.754  31.015  29.330  1.00  0.00     0.031 C 
ATOM     19  C   UNL A   1      37.183  33.938  33.381  1.00  0.00     0.029 A 
ATOM     20  N   UNL A   1      38.856  32.456  33.419  1.00  0.00    -0.354 N 
ATOM     21  C   UNL A   1      39.512  29.764  30.100  1.00  0.00     0.074 A 
ATOM     22  C   UNL A   1      38.553  29.996  29.040  1.00  0.00     0.031 C 
ATOM     23  C   UNL A   1      37.836  34.104  34.539  1.00  0.00     0.029 A 
ATOM     24  C   UNL A   1      38.919  33.130  34.614  1.00  0.00     0.049 A 
ATOM     25  H   UNL A   1      39.479  31.736  33.171  1.00  0.00     0.167 HD
ATOM     26  C   UNL A   1      40.491  28.827  30.063  1.00  0.00     0.037 A 
ATOM     27  C   UNL A   1      39.748  32.973  35.662  1.00  0.00     0.037 A 
ATOM     28  C   UNL A   1      41.454  28.618  31.115  1.00  0.00     0.049 A 
ATOM     29  C   UNL A   1      40.820  31.925  35.594  1.00  0.00     0.074 A 
ATOM     30  C   UNL A   1      42.513  27.725  31.150  1.00  0.00     0.029 A 
ATOM     31  N   UNL A   1      41.476  29.308  32.318  1.00  0.00    -0.354 N 
ATOM     32  N   UNL A   1      41.102  31.095  34.619  1.00  0.00    -0.248 NA
ATOM     33  C   UNL A   1      41.685  31.788  36.771  1.00  0.00     0.031 C 
ATOM     34  C   UNL A   1      43.146  27.843  32.392  1.00  0.00     0.029 A 
ATOM     35  C   UNL A   1      42.514  28.844  33.111  1.00  0.00     0.049 A 
ATOM     36  H   UNL A   1      40.848  30.022  32.570  1.00  0.00     0.167 HD
ATOM     37  C   UNL A   1      42.182  30.347  35.058  1.00  0.00     0.074 A 
ATOM     38  C   UNL A   1      42.521  30.838  36.379  1.00  0.00     0.031 C 
ATOM     39  C   UNL A   1      42.834  29.341  34.426  1.00  0.00     0.037 A 
BRANCH  26  40
ATOM     40  C   UNL A   1      40.566  27.939  28.855  1.00  0.00     0.064 A 
ATOM     41  C   UNL A   1      39.829  26.749  28.767  1.00  0.00     0.173 A 
ATOM     42  C   UNL A   1      41.337  28.317  27.745  1.00  0.00     0.173 A 
ATOM     43  F   UNL A   1      39.083  26.338  29.802  1.00  0.00    -0.203 F 
ATOM     44  C   UNL A   1      39.876  25.960  27.618  1.00  0.00     0.198 A 
ATOM     45  C   UNL A   1      41.362  27.540  26.590  1.00  0.00     0.198 A 
ATOM     46  F   UNL A   1      42.055  29.450  27.775  1.00  0.00    -0.203 F 
ATOM     47  F   UNL A   1      39.191  24.810  27.569  1.00  0.00    -0.200 F 
ATOM     48  C   UNL A   1      40.636  26.360  26.528  1.00  0.00     0.200 A 
ATOM     49  F   UNL A   1      42.086  27.934  25.533  1.00  0.00    -0.200 F 
ATOM     50  F   UNL A   1      40.671  25.607  25.421  1.00  0.00    -0.200 F 
ENDBRANCH  26  40
BRANCH  27  51
ATOM     51  C   UNL A   1      39.582  33.833  36.860  1.00  0.00     0.064 A 
ATOM     52  C   UNL A   1      40.170  35.103  36.925  1.00  0.00     0.173 A 
ATOM     53  C   UNL A   1      38.808  33.413  37.953  1.00  0.00     0.173 A 
ATOM     54  F   UNL A   1      40.932  35.540  35.913  1.00  0.00    -0.203 F 
ATOM     55  C   UNL A   1      39.999  35.917  38.043  1.00  0.00     0.198 A 
ATOM     56  C   UNL A   1      38.613  34.239  39.056  1.00  0.00     0.198 A 
ATOM     57  F   UNL A   1      38.219  32.208  37.935  1.00  0.00    -0.203 F 
ATOM     58  F   UNL A   1      40.601  37.113  38.097  1.00  0.00    -0.200 F 
ATOM     59  C   UNL A   1      39.214  35.488  39.103  1.00  0.00     0.200 A 
ATOM     60  F   UNL A   1      37.839  33.828  40.070  1.00  0.00    -0.200 F 
ATOM     61  F   UNL A   1      39.039  36.276  40.173  1.00  0.00    -0.200 F 
ENDBRANCH  27  51
BRANCH  39  62
ATOM     62  C   UNL A   1      43.988  28.717  35.152  1.00  0.00     0.064 A 
ATOM     63  C   UNL A   1      45.296  29.200  35.002  1.00  0.00     0.173 A 
ATOM     64  C   UNL A   1      43.781  27.639  36.026  1.00  0.00     0.173 A 
ATOM     65  F   UNL A   1      45.548  30.218  34.164  1.00  0.00    -0.203 F 
ATOM     66  C   UNL A   1      46.359  28.608  35.680  1.00  0.00     0.198 A 
ATOM     67  C   UNL A   1      44.841  27.068  36.723  1.00  0.00     0.198 A 
ATOM     68  F   UNL A   1      42.547  27.143  36.207  1.00  0.00    -0.203 F 
ATOM     69  F   UNL A   1      47.608  29.054  35.483  1.00  0.00    -0.200 F 
ATOM     70  C   UNL A   1      46.129  27.549  36.544  1.00  0.00     0.200 A 
ATOM     71  F   UNL A   1      44.617  26.050  37.565  1.00  0.00    -0.200 F 
ATOM     72  F   UNL A   1      47.153  26.982  37.198  1.00  0.00    -0.200 F 
ENDBRANCH  39  62
ENDBRANCH  13  14
ENDBRANCH   6   8
ENDBRANCH   3   4
ENDBRANCH   2   3
ENDBRANCH   1   2
BRANCH   1  73
ATOM     73  C   UNL A   1      32.459  30.361  26.887  1.00  0.00     0.116 C 
BRANCH  73  74
ATOM     74  N   UNL A   1      31.943  29.073  27.295  1.00  0.00    -0.351 N 
ATOM     75  C   UNL A   1      31.594  27.995  26.516  1.00  0.00     0.278 C 
ATOM     76  H   UNL A   1      31.825  28.953  28.265  1.00  0.00     0.163 HD
ATOM     77  O   UNL A   1      31.152  27.011  27.123  1.00  0.00    -0.268 OA
BRANCH  75  78
ATOM     78  C   UNL A   1      31.817  28.080  24.954  1.00  0.00     0.279 C 
ATOM     79  C   UNL A   1      32.925  27.149  24.407  1.00  0.00     0.137 C 
ATOM     80  N   UNL A   1      30.811  27.291  24.206  1.00  0.00    -0.324 N 
ATOM     81  C   UNL A   1      31.803  26.268  23.856  1.00  0.00     0.269 C 
ATOM     82  H   UNL A   1      29.950  27.031  24.689  1.00  0.00     0.348 HD
BRANCH  80  83
ATOM     83  C   UNL A   1      30.196  27.946  23.044  1.00  0.00     0.267 C 
BRANCH  83  84
ATOM     84  C   UNL A   1      28.752  28.500  23.012  1.00  0.00     0.097 C 
BRANCH  84  85
ATOM     85  C   UNL A   1      28.570  29.945  22.628  1.00  0.00    -0.042 A 
ATOM     86  C   UNL A   1      28.768  30.953  23.583  1.00  0.00     0.004 A 
ATOM     87  C   UNL A   1      28.202  30.313  21.327  1.00  0.00     0.004 A 
ATOM     88  C   UNL A   1      28.685  32.299  23.224  1.00  0.00     0.000 A 
ATOM     89  C   UNL A   1      28.123  31.659  20.968  1.00  0.00     0.000 A 
ATOM     90  C   UNL A   1      28.378  32.651  21.912  1.00  0.00     0.000 A 
ENDBRANCH  84  85
ENDBRANCH  83  84
ENDBRANCH  80  83
ENDBRANCH  75  78
ENDBRANCH  73  74
ENDBRANCH   1  73
TORSDOF 14
ENDMDL
MODEL 2
REMARK VINA RESULT:     -12.1      0.511      7.515
REMARK SMILES O=C(NCCCCNC(=O)[C@H]1CC[N@@H+]1CCc1ccccc1)c1ccc(-c2c3nc(c(-c4c(F)c(F)c(F)c(F)c4F)c4ccc([nH]4)c(-c4c(F)c(F)c(F)c(F)c4F)c4nc(c(-c5c(F)c(F)c(F)c(F)c5F)c5ccc2[nH]5)C=C4)C=C3)cc1
REMARK SMILES IDX 6 1 5 2 4 3 3 4 1 5 2 6 23 8 24 9 85 10 25 11 84 12 26 13
REMARK SMILES IDX 27 14 28 15 78 16 29 17 83 18 77 19 79 20 30 21 82 22 76 23
REMARK SMILES IDX 75 24 31 26 63 27 43 28 62 29 44 30 47 31 61 32 80 33 45 34
REMARK SMILES IDX 46 35 60 37 81 38 48 39 32 40 33 41 41 42 34 43 35 44 39 45
REMARK SMILES IDX 42 46 36 47 37 48 40 49 38 50 64 51 65 52 73 53 66 54 67 55
REMARK SMILES IDX 71 56 74 57 68 58 69 59 72 60 70 61 49 62 50 63 58 64 51 65
REMARK SMILES IDX 52 66 56 67 59 68 53 69 54 70 57 71 55 72 7 73 8 74 9 75
REMARK SMILES IDX 10 77 11 78 12 79 14 80 13 81 15 83 16 84 17 85 18 86 22 87
REMARK SMILES IDX 19 88 21 89 20 90
REMARK H PARENT 3 7 79 25 47 36 8 76 14 82
REMARK Flexibility Score: inf
ROOT
ATOM      1  C   UNL A   1      31.454  30.844  26.123  1.00  0.00     0.023 C 
ENDROOT
BRANCH   1   2
ATOM      2  C   UNL A   1      31.334  32.307  26.551  1.00  0.00     0.023 C 
BRANCH   2   3
ATOM      3  C   UNL A   1      32.563  32.887  27.239  1.00  0.00     0.116 C 
BRANCH   3   4
ATOM      4  N   UNL A   1      32.364  34.255  27.689  1.00  0.00    -0.352 N 
ATOM      5  O   UNL A   1      32.636  36.049  29.030  1.00  0.00    -0.269 OA
ATOM      6  C   UNL A   1      33.025  34.947  28.677  1.00  0.00     0.251 C 
ATOM      7  H   UNL A   1      31.658  34.756  27.221  1.00  0.00     0.163 HD
BRANCH   6   8
ATOM      8  C   UNL A   1      34.202  34.331  29.332  1.00  0.00     0.039 A 
ATOM      9  C   UNL A   1      35.488  34.552  28.837  1.00  0.00     0.014 A 
ATOM     10  C   UNL A   1      34.008  33.520  30.455  1.00  0.00     0.014 A 
ATOM     11  C   UNL A   1      36.563  33.853  29.374  1.00  0.00     0.010 A 
ATOM     12  C   UNL A   1      35.104  32.883  31.045  1.00  0.00     0.010 A 
ATOM     13  C   UNL A   1      36.385  33.021  30.491  1.00  0.00    -0.014 A 
BRANCH  13  14
ATOM     14  C   UNL A   1      37.568  32.361  31.099  1.00  0.00     0.031 A 
ATOM     15  C   UNL A   1      38.044  32.726  32.476  1.00  0.00     0.074 A 
ATOM     16  C   UNL A   1      38.199  31.402  30.396  1.00  0.00     0.049 A 
ATOM     17  N   UNL A   1      39.052  32.235  33.156  1.00  0.00    -0.248 NA
ATOM     18  C   UNL A   1      37.304  33.782  33.182  1.00  0.00     0.031 C 
ATOM     19  C   UNL A   1      37.835  30.977  29.042  1.00  0.00     0.029 A 
ATOM     20  N   UNL A   1      39.263  30.601  30.720  1.00  0.00    -0.354 N 
ATOM     21  C   UNL A   1      39.079  32.932  34.356  1.00  0.00     0.074 A 
ATOM     22  C   UNL A   1      38.000  33.898  34.306  1.00  0.00     0.031 C 
ATOM     23  C   UNL A   1      38.633  29.968  28.668  1.00  0.00     0.029 A 
ATOM     24  C   UNL A   1      39.601  29.713  29.728  1.00  0.00     0.049 A 
ATOM     25  H   UNL A   1      39.738  30.656  31.581  1.00  0.00     0.167 HD
ATOM     26  C   UNL A   1      39.924  32.775  35.404  1.00  0.00     0.037 A 
ATOM     27  C   UNL A   1      40.592  28.804  29.670  1.00  0.00     0.037 A 
ATOM     28  C   UNL A   1      40.981  31.796  35.454  1.00  0.00     0.049 A 
ATOM     29  C   UNL A   1      41.515  28.655  30.844  1.00  0.00     0.074 A 
ATOM     30  C   UNL A   1      41.861  31.529  36.490  1.00  0.00     0.029 A 
ATOM     31  N   UNL A   1      41.305  30.927  34.423  1.00  0.00    -0.354 N 
ATOM     32  N   UNL A   1      41.506  29.297  31.987  1.00  0.00    -0.248 NA
ATOM     33  C   UNL A   1      42.584  27.658  30.720  1.00  0.00     0.031 C 
ATOM     34  C   UNL A   1      42.745  30.530  36.069  1.00  0.00     0.029 A 
ATOM     35  C   UNL A   1      42.386  30.139  34.789  1.00  0.00     0.049 A 
ATOM     36  H   UNL A   1      40.837  30.877  33.559  1.00  0.00     0.167 HD
ATOM     37  C   UNL A   1      42.559  28.777  32.723  1.00  0.00     0.074 A 
ATOM     38  C   UNL A   1      43.171  27.747  31.906  1.00  0.00     0.031 C 
ATOM     39  C   UNL A   1      42.984  29.123  33.962  1.00  0.00     0.037 A 
BRANCH  26  40
ATOM     40  C   UNL A   1      39.757  33.689  36.583  1.00  0.00     0.064 A 
ATOM     41  C   UNL A   1      40.393  34.938  36.644  1.00  0.00     0.173 A 
ATOM     42  C   UNL A   1      38.898  33.338  37.636  1.00  0.00     0.173 A 
ATOM     43  F   UNL A   1      41.231  35.318  35.668  1.00  0.00    -0.203 F 
ATOM     44  C   UNL A   1      40.190  35.794  37.726  1.00  0.00     0.198 A 
ATOM     45  C   UNL A   1      38.679  34.205  38.703  1.00  0.00     0.198 A 
ATOM     46  F   UNL A   1      38.260  32.158  37.623  1.00  0.00    -0.203 F 
ATOM     47  F   UNL A   1      40.835  36.967  37.780  1.00  0.00    -0.200 F 
ATOM     48  C   UNL A   1      39.327  35.430  38.750  1.00  0.00     0.200 A 
ATOM     49  F   UNL A   1      37.835  33.859  39.685  1.00  0.00    -0.200 F 
ATOM     50  F   UNL A   1      39.125  36.259  39.783  1.00  0.00    -0.200 F 
ENDBRANCH  26  40
BRANCH  27  51
ATOM     51  C   UNL A   1      40.752  27.975  28.449  1.00  0.00     0.064 A 
ATOM     52  C   UNL A   1      41.530  28.419  27.373  1.00  0.00     0.173 A 
ATOM     53  C   UNL A   1      40.152  26.711  28.348  1.00  0.00     0.173 A 
ATOM     54  F   UNL A   1      42.109  29.627  27.417  1.00  0.00    -0.203 F 
ATOM     55  C   UNL A   1      41.695  27.632  26.234  1.00  0.00     0.198 A 
ATOM     56  C   UNL A   1      40.342  25.914  27.223  1.00  0.00     0.198 A 
ATOM     57  F   UNL A   1      39.403  26.240  29.356  1.00  0.00    -0.203 F 
ATOM     58  F   UNL A   1      42.415  28.093  25.202  1.00  0.00    -0.200 F 
ATOM     59  C   UNL A   1      41.108  26.377  26.164  1.00  0.00     0.200 A 
ATOM     60  F   UNL A   1      39.788  24.694  27.167  1.00  0.00    -0.200 F 
ATOM     61  F   UNL A   1      41.276  25.616  25.074  1.00  0.00    -0.200 F 
ENDBRANCH  27  51
BRANCH  39  62
ATOM     62  C   UNL A   1      44.158  28.368  34.513  1.00  0.00     0.064 A 
ATOM     63  C   UNL A   1      45.470  28.836  34.356  1.00  0.00     0.173 A 
ATOM     64  C   UNL A   1      43.965  27.176  35.227  1.00  0.00     0.173 A 
ATOM     65  F   UNL A   1      45.707  29.962  33.665  1.00  0.00    -0.203 F 
ATOM     66  C   UNL A   1      46.550  28.123  34.870  1.00  0.00     0.198 A 
ATOM     67  C   UNL A   1      45.044  26.480  35.764  1.00  0.00     0.198 A 
ATOM     68  F   UNL A   1      42.728  26.689  35.409  1.00  0.00    -0.203 F 
ATOM     69  F   UNL A   1      47.799  28.563  34.665  1.00  0.00    -0.200 F 
ATOM     70  C   UNL A   1      46.335  26.951  35.579  1.00  0.00     0.200 A 
ATOM     71  F   UNL A   1      44.835  25.353  36.457  1.00  0.00    -0.200 F 
ATOM     72  F   UNL A   1      47.375  26.267  36.076  1.00  0.00    -0.200 F 
ENDBRANCH  39  62
ENDBRANCH  13  14
ENDBRANCH   6   8
ENDBRANCH   3   4
ENDBRANCH   2   3
ENDBRANCH   1   2
BRANCH   1  73
ATOM     73  C   UNL A   1      32.412  29.995  26.958  1.00  0.00     0.116 C 
BRANCH  73  74
ATOM     74  N   UNL A   1      31.866  28.689  27.250  1.00  0.00    -0.351 N 
ATOM     75  C   UNL A   1      31.462  27.705  26.378  1.00  0.00     0.278 C 
ATOM     76  H   UNL A   1      31.769  28.474  28.207  1.00  0.00     0.163 HD
ATOM     77  O   UNL A   1      31.004  26.679  26.897  1.00  0.00    -0.268 OA
BRANCH  75  78
ATOM     78  C   UNL A   1      31.646  27.940  24.826  1.00  0.00     0.279 C 
ATOM     79  C   UNL A   1      32.820  27.160  24.190  1.00  0.00     0.137 C 
ATOM     80  N   UNL A   1      30.698  27.129  24.027  1.00  0.00    -0.324 N 
ATOM     81  C   UNL A   1      31.770  26.232  23.579  1.00  0.00     0.269 C 
ATOM     82  H   UNL A   1      29.874  26.754  24.496  1.00  0.00     0.348 HD
BRANCH  80  83
ATOM     83  C   UNL A   1      30.007  27.822  22.931  1.00  0.00     0.267 C 
BRANCH  83  84
ATOM     84  C   UNL A   1      28.645  28.543  23.072  1.00  0.00     0.097 C 
BRANCH  84  85
ATOM     85  C   UNL A   1      28.576  29.988  22.654  1.00  0.00    -0.042 A 
ATOM     86  C   UNL A   1      28.249  30.319  21.330  1.00  0.00     0.004 A 
ATOM     87  C   UNL A   1      28.837  31.022  23.561  1.00  0.00     0.004 A 
ATOM     88  C   UNL A   1      28.100  31.652  20.947  1.00  0.00     0.000 A 
ATOM     89  C   UNL A   1      28.685  32.356  23.178  1.00  0.00     0.000 A 
ATOM     90  C   UNL A   1      28.303  32.670  21.875  1.00  0.00     0.000 A 
ENDBRANCH  84  85
ENDBRANCH  83  84
ENDBRANCH  80  83
ENDBRANCH  75  78
ENDBRANCH  73  74
ENDBRANCH   1  73
TORSDOF 14
ENDMDL
MODEL 3
REMARK VINA RESULT:     -12.0      0.420      7.492
REMARK SMILES O=C(NCCCCNC(=O)[C@H]1CC[N@@H+]1CCc1ccccc1)c1ccc(-c2c3nc(c(-c4c(F)c(F)c(F)c(F)c4F)c4ccc([nH]4)c(-c4c(F)c(F)c(F)c(F)c4F)c4nc(c(-c5c(F)c(F)c(F)c(F)c5F)c5ccc2[nH]5)C=C4)C=C3)cc1
REMARK SMILES IDX 6 1 5 2 4 3 3 4 1 5 2 6 23 8 24 9 85 10 25 11 84 12 26 13
REMARK SMILES IDX 27 14 28 15 78 16 29 17 83 18 77 19 79 20 30 21 82 22 76 23
REMARK SMILES IDX 75 24 31 26 63 27 43 28 62 29 44 30 47 31 61 32 80 33 45 34
REMARK SMILES IDX 46 35 60 37 81 38 48 39 32 40 33 41 41 42 34 43 35 44 39 45
REMARK SMILES IDX 42 46 36 47 37 48 40 49 38 50 64 51 65 52 73 53 66 54 67 55
REMARK SMILES IDX 71 56 74 57 68 58 69 59 72 60 70 61 49 62 50 63 58 64 51 65
REMARK SMILES IDX 52 66 56 67 59 68 53 69 54 70 57 71 55 72 7 73 8 74 9 75
REMARK SMILES IDX 10 77 11 78 12 79 14 80 13 81 15 83 16 84 17 85 18 86 22 87
REMARK SMILES IDX 19 88 21 89 20 90
REMARK H PARENT 3 7 79 25 47 36 8 76 14 82
REMARK Flexibility Score: inf
ROOT
ATOM      1  C   UNL A   1      31.401  30.847  26.137  1.00  0.00     0.023 C 
ENDROOT
BRANCH   1   2
ATOM      2  C   UNL A   1      31.327  32.335  26.485  1.00  0.00     0.023 C 
BRANCH   2   3
ATOM      3  C   UNL A   1      32.520  32.883  27.257  1.00  0.00     0.116 C 
BRANCH   3   4
ATOM      4  N   UNL A   1      32.342  34.268  27.659  1.00  0.00    -0.352 N 
ATOM      5  O   UNL A   1      32.640  36.103  28.939  1.00  0.00    -0.269 OA
ATOM      6  C   UNL A   1      33.012  34.983  28.625  1.00  0.00     0.251 C 
ATOM      7  H   UNL A   1      31.644  34.765  27.173  1.00  0.00     0.163 HD
BRANCH   6   8
ATOM      8  C   UNL A   1      34.178  34.372  29.303  1.00  0.00     0.039 A 
ATOM      9  C   UNL A   1      35.473  34.595  28.832  1.00  0.00     0.014 A 
ATOM     10  C   UNL A   1      33.966  33.562  30.423  1.00  0.00     0.014 A 
ATOM     11  C   UNL A   1      36.540  33.901  29.390  1.00  0.00     0.010 A 
ATOM     12  C   UNL A   1      35.051  32.928  31.035  1.00  0.00     0.010 A 
ATOM     13  C   UNL A   1      36.342  33.070  30.505  1.00  0.00    -0.014 A 
BRANCH  13  14
ATOM     14  C   UNL A   1      37.515  32.414  31.136  1.00  0.00     0.031 A 
ATOM     15  C   UNL A   1      37.968  32.785  32.520  1.00  0.00     0.074 A 
ATOM     16  C   UNL A   1      38.159  31.452  30.449  1.00  0.00     0.049 A 
ATOM     17  N   UNL A   1      38.964  32.298  33.220  1.00  0.00    -0.248 NA
ATOM     18  C   UNL A   1      37.215  33.844  33.208  1.00  0.00     0.031 C 
ATOM     19  C   UNL A   1      37.819  31.020  29.091  1.00  0.00     0.029 A 
ATOM     20  N   UNL A   1      39.218  30.653  30.795  1.00  0.00    -0.354 N 
ATOM     21  C   UNL A   1      38.969  33.002  34.416  1.00  0.00     0.074 A 
ATOM     22  C   UNL A   1      37.891  33.966  34.343  1.00  0.00     0.031 C 
ATOM     23  C   UNL A   1      38.624  30.010  28.736  1.00  0.00     0.029 A 
ATOM     24  C   UNL A   1      39.574  29.761  29.814  1.00  0.00     0.049 A 
ATOM     25  H   UNL A   1      39.679  30.713  31.663  1.00  0.00     0.167 HD
ATOM     26  C   UNL A   1      39.797  32.850  35.479  1.00  0.00     0.037 A 
ATOM     27  C   UNL A   1      40.567  28.853  29.777  1.00  0.00     0.037 A 
ATOM     28  C   UNL A   1      40.854  31.873  35.552  1.00  0.00     0.049 A 
ATOM     29  C   UNL A   1      41.469  28.711  30.967  1.00  0.00     0.074 A 
ATOM     30  C   UNL A   1      41.716  31.611  36.605  1.00  0.00     0.029 A 
ATOM     31  N   UNL A   1      41.197  30.999  34.531  1.00  0.00    -0.354 N 
ATOM     32  N   UNL A   1      41.441  29.358  32.107  1.00  0.00    -0.248 NA
ATOM     33  C   UNL A   1      42.542  27.714  30.867  1.00  0.00     0.031 C 
ATOM     34  C   UNL A   1      42.608  30.611  36.203  1.00  0.00     0.029 A 
ATOM     35  C   UNL A   1      42.271  30.214  34.920  1.00  0.00     0.049 A 
ATOM     36  H   UNL A   1      40.743  30.945  33.659  1.00  0.00     0.167 HD
ATOM     37  C   UNL A   1      42.482  28.842  32.863  1.00  0.00     0.074 A 
ATOM     38  C   UNL A   1      43.108  27.809  32.061  1.00  0.00     0.031 C 
ATOM     39  C   UNL A   1      42.885  29.195  34.107  1.00  0.00     0.037 A 
BRANCH  26  40
ATOM     40  C   UNL A   1      39.608  33.770  36.651  1.00  0.00     0.064 A 
ATOM     41  C   UNL A   1      38.799  33.420  37.742  1.00  0.00     0.173 A 
ATOM     42  C   UNL A   1      40.298  34.991  36.711  1.00  0.00     0.173 A 
ATOM     43  F   UNL A   1      38.111  32.269  37.730  1.00  0.00    -0.203 F 
ATOM     44  C   UNL A   1      38.672  34.267  38.841  1.00  0.00     0.198 A 
ATOM     45  C   UNL A   1      40.189  35.823  37.822  1.00  0.00     0.198 A 
ATOM     46  F   UNL A   1      41.092  35.370  35.698  1.00  0.00    -0.203 F 
ATOM     47  F   UNL A   1      37.866  33.928  39.857  1.00  0.00    -0.200 F 
ATOM     48  C   UNL A   1      39.373  35.464  38.884  1.00  0.00     0.200 A 
ATOM     49  F   UNL A   1      40.878  36.972  37.868  1.00  0.00    -0.200 F 
ATOM     50  F   UNL A   1      39.259  36.271  39.948  1.00  0.00    -0.200 F 
ENDBRANCH  26  40
BRANCH  27  51
ATOM     51  C   UNL A   1      40.749  28.019  28.563  1.00  0.00     0.064 A 
ATOM     52  C   UNL A   1      40.117  26.774  28.441  1.00  0.00     0.173 A 
ATOM     53  C   UNL A   1      41.537  28.462  27.490  1.00  0.00     0.173 A 
ATOM     54  F   UNL A   1      39.368  26.301  29.447  1.00  0.00    -0.203 F 
ATOM     55  C   UNL A   1      40.275  25.999  27.293  1.00  0.00     0.198 A 
ATOM     56  C   UNL A   1      41.669  27.700  26.333  1.00  0.00     0.198 A 
ATOM     57  F   UNL A   1      42.157  29.650  27.558  1.00  0.00    -0.203 F 
ATOM     58  F   UNL A   1      39.688  24.797  27.214  1.00  0.00    -0.200 F 
ATOM     59  C   UNL A   1      41.043  26.467  26.237  1.00  0.00     0.200 A 
ATOM     60  F   UNL A   1      42.398  28.164  25.308  1.00  0.00    -0.200 F 
ATOM     61  F   UNL A   1      41.184  25.727  25.129  1.00  0.00    -0.200 F 
ENDBRANCH  27  51
BRANCH  39  62
ATOM     62  C   UNL A   1      44.049  28.444  34.682  1.00  0.00     0.064 A 
ATOM     63  C   UNL A   1      45.364  28.912  34.544  1.00  0.00     0.173 A 
ATOM     64  C   UNL A   1      43.845  27.256  35.400  1.00  0.00     0.173 A 
ATOM     65  F   UNL A   1      45.612  30.034  33.851  1.00  0.00    -0.203 F 
ATOM     66  C   UNL A   1      46.435  28.202  35.081  1.00  0.00     0.198 A 
ATOM     67  C   UNL A   1      44.916  26.564  35.959  1.00  0.00     0.198 A 
ATOM     68  F   UNL A   1      42.606  26.769  35.564  1.00  0.00    -0.203 F 
ATOM     69  F   UNL A   1      47.688  28.642  34.894  1.00  0.00    -0.200 F 
ATOM     70  C   UNL A   1      46.210  27.034  35.792  1.00  0.00     0.200 A 
ATOM     71  F   UNL A   1      44.696  25.441  36.655  1.00  0.00    -0.200 F 
ATOM     72  F   UNL A   1      47.242  26.354  36.310  1.00  0.00    -0.200 F 
ENDBRANCH  39  62
ENDBRANCH  13  14
ENDBRANCH   6   8
ENDBRANCH   3   4
ENDBRANCH   2   3
ENDBRANCH   1   2
BRANCH   1  73
ATOM     73  C   UNL A   1      32.479  30.056  26.878  1.00  0.00     0.116 C 
BRANCH  73  74
ATOM     74  N   UNL A   1      31.991  28.776  27.341  1.00  0.00    -0.351 N 
ATOM     75  C   UNL A   1      31.678  27.654  26.611  1.00  0.00     0.278 C 
ATOM     76  H   UNL A   1      31.865  28.698  28.315  1.00  0.00     0.163 HD
ATOM     77  O   UNL A   1      31.254  26.689  27.260  1.00  0.00    -0.268 OA
BRANCH  75  78
ATOM     78  C   UNL A   1      31.916  27.670  25.048  1.00  0.00     0.279 C 
ATOM     79  C   UNL A   1      32.642  26.423  24.492  1.00  0.00     0.137 C 
ATOM     80  N   UNL A   1      30.702  27.276  24.298  1.00  0.00    -0.324 N 
ATOM     81  C   UNL A   1      31.288  25.980  23.937  1.00  0.00     0.269 C 
ATOM     82  H   UNL A   1      29.804  27.321  24.781  1.00  0.00     0.348 HD
BRANCH  80  83
ATOM     83  C   UNL A   1      30.347  28.111  23.142  1.00  0.00     0.267 C 
BRANCH  83  84
ATOM     84  C   UNL A   1      28.905  28.545  22.785  1.00  0.00     0.097 C 
BRANCH  84  85
ATOM     85  C   UNL A   1      28.665  30.009  22.522  1.00  0.00    -0.042 A 
ATOM     86  C   UNL A   1      28.916  30.951  23.531  1.00  0.00     0.004 A 
ATOM     87  C   UNL A   1      28.190  30.459  21.284  1.00  0.00     0.004 A 
ATOM     88  C   UNL A   1      28.778  32.316  23.278  1.00  0.00     0.000 A 
ATOM     89  C   UNL A   1      28.056  31.825  21.030  1.00  0.00     0.000 A 
ATOM     90  C   UNL A   1      28.364  32.753  22.023  1.00  0.00     0.000 A 
ENDBRANCH  84  85
ENDBRANCH  83  84
ENDBRANCH  80  83
ENDBRANCH  75  78
ENDBRANCH  73  74
ENDBRANCH   1  73
TORSDOF 14
ENDMDL
