MODEL 1
REMARK VINA RESULT:     -11.7      0.000      0.000
REMARK SMILES C[C@@H](SCCC(=O)NCCCCNC(=O)c1ccc(-c2c3nc(c(-c4c(F)c(F)c(F)c(F)c4F)c4ccc([nH]4)c(-c4c(F)c(F)c(F)c(F)c4F)c4nc(c(-c5c(F)c(F)c(F)c(F)c5F)c5ccc2[nH]5)C=C4)C=C3)cc1)C(=O)Nc1ccc(C(N)=O)cc1
REMARK SMILES IDX 6 1 7 2 8 3 5 5 4 6 3 7 2 8 1 9 79 10 80 11 81 12 82 14
REMARK SMILES IDX 83 15 90 16 84 17 89 18 85 19 86 20 87 21 88 22 9 25 10 26
REMARK SMILES IDX 11 27 12 28 13 29 14 30 15 32 16 33 17 34 78 35 18 36 77 37
REMARK SMILES IDX 19 38 20 39 21 40 71 41 22 42 76 43 70 44 72 45 23 46 75 47
REMARK SMILES IDX 69 48 68 49 24 51 56 52 36 53 55 54 37 55 40 56 54 57 73 58
REMARK SMILES IDX 38 59 39 60 53 62 74 63 41 64 25 65 26 66 34 67 27 68 28 69
REMARK SMILES IDX 32 70 35 71 29 72 30 73 33 74 31 75 57 76 58 77 66 78 59 79
REMARK SMILES IDX 60 80 64 81 67 82 61 83 62 84 65 85 63 86 42 87 43 88 51 89
REMARK SMILES IDX 44 90 45 91 49 92 52 93 46 94 47 95 50 96 48 97
REMARK H PARENT 8 4 81 13 87 23 87 24 13 31 72 50 40 61
REMARK Flexibility Score: inf
ROOT
ATOM      1  C   UNL A   1      35.108  23.207  26.538  1.00  0.00     0.220 C 
ATOM      2  O   UNL A   1      34.195  23.051  27.350  1.00  0.00    -0.275 OA
ATOM      3  N   UNL A   1      36.072  22.253  26.475  1.00  0.00    -0.356 N 
ATOM      4  H   UNL A   1      35.907  21.466  27.043  1.00  0.00     0.163 HD
ENDROOT
BRANCH   1   5
ATOM      5  C   UNL A   1      35.146  24.398  25.609  1.00  0.00     0.111 C 
BRANCH   5   6
ATOM      6  C   UNL A   1      33.875  25.247  25.687  1.00  0.00     0.080 C 
BRANCH   6   7
ATOM      7  S   UNL A   1      33.635  26.405  24.277  1.00  0.00    -0.148 SA
BRANCH   7   8
ATOM      8  C   UNL A   1      31.821  26.312  24.050  1.00  0.00     0.133 C 
ATOM      9  C   UNL A   1      31.032  26.089  25.330  1.00  0.00     0.030 C 
BRANCH   8  10
ATOM     10  C   UNL A   1      31.451  25.435  22.828  1.00  0.00     0.237 C 
ATOM     11  O   UNL A   1      31.599  25.842  21.669  1.00  0.00    -0.273 OA
ATOM     12  N   UNL A   1      30.985  24.147  22.962  1.00  0.00    -0.325 N 
ATOM     13  H   UNL A   1      30.126  23.870  22.569  1.00  0.00     0.169 HD
BRANCH  12  14
ATOM     14  C   UNL A   1      31.782  23.246  23.677  1.00  0.00     0.041 A 
ATOM     15  C   UNL A   1      31.249  22.702  24.846  1.00  0.00     0.027 A 
ATOM     16  C   UNL A   1      32.963  22.765  23.130  1.00  0.00     0.027 A 
ATOM     17  C   UNL A   1      31.811  21.548  25.378  1.00  0.00     0.016 A 
ATOM     18  C   UNL A   1      33.518  21.600  23.650  1.00  0.00     0.016 A 
ATOM     19  C   UNL A   1      32.921  20.966  24.750  1.00  0.00     0.039 A 
BRANCH  19  20
ATOM     20  C   UNL A   1      33.437  19.635  25.149  1.00  0.00     0.248 C 
ATOM     21  N   UNL A   1      32.963  19.089  26.304  1.00  0.00    -0.366 N 
ATOM     22  O   UNL A   1      34.265  19.040  24.463  1.00  0.00    -0.270 OA
ATOM     23  H   UNL A   1      32.300  19.577  26.843  1.00  0.00     0.159 HD
ATOM     24  H   UNL A   1      33.284  18.207  26.599  1.00  0.00     0.159 HD
ENDBRANCH  19  20
ENDBRANCH  12  14
ENDBRANCH   8  10
ENDBRANCH   7   8
ENDBRANCH   6   7
ENDBRANCH   5   6
ENDBRANCH   1   5
BRANCH   3  25
ATOM     25  C   UNL A   1      37.307  22.194  25.712  1.00  0.00     0.116 C 
BRANCH  25  26
ATOM     26  C   UNL A   1      37.279  21.135  24.609  1.00  0.00     0.023 C 
BRANCH  26  27
ATOM     27  C   UNL A   1      38.049  19.862  24.984  1.00  0.00     0.023 C 
BRANCH  27  28
ATOM     28  C   UNL A   1      39.290  20.102  25.816  1.00  0.00     0.116 C 
BRANCH  28  29
ATOM     29  N   UNL A   1      40.307  19.070  25.791  1.00  0.00    -0.352 N 
ATOM     30  C   UNL A   1      41.641  19.161  26.130  1.00  0.00     0.251 C 
ATOM     31  H   UNL A   1      40.003  18.182  25.492  1.00  0.00     0.163 HD
ATOM     32  O   UNL A   1      42.362  18.168  26.078  1.00  0.00    -0.269 OA
BRANCH  30  33
ATOM     33  C   UNL A   1      42.245  20.486  26.442  1.00  0.00     0.039 A 
ATOM     34  C   UNL A   1      42.719  21.267  25.382  1.00  0.00     0.014 A 
ATOM     35  C   UNL A   1      42.266  21.016  27.731  1.00  0.00     0.014 A 
ATOM     36  C   UNL A   1      43.112  22.589  25.605  1.00  0.00     0.010 A 
ATOM     37  C   UNL A   1      42.502  22.369  27.928  1.00  0.00     0.010 A 
ATOM     38  C   UNL A   1      42.951  23.168  26.872  1.00  0.00    -0.014 A 
BRANCH  38  39
ATOM     39  C   UNL A   1      43.283  24.588  27.145  1.00  0.00     0.031 A 
ATOM     40  C   UNL A   1      44.678  25.088  26.876  1.00  0.00     0.074 A 
ATOM     41  C   UNL A   1      42.364  25.395  27.709  1.00  0.00     0.049 A 
ATOM     42  N   UNL A   1      45.209  26.254  27.144  1.00  0.00    -0.248 NA
ATOM     43  C   UNL A   1      45.621  24.131  26.270  1.00  0.00     0.031 C 
ATOM     44  C   UNL A   1      41.002  25.001  28.080  1.00  0.00     0.029 A 
ATOM     45  N   UNL A   1      42.438  26.714  28.080  1.00  0.00    -0.354 N 
ATOM     46  C   UNL A   1      46.541  26.156  26.762  1.00  0.00     0.074 A 
ATOM     47  C   UNL A   1      46.762  24.797  26.327  1.00  0.00     0.031 C 
ATOM     48  C   UNL A   1      40.359  26.065  28.587  1.00  0.00     0.029 A 
ATOM     49  C   UNL A   1      41.273  27.201  28.623  1.00  0.00     0.049 A 
ATOM     50  H   UNL A   1      43.249  27.259  27.969  1.00  0.00     0.167 HD
ATOM     51  C   UNL A   1      47.487  27.124  26.739  1.00  0.00     0.037 A 
ATOM     52  C   UNL A   1      40.983  28.427  29.097  1.00  0.00     0.037 A 
ATOM     53  C   UNL A   1      47.243  28.484  27.136  1.00  0.00     0.049 A 
ATOM     54  C   UNL A   1      42.050  29.490  29.052  1.00  0.00     0.074 A 
ATOM     55  C   UNL A   1      48.105  29.564  27.094  1.00  0.00     0.029 A 
ATOM     56  N   UNL A   1      46.039  28.948  27.647  1.00  0.00    -0.354 N 
ATOM     57  N   UNL A   1      43.285  29.406  28.619  1.00  0.00    -0.248 NA
ATOM     58  C   UNL A   1      41.678  30.819  29.554  1.00  0.00     0.031 C 
ATOM     59  C   UNL A   1      47.440  30.671  27.629  1.00  0.00     0.029 A 
ATOM     60  C   UNL A   1      46.143  30.297  27.946  1.00  0.00     0.049 A 
ATOM     61  H   UNL A   1      45.232  28.400  27.779  1.00  0.00     0.167 HD
ATOM     62  C   UNL A   1      43.828  30.675  28.766  1.00  0.00     0.074 A 
ATOM     63  C   UNL A   1      42.779  31.514  29.311  1.00  0.00     0.031 C 
ATOM     64  C   UNL A   1      45.079  31.111  28.477  1.00  0.00     0.037 A 
BRANCH  51  65
ATOM     65  C   UNL A   1      48.860  26.745  26.256  1.00  0.00     0.064 A 
ATOM     66  C   UNL A   1      49.269  26.979  24.932  1.00  0.00     0.173 A 
ATOM     67  C   UNL A   1      49.786  26.157  27.130  1.00  0.00     0.173 A 
ATOM     68  F   UNL A   1      48.419  27.525  24.049  1.00  0.00    -0.203 F 
ATOM     69  C   UNL A   1      50.535  26.602  24.495  1.00  0.00     0.198 A 
ATOM     70  C   UNL A   1      51.065  25.816  26.698  1.00  0.00     0.198 A 
ATOM     71  F   UNL A   1      49.451  25.912  28.406  1.00  0.00    -0.203 F 
ATOM     72  F   UNL A   1      50.877  26.776  23.210  1.00  0.00    -0.200 F 
ATOM     73  C   UNL A   1      51.436  26.029  25.378  1.00  0.00     0.200 A 
ATOM     74  F   UNL A   1      51.939  25.275  27.558  1.00  0.00    -0.200 F 
ATOM     75  F   UNL A   1      52.657  25.672  24.958  1.00  0.00    -0.200 F 
ENDBRANCH  51  65
BRANCH  52  76
ATOM     76  C   UNL A   1      39.623  28.725  29.622  1.00  0.00     0.064 A 
ATOM     77  C   UNL A   1      39.306  28.502  30.969  1.00  0.00     0.173 A 
ATOM     78  C   UNL A   1      38.612  29.233  28.792  1.00  0.00     0.173 A 
ATOM     79  F   UNL A   1      40.233  28.002  31.801  1.00  0.00    -0.203 F 
ATOM     80  C   UNL A   1      38.025  28.747  31.460  1.00  0.00     0.198 A 
ATOM     81  C   UNL A   1      37.340  29.509  29.292  1.00  0.00     0.198 A 
ATOM     82  F   UNL A   1      38.862  29.475  27.498  1.00  0.00    -0.203 F 
ATOM     83  F   UNL A   1      37.737  28.473  32.740  1.00  0.00    -0.200 F 
ATOM     84  C   UNL A   1      37.044  29.256  30.623  1.00  0.00     0.200 A 
ATOM     85  F   UNL A   1      36.401  30.019  28.483  1.00  0.00    -0.200 F 
ATOM     86  F   UNL A   1      35.814  29.495  31.096  1.00  0.00    -0.200 F 
ENDBRANCH  52  76
BRANCH  64  87
ATOM     87  C   UNL A   1      45.369  32.566  28.705  1.00  0.00     0.064 A 
ATOM     88  C   UNL A   1      45.103  33.534  27.726  1.00  0.00     0.173 A 
ATOM     89  C   UNL A   1      45.880  32.999  29.938  1.00  0.00     0.173 A 
ATOM     90  F   UNL A   1      44.626  33.169  26.527  1.00  0.00    -0.203 F 
ATOM     91  C   UNL A   1      45.369  34.880  27.964  1.00  0.00     0.198 A 
ATOM     92  C   UNL A   1      46.110  34.349  30.185  1.00  0.00     0.198 A 
ATOM     93  F   UNL A   1      46.142  32.113  30.912  1.00  0.00    -0.203 F 
ATOM     94  F   UNL A   1      45.160  35.781  26.994  1.00  0.00    -0.200 F 
ATOM     95  C   UNL A   1      45.863  35.287  29.194  1.00  0.00     0.200 A 
ATOM     96  F   UNL A   1      46.569  34.742  31.380  1.00  0.00    -0.200 F 
ATOM     97  F   UNL A   1      46.109  36.584  29.423  1.00  0.00    -0.200 F 
ENDBRANCH  64  87
ENDBRANCH  38  39
ENDBRANCH  30  33
ENDBRANCH  28  29
ENDBRANCH  27  28
ENDBRANCH  26  27
ENDBRANCH  25  26
ENDBRANCH   3  25
TORSDOF 17
ENDMDL
MODEL 2
REMARK VINA RESULT:     -11.6      0.646      7.405
REMARK SMILES C[C@@H](SCCC(=O)NCCCCNC(=O)c1ccc(-c2c3nc(c(-c4c(F)c(F)c(F)c(F)c4F)c4ccc([nH]4)c(-c4c(F)c(F)c(F)c(F)c4F)c4nc(c(-c5c(F)c(F)c(F)c(F)c5F)c5ccc2[nH]5)C=C4)C=C3)cc1)C(=O)Nc1ccc(C(N)=O)cc1
REMARK SMILES IDX 6 1 7 2 8 3 5 5 4 6 3 7 2 8 1 9 79 10 80 11 81 12 82 14
REMARK SMILES IDX 83 15 90 16 84 17 89 18 85 19 86 20 87 21 88 22 9 25 10 26
REMARK SMILES IDX 11 27 12 28 13 29 14 30 15 32 16 33 17 34 78 35 18 36 77 37
REMARK SMILES IDX 19 38 20 39 21 40 71 41 22 42 76 43 70 44 72 45 23 46 75 47
REMARK SMILES IDX 69 48 68 49 24 51 56 52 36 53 55 54 37 55 40 56 54 57 73 58
REMARK SMILES IDX 38 59 39 60 53 62 74 63 41 64 25 65 26 66 34 67 27 68 28 69
REMARK SMILES IDX 32 70 35 71 29 72 30 73 33 74 31 75 57 76 58 77 66 78 59 79
REMARK SMILES IDX 60 80 64 81 67 82 61 83 62 84 65 85 63 86 42 87 43 88 51 89
REMARK SMILES IDX 44 90 45 91 49 92 52 93 46 94 47 95 50 96 48 97
REMARK H PARENT 8 4 81 13 87 23 87 24 13 31 72 50 40 61
REMARK Flexibility Score: inf
ROOT
ATOM      1  C   UNL A   1      35.008  23.341  26.468  1.00  0.00     0.220 C 
ATOM      2  O   UNL A   1      34.075  23.087  27.232  1.00  0.00    -0.275 OA
ATOM      3  N   UNL A   1      36.042  22.461  26.413  1.00  0.00    -0.356 N 
ATOM      4  H   UNL A   1      35.910  21.642  26.943  1.00  0.00     0.163 HD
ENDROOT
BRANCH   1   5
ATOM      5  C   UNL A   1      34.998  24.569  25.589  1.00  0.00     0.111 C 
BRANCH   5   6
ATOM      6  C   UNL A   1      33.694  25.363  25.699  1.00  0.00     0.080 C 
BRANCH   6   7
ATOM      7  S   UNL A   1      33.440  26.614  24.374  1.00  0.00    -0.148 SA
BRANCH   7   8
ATOM      8  C   UNL A   1      31.632  26.490  24.115  1.00  0.00     0.133 C 
ATOM      9  C   UNL A   1      30.829  26.195  25.373  1.00  0.00     0.030 C 
BRANCH   8  10
ATOM     10  C   UNL A   1      31.300  25.656  22.853  1.00  0.00     0.237 C 
ATOM     11  O   UNL A   1      31.497  26.099  21.714  1.00  0.00    -0.273 OA
ATOM     12  N   UNL A   1      30.815  24.371  22.926  1.00  0.00    -0.325 N 
ATOM     13  H   UNL A   1      29.969  24.117  22.492  1.00  0.00     0.169 HD
BRANCH  12  14
ATOM     14  C   UNL A   1      31.574  23.438  23.642  1.00  0.00     0.041 A 
ATOM     15  C   UNL A   1      31.014  22.909  24.806  1.00  0.00     0.027 A 
ATOM     16  C   UNL A   1      32.739  22.915  23.099  1.00  0.00     0.027 A 
ATOM     17  C   UNL A   1      31.530  21.733  25.336  1.00  0.00     0.016 A 
ATOM     18  C   UNL A   1      33.247  21.729  23.618  1.00  0.00     0.016 A 
ATOM     19  C   UNL A   1      32.621  21.113  24.712  1.00  0.00     0.039 A 
BRANCH  19  20
ATOM     20  C   UNL A   1      33.084  19.762  25.108  1.00  0.00     0.248 C 
ATOM     21  N   UNL A   1      34.424  19.515  25.081  1.00  0.00    -0.366 N 
ATOM     22  O   UNL A   1      32.289  18.890  25.452  1.00  0.00    -0.270 OA
ATOM     23  H   UNL A   1      35.049  20.223  24.804  1.00  0.00     0.159 HD
ATOM     24  H   UNL A   1      34.766  18.629  25.337  1.00  0.00     0.159 HD
ENDBRANCH  19  20
ENDBRANCH  12  14
ENDBRANCH   8  10
ENDBRANCH   7   8
ENDBRANCH   6   7
ENDBRANCH   5   6
ENDBRANCH   1   5
BRANCH   3  25
ATOM     25  C   UNL A   1      37.309  22.523  25.705  1.00  0.00     0.116 C 
BRANCH  25  26
ATOM     26  C   UNL A   1      37.434  21.464  24.610  1.00  0.00     0.023 C 
BRANCH  26  27
ATOM     27  C   UNL A   1      38.058  20.156  25.112  1.00  0.00     0.023 C 
BRANCH  27  28
ATOM     28  C   UNL A   1      39.366  20.328  25.852  1.00  0.00     0.116 C 
BRANCH  28  29
ATOM     29  N   UNL A   1      40.285  19.208  25.830  1.00  0.00    -0.352 N 
ATOM     30  C   UNL A   1      41.624  19.181  26.161  1.00  0.00     0.251 C 
ATOM     31  H   UNL A   1      39.901  18.349  25.540  1.00  0.00     0.163 HD
ATOM     32  O   UNL A   1      42.252  18.126  26.112  1.00  0.00    -0.269 OA
BRANCH  30  33
ATOM     33  C   UNL A   1      42.348  20.447  26.458  1.00  0.00     0.039 A 
ATOM     34  C   UNL A   1      42.823  21.210  25.384  1.00  0.00     0.014 A 
ATOM     35  C   UNL A   1      42.483  20.949  27.750  1.00  0.00     0.014 A 
ATOM     36  C   UNL A   1      43.332  22.492  25.605  1.00  0.00     0.010 A 
ATOM     37  C   UNL A   1      42.835  22.275  27.954  1.00  0.00     0.010 A 
ATOM     38  C   UNL A   1      43.288  23.057  26.887  1.00  0.00    -0.014 A 
BRANCH  38  39
ATOM     39  C   UNL A   1      43.746  24.440  27.162  1.00  0.00     0.031 A 
ATOM     40  C   UNL A   1      42.765  25.454  27.693  1.00  0.00     0.074 A 
ATOM     41  C   UNL A   1      45.005  24.803  26.854  1.00  0.00     0.049 A 
ATOM     42  N   UNL A   1      42.925  26.736  27.897  1.00  0.00    -0.248 NA
ATOM     43  C   UNL A   1      41.405  24.970  27.989  1.00  0.00     0.031 C 
ATOM     44  C   UNL A   1      46.023  23.927  26.268  1.00  0.00     0.029 A 
ATOM     45  N   UNL A   1      45.645  26.011  26.982  1.00  0.00    -0.354 N 
ATOM     46  C   UNL A   1      41.687  27.206  28.317  1.00  0.00     0.074 A 
ATOM     47  C   UNL A   1      40.766  26.096  28.257  1.00  0.00     0.031 C 
ATOM     48  C   UNL A   1      47.167  24.614  26.125  1.00  0.00     0.029 A 
ATOM     49  C   UNL A   1      46.954  25.988  26.563  1.00  0.00     0.049 A 
ATOM     50  H   UNL A   1      45.208  26.817  27.339  1.00  0.00     0.167 HD
ATOM     51  C   UNL A   1      41.356  28.445  28.752  1.00  0.00     0.037 A 
ATOM     52  C   UNL A   1      47.873  26.972  26.534  1.00  0.00     0.037 A 
ATOM     53  C   UNL A   1      42.293  29.531  28.847  1.00  0.00     0.049 A 
ATOM     54  C   UNL A   1      47.483  28.339  27.032  1.00  0.00     0.074 A 
ATOM     55  C   UNL A   1      42.087  30.808  29.334  1.00  0.00     0.029 A 
ATOM     56  N   UNL A   1      43.620  29.460  28.446  1.00  0.00    -0.354 N 
ATOM     57  N   UNL A   1      46.329  28.754  27.498  1.00  0.00    -0.248 NA
ATOM     58  C   UNL A   1      48.527  29.372  27.009  1.00  0.00     0.031 C 
ATOM     59  C   UNL A   1      43.276  31.529  29.178  1.00  0.00     0.029 A 
ATOM     60  C   UNL A   1      44.240  30.681  28.654  1.00  0.00     0.049 A 
ATOM     61  H   UNL A   1      44.054  28.662  28.069  1.00  0.00     0.167 HD
ATOM     62  C   UNL A   1      46.515  30.083  27.852  1.00  0.00     0.074 A 
ATOM     63  C   UNL A   1      47.900  30.399  27.564  1.00  0.00     0.031 C 
ATOM     64  C   UNL A   1      45.624  30.965  28.369  1.00  0.00     0.037 A 
BRANCH  51  65
ATOM     65  C   UNL A   1      39.931  28.678  29.170  1.00  0.00     0.064 A 
ATOM     66  C   UNL A   1      38.961  29.145  28.267  1.00  0.00     0.173 A 
ATOM     67  C   UNL A   1      39.522  28.416  30.487  1.00  0.00     0.173 A 
ATOM     68  F   UNL A   1      39.299  29.426  26.999  1.00  0.00    -0.203 F 
ATOM     69  C   UNL A   1      37.651  29.377  28.676  1.00  0.00     0.198 A 
ATOM     70  C   UNL A   1      38.201  28.613  30.882  1.00  0.00     0.198 A 
ATOM     71  F   UNL A   1      40.404  27.966  31.392  1.00  0.00    -0.203 F 
ATOM     72  F   UNL A   1      36.762  29.885  27.810  1.00  0.00    -0.200 F 
ATOM     73  C   UNL A   1      37.269  29.103  29.979  1.00  0.00     0.200 A 
ATOM     74  F   UNL A   1      37.830  28.334  32.139  1.00  0.00    -0.200 F 
ATOM     75  F   UNL A   1      36.006  29.321  30.370  1.00  0.00    -0.200 F 
ENDBRANCH  51  65
BRANCH  52  76
ATOM     76  C   UNL A   1      49.252  26.696  26.050  1.00  0.00     0.064 A 
ATOM     77  C   UNL A   1      49.633  27.014  24.739  1.00  0.00     0.173 A 
ATOM     78  C   UNL A   1      50.217  26.105  26.880  1.00  0.00     0.173 A 
ATOM     79  F   UNL A   1      48.743  27.566  23.900  1.00  0.00    -0.203 F 
ATOM     80  C   UNL A   1      50.913  26.727  24.268  1.00  0.00     0.198 A 
ATOM     81  C   UNL A   1      51.506  25.849  26.418  1.00  0.00     0.198 A 
ATOM     82  F   UNL A   1      49.911  25.788  28.147  1.00  0.00    -0.203 F 
ATOM     83  F   UNL A   1      51.231  26.994  22.993  1.00  0.00    -0.200 F 
ATOM     84  C   UNL A   1      51.851  26.150  25.110  1.00  0.00     0.200 A 
ATOM     85  F   UNL A   1      52.415  25.308  27.242  1.00  0.00    -0.200 F 
ATOM     86  F   UNL A   1      53.082  25.878  24.658  1.00  0.00    -0.200 F 
ENDBRANCH  52  76
BRANCH  64  87
ATOM     87  C   UNL A   1      46.129  32.341  28.694  1.00  0.00     0.064 A 
ATOM     88  C   UNL A   1      46.771  32.623  29.908  1.00  0.00     0.173 A 
ATOM     89  C   UNL A   1      46.006  33.378  27.757  1.00  0.00     0.173 A 
ATOM     90  F   UNL A   1      46.903  31.668  30.842  1.00  0.00    -0.203 F 
ATOM     91  C   UNL A   1      47.244  33.903  30.185  1.00  0.00     0.198 A 
ATOM     92  C   UNL A   1      46.512  34.646  28.022  1.00  0.00     0.198 A 
ATOM     93  F   UNL A   1      45.409  33.156  26.576  1.00  0.00    -0.203 F 
ATOM     94  F   UNL A   1      47.803  34.165  31.373  1.00  0.00    -0.200 F 
ATOM     95  C   UNL A   1      47.121  34.910  29.239  1.00  0.00     0.200 A 
ATOM     96  F   UNL A   1      46.410  35.613  27.100  1.00  0.00    -0.200 F 
ATOM     97  F   UNL A   1      47.584  36.139  29.504  1.00  0.00    -0.200 F 
ENDBRANCH  64  87
ENDBRANCH  38  39
ENDBRANCH  30  33
ENDBRANCH  28  29
ENDBRANCH  27  28
ENDBRANCH  26  27
ENDBRANCH  25  26
ENDBRANCH   3  25
TORSDOF 17
ENDMDL
MODEL 3
REMARK VINA RESULT:     -11.5      5.232     11.064
REMARK SMILES C[C@@H](SCCC(=O)NCCCCNC(=O)c1ccc(-c2c3nc(c(-c4c(F)c(F)c(F)c(F)c4F)c4ccc([nH]4)c(-c4c(F)c(F)c(F)c(F)c4F)c4nc(c(-c5c(F)c(F)c(F)c(F)c5F)c5ccc2[nH]5)C=C4)C=C3)cc1)C(=O)Nc1ccc(C(N)=O)cc1
REMARK SMILES IDX 6 1 7 2 8 3 5 5 4 6 3 7 2 8 1 9 79 10 80 11 81 12 82 14
REMARK SMILES IDX 83 15 90 16 84 17 89 18 85 19 86 20 87 21 88 22 9 25 10 26
REMARK SMILES IDX 11 27 12 28 13 29 14 30 15 32 16 33 17 34 78 35 18 36 77 37
REMARK SMILES IDX 19 38 20 39 21 40 71 41 22 42 76 43 70 44 72 45 23 46 75 47
REMARK SMILES IDX 69 48 68 49 24 51 56 52 36 53 55 54 37 55 40 56 54 57 73 58
REMARK SMILES IDX 38 59 39 60 53 62 74 63 41 64 25 65 26 66 34 67 27 68 28 69
REMARK SMILES IDX 32 70 35 71 29 72 30 73 33 74 31 75 57 76 58 77 66 78 59 79
REMARK SMILES IDX 60 80 64 81 67 82 61 83 62 84 65 85 63 86 42 87 43 88 51 89
REMARK SMILES IDX 44 90 45 91 49 92 52 93 46 94 47 95 50 96 48 97
REMARK H PARENT 8 4 81 13 87 23 87 24 13 31 72 50 40 61
REMARK Flexibility Score: inf
ROOT
ATOM      1  C   UNL A   1      38.998  34.538  29.834  1.00  0.00     0.220 C 
ATOM      2  O   UNL A   1      40.024  35.116  29.472  1.00  0.00    -0.275 OA
ATOM      3  N   UNL A   1      38.232  33.946  28.881  1.00  0.00    -0.356 N 
ATOM      4  H   UNL A   1      38.618  33.967  27.975  1.00  0.00     0.163 HD
ENDROOT
BRANCH   1   5
ATOM      5  C   UNL A   1      38.611  34.451  31.292  1.00  0.00     0.111 C 
BRANCH   5   6
ATOM      6  C   UNL A   1      39.820  34.519  32.227  1.00  0.00     0.080 C 
BRANCH   6   7
ATOM      7  S   UNL A   1      39.865  33.215  33.525  1.00  0.00    -0.148 SA
BRANCH   7   8
ATOM      8  C   UNL A   1      38.401  33.666  34.527  1.00  0.00     0.133 C 
ATOM      9  C   UNL A   1      38.718  34.413  35.813  1.00  0.00     0.030 C 
BRANCH   8  10
ATOM     10  C   UNL A   1      37.399  32.488  34.622  1.00  0.00     0.237 C 
ATOM     11  O   UNL A   1      37.417  31.698  35.575  1.00  0.00    -0.273 OA
ATOM     12  N   UNL A   1      36.412  32.284  33.687  1.00  0.00    -0.325 N 
ATOM     13  H   UNL A   1      36.332  31.429  33.205  1.00  0.00     0.169 HD
BRANCH  12  14
ATOM     14  C   UNL A   1      35.525  33.340  33.447  1.00  0.00     0.041 A 
ATOM     15  C   UNL A   1      35.233  34.191  34.514  1.00  0.00     0.027 A 
ATOM     16  C   UNL A   1      35.123  33.639  32.153  1.00  0.00     0.027 A 
ATOM     17  C   UNL A   1      34.684  35.441  34.256  1.00  0.00     0.016 A 
ATOM     18  C   UNL A   1      34.589  34.896  31.891  1.00  0.00     0.016 A 
ATOM     19  C   UNL A   1      34.405  35.816  32.935  1.00  0.00     0.039 A 
BRANCH  19  20
ATOM     20  C   UNL A   1      34.010  37.199  32.581  1.00  0.00     0.248 C 
ATOM     21  N   UNL A   1      33.684  37.456  31.284  1.00  0.00    -0.366 N 
ATOM     22  O   UNL A   1      33.976  38.090  33.428  1.00  0.00    -0.270 OA
ATOM     23  H   UNL A   1      33.715  36.734  30.616  1.00  0.00     0.159 HD
ATOM     24  H   UNL A   1      33.418  38.364  31.014  1.00  0.00     0.159 HD
ENDBRANCH  19  20
ENDBRANCH  12  14
ENDBRANCH   8  10
ENDBRANCH   7   8
ENDBRANCH   6   7
ENDBRANCH   5   6
ENDBRANCH   1   5
BRANCH   3  25
ATOM     25  C   UNL A   1      36.940  33.288  28.970  1.00  0.00     0.116 C 
BRANCH  25  26
ATOM     26  C   UNL A   1      35.785  34.172  28.499  1.00  0.00     0.023 C 
BRANCH  26  27
ATOM     27  C   UNL A   1      34.571  33.365  28.020  1.00  0.00     0.023 C 
BRANCH  27  28
ATOM     28  C   UNL A   1      34.288  32.119  28.830  1.00  0.00     0.116 C 
BRANCH  28  29
ATOM     29  N   UNL A   1      33.894  30.934  28.096  1.00  0.00    -0.352 N 
ATOM     30  C   UNL A   1      34.626  29.793  27.837  1.00  0.00     0.251 C 
ATOM     31  H   UNL A   1      32.979  30.944  27.732  1.00  0.00     0.163 HD
ATOM     32  O   UNL A   1      34.121  28.862  27.216  1.00  0.00    -0.269 OA
BRANCH  30  33
ATOM     33  C   UNL A   1      36.070  29.731  28.198  1.00  0.00     0.039 A 
ATOM     34  C   UNL A   1      36.418  29.262  29.470  1.00  0.00     0.014 A 
ATOM     35  C   UNL A   1      37.083  30.026  27.288  1.00  0.00     0.014 A 
ATOM     36  C   UNL A   1      37.755  29.004  29.780  1.00  0.00     0.010 A 
ATOM     37  C   UNL A   1      38.386  29.620  27.535  1.00  0.00     0.010 A 
ATOM     38  C   UNL A   1      38.744  29.126  28.793  1.00  0.00    -0.014 A 
BRANCH  38  39
ATOM     39  C   UNL A   1      40.166  28.793  29.049  1.00  0.00     0.031 A 
ATOM     40  C   UNL A   1      41.048  29.793  29.750  1.00  0.00     0.074 A 
ATOM     41  C   UNL A   1      40.680  27.640  28.578  1.00  0.00     0.049 A 
ATOM     42  N   UNL A   1      42.337  29.751  29.975  1.00  0.00    -0.248 NA
ATOM     43  C   UNL A   1      40.403  31.032  30.219  1.00  0.00     0.031 C 
ATOM     44  C   UNL A   1      39.939  26.626  27.822  1.00  0.00     0.029 A 
ATOM     45  N   UNL A   1      41.951  27.129  28.656  1.00  0.00    -0.354 N 
ATOM     46  C   UNL A   1      42.651  30.959  30.583  1.00  0.00     0.074 A 
ATOM     47  C   UNL A   1      41.442  31.749  30.616  1.00  0.00     0.031 C 
ATOM     48  C   UNL A   1      40.758  25.600  27.542  1.00  0.00     0.029 A 
ATOM     49  C   UNL A   1      42.090  25.901  28.054  1.00  0.00     0.049 A 
ATOM     50  H   UNL A   1      42.694  27.597  29.100  1.00  0.00     0.167 HD
ATOM     51  C   UNL A   1      43.834  31.361  31.105  1.00  0.00     0.037 A 
ATOM     52  C   UNL A   1      43.174  25.113  27.930  1.00  0.00     0.037 A 
ATOM     53  C   UNL A   1      45.020  30.549  31.103  1.00  0.00     0.049 A 
ATOM     54  C   UNL A   1      44.477  25.578  28.526  1.00  0.00     0.074 A 
ATOM     55  C   UNL A   1      46.255  30.825  31.660  1.00  0.00     0.029 A 
ATOM     56  N   UNL A   1      45.112  29.295  30.515  1.00  0.00    -0.354 N 
ATOM     57  N   UNL A   1      44.745  26.690  29.167  1.00  0.00    -0.248 NA
ATOM     58  C   UNL A   1      45.625  24.672  28.391  1.00  0.00     0.031 C 
ATOM     59  C   UNL A   1      47.112  29.760  31.362  1.00  0.00     0.029 A 
ATOM     60  C   UNL A   1      46.393  28.793  30.676  1.00  0.00     0.049 A 
ATOM     61  H   UNL A   1      44.378  28.833  30.052  1.00  0.00     0.167 HD
ATOM     62  C   UNL A   1      46.080  26.606  29.537  1.00  0.00     0.074 A 
ATOM     63  C   UNL A   1      46.561  25.323  29.066  1.00  0.00     0.031 C 
ATOM     64  C   UNL A   1      46.842  27.507  30.206  1.00  0.00     0.037 A 
BRANCH  51  65
ATOM     65  C   UNL A   1      43.891  32.728  31.730  1.00  0.00     0.064 A 
ATOM     66  C   UNL A   1      43.649  32.926  33.099  1.00  0.00     0.173 A 
ATOM     67  C   UNL A   1      44.209  33.853  30.955  1.00  0.00     0.173 A 
ATOM     68  F   UNL A   1      43.326  31.888  33.885  1.00  0.00    -0.203 F 
ATOM     69  C   UNL A   1      43.685  34.201  33.658  1.00  0.00     0.198 A 
ATOM     70  C   UNL A   1      44.281  35.122  31.525  1.00  0.00     0.198 A 
ATOM     71  F   UNL A   1      44.452  33.724  29.641  1.00  0.00    -0.203 F 
ATOM     72  F   UNL A   1      43.385  34.370  34.954  1.00  0.00    -0.200 F 
ATOM     73  C   UNL A   1      44.008  35.296  32.874  1.00  0.00     0.200 A 
ATOM     74  F   UNL A   1      44.608  36.178  30.768  1.00  0.00    -0.200 F 
ATOM     75  F   UNL A   1      44.048  36.522  33.414  1.00  0.00    -0.200 F 
ENDBRANCH  51  65
BRANCH  52  76
ATOM     76  C   UNL A   1      43.070  23.797  27.244  1.00  0.00     0.064 A 
ATOM     77  C   UNL A   1      42.583  22.669  27.920  1.00  0.00     0.173 A 
ATOM     78  C   UNL A   1      43.457  23.633  25.906  1.00  0.00     0.173 A 
ATOM     79  F   UNL A   1      42.214  22.768  29.206  1.00  0.00    -0.203 F 
ATOM     80  C   UNL A   1      42.514  21.425  27.295  1.00  0.00     0.198 A 
ATOM     81  C   UNL A   1      43.357  22.396  25.271  1.00  0.00     0.198 A 
ATOM     82  F   UNL A   1      43.922  24.680  25.208  1.00  0.00    -0.203 F 
ATOM     83  F   UNL A   1      42.095  20.354  27.983  1.00  0.00    -0.200 F 
ATOM     84  C   UNL A   1      42.896  21.291  25.969  1.00  0.00     0.200 A 
ATOM     85  F   UNL A   1      43.710  22.276  23.984  1.00  0.00    -0.200 F 
ATOM     86  F   UNL A   1      42.826  20.096  25.368  1.00  0.00    -0.200 F 
ENDBRANCH  52  76
BRANCH  64  87
ATOM     87  C   UNL A   1      48.261  27.118  30.505  1.00  0.00     0.064 A 
ATOM     88  C   UNL A   1      48.602  26.397  31.659  1.00  0.00     0.173 A 
ATOM     89  C   UNL A   1      49.285  27.435  29.600  1.00  0.00     0.173 A 
ATOM     90  F   UNL A   1      47.660  26.080  32.561  1.00  0.00    -0.203 F 
ATOM     91  C   UNL A   1      49.922  26.035  31.910  1.00  0.00     0.198 A 
ATOM     92  C   UNL A   1      50.598  27.041  29.837  1.00  0.00     0.198 A 
ATOM     93  F   UNL A   1      49.009  28.115  28.477  1.00  0.00    -0.203 F 
ATOM     94  F   UNL A   1      50.234  25.396  33.046  1.00  0.00    -0.200 F 
ATOM     95  C   UNL A   1      50.917  26.350  30.996  1.00  0.00     0.200 A 
ATOM     96  F   UNL A   1      51.554  27.329  28.944  1.00  0.00    -0.200 F 
ATOM     97  F   UNL A   1      52.186  25.993  31.236  1.00  0.00    -0.200 F 
ENDBRANCH  64  87
ENDBRANCH  38  39
ENDBRANCH  30  33
ENDBRANCH  28  29
ENDBRANCH  27  28
ENDBRANCH  26  27
ENDBRANCH  25  26
ENDBRANCH   3  25
TORSDOF 17
ENDMDL
