MODEL 1
REMARK VINA RESULT:     -11.0      0.000      0.000
REMARK SMILES C[C@@H](C(=O)NCCCCNC(=O)c1ccc(-c2c3nc(c(-c4c(F)c(F)c(F)c(F)c4F)c4ccc([nH]4)c(-c4c(F)c(F)c(F)c(F)c4F)c4nc(c(-c5c(F)c(F)c(F)c(F)c5F)c5ccc2[nH]5)C=C4)C=C3)cc1)[C@@H](N[S@](=O)C(C)(C)C)C(C)(C)C
REMARK SMILES IDX 6 1 5 2 3 3 4 4 2 6 1 7 76 8 77 9 78 11 79 12 80 13 81 14
REMARK SMILES IDX 82 15 83 16 84 17 85 18 86 19 87 20 7 21 8 22 9 23 10 24
REMARK SMILES IDX 11 25 12 27 13 28 14 29 75 30 15 31 74 32 16 33 17 34 18 35
REMARK SMILES IDX 68 36 19 37 73 38 67 39 69 40 20 41 72 42 66 43 65 44 21 46
REMARK SMILES IDX 53 47 33 48 52 49 34 50 37 51 51 52 70 53 35 54 36 55 50 57
REMARK SMILES IDX 71 58 38 59 22 60 23 61 31 62 24 63 25 64 29 65 32 66 26 67
REMARK SMILES IDX 27 68 30 69 28 70 54 71 55 72 63 73 56 74 57 75 61 76 64 77
REMARK SMILES IDX 58 78 59 79 62 80 60 81 39 82 40 83 48 84 41 85 42 86 46 87
REMARK SMILES IDX 49 88 43 89 44 90 47 91 45 92
REMARK H PARENT 5 5 77 10 10 26 69 45 37 56
REMARK Flexibility Score: inf
ROOT
ATOM      1  C   UNL A   1      31.021  29.704  24.967  1.00  0.00     0.116 C 
ENDROOT
BRANCH   1   2
ATOM      2  N   UNL A   1      32.108  29.298  24.095  1.00  0.00    -0.356 N 
ATOM      3  C   UNL A   1      32.983  28.259  24.236  1.00  0.00     0.224 C 
ATOM      4  O   UNL A   1      34.067  28.333  23.658  1.00  0.00    -0.275 OA
ATOM      5  H   UNL A   1      32.232  29.849  23.288  1.00  0.00     0.163 HD
BRANCH   3   6
ATOM      6  C   UNL A   1      32.606  27.071  25.116  1.00  0.00     0.094 C 
ATOM      7  C   UNL A   1      33.768  26.947  26.123  1.00  0.00     0.020 C 
BRANCH   6   8
ATOM      8  C   UNL A   1      32.336  25.754  24.271  1.00  0.00     0.085 C 
BRANCH   8   9
ATOM      9  N   UNL A   1      33.432  24.781  24.592  1.00  0.00    -0.233 NA
ATOM     10  H   UNL A   1      32.965  23.937  24.921  1.00  0.00     0.138 HD
BRANCH   9  11
ATOM     11  S   UNL A   1      34.565  24.274  23.491  1.00  0.00     0.097 S 
ATOM     12  O   UNL A   1      33.937  23.647  22.283  1.00  0.00    -0.242 OA
BRANCH  11  13
ATOM     13  C   UNL A   1      35.401  22.924  24.448  1.00  0.00     0.052 C 
ATOM     14  C   UNL A   1      36.680  22.462  23.741  1.00  0.00     0.027 C 
ATOM     15  C   UNL A   1      35.775  23.552  25.807  1.00  0.00     0.027 C 
ATOM     16  C   UNL A   1      34.456  21.746  24.705  1.00  0.00     0.027 C 
ENDBRANCH  11  13
ENDBRANCH   9  11
ENDBRANCH   8   9
BRANCH   8  17
ATOM     17  C   UNL A   1      30.844  25.155  24.450  1.00  0.00    -0.021 C 
ATOM     18  C   UNL A   1      29.725  26.211  24.288  1.00  0.00     0.012 C 
ATOM     19  C   UNL A   1      30.510  24.096  23.364  1.00  0.00     0.012 C 
ATOM     20  C   UNL A   1      30.657  24.520  25.843  1.00  0.00     0.012 C 
ENDBRANCH   8  17
ENDBRANCH   6   8
ENDBRANCH   3   6
ENDBRANCH   1   2
BRANCH   1  21
ATOM     21  C   UNL A   1      31.582  30.229  26.292  1.00  0.00     0.023 C 
BRANCH  21  22
ATOM     22  C   UNL A   1      31.414  31.739  26.501  1.00  0.00     0.023 C 
BRANCH  22  23
ATOM     23  C   UNL A   1      32.689  32.487  26.875  1.00  0.00     0.116 C 
BRANCH  23  24
ATOM     24  N   UNL A   1      32.421  33.814  27.404  1.00  0.00    -0.352 N 
ATOM     25  C   UNL A   1      33.024  34.488  28.432  1.00  0.00     0.251 C 
ATOM     26  H   UNL A   1      31.696  34.304  26.954  1.00  0.00     0.163 HD
ATOM     27  O   UNL A   1      32.538  35.552  28.823  1.00  0.00    -0.269 OA
BRANCH  25  28
ATOM     28  C   UNL A   1      34.229  33.948  29.099  1.00  0.00     0.039 A 
ATOM     29  C   UNL A   1      34.060  32.946  30.060  1.00  0.00     0.014 A 
ATOM     30  C   UNL A   1      35.510  34.434  28.820  1.00  0.00     0.014 A 
ATOM     31  C   UNL A   1      35.174  32.400  30.699  1.00  0.00     0.010 A 
ATOM     32  C   UNL A   1      36.627  33.837  29.404  1.00  0.00     0.010 A 
ATOM     33  C   UNL A   1      36.471  32.815  30.353  1.00  0.00    -0.014 A 
BRANCH  33  34
ATOM     34  C   UNL A   1      37.655  32.165  30.972  1.00  0.00     0.031 A 
ATOM     35  C   UNL A   1      38.123  32.558  32.346  1.00  0.00     0.074 A 
ATOM     36  C   UNL A   1      38.320  31.219  30.281  1.00  0.00     0.049 A 
ATOM     37  N   UNL A   1      39.111  32.068  33.053  1.00  0.00    -0.248 NA
ATOM     38  C   UNL A   1      37.405  33.660  33.004  1.00  0.00     0.031 C 
ATOM     39  C   UNL A   1      38.006  30.799  28.913  1.00  0.00     0.029 A 
ATOM     40  N   UNL A   1      39.393  30.439  30.629  1.00  0.00    -0.354 N 
ATOM     41  C   UNL A   1      39.127  32.793  34.238  1.00  0.00     0.074 A 
ATOM     42  C   UNL A   1      38.095  33.801  34.128  1.00  0.00     0.031 C 
ATOM     43  C   UNL A   1      38.845  29.816  28.551  1.00  0.00     0.029 A 
ATOM     44  C   UNL A   1      39.772  29.556  29.648  1.00  0.00     0.049 A 
ATOM     45  H   UNL A   1      39.847  30.505  31.501  1.00  0.00     0.167 HD
ATOM     46  C   UNL A   1      39.909  32.613  35.330  1.00  0.00     0.037 A 
ATOM     47  C   UNL A   1      40.756  28.636  29.634  1.00  0.00     0.037 A 
ATOM     48  C   UNL A   1      40.934  31.607  35.439  1.00  0.00     0.049 A 
ATOM     49  C   UNL A   1      41.602  28.452  30.864  1.00  0.00     0.074 A 
ATOM     50  C   UNL A   1      41.756  31.324  36.517  1.00  0.00     0.029 A 
ATOM     51  N   UNL A   1      41.278  30.718  34.432  1.00  0.00    -0.354 N 
ATOM     52  N   UNL A   1      41.556  29.093  32.006  1.00  0.00    -0.248 NA
ATOM     53  C   UNL A   1      42.627  27.402  30.808  1.00  0.00     0.031 C 
ATOM     54  C   UNL A   1      42.627  30.293  36.146  1.00  0.00     0.029 A 
ATOM     55  C   UNL A   1      42.311  29.896  34.857  1.00  0.00     0.049 A 
ATOM     56  H   UNL A   1      40.852  30.676  33.546  1.00  0.00     0.167 HD
ATOM     57  C   UNL A   1      42.529  28.516  32.809  1.00  0.00     0.074 A 
ATOM     58  C   UNL A   1      43.126  27.448  32.034  1.00  0.00     0.031 C 
ATOM     59  C   UNL A   1      42.902  28.843  34.070  1.00  0.00     0.037 A 
BRANCH  46  60
ATOM     60  C   UNL A   1      39.675  33.518  36.507  1.00  0.00     0.064 A 
ATOM     61  C   UNL A   1      40.304  34.770  36.602  1.00  0.00     0.173 A 
ATOM     62  C   UNL A   1      38.780  33.157  37.525  1.00  0.00     0.173 A 
ATOM     63  F   UNL A   1      41.178  35.160  35.662  1.00  0.00    -0.203 F 
ATOM     64  C   UNL A   1      40.064  35.614  37.683  1.00  0.00     0.198 A 
ATOM     65  C   UNL A   1      38.519  34.017  38.589  1.00  0.00     0.198 A 
ATOM     66  F   UNL A   1      38.147  31.975  37.482  1.00  0.00    -0.203 F 
ATOM     67  F   UNL A   1      40.711  36.785  37.774  1.00  0.00    -0.200 F 
ATOM     68  C   UNL A   1      39.165  35.242  38.670  1.00  0.00     0.200 A 
ATOM     69  F   UNL A   1      37.640  33.662  39.536  1.00  0.00    -0.200 F 
ATOM     70  F   UNL A   1      38.926  36.059  39.704  1.00  0.00    -0.200 F 
ENDBRANCH  46  60
BRANCH  47  71
ATOM     71  C   UNL A   1      40.977  27.802  28.424  1.00  0.00     0.064 A 
ATOM     72  C   UNL A   1      41.880  28.195  27.426  1.00  0.00     0.173 A 
ATOM     73  C   UNL A   1      40.278  26.601  28.234  1.00  0.00     0.173 A 
ATOM     74  F   UNL A   1      42.560  29.344  27.553  1.00  0.00    -0.203 F 
ATOM     75  C   UNL A   1      42.053  27.435  26.272  1.00  0.00     0.198 A 
ATOM     76  C   UNL A   1      40.476  25.824  27.094  1.00  0.00     0.198 A 
ATOM     77  F   UNL A   1      39.408  26.175  29.161  1.00  0.00    -0.203 F 
ATOM     78  F   UNL A   1      42.881  27.862  25.309  1.00  0.00    -0.200 F 
ATOM     79  C   UNL A   1      41.355  26.248  26.109  1.00  0.00     0.200 A 
ATOM     80  F   UNL A   1      39.813  24.669  26.950  1.00  0.00    -0.200 F 
ATOM     81  F   UNL A   1      41.523  25.515  24.999  1.00  0.00    -0.200 F 
ENDBRANCH  47  71
BRANCH  59  82
ATOM     82  C   UNL A   1      43.997  28.022  34.691  1.00  0.00     0.064 A 
ATOM     83  C   UNL A   1      43.721  26.845  35.404  1.00  0.00     0.173 A 
ATOM     84  C   UNL A   1      45.338  28.418  34.572  1.00  0.00     0.173 A 
ATOM     85  F   UNL A   1      42.455  26.431  35.559  1.00  0.00    -0.203 F 
ATOM     86  C   UNL A   1      44.743  26.120  36.012  1.00  0.00     0.198 A 
ATOM     87  C   UNL A   1      46.361  27.671  35.152  1.00  0.00     0.198 A 
ATOM     88  F   UNL A   1      45.659  29.530  33.894  1.00  0.00    -0.203 F 
ATOM     89  F   UNL A   1      44.448  25.038  36.745  1.00  0.00    -0.200 F 
ATOM     90  C   UNL A   1      46.061  26.530  35.882  1.00  0.00     0.200 A 
ATOM     91  F   UNL A   1      47.635  28.061  35.013  1.00  0.00    -0.200 F 
ATOM     92  F   UNL A   1      47.042  25.834  36.471  1.00  0.00    -0.200 F 
ENDBRANCH  59  82
ENDBRANCH  33  34
ENDBRANCH  25  28
ENDBRANCH  23  24
ENDBRANCH  22  23
ENDBRANCH  21  22
ENDBRANCH   1  21
TORSDOF 16
ENDMDL
MODEL 2
REMARK VINA RESULT:     -10.9      2.042      3.405
REMARK SMILES C[C@@H](C(=O)NCCCCNC(=O)c1ccc(-c2c3nc(c(-c4c(F)c(F)c(F)c(F)c4F)c4ccc([nH]4)c(-c4c(F)c(F)c(F)c(F)c4F)c4nc(c(-c5c(F)c(F)c(F)c(F)c5F)c5ccc2[nH]5)C=C4)C=C3)cc1)[C@@H](N[S@](=O)C(C)(C)C)C(C)(C)C
REMARK SMILES IDX 6 1 5 2 3 3 4 4 2 6 1 7 76 8 77 9 78 11 79 12 80 13 81 14
REMARK SMILES IDX 82 15 83 16 84 17 85 18 86 19 87 20 7 21 8 22 9 23 10 24
REMARK SMILES IDX 11 25 12 27 13 28 14 29 75 30 15 31 74 32 16 33 17 34 18 35
REMARK SMILES IDX 68 36 19 37 73 38 67 39 69 40 20 41 72 42 66 43 65 44 21 46
REMARK SMILES IDX 53 47 33 48 52 49 34 50 37 51 51 52 70 53 35 54 36 55 50 57
REMARK SMILES IDX 71 58 38 59 22 60 23 61 31 62 24 63 25 64 29 65 32 66 26 67
REMARK SMILES IDX 27 68 30 69 28 70 54 71 55 72 63 73 56 74 57 75 61 76 64 77
REMARK SMILES IDX 58 78 59 79 62 80 60 81 39 82 40 83 48 84 41 85 42 86 46 87
REMARK SMILES IDX 49 88 43 89 44 90 47 91 45 92
REMARK H PARENT 5 5 77 10 10 26 69 45 37 56
REMARK Flexibility Score: inf
ROOT
ATOM      1  C   UNL A   1      30.621  26.525  26.089  1.00  0.00     0.116 C 
ENDROOT
BRANCH   1   2
ATOM      2  N   UNL A   1      30.897  25.336  26.876  1.00  0.00    -0.356 N 
ATOM      3  C   UNL A   1      31.329  24.109  26.461  1.00  0.00     0.224 C 
ATOM      4  O   UNL A   1      31.090  23.139  27.179  1.00  0.00    -0.275 OA
ATOM      5  H   UNL A   1      30.753  25.428  27.847  1.00  0.00     0.163 HD
BRANCH   3   6
ATOM      6  C   UNL A   1      32.056  23.979  25.126  1.00  0.00     0.094 C 
ATOM      7  C   UNL A   1      31.069  23.217  24.217  1.00  0.00     0.020 C 
BRANCH   6   8
ATOM      8  C   UNL A   1      33.474  23.279  25.276  1.00  0.00     0.085 C 
BRANCH   8   9
ATOM      9  N   UNL A   1      33.294  21.826  24.950  1.00  0.00    -0.233 NA
ATOM     10  H   UNL A   1      33.539  21.730  23.965  1.00  0.00     0.138 HD
BRANCH   9  11
ATOM     11  S   UNL A   1      34.091  20.600  25.736  1.00  0.00     0.097 S 
ATOM     12  O   UNL A   1      35.568  20.635  25.485  1.00  0.00    -0.242 OA
BRANCH  11  13
ATOM     13  C   UNL A   1      33.411  19.119  24.852  1.00  0.00     0.052 C 
ATOM     14  C   UNL A   1      32.528  18.281  25.784  1.00  0.00     0.027 C 
ATOM     15  C   UNL A   1      32.542  19.684  23.708  1.00  0.00     0.027 C 
ATOM     16  C   UNL A   1      34.527  18.268  24.235  1.00  0.00     0.027 C 
ENDBRANCH  11  13
ENDBRANCH   9  11
ENDBRANCH   8   9
BRANCH   8  17
ATOM     17  C   UNL A   1      34.654  24.005  24.442  1.00  0.00    -0.021 C 
ATOM     18  C   UNL A   1      36.037  23.939  25.132  1.00  0.00     0.012 C 
ATOM     19  C   UNL A   1      34.896  23.322  23.068  1.00  0.00     0.012 C 
ATOM     20  C   UNL A   1      34.343  25.497  24.211  1.00  0.00     0.012 C 
ENDBRANCH   8  17
ENDBRANCH   6   8
ENDBRANCH   3   6
ENDBRANCH   1   2
BRANCH   1  21
ATOM     21  C   UNL A   1      31.712  27.573  26.325  1.00  0.00     0.023 C 
BRANCH  21  22
ATOM     22  C   UNL A   1      32.044  28.433  25.099  1.00  0.00     0.023 C 
BRANCH  22  23
ATOM     23  C   UNL A   1      33.192  29.418  25.290  1.00  0.00     0.116 C 
BRANCH  23  24
ATOM     24  N   UNL A   1      32.756  30.677  25.871  1.00  0.00    -0.352 N 
ATOM     25  C   UNL A   1      33.249  31.366  26.946  1.00  0.00     0.251 C 
ATOM     26  H   UNL A   1      31.989  31.100  25.422  1.00  0.00     0.163 HD
ATOM     27  O   UNL A   1      32.631  32.345  27.371  1.00  0.00    -0.269 OA
BRANCH  25  28
ATOM     28  C   UNL A   1      34.493  30.940  27.624  1.00  0.00     0.039 A 
ATOM     29  C   UNL A   1      35.542  31.859  27.719  1.00  0.00     0.014 A 
ATOM     30  C   UNL A   1      34.653  29.648  28.134  1.00  0.00     0.014 A 
ATOM     31  C   UNL A   1      36.725  31.501  28.366  1.00  0.00     0.010 A 
ATOM     32  C   UNL A   1      35.807  29.315  28.845  1.00  0.00     0.010 A 
ATOM     33  C   UNL A   1      36.857  30.236  28.966  1.00  0.00    -0.014 A 
BRANCH  33  34
ATOM     34  C   UNL A   1      38.084  29.896  29.731  1.00  0.00     0.031 A 
ATOM     35  C   UNL A   1      38.311  30.443  31.113  1.00  0.00     0.074 A 
ATOM     36  C   UNL A   1      39.008  29.096  29.165  1.00  0.00     0.049 A 
ATOM     37  N   UNL A   1      39.305  30.219  31.937  1.00  0.00    -0.248 NA
ATOM     38  C   UNL A   1      37.304  31.382  31.631  1.00  0.00     0.031 C 
ATOM     39  C   UNL A   1      38.937  28.558  27.804  1.00  0.00     0.029 A 
ATOM     40  N   UNL A   1      40.185  28.593  29.659  1.00  0.00    -0.354 N 
ATOM     41  C   UNL A   1      39.038  30.979  33.069  1.00  0.00     0.074 A 
ATOM     42  C   UNL A   1      37.827  31.723  32.801  1.00  0.00     0.031 C 
ATOM     43  C   UNL A   1      40.004  27.774  27.584  1.00  0.00     0.029 A 
ATOM     44  C   UNL A   1      40.848  27.777  28.776  1.00  0.00     0.049 A 
ATOM     45  H   UNL A   1      40.522  28.797  30.562  1.00  0.00     0.167 HD
ATOM     46  C   UNL A   1      39.724  31.027  34.237  1.00  0.00     0.037 A 
ATOM     47  C   UNL A   1      42.006  27.103  28.910  1.00  0.00     0.037 A 
ATOM     48  C   UNL A   1      40.929  30.283  34.503  1.00  0.00     0.049 A 
ATOM     49  C   UNL A   1      42.741  27.167  30.221  1.00  0.00     0.074 A 
ATOM     50  C   UNL A   1      41.678  30.239  35.667  1.00  0.00     0.029 A 
ATOM     51  N   UNL A   1      41.562  29.452  33.591  1.00  0.00    -0.354 N 
ATOM     52  N   UNL A   1      42.438  27.830  31.310  1.00  0.00    -0.248 NA
ATOM     53  C   UNL A   1      43.973  26.374  30.326  1.00  0.00     0.031 C 
ATOM     54  C   UNL A   1      42.788  29.415  35.444  1.00  0.00     0.029 A 
ATOM     55  C   UNL A   1      42.702  28.903  34.160  1.00  0.00     0.049 A 
ATOM     56  H   UNL A   1      41.249  29.278  32.674  1.00  0.00     0.167 HD
ATOM     57  C   UNL A   1      43.427  27.522  32.233  1.00  0.00     0.074 A 
ATOM     58  C   UNL A   1      44.321  26.583  31.587  1.00  0.00     0.031 C 
ATOM     59  C   UNL A   1      43.587  27.978  33.500  1.00  0.00     0.037 A 
BRANCH  46  60
ATOM     60  C   UNL A   1      39.178  31.905  35.327  1.00  0.00     0.064 A 
ATOM     61  C   UNL A   1      38.390  31.379  36.364  1.00  0.00     0.173 A 
ATOM     62  C   UNL A   1      39.482  33.274  35.368  1.00  0.00     0.173 A 
ATOM     63  F   UNL A   1      38.061  30.078  36.367  1.00  0.00    -0.203 F 
ATOM     64  C   UNL A   1      37.909  32.193  37.385  1.00  0.00     0.198 A 
ATOM     65  C   UNL A   1      39.024  34.080  36.407  1.00  0.00     0.198 A 
ATOM     66  F   UNL A   1      40.235  33.829  34.407  1.00  0.00    -0.203 F 
ATOM     67  F   UNL A   1      37.121  31.675  38.338  1.00  0.00    -0.200 F 
ATOM     68  C   UNL A   1      38.233  33.541  37.411  1.00  0.00     0.200 A 
ATOM     69  F   UNL A   1      39.349  35.380  36.439  1.00  0.00    -0.200 F 
ATOM     70  F   UNL A   1      37.778  34.322  38.400  1.00  0.00    -0.200 F 
ENDBRANCH  46  60
BRANCH  47  71
ATOM     71  C   UNL A   1      42.529  26.289  27.782  1.00  0.00     0.064 A 
ATOM     72  C   UNL A   1      43.483  26.806  26.894  1.00  0.00     0.173 A 
ATOM     73  C   UNL A   1      42.073  24.982  27.559  1.00  0.00     0.173 A 
ATOM     74  F   UNL A   1      43.937  28.058  27.053  1.00  0.00    -0.203 F 
ATOM     75  C   UNL A   1      43.939  26.059  25.810  1.00  0.00     0.198 A 
ATOM     76  C   UNL A   1      42.554  24.222  26.494  1.00  0.00     0.198 A 
ATOM     77  F   UNL A   1      41.167  24.436  28.383  1.00  0.00    -0.203 F 
ATOM     78  F   UNL A   1      44.809  26.597  24.946  1.00  0.00    -0.200 F 
ATOM     79  C   UNL A   1      43.478  24.766  25.614  1.00  0.00     0.200 A 
ATOM     80  F   UNL A   1      42.119  22.967  26.319  1.00  0.00    -0.200 F 
ATOM     81  F   UNL A   1      43.917  24.045  24.573  1.00  0.00    -0.200 F 
ENDBRANCH  47  71
BRANCH  59  82
ATOM     82  C   UNL A   1      44.766  27.452  34.269  1.00  0.00     0.064 A 
ATOM     83  C   UNL A   1      46.002  28.117  34.267  1.00  0.00     0.173 A 
ATOM     84  C   UNL A   1      44.660  26.269  35.015  1.00  0.00     0.173 A 
ATOM     85  F   UNL A   1      46.161  29.244  33.557  1.00  0.00    -0.203 F 
ATOM     86  C   UNL A   1      47.099  27.593  34.947  1.00  0.00     0.198 A 
ATOM     87  C   UNL A   1      45.748  25.767  35.723  1.00  0.00     0.198 A 
ATOM     88  F   UNL A   1      43.499  25.597  35.059  1.00  0.00    -0.203 F 
ATOM     89  F   UNL A   1      48.286  28.210  34.873  1.00  0.00    -0.200 F 
ATOM     90  C   UNL A   1      46.970  26.422  35.678  1.00  0.00     0.200 A 
ATOM     91  F   UNL A   1      45.619  24.642  36.441  1.00  0.00    -0.200 F 
ATOM     92  F   UNL A   1      48.027  25.918  36.328  1.00  0.00    -0.200 F 
ENDBRANCH  59  82
ENDBRANCH  33  34
ENDBRANCH  25  28
ENDBRANCH  23  24
ENDBRANCH  22  23
ENDBRANCH  21  22
ENDBRANCH   1  21
TORSDOF 16
ENDMDL
MODEL 3
REMARK VINA RESULT:     -10.8      0.963      2.439
REMARK SMILES C[C@@H](C(=O)NCCCCNC(=O)c1ccc(-c2c3nc(c(-c4c(F)c(F)c(F)c(F)c4F)c4ccc([nH]4)c(-c4c(F)c(F)c(F)c(F)c4F)c4nc(c(-c5c(F)c(F)c(F)c(F)c5F)c5ccc2[nH]5)C=C4)C=C3)cc1)[C@@H](N[S@](=O)C(C)(C)C)C(C)(C)C
REMARK SMILES IDX 6 1 5 2 3 3 4 4 2 6 1 7 76 8 77 9 78 11 79 12 80 13 81 14
REMARK SMILES IDX 82 15 83 16 84 17 85 18 86 19 87 20 7 21 8 22 9 23 10 24
REMARK SMILES IDX 11 25 12 27 13 28 14 29 75 30 15 31 74 32 16 33 17 34 18 35
REMARK SMILES IDX 68 36 19 37 73 38 67 39 69 40 20 41 72 42 66 43 65 44 21 46
REMARK SMILES IDX 53 47 33 48 52 49 34 50 37 51 51 52 70 53 35 54 36 55 50 57
REMARK SMILES IDX 71 58 38 59 22 60 23 61 31 62 24 63 25 64 29 65 32 66 26 67
REMARK SMILES IDX 27 68 30 69 28 70 54 71 55 72 63 73 56 74 57 75 61 76 64 77
REMARK SMILES IDX 58 78 59 79 62 80 60 81 39 82 40 83 48 84 41 85 42 86 46 87
REMARK SMILES IDX 49 88 43 89 44 90 47 91 45 92
REMARK H PARENT 5 5 77 10 10 26 69 45 37 56
REMARK Flexibility Score: inf
ROOT
ATOM      1  C   UNL A   1      32.681  29.998  25.826  1.00  0.00     0.116 C 
ENDROOT
BRANCH   1   2
ATOM      2  N   UNL A   1      32.523  28.873  26.732  1.00  0.00    -0.356 N 
ATOM      3  C   UNL A   1      31.727  27.771  26.604  1.00  0.00     0.224 C 
ATOM      4  O   UNL A   1      31.402  27.171  27.629  1.00  0.00    -0.275 OA
ATOM      5  H   UNL A   1      33.066  28.911  27.553  1.00  0.00     0.163 HD
BRANCH   3   6
ATOM      6  C   UNL A   1      31.249  27.342  25.220  1.00  0.00     0.094 C 
ATOM      7  C   UNL A   1      30.238  26.208  25.491  1.00  0.00     0.020 C 
BRANCH   6   8
ATOM      8  C   UNL A   1      32.451  26.928  24.268  1.00  0.00     0.085 C 
BRANCH   8   9
ATOM      9  N   UNL A   1      32.613  25.440  24.369  1.00  0.00    -0.233 NA
ATOM     10  H   UNL A   1      31.989  25.045  23.666  1.00  0.00     0.138 HD
BRANCH   9  11
ATOM     11  S   UNL A   1      34.063  24.656  24.180  1.00  0.00     0.097 S 
ATOM     12  O   UNL A   1      34.403  24.438  22.737  1.00  0.00    -0.242 OA
BRANCH  11  13
ATOM     13  C   UNL A   1      33.663  23.002  24.915  1.00  0.00     0.052 C 
ATOM     14  C   UNL A   1      33.267  23.137  26.389  1.00  0.00     0.027 C 
ATOM     15  C   UNL A   1      32.454  22.475  24.113  1.00  0.00     0.027 C 
ATOM     16  C   UNL A   1      34.822  22.014  24.744  1.00  0.00     0.027 C 
ENDBRANCH  11  13
ENDBRANCH   9  11
ENDBRANCH   8   9
BRANCH   8  17
ATOM     17  C   UNL A   1      32.305  27.478  22.754  1.00  0.00    -0.021 C 
ATOM     18  C   UNL A   1      31.755  26.427  21.760  1.00  0.00     0.012 C 
ATOM     19  C   UNL A   1      31.284  28.645  22.657  1.00  0.00     0.012 C 
ATOM     20  C   UNL A   1      33.661  27.951  22.193  1.00  0.00     0.012 C 
ENDBRANCH   8  17
ENDBRANCH   6   8
ENDBRANCH   3   6
ENDBRANCH   1   2
BRANCH   1  21
ATOM     21  C   UNL A   1      31.350  30.742  25.682  1.00  0.00     0.023 C 
BRANCH  21  22
ATOM     22  C   UNL A   1      31.194  31.953  26.610  1.00  0.00     0.023 C 
BRANCH  22  23
ATOM     23  C   UNL A   1      32.501  32.595  27.064  1.00  0.00     0.116 C 
BRANCH  23  24
ATOM     24  N   UNL A   1      32.320  33.961  27.526  1.00  0.00    -0.352 N 
ATOM     25  C   UNL A   1      32.996  34.659  28.489  1.00  0.00     0.251 C 
ATOM     26  H   UNL A   1      31.600  34.461  27.077  1.00  0.00     0.163 HD
ATOM     27  O   UNL A   1      32.579  35.767  28.837  1.00  0.00    -0.269 OA
BRANCH  25  28
ATOM     28  C   UNL A   1      34.201  34.098  29.139  1.00  0.00     0.039 A 
ATOM     29  C   UNL A   1      34.025  33.202  30.198  1.00  0.00     0.014 A 
ATOM     30  C   UNL A   1      35.492  34.464  28.746  1.00  0.00     0.014 A 
ATOM     31  C   UNL A   1      35.136  32.638  30.824  1.00  0.00     0.010 A 
ATOM     32  C   UNL A   1      36.601  33.844  29.323  1.00  0.00     0.010 A 
ATOM     33  C   UNL A   1      36.435  32.927  30.371  1.00  0.00    -0.014 A 
BRANCH  33  34
ATOM     34  C   UNL A   1      37.608  32.252  30.985  1.00  0.00     0.031 A 
ATOM     35  C   UNL A   1      38.076  32.617  32.367  1.00  0.00     0.074 A 
ATOM     36  C   UNL A   1      38.265  31.310  30.280  1.00  0.00     0.049 A 
ATOM     37  N   UNL A   1      39.055  32.104  33.069  1.00  0.00    -0.248 NA
ATOM     38  C   UNL A   1      37.368  33.717  33.040  1.00  0.00     0.031 C 
ATOM     39  C   UNL A   1      37.952  30.916  28.905  1.00  0.00     0.029 A 
ATOM     40  N   UNL A   1      39.327  30.511  30.621  1.00  0.00    -0.354 N 
ATOM     41  C   UNL A   1      39.074  32.809  34.266  1.00  0.00     0.074 A 
ATOM     42  C   UNL A   1      38.054  33.831  34.168  1.00  0.00     0.031 C 
ATOM     43  C   UNL A   1      38.781  29.928  28.531  1.00  0.00     0.029 A 
ATOM     44  C   UNL A   1      39.700  29.640  29.627  1.00  0.00     0.049 A 
ATOM     45  H   UNL A   1      39.778  30.558  31.495  1.00  0.00     0.167 HD
ATOM     46  C   UNL A   1      39.849  32.603  35.358  1.00  0.00     0.037 A 
ATOM     47  C   UNL A   1      40.673  28.709  29.602  1.00  0.00     0.037 A 
ATOM     48  C   UNL A   1      40.862  31.583  35.455  1.00  0.00     0.049 A 
ATOM     49  C   UNL A   1      41.512  28.495  30.832  1.00  0.00     0.074 A 
ATOM     50  C   UNL A   1      41.676  31.273  36.531  1.00  0.00     0.029 A 
ATOM     51  N   UNL A   1      41.200  30.706  34.435  1.00  0.00    -0.354 N 
ATOM     52  N   UNL A   1      41.468  29.118  31.984  1.00  0.00    -0.248 NA
ATOM     53  C   UNL A   1      42.525  27.434  30.763  1.00  0.00     0.031 C 
ATOM     54  C   UNL A   1      42.536  30.238  36.147  1.00  0.00     0.029 A 
ATOM     55  C   UNL A   1      42.222  29.866  34.851  1.00  0.00     0.049 A 
ATOM     56  H   UNL A   1      40.777  30.684  33.546  1.00  0.00     0.167 HD
ATOM     57  C   UNL A   1      42.432  28.517  32.781  1.00  0.00     0.074 A 
ATOM     58  C   UNL A   1      43.020  27.454  31.992  1.00  0.00     0.031 C 
ATOM     59  C   UNL A   1      42.803  28.819  34.050  1.00  0.00     0.037 A 
BRANCH  46  60
ATOM     60  C   UNL A   1      39.621  33.491  36.549  1.00  0.00     0.064 A 
ATOM     61  C   UNL A   1      38.775  33.102  37.600  1.00  0.00     0.173 A 
ATOM     62  C   UNL A   1      40.290  34.719  36.669  1.00  0.00     0.173 A 
ATOM     63  F   UNL A   1      38.103  31.943  37.531  1.00  0.00    -0.203 F 
ATOM     64  C   UNL A   1      38.589  33.918  38.712  1.00  0.00     0.198 A 
ATOM     65  C   UNL A   1      40.125  35.519  37.797  1.00  0.00     0.198 A 
ATOM     66  F   UNL A   1      41.115  35.138  35.698  1.00  0.00    -0.203 F 
ATOM     67  F   UNL A   1      37.741  33.545  39.681  1.00  0.00    -0.200 F 
ATOM     68  C   UNL A   1      39.270  35.121  38.814  1.00  0.00     0.200 A 
ATOM     69  F   UNL A   1      40.795  36.675  37.901  1.00  0.00    -0.200 F 
ATOM     70  F   UNL A   1      39.099  35.901  39.890  1.00  0.00    -0.200 F 
ENDBRANCH  46  60
BRANCH  47  71
ATOM     71  C   UNL A   1      40.890  27.892  28.379  1.00  0.00     0.064 A 
ATOM     72  C   UNL A   1      40.269  26.645  28.220  1.00  0.00     0.173 A 
ATOM     73  C   UNL A   1      41.735  28.335  27.351  1.00  0.00     0.173 A 
ATOM     74  F   UNL A   1      39.466  26.169  29.183  1.00  0.00    -0.203 F 
ATOM     75  C   UNL A   1      40.508  25.860  27.094  1.00  0.00     0.198 A 
ATOM     76  C   UNL A   1      41.948  27.564  26.210  1.00  0.00     0.198 A 
ATOM     77  F   UNL A   1      42.347  29.524  27.450  1.00  0.00    -0.203 F 
ATOM     78  F   UNL A   1      39.946  24.648  26.994  1.00  0.00    -0.200 F 
ATOM     79  C   UNL A   1      41.343  26.323  26.088  1.00  0.00     0.200 A 
ATOM     80  F   UNL A   1      42.741  28.023  25.233  1.00  0.00    -0.200 F 
ATOM     81  F   UNL A   1      41.572  25.568  25.004  1.00  0.00    -0.200 F 
ENDBRANCH  47  71
BRANCH  59  82
ATOM     82  C   UNL A   1      43.886  27.975  34.661  1.00  0.00     0.064 A 
ATOM     83  C   UNL A   1      45.241  28.320  34.544  1.00  0.00     0.173 A 
ATOM     84  C   UNL A   1      43.565  26.808  35.370  1.00  0.00     0.173 A 
ATOM     85  F   UNL A   1      45.603  29.417  33.864  1.00  0.00    -0.203 F 
ATOM     86  C   UNL A   1      46.236  27.503  35.077  1.00  0.00     0.198 A 
ATOM     87  C   UNL A   1      44.560  26.013  35.933  1.00  0.00     0.198 A 
ATOM     88  F   UNL A   1      42.284  26.437  35.520  1.00  0.00    -0.203 F 
ATOM     89  F   UNL A   1      47.526  27.817  34.894  1.00  0.00    -0.200 F 
ATOM     90  C   UNL A   1      45.895  26.354  35.774  1.00  0.00     0.200 A 
ATOM     91  F   UNL A   1      44.228  24.910  36.618  1.00  0.00    -0.200 F 
ATOM     92  F   UNL A   1      46.854  25.568  36.282  1.00  0.00    -0.200 F 
ENDBRANCH  59  82
ENDBRANCH  33  34
ENDBRANCH  25  28
ENDBRANCH  23  24
ENDBRANCH  22  23
ENDBRANCH  21  22
ENDBRANCH   1  21
TORSDOF 16
ENDMDL
