MODEL 1
REMARK VINA RESULT:     -12.4      0.000      0.000
REMARK SMILES COCCN1C(=O)C[C@H](C(=O)NCCCCNC(=O)c2ccc(-c3c4nc(c(-c5c(F)c(F)c(F)c(F)c5F)c5ccc([nH]5)c(-c5c(F)c(F)c(F)c(F)c5F)c5nc(c(-c6c(F)c(F)c(F)c(F)c6F)c6ccc3[nH]6)C=C5)C=C4)cc2)[C@@H]1c1ccccc1N1CCOCC1
REMARK SMILES IDX 14 1 13 2 12 3 10 4 11 5 9 7 5 8 6 9 83 10 7 11 8 12 4 13
REMARK SMILES IDX 3 14 2 15 1 16 84 17 85 18 89 19 86 20 88 21 87 22 90 23
REMARK SMILES IDX 91 24 95 25 92 26 94 27 93 28 15 29 16 30 17 31 18 32 19 34
REMARK SMILES IDX 20 35 21 36 82 37 22 38 81 39 23 40 24 41 25 42 75 43 26 44
REMARK SMILES IDX 80 45 74 46 76 47 27 48 79 49 73 50 72 51 28 53 60 54 40 55
REMARK SMILES IDX 59 56 41 57 44 58 58 59 77 60 42 61 43 62 57 64 78 65 45 66
REMARK SMILES IDX 29 67 30 68 38 69 31 70 32 71 36 72 39 73 33 74 34 75 37 76
REMARK SMILES IDX 35 77 61 78 62 79 70 80 63 81 64 82 68 83 71 84 65 85 66 86
REMARK SMILES IDX 69 87 67 88 46 89 47 90 55 91 48 92 49 93 53 94 56 95 50 96
REMARK SMILES IDX 51 97 54 98 52 99
REMARK H PARENT 12 6 17 33 76 52 44 63
REMARK Flexibility Score: inf
ROOT
ATOM      1  C   UNL A   1      31.407  31.022  26.096  1.00  0.00     0.023 C 
ENDROOT
BRANCH   1   2
ATOM      2  C   UNL A   1      32.527  30.253  26.782  1.00  0.00     0.116 C 
BRANCH   2   3
ATOM      3  N   UNL A   1      32.065  28.999  27.327  1.00  0.00    -0.356 N 
ATOM      4  C   UNL A   1      32.311  27.726  26.950  1.00  0.00     0.226 C 
ATOM      5  O   UNL A   1      31.678  26.856  27.564  1.00  0.00    -0.275 OA
ATOM      6  H   UNL A   1      31.471  29.086  28.106  1.00  0.00     0.163 HD
BRANCH   4   7
ATOM      7  C   UNL A   1      33.122  27.308  25.745  1.00  0.00     0.115 C 
ATOM      8  N   UNL A   1      33.284  25.737  23.973  1.00  0.00    -0.332 N 
ATOM      9  C   UNL A   1      34.308  25.470  24.878  1.00  0.00     0.224 C 
ATOM     10  C   UNL A   1      32.575  26.983  24.339  1.00  0.00     0.130 C 
ATOM     11  O   UNL A   1      35.293  24.777  24.699  1.00  0.00    -0.275 OA
ATOM     12  C   UNL A   1      33.964  26.116  26.170  1.00  0.00     0.116 C 
BRANCH   8  13
ATOM     13  C   UNL A   1      33.383  25.211  22.607  1.00  0.00     0.148 C 
BRANCH  13  14
ATOM     14  C   UNL A   1      32.912  26.185  21.502  1.00  0.00     0.181 C 
BRANCH  14  15
ATOM     15  O   UNL A   1      33.245  25.762  20.173  1.00  0.00    -0.383 OA
ATOM     16  C   UNL A   1      32.109  25.470  19.365  1.00  0.00     0.194 C 
ENDBRANCH  14  15
ENDBRANCH  13  14
ENDBRANCH   8  13
BRANCH  10  17
ATOM     17  C   UNL A   1      31.091  27.129  24.021  1.00  0.00    -0.001 A 
ATOM     18  C   UNL A   1      30.616  28.285  23.352  1.00  0.00     0.008 A 
ATOM     19  C   UNL A   1      30.143  26.114  24.355  1.00  0.00     0.042 A 
ATOM     20  C   UNL A   1      29.265  28.473  23.053  1.00  0.00     0.001 A 
ATOM     21  C   UNL A   1      28.780  26.350  24.058  1.00  0.00     0.026 A 
ATOM     22  C   UNL A   1      28.343  27.508  23.417  1.00  0.00     0.002 A 
BRANCH  19  23
ATOM     23  N   UNL A   1      30.529  24.866  24.855  1.00  0.00    -0.367 N 
ATOM     24  C   UNL A   1      30.068  24.446  26.191  1.00  0.00     0.145 C 
ATOM     25  C   UNL A   1      30.604  23.723  23.908  1.00  0.00     0.145 C 
ATOM     26  C   UNL A   1      30.973  23.306  26.694  1.00  0.00     0.181 C 
ATOM     27  C   UNL A   1      31.409  22.556  24.503  1.00  0.00     0.181 C 
ATOM     28  O   UNL A   1      30.926  22.180  25.801  1.00  0.00    -0.378 OA
ENDBRANCH  19  23
ENDBRANCH  10  17
ENDBRANCH   4   7
ENDBRANCH   2   3
ENDBRANCH   1   2
BRANCH   1  29
ATOM     29  C   UNL A   1      31.371  32.516  26.446  1.00  0.00     0.023 C 
BRANCH  29  30
ATOM     30  C   UNL A   1      32.541  33.025  27.289  1.00  0.00     0.116 C 
BRANCH  30  31
ATOM     31  N   UNL A   1      32.354  34.397  27.736  1.00  0.00    -0.352 N 
ATOM     32  C   UNL A   1      32.982  35.096  28.736  1.00  0.00     0.251 C 
ATOM     33  H   UNL A   1      31.669  34.904  27.244  1.00  0.00     0.163 HD
ATOM     34  O   UNL A   1      32.540  36.183  29.095  1.00  0.00    -0.269 OA
BRANCH  32  35
ATOM     35  C   UNL A   1      34.182  34.541  29.399  1.00  0.00     0.039 A 
ATOM     36  C   UNL A   1      34.033  33.887  30.623  1.00  0.00     0.014 A 
ATOM     37  C   UNL A   1      35.453  34.686  28.834  1.00  0.00     0.014 A 
ATOM     38  C   UNL A   1      35.147  33.320  31.245  1.00  0.00     0.010 A 
ATOM     39  C   UNL A   1      36.550  34.052  29.417  1.00  0.00     0.010 A 
ATOM     40  C   UNL A   1      36.409  33.360  30.627  1.00  0.00    -0.014 A 
BRANCH  40  41
ATOM     41  C   UNL A   1      37.567  32.648  31.232  1.00  0.00     0.031 A 
ATOM     42  C   UNL A   1      38.091  33.034  32.588  1.00  0.00     0.074 A 
ATOM     43  C   UNL A   1      38.166  31.661  30.536  1.00  0.00     0.049 A 
ATOM     44  N   UNL A   1      39.075  32.506  33.275  1.00  0.00    -0.248 NA
ATOM     45  C   UNL A   1      37.445  34.175  33.253  1.00  0.00     0.031 C 
ATOM     46  C   UNL A   1      37.791  31.234  29.186  1.00  0.00     0.029 A 
ATOM     47  N   UNL A   1      39.210  30.835  30.866  1.00  0.00    -0.354 N 
ATOM     48  C   UNL A   1      39.161  33.245  34.447  1.00  0.00     0.074 A 
ATOM     49  C   UNL A   1      38.173  34.298  34.353  1.00  0.00     0.031 C 
ATOM     50  C   UNL A   1      38.563  30.200  28.821  1.00  0.00     0.029 A 
ATOM     51  C   UNL A   1      39.515  29.916  29.890  1.00  0.00     0.049 A 
ATOM     52  H   UNL A   1      39.696  30.894  31.720  1.00  0.00     0.167 HD
ATOM     53  C   UNL A   1      39.970  33.046  35.516  1.00  0.00     0.037 A 
ATOM     54  C   UNL A   1      40.455  28.952  29.860  1.00  0.00     0.037 A 
ATOM     55  C   UNL A   1      40.947  31.992  35.610  1.00  0.00     0.049 A 
ATOM     56  C   UNL A   1      41.348  28.765  31.057  1.00  0.00     0.074 A 
ATOM     57  C   UNL A   1      41.780  31.678  36.670  1.00  0.00     0.029 A 
ATOM     58  N   UNL A   1      41.231  31.083  34.600  1.00  0.00    -0.354 N 
ATOM     59  N   UNL A   1      41.361  29.418  32.194  1.00  0.00    -0.248 NA
ATOM     60  C   UNL A   1      42.351  27.695  30.969  1.00  0.00     0.031 C 
ATOM     61  C   UNL A   1      42.607  30.619  36.283  1.00  0.00     0.029 A 
ATOM     62  C   UNL A   1      42.246  30.227  35.003  1.00  0.00     0.049 A 
ATOM     63  H   UNL A   1      40.779  31.051  33.726  1.00  0.00     0.167 HD
ATOM     64  C   UNL A   1      42.353  28.823  32.963  1.00  0.00     0.074 A 
ATOM     65  C   UNL A   1      42.894  27.736  32.175  1.00  0.00     0.031 C 
ATOM     66  C   UNL A   1      42.781  29.151  34.207  1.00  0.00     0.037 A 
BRANCH  53  67
ATOM     67  C   UNL A   1      39.832  33.986  36.681  1.00  0.00     0.064 A 
ATOM     68  C   UNL A   1      38.990  33.694  37.767  1.00  0.00     0.173 A 
ATOM     69  C   UNL A   1      40.590  35.165  36.742  1.00  0.00     0.173 A 
ATOM     70  F   UNL A   1      38.234  32.586  37.756  1.00  0.00    -0.203 F 
ATOM     71  C   UNL A   1      38.894  34.558  38.855  1.00  0.00     0.198 A 
ATOM     72  C   UNL A   1      40.517  36.010  37.847  1.00  0.00     0.198 A 
ATOM     73  F   UNL A   1      41.415  35.491  35.737  1.00  0.00    -0.203 F 
ATOM     74  F   UNL A   1      38.049  34.279  39.857  1.00  0.00    -0.200 F 
ATOM     75  C   UNL A   1      39.665  35.709  38.899  1.00  0.00     0.200 A 
ATOM     76  F   UNL A   1      41.275  37.115  37.895  1.00  0.00    -0.200 F 
ATOM     77  F   UNL A   1      39.582  36.533  39.953  1.00  0.00    -0.200 F 
ENDBRANCH  53  67
BRANCH  54  78
ATOM     78  C   UNL A   1      40.590  28.075  28.666  1.00  0.00     0.064 A 
ATOM     79  C   UNL A   1      41.376  28.460  27.570  1.00  0.00     0.173 A 
ATOM     80  C   UNL A   1      39.914  26.849  28.583  1.00  0.00     0.173 A 
ATOM     81  F   UNL A   1      42.027  29.632  27.592  1.00  0.00    -0.203 F 
ATOM     82  C   UNL A   1      41.452  27.670  26.425  1.00  0.00     0.198 A 
ATOM     83  C   UNL A   1      40.021  26.042  27.452  1.00  0.00     0.198 A 
ATOM     84  F   UNL A   1      39.154  26.429  29.605  1.00  0.00    -0.203 F 
ATOM     85  F   UNL A   1      42.160  28.093  25.369  1.00  0.00    -0.200 F 
ATOM     86  C   UNL A   1      40.779  26.459  26.368  1.00  0.00     0.200 A 
ATOM     87  F   UNL A   1      39.383  24.864  27.410  1.00  0.00    -0.200 F 
ATOM     88  F   UNL A   1      40.853  25.700  25.268  1.00  0.00    -0.200 F 
ENDBRANCH  54  78
BRANCH  66  89
ATOM     89  C   UNL A   1      43.873  28.303  34.798  1.00  0.00     0.064 A 
ATOM     90  C   UNL A   1      45.229  28.634  34.648  1.00  0.00     0.173 A 
ATOM     91  C   UNL A   1      43.560  27.141  35.520  1.00  0.00     0.173 A 
ATOM     92  F   UNL A   1      45.585  29.727  33.956  1.00  0.00    -0.203 F 
ATOM     93  C   UNL A   1      46.229  27.807  35.154  1.00  0.00     0.198 A 
ATOM     94  C   UNL A   1      44.562  26.339  36.059  1.00  0.00     0.198 A 
ATOM     95  F   UNL A   1      42.281  26.781  35.704  1.00  0.00    -0.203 F 
ATOM     96  F   UNL A   1      47.516  28.105  34.931  1.00  0.00    -0.200 F 
ATOM     97  C   UNL A   1      45.895  26.663  35.862  1.00  0.00     0.200 A 
ATOM     98  F   UNL A   1      44.237  25.243  36.759  1.00  0.00    -0.200 F 
ATOM     99  F   UNL A   1      46.859  25.868  36.345  1.00  0.00    -0.200 F 
ENDBRANCH  66  89
ENDBRANCH  40  41
ENDBRANCH  32  35
ENDBRANCH  30  31
ENDBRANCH  29  30
ENDBRANCH   1  29
TORSDOF 16
ENDMDL
MODEL 2
REMARK VINA RESULT:     -12.3      0.555      7.180
REMARK SMILES COCCN1C(=O)C[C@H](C(=O)NCCCCNC(=O)c2ccc(-c3c4nc(c(-c5c(F)c(F)c(F)c(F)c5F)c5ccc([nH]5)c(-c5c(F)c(F)c(F)c(F)c5F)c5nc(c(-c6c(F)c(F)c(F)c(F)c6F)c6ccc3[nH]6)C=C5)C=C4)cc2)[C@@H]1c1ccccc1N1CCOCC1
REMARK SMILES IDX 14 1 13 2 12 3 10 4 11 5 9 7 5 8 6 9 83 10 7 11 8 12 4 13
REMARK SMILES IDX 3 14 2 15 1 16 84 17 85 18 89 19 86 20 88 21 87 22 90 23
REMARK SMILES IDX 91 24 95 25 92 26 94 27 93 28 15 29 16 30 17 31 18 32 19 34
REMARK SMILES IDX 20 35 21 36 82 37 22 38 81 39 23 40 24 41 25 42 75 43 26 44
REMARK SMILES IDX 80 45 74 46 76 47 27 48 79 49 73 50 72 51 28 53 60 54 40 55
REMARK SMILES IDX 59 56 41 57 44 58 58 59 77 60 42 61 43 62 57 64 78 65 45 66
REMARK SMILES IDX 29 67 30 68 38 69 31 70 32 71 36 72 39 73 33 74 34 75 37 76
REMARK SMILES IDX 35 77 61 78 62 79 70 80 63 81 64 82 68 83 71 84 65 85 66 86
REMARK SMILES IDX 69 87 67 88 46 89 47 90 55 91 48 92 49 93 53 94 56 95 50 96
REMARK SMILES IDX 51 97 54 98 52 99
REMARK H PARENT 12 6 17 33 76 52 44 63
REMARK Flexibility Score: inf
ROOT
ATOM      1  C   UNL A   1      31.401  30.967  26.106  1.00  0.00     0.023 C 
ENDROOT
BRANCH   1   2
ATOM      2  C   UNL A   1      32.520  30.211  26.811  1.00  0.00     0.116 C 
BRANCH   2   3
ATOM      3  N   UNL A   1      32.063  28.952  27.349  1.00  0.00    -0.356 N 
ATOM      4  C   UNL A   1      32.316  27.682  26.967  1.00  0.00     0.226 C 
ATOM      5  O   UNL A   1      31.686  26.806  27.576  1.00  0.00    -0.275 OA
ATOM      6  H   UNL A   1      31.468  29.033  28.129  1.00  0.00     0.163 HD
BRANCH   4   7
ATOM      7  C   UNL A   1      33.129  27.273  25.760  1.00  0.00     0.115 C 
ATOM      8  N   UNL A   1      33.288  25.725  23.968  1.00  0.00    -0.332 N 
ATOM      9  C   UNL A   1      34.305  25.437  24.875  1.00  0.00     0.224 C 
ATOM     10  C   UNL A   1      32.587  26.972  24.348  1.00  0.00     0.130 C 
ATOM     11  O   UNL A   1      35.285  24.739  24.692  1.00  0.00    -0.275 OA
ATOM     12  C   UNL A   1      33.959  26.068  26.174  1.00  0.00     0.116 C 
BRANCH   8  13
ATOM     13  C   UNL A   1      33.390  25.216  22.596  1.00  0.00     0.148 C 
BRANCH  13  14
ATOM     14  C   UNL A   1      32.932  26.209  21.502  1.00  0.00     0.181 C 
BRANCH  14  15
ATOM     15  O   UNL A   1      33.266  25.799  20.169  1.00  0.00    -0.383 OA
ATOM     16  C   UNL A   1      32.133  25.466  19.373  1.00  0.00     0.194 C 
ENDBRANCH  14  15
ENDBRANCH  13  14
ENDBRANCH   8  13
BRANCH  10  17
ATOM     17  C   UNL A   1      31.106  27.135  24.023  1.00  0.00    -0.001 A 
ATOM     18  C   UNL A   1      30.648  28.295  23.349  1.00  0.00     0.008 A 
ATOM     19  C   UNL A   1      30.145  26.132  24.358  1.00  0.00     0.042 A 
ATOM     20  C   UNL A   1      29.300  28.497  23.045  1.00  0.00     0.001 A 
ATOM     21  C   UNL A   1      28.786  26.384  24.055  1.00  0.00     0.026 A 
ATOM     22  C   UNL A   1      28.365  27.545  23.408  1.00  0.00     0.002 A 
BRANCH  19  23
ATOM     23  N   UNL A   1      30.514  24.882  24.863  1.00  0.00    -0.367 N 
ATOM     24  C   UNL A   1      30.021  24.461  26.188  1.00  0.00     0.145 C 
ATOM     25  C   UNL A   1      30.604  23.740  23.916  1.00  0.00     0.145 C 
ATOM     26  C   UNL A   1      30.910  23.315  26.709  1.00  0.00     0.181 C 
ATOM     27  C   UNL A   1      31.391  22.568  24.526  1.00  0.00     0.181 C 
ATOM     28  O   UNL A   1      30.878  22.192  25.812  1.00  0.00    -0.378 OA
ENDBRANCH  19  23
ENDBRANCH  10  17
ENDBRANCH   4   7
ENDBRANCH   2   3
ENDBRANCH   1   2
BRANCH   1  29
ATOM     29  C   UNL A   1      31.340  32.459  26.459  1.00  0.00     0.023 C 
BRANCH  29  30
ATOM     30  C   UNL A   1      32.517  32.995  27.273  1.00  0.00     0.116 C 
BRANCH  30  31
ATOM     31  N   UNL A   1      32.343  34.386  27.662  1.00  0.00    -0.352 N 
ATOM     32  C   UNL A   1      32.936  35.105  28.669  1.00  0.00     0.251 C 
ATOM     33  H   UNL A   1      31.697  34.891  27.116  1.00  0.00     0.163 HD
ATOM     34  O   UNL A   1      32.504  36.215  28.966  1.00  0.00    -0.269 OA
BRANCH  32  35
ATOM     35  C   UNL A   1      34.086  34.546  29.412  1.00  0.00     0.039 A 
ATOM     36  C   UNL A   1      33.862  33.969  30.663  1.00  0.00     0.014 A 
ATOM     37  C   UNL A   1      35.384  34.612  28.896  1.00  0.00     0.014 A 
ATOM     38  C   UNL A   1      34.926  33.399  31.364  1.00  0.00     0.010 A 
ATOM     39  C   UNL A   1      36.431  33.973  29.559  1.00  0.00     0.010 A 
ATOM     40  C   UNL A   1      36.213  33.357  30.799  1.00  0.00    -0.014 A 
BRANCH  40  41
ATOM     41  C   UNL A   1      37.317  32.640  31.492  1.00  0.00     0.031 A 
ATOM     42  C   UNL A   1      38.005  31.468  30.848  1.00  0.00     0.074 A 
ATOM     43  C   UNL A   1      37.682  33.036  32.728  1.00  0.00     0.049 A 
ATOM     44  N   UNL A   1      38.999  30.743  31.298  1.00  0.00    -0.248 NA
ATOM     45  C   UNL A   1      37.498  31.037  29.536  1.00  0.00     0.031 C 
ATOM     46  C   UNL A   1      37.053  34.120  33.487  1.00  0.00     0.029 A 
ATOM     47  N   UNL A   1      38.672  32.582  33.562  1.00  0.00    -0.354 N 
ATOM     48  C   UNL A   1      39.237  29.778  30.328  1.00  0.00     0.074 A 
ATOM     49  C   UNL A   1      38.243  29.968  29.294  1.00  0.00     0.031 C 
ATOM     50  C   UNL A   1      37.697  34.273  34.653  1.00  0.00     0.029 A 
ATOM     51  C   UNL A   1      38.757  33.275  34.745  1.00  0.00     0.049 A 
ATOM     52  H   UNL A   1      39.265  31.829  33.335  1.00  0.00     0.167 HD
ATOM     53  C   UNL A   1      40.212  28.837  30.291  1.00  0.00     0.037 A 
ATOM     54  C   UNL A   1      39.596  33.125  35.788  1.00  0.00     0.037 A 
ATOM     55  C   UNL A   1      41.204  28.655  31.319  1.00  0.00     0.049 A 
ATOM     56  C   UNL A   1      40.660  32.062  35.723  1.00  0.00     0.074 A 
ATOM     57  C   UNL A   1      42.263  27.763  31.350  1.00  0.00     0.029 A 
ATOM     58  N   UNL A   1      41.256  29.373  32.505  1.00  0.00    -0.354 N 
ATOM     59  N   UNL A   1      40.926  31.211  34.762  1.00  0.00    -0.248 NA
ATOM     60  C   UNL A   1      41.549  31.948  36.888  1.00  0.00     0.031 C 
ATOM     61  C   UNL A   1      42.919  27.900  32.577  1.00  0.00     0.029 A 
ATOM     62  C   UNL A   1      42.312  28.923  33.286  1.00  0.00     0.049 A 
ATOM     63  H   UNL A   1      40.636  30.095  32.756  1.00  0.00     0.167 HD
ATOM     64  C   UNL A   1      42.025  30.480  35.193  1.00  0.00     0.074 A 
ATOM     65  C   UNL A   1      42.395  31.012  36.488  1.00  0.00     0.031 C 
ATOM     66  C   UNL A   1      42.667  29.457  34.577  1.00  0.00     0.037 A 
BRANCH  53  67
ATOM     67  C   UNL A   1      40.261  27.930  29.093  1.00  0.00     0.064 A 
ATOM     68  C   UNL A   1      41.047  28.235  27.970  1.00  0.00     0.173 A 
ATOM     69  C   UNL A   1      39.561  26.714  29.088  1.00  0.00     0.173 A 
ATOM     70  F   UNL A   1      41.729  29.390  27.917  1.00  0.00    -0.203 F 
ATOM     71  C   UNL A   1      41.110  27.372  26.880  1.00  0.00     0.198 A 
ATOM     72  C   UNL A   1      39.652  25.837  28.010  1.00  0.00     0.198 A 
ATOM     73  F   UNL A   1      38.800  26.367  30.136  1.00  0.00    -0.203 F 
ATOM     74  F   UNL A   1      41.830  27.708  25.801  1.00  0.00    -0.200 F 
ATOM     75  C   UNL A   1      40.420  26.169  26.905  1.00  0.00     0.200 A 
ATOM     76  F   UNL A   1      38.998  24.667  28.043  1.00  0.00    -0.200 F 
ATOM     77  F   UNL A   1      40.492  25.332  25.860  1.00  0.00    -0.200 F 
ENDBRANCH  53  67
BRANCH  54  78
ATOM     78  C   UNL A   1      39.481  34.013  36.976  1.00  0.00     0.064 A 
ATOM     79  C   UNL A   1      40.117  35.262  37.011  1.00  0.00     0.173 A 
ATOM     80  C   UNL A   1      38.760  33.620  38.113  1.00  0.00     0.173 A 
ATOM     81  F   UNL A   1      40.835  35.676  35.956  1.00  0.00    -0.203 F 
ATOM     82  C   UNL A   1      40.064  36.068  38.147  1.00  0.00     0.198 A 
ATOM     83  C   UNL A   1      38.677  34.441  39.234  1.00  0.00     0.198 A 
ATOM     84  F   UNL A   1      38.127  32.437  38.132  1.00  0.00    -0.203 F 
ATOM     85  F   UNL A   1      40.734  37.227  38.173  1.00  0.00    -0.200 F 
ATOM     86  C   UNL A   1      39.340  35.659  39.256  1.00  0.00     0.200 A 
ATOM     87  F   UNL A   1      37.961  34.050  40.298  1.00  0.00    -0.200 F 
ATOM     88  F   UNL A   1      39.290  36.433  40.348  1.00  0.00    -0.200 F 
ENDBRANCH  54  78
BRANCH  66  89
ATOM     89  C   UNL A   1      43.852  28.867  35.290  1.00  0.00     0.064 A 
ATOM     90  C   UNL A   1      43.709  27.840  36.236  1.00  0.00     0.173 A 
ATOM     91  C   UNL A   1      45.148  29.338  35.028  1.00  0.00     0.173 A 
ATOM     92  F   UNL A   1      42.491  27.362  36.535  1.00  0.00    -0.203 F 
ATOM     93  C   UNL A   1      44.810  27.344  36.929  1.00  0.00     0.198 A 
ATOM     94  C   UNL A   1      46.251  28.810  35.693  1.00  0.00     0.198 A 
ATOM     95  F   UNL A   1      45.346  30.310  34.126  1.00  0.00    -0.203 F 
ATOM     96  F   UNL A   1      44.638  26.418  37.882  1.00  0.00    -0.200 F 
ATOM     97  C   UNL A   1      46.080  27.826  36.654  1.00  0.00     0.200 A 
ATOM     98  F   UNL A   1      47.481  29.265  35.412  1.00  0.00    -0.200 F 
ATOM     99  F   UNL A   1      47.139  27.349  37.323  1.00  0.00    -0.200 F 
ENDBRANCH  66  89
ENDBRANCH  40  41
ENDBRANCH  32  35
ENDBRANCH  30  31
ENDBRANCH  29  30
ENDBRANCH   1  29
TORSDOF 16
ENDMDL
MODEL 3
REMARK VINA RESULT:     -12.0      0.743      7.129
REMARK SMILES COCCN1C(=O)C[C@H](C(=O)NCCCCNC(=O)c2ccc(-c3c4nc(c(-c5c(F)c(F)c(F)c(F)c5F)c5ccc([nH]5)c(-c5c(F)c(F)c(F)c(F)c5F)c5nc(c(-c6c(F)c(F)c(F)c(F)c6F)c6ccc3[nH]6)C=C5)C=C4)cc2)[C@@H]1c1ccccc1N1CCOCC1
REMARK SMILES IDX 14 1 13 2 12 3 10 4 11 5 9 7 5 8 6 9 83 10 7 11 8 12 4 13
REMARK SMILES IDX 3 14 2 15 1 16 84 17 85 18 89 19 86 20 88 21 87 22 90 23
REMARK SMILES IDX 91 24 95 25 92 26 94 27 93 28 15 29 16 30 17 31 18 32 19 34
REMARK SMILES IDX 20 35 21 36 82 37 22 38 81 39 23 40 24 41 25 42 75 43 26 44
REMARK SMILES IDX 80 45 74 46 76 47 27 48 79 49 73 50 72 51 28 53 60 54 40 55
REMARK SMILES IDX 59 56 41 57 44 58 58 59 77 60 42 61 43 62 57 64 78 65 45 66
REMARK SMILES IDX 29 67 30 68 38 69 31 70 32 71 36 72 39 73 33 74 34 75 37 76
REMARK SMILES IDX 35 77 61 78 62 79 70 80 63 81 64 82 68 83 71 84 65 85 66 86
REMARK SMILES IDX 69 87 67 88 46 89 47 90 55 91 48 92 49 93 53 94 56 95 50 96
REMARK SMILES IDX 51 97 54 98 52 99
REMARK H PARENT 12 6 17 33 76 52 44 63
REMARK Flexibility Score: inf
ROOT
ATOM      1  C   UNL A   1      31.504  31.027  26.211  1.00  0.00     0.023 C 
ENDROOT
BRANCH   1   2
ATOM      2  C   UNL A   1      32.578  30.231  26.940  1.00  0.00     0.116 C 
BRANCH   2   3
ATOM      3  N   UNL A   1      32.094  28.942  27.372  1.00  0.00    -0.356 N 
ATOM      4  C   UNL A   1      32.391  27.696  26.945  1.00  0.00     0.226 C 
ATOM      5  O   UNL A   1      31.723  26.784  27.454  1.00  0.00    -0.275 OA
ATOM      6  H   UNL A   1      31.435  28.977  28.103  1.00  0.00     0.163 HD
BRANCH   4   7
ATOM      7  C   UNL A   1      33.305  27.357  25.790  1.00  0.00     0.115 C 
ATOM      8  N   UNL A   1      33.515  26.087  23.797  1.00  0.00    -0.332 N 
ATOM      9  C   UNL A   1      34.354  25.523  24.755  1.00  0.00     0.224 C 
ATOM     10  C   UNL A   1      32.929  27.351  24.294  1.00  0.00     0.130 C 
ATOM     11  O   UNL A   1      35.256  24.726  24.574  1.00  0.00    -0.275 OA
ATOM     12  C   UNL A   1      33.915  25.998  26.092  1.00  0.00     0.116 C 
BRANCH   8  13
ATOM     13  C   UNL A   1      33.740  25.778  22.381  1.00  0.00     0.148 C 
BRANCH  13  14
ATOM     14  C   UNL A   1      32.804  24.693  21.798  1.00  0.00     0.181 C 
BRANCH  14  15
ATOM     15  O   UNL A   1      33.467  23.461  21.485  1.00  0.00    -0.383 OA
ATOM     16  C   UNL A   1      33.570  22.570  22.592  1.00  0.00     0.194 C 
ENDBRANCH  14  15
ENDBRANCH  13  14
ENDBRANCH   8  13
BRANCH  10  17
ATOM     17  C   UNL A   1      31.538  27.772  23.832  1.00  0.00    -0.001 A 
ATOM     18  C   UNL A   1      31.363  28.979  23.109  1.00  0.00     0.008 A 
ATOM     19  C   UNL A   1      30.383  26.970  24.083  1.00  0.00     0.042 A 
ATOM     20  C   UNL A   1      30.109  29.416  22.679  1.00  0.00     0.001 A 
ATOM     21  C   UNL A   1      29.127  27.457  23.653  1.00  0.00     0.026 A 
ATOM     22  C   UNL A   1      28.986  28.658  22.961  1.00  0.00     0.002 A 
BRANCH  19  23
ATOM     23  N   UNL A   1      30.470  25.686  24.631  1.00  0.00    -0.367 N 
ATOM     24  C   UNL A   1      29.783  25.392  25.902  1.00  0.00     0.145 C 
ATOM     25  C   UNL A   1      30.444  24.525  23.704  1.00  0.00     0.145 C 
ATOM     26  C   UNL A   1      30.397  24.119  26.516  1.00  0.00     0.181 C 
ATOM     27  C   UNL A   1      30.943  23.246  24.396  1.00  0.00     0.181 C 
ATOM     28  O   UNL A   1      30.249  22.998  25.627  1.00  0.00    -0.378 OA
ENDBRANCH  19  23
ENDBRANCH  10  17
ENDBRANCH   4   7
ENDBRANCH   2   3
ENDBRANCH   1   2
BRANCH   1  29
ATOM     29  C   UNL A   1      31.370  32.478  26.693  1.00  0.00     0.023 C 
BRANCH  29  30
ATOM     30  C   UNL A   1      32.632  33.093  27.299  1.00  0.00     0.116 C 
BRANCH  30  31
ATOM     31  N   UNL A   1      32.432  34.466  27.736  1.00  0.00    -0.352 N 
ATOM     32  C   UNL A   1      33.007  35.158  28.772  1.00  0.00     0.251 C 
ATOM     33  H   UNL A   1      31.782  34.980  27.203  1.00  0.00     0.163 HD
ATOM     34  O   UNL A   1      32.554  36.250  29.105  1.00  0.00    -0.269 OA
BRANCH  32  35
ATOM     35  C   UNL A   1      34.160  34.592  29.504  1.00  0.00     0.039 A 
ATOM     36  C   UNL A   1      33.952  34.053  30.774  1.00  0.00     0.014 A 
ATOM     37  C   UNL A   1      35.447  34.613  28.956  1.00  0.00     0.014 A 
ATOM     38  C   UNL A   1      35.019  33.476  31.465  1.00  0.00     0.010 A 
ATOM     39  C   UNL A   1      36.494  33.967  29.613  1.00  0.00     0.010 A 
ATOM     40  C   UNL A   1      36.291  33.389  30.874  1.00  0.00    -0.014 A 
BRANCH  40  41
ATOM     41  C   UNL A   1      37.393  32.664  31.560  1.00  0.00     0.031 A 
ATOM     42  C   UNL A   1      38.083  31.501  30.903  1.00  0.00     0.074 A 
ATOM     43  C   UNL A   1      37.755  33.045  32.801  1.00  0.00     0.049 A 
ATOM     44  N   UNL A   1      39.077  30.770  31.347  1.00  0.00    -0.248 NA
ATOM     45  C   UNL A   1      37.580  31.085  29.585  1.00  0.00     0.031 C 
ATOM     46  C   UNL A   1      37.123  34.119  33.572  1.00  0.00     0.029 A 
ATOM     47  N   UNL A   1      38.743  32.581  33.632  1.00  0.00    -0.354 N 
ATOM     48  C   UNL A   1      39.318  29.818  30.365  1.00  0.00     0.074 A 
ATOM     49  C   UNL A   1      38.327  30.020  29.331  1.00  0.00     0.031 C 
ATOM     50  C   UNL A   1      37.764  34.258  34.742  1.00  0.00     0.029 A 
ATOM     51  C   UNL A   1      38.825  33.259  34.824  1.00  0.00     0.049 A 
ATOM     52  H   UNL A   1      39.338  31.832  33.397  1.00  0.00     0.167 HD
ATOM     53  C   UNL A   1      40.294  28.878  30.319  1.00  0.00     0.037 A 
ATOM     54  C   UNL A   1      39.661  33.097  35.867  1.00  0.00     0.037 A 
ATOM     55  C   UNL A   1      41.284  28.684  31.347  1.00  0.00     0.049 A 
ATOM     56  C   UNL A   1      40.726  32.036  35.791  1.00  0.00     0.074 A 
ATOM     57  C   UNL A   1      42.343  27.792  31.369  1.00  0.00     0.029 A 
ATOM     58  N   UNL A   1      41.333  29.388  32.542  1.00  0.00    -0.354 N 
ATOM     59  N   UNL A   1      40.995  31.197  34.820  1.00  0.00    -0.248 NA
ATOM     60  C   UNL A   1      41.612  31.908  36.957  1.00  0.00     0.031 C 
ATOM     61  C   UNL A   1      42.997  27.915  32.599  1.00  0.00     0.029 A 
ATOM     62  C   UNL A   1      42.387  28.929  33.319  1.00  0.00     0.049 A 
ATOM     63  H   UNL A   1      40.711  30.106  32.800  1.00  0.00     0.167 HD
ATOM     64  C   UNL A   1      42.094  30.462  35.246  1.00  0.00     0.074 A 
ATOM     65  C   UNL A   1      42.461  30.978  36.548  1.00  0.00     0.031 C 
ATOM     66  C   UNL A   1      42.738  29.447  34.618  1.00  0.00     0.037 A 
BRANCH  53  67
ATOM     67  C   UNL A   1      40.347  27.986  29.109  1.00  0.00     0.064 A 
ATOM     68  C   UNL A   1      39.616  26.789  29.045  1.00  0.00     0.173 A 
ATOM     69  C   UNL A   1      41.093  28.357  27.980  1.00  0.00     0.173 A 
ATOM     70  F   UNL A   1      38.894  26.381  30.100  1.00  0.00    -0.203 F 
ATOM     71  C   UNL A   1      39.649  25.987  27.907  1.00  0.00     0.198 A 
ATOM     72  C   UNL A   1      41.096  27.570  26.832  1.00  0.00     0.198 A 
ATOM     73  F   UNL A   1      41.806  29.493  27.983  1.00  0.00    -0.203 F 
ATOM     74  F   UNL A   1      38.978  24.827  27.888  1.00  0.00    -0.200 F 
ATOM     75  C   UNL A   1      40.381  26.383  26.798  1.00  0.00     0.200 A 
ATOM     76  F   UNL A   1      41.792  27.961  25.754  1.00  0.00    -0.200 F 
ATOM     77  F   UNL A   1      40.401  25.616  25.698  1.00  0.00    -0.200 F 
ENDBRANCH  53  67
BRANCH  54  78
ATOM     78  C   UNL A   1      39.543  33.970  37.066  1.00  0.00     0.064 A 
ATOM     79  C   UNL A   1      38.802  33.566  38.186  1.00  0.00     0.173 A 
ATOM     80  C   UNL A   1      40.141  35.238  37.106  1.00  0.00     0.173 A 
ATOM     81  F   UNL A   1      38.195  32.369  38.190  1.00  0.00    -0.203 F 
ATOM     82  C   UNL A   1      38.636  34.408  39.284  1.00  0.00     0.198 A 
ATOM     83  C   UNL A   1      40.005  36.065  38.218  1.00  0.00     0.198 A 
ATOM     84  F   UNL A   1      40.866  35.673  36.064  1.00  0.00    -0.203 F 
ATOM     85  F   UNL A   1      37.871  34.019  40.312  1.00  0.00    -0.200 F 
ATOM     86  C   UNL A   1      39.242  35.655  39.302  1.00  0.00     0.200 A 
ATOM     87  F   UNL A   1      40.607  37.262  38.238  1.00  0.00    -0.200 F 
ATOM     88  F   UNL A   1      39.082  36.464  40.356  1.00  0.00    -0.200 F 
ENDBRANCH  54  78
BRANCH  66  89
ATOM     89  C   UNL A   1      43.922  28.849  35.327  1.00  0.00     0.064 A 
ATOM     90  C   UNL A   1      45.229  29.307  35.096  1.00  0.00     0.173 A 
ATOM     91  C   UNL A   1      43.749  27.801  36.244  1.00  0.00     0.173 A 
ATOM     92  F   UNL A   1      45.453  30.297  34.218  1.00  0.00    -0.203 F 
ATOM     93  C   UNL A   1      46.320  28.705  35.718  1.00  0.00     0.198 A 
ATOM     94  C   UNL A   1      44.839  27.230  36.894  1.00  0.00     0.198 A 
ATOM     95  F   UNL A   1      42.522  27.331  36.511  1.00  0.00    -0.203 F 
ATOM     96  F   UNL A   1      47.563  29.109  35.423  1.00  0.00    -0.200 F 
ATOM     97  C   UNL A   1      46.124  27.670  36.619  1.00  0.00     0.200 A 
ATOM     98  F   UNL A   1      44.646  26.241  37.779  1.00  0.00    -0.200 F 
ATOM     99  F   UNL A   1      47.175  27.091  37.215  1.00  0.00    -0.200 F 
ENDBRANCH  66  89
ENDBRANCH  40  41
ENDBRANCH  32  35
ENDBRANCH  30  31
ENDBRANCH  29  30
ENDBRANCH   1  29
TORSDOF 16
ENDMDL
