MODEL 1
REMARK VINA RESULT:     -11.4      0.000      0.000
REMARK SMILES CC[C@@H](C)[C@H](NC(=O)[C@H](C)N1C(=O)N2CCC3=c4cc(OC)ccc4=N[C@@H]3[C@@]2(C)C1=O)C(=O)NCCCCNC(=O)c1ccc(-c2c3nc(c(-c4c(F)c(F)c(F)c(F)c4F)c4ccc([nH]4)c(-c4c(F)c(F)c(F)c(F)c4F)c4nc(c(-c5c(F)c(F)c(F)c(F)c5F)c5ccc2[nH]5)C=C4)C=C3)cc1
REMARK SMILES IDX 35 1 34 2 32 3 33 4 5 6 3 7 4 8 2 9 1 10 6 11 7 12 8 14 9 15
REMARK SMILES IDX 10 16 11 17 12 18 30 19 14 20 13 21 28 22 31 23 15 24 27 25
REMARK SMILES IDX 29 26 16 27 17 28 26 29 18 30 25 31 19 32 24 33 20 34 23 35
REMARK SMILES IDX 21 36 22 37 36 38 37 39 38 40 39 41 40 42 41 44 42 45 43 46
REMARK SMILES IDX 104 47 44 48 103 49 45 50 46 51 47 52 97 53 48 54 102 55
REMARK SMILES IDX 96 56 98 57 49 58 101 59 95 60 94 61 50 63 82 64 62 65 81 66
REMARK SMILES IDX 63 67 66 68 80 69 99 70 64 71 65 72 79 74 100 75 67 76 51 77
REMARK SMILES IDX 52 78 60 79 53 80 54 81 58 82 61 83 55 84 56 85 59 86 57 87
REMARK SMILES IDX 83 88 84 89 92 90 85 91 86 92 90 93 93 94 87 95 88 96 91 97
REMARK SMILES IDX 89 98 68 99 69 100 77 101 70 102 71 103 75 104 78 105 72 106
REMARK SMILES IDX 73 107 76 108 74 109
REMARK H PARENT 34 5 6 13 39 43 98 62 66 73
REMARK Flexibility Score: inf
ROOT
ATOM      1  C   UNL A   1      38.421  29.560  27.890  1.00  0.00     0.116 C 
ENDROOT
BRANCH   1   2
ATOM      2  N   UNL A   1      37.854  30.150  29.089  1.00  0.00    -0.354 N 
ATOM      3  C   UNL A   1      36.611  30.665  29.340  1.00  0.00     0.242 C 
ATOM      4  O   UNL A   1      36.211  30.558  30.508  1.00  0.00    -0.273 OA
ATOM      5  H   UNL A   1      38.471  30.188  29.856  1.00  0.00     0.163 HD
BRANCH   3   6
ATOM      6  C   UNL A   1      35.648  31.163  28.233  1.00  0.00     0.174 C 
BRANCH   6   7
ATOM      7  C   UNL A   1      35.694  32.735  28.039  1.00  0.00     0.018 C 
ATOM      8  C   UNL A   1      36.933  33.437  28.617  1.00  0.00     0.010 C 
BRANCH   7   9
ATOM      9  C   UNL A   1      34.406  33.460  28.500  1.00  0.00     0.002 C 
ATOM     10  C   UNL A   1      34.405  34.973  28.344  1.00  0.00     0.004 C 
ENDBRANCH   7   9
ENDBRANCH   6   7
BRANCH   6  11
ATOM     11  N   UNL A   1      34.302  30.604  28.390  1.00  0.00    -0.342 N 
ATOM     12  C   UNL A   1      33.526  30.148  27.353  1.00  0.00     0.243 C 
ATOM     13  H   UNL A   1      33.929  30.552  29.300  1.00  0.00     0.164 HD
ATOM     14  O   UNL A   1      32.491  30.796  27.132  1.00  0.00    -0.273 OA
BRANCH  12  15
ATOM     15  C   UNL A   1      33.564  28.669  26.923  1.00  0.00     0.181 C 
ATOM     16  C   UNL A   1      35.096  28.516  26.635  1.00  0.00     0.042 C 
BRANCH  15  17
ATOM     17  N   UNL A   1      32.749  28.114  25.834  1.00  0.00    -0.250 N 
ATOM     18  C   UNL A   1      32.467  28.618  24.561  1.00  0.00     0.328 C 
ATOM     19  C   UNL A   1      31.835  27.141  26.101  1.00  0.00     0.259 C 
ATOM     20  N   UNL A   1      31.478  27.750  23.946  1.00  0.00    -0.307 N 
ATOM     21  O   UNL A   1      33.017  29.561  24.013  1.00  0.00    -0.248 OA
ATOM     22  C   UNL A   1      31.410  26.593  24.800  1.00  0.00     0.147 C 
ATOM     23  O   UNL A   1      31.414  26.732  27.174  1.00  0.00    -0.271 OA
ATOM     24  C   UNL A   1      31.321  27.406  22.469  1.00  0.00     0.127 C 
ATOM     25  C   UNL A   1      32.560  25.811  24.162  1.00  0.00     0.168 C 
ATOM     26  C   UNL A   1      29.969  26.069  24.908  1.00  0.00     0.048 C 
ATOM     27  C   UNL A   1      31.366  25.745  22.119  1.00  0.00     0.055 C 
ATOM     28  C   UNL A   1      31.976  24.847  23.229  1.00  0.00    -0.032 C 
ATOM     29  N   UNL A   1      33.766  25.290  24.790  1.00  0.00    -0.274 NA
ATOM     30  C   UNL A   1      32.665  23.688  23.365  1.00  0.00     0.005 A 
ATOM     31  C   UNL A   1      33.948  24.312  23.934  1.00  0.00     0.066 A 
ATOM     32  C   UNL A   1      32.384  22.716  24.519  1.00  0.00     0.056 A 
ATOM     33  C   UNL A   1      35.094  23.399  23.897  1.00  0.00     0.032 A 
ATOM     34  C   UNL A   1      33.462  22.204  25.187  1.00  0.00     0.119 A 
ATOM     35  C   UNL A   1      34.790  22.288  24.578  1.00  0.00     0.048 A 
BRANCH  34  36
ATOM     36  O   UNL A   1      33.441  21.979  26.557  1.00  0.00    -0.497 OA
ATOM     37  C   UNL A   1      32.525  22.872  27.240  1.00  0.00     0.278 C 
ENDBRANCH  34  36
ENDBRANCH  15  17
ENDBRANCH  12  15
ENDBRANCH   6  11
ENDBRANCH   3   6
ENDBRANCH   1   2
BRANCH   1  38
ATOM     38  C   UNL A   1      39.637  28.675  28.156  1.00  0.00     0.023 C 
BRANCH  38  39
ATOM     39  C   UNL A   1      39.582  27.265  27.562  1.00  0.00     0.023 C 
BRANCH  39  40
ATOM     40  C   UNL A   1      40.008  26.126  28.483  1.00  0.00     0.116 C 
BRANCH  40  41
ATOM     41  N   UNL A   1      40.195  24.856  27.798  1.00  0.00    -0.352 N 
ATOM     42  C   UNL A   1      41.264  24.411  27.053  1.00  0.00     0.251 C 
ATOM     43  H   UNL A   1      39.447  24.223  27.879  1.00  0.00     0.163 HD
ATOM     44  O   UNL A   1      41.203  23.336  26.466  1.00  0.00    -0.269 OA
BRANCH  42  45
ATOM     45  C   UNL A   1      42.472  25.253  26.920  1.00  0.00     0.039 A 
ATOM     46  C   UNL A   1      43.372  25.386  27.978  1.00  0.00     0.014 A 
ATOM     47  C   UNL A   1      42.685  25.947  25.726  1.00  0.00     0.014 A 
ATOM     48  C   UNL A   1      44.376  26.347  27.910  1.00  0.00     0.010 A 
ATOM     49  C   UNL A   1      43.745  26.854  25.629  1.00  0.00     0.010 A 
ATOM     50  C   UNL A   1      44.565  27.101  26.740  1.00  0.00    -0.014 A 
BRANCH  50  51
ATOM     51  C   UNL A   1      45.609  28.158  26.706  1.00  0.00     0.031 A 
ATOM     52  C   UNL A   1      45.257  29.591  27.008  1.00  0.00     0.074 A 
ATOM     53  C   UNL A   1      46.888  27.820  26.459  1.00  0.00     0.049 A 
ATOM     54  N   UNL A   1      46.025  30.653  26.993  1.00  0.00    -0.248 NA
ATOM     55  C   UNL A   1      43.859  29.870  27.373  1.00  0.00     0.031 C 
ATOM     56  C   UNL A   1      47.359  26.463  26.182  1.00  0.00     0.029 A 
ATOM     57  N   UNL A   1      48.027  28.582  26.430  1.00  0.00    -0.354 N 
ATOM     58  C   UNL A   1      45.202  31.723  27.318  1.00  0.00     0.074 A 
ATOM     59  C   UNL A   1      43.871  31.189  27.511  1.00  0.00     0.031 C 
ATOM     60  C   UNL A   1      48.696  26.477  26.073  1.00  0.00     0.029 A 
ATOM     61  C   UNL A   1      49.167  27.853  26.203  1.00  0.00     0.049 A 
ATOM     62  H   UNL A   1      48.027  29.558  26.559  1.00  0.00     0.167 HD
ATOM     63  C   UNL A   1      45.530  33.031  27.449  1.00  0.00     0.037 A 
ATOM     64  C   UNL A   1      50.449  28.248  26.093  1.00  0.00     0.037 A 
ATOM     65  C   UNL A   1      46.860  33.558  27.283  1.00  0.00     0.049 A 
ATOM     66  C   UNL A   1      50.779  29.707  26.203  1.00  0.00     0.074 A 
ATOM     67  C   UNL A   1      47.291  34.868  27.397  1.00  0.00     0.029 A 
ATOM     68  N   UNL A   1      47.976  32.795  26.977  1.00  0.00    -0.354 N 
ATOM     69  N   UNL A   1      49.984  30.716  26.461  1.00  0.00    -0.248 NA
ATOM     70  C   UNL A   1      52.181  30.085  25.981  1.00  0.00     0.031 C 
ATOM     71  C   UNL A   1      48.665  34.902  27.132  1.00  0.00     0.029 A 
ATOM     72  C   UNL A   1      49.095  33.608  26.886  1.00  0.00     0.049 A 
ATOM     73  H   UNL A   1      47.976  31.820  26.846  1.00  0.00     0.167 HD
ATOM     74  C   UNL A   1      50.782  31.848  26.422  1.00  0.00     0.074 A 
ATOM     75  C   UNL A   1      52.133  31.400  26.147  1.00  0.00     0.031 C 
ATOM     76  C   UNL A   1      50.425  33.146  26.588  1.00  0.00     0.037 A 
BRANCH  63  77
ATOM     77  C   UNL A   1      44.424  33.993  27.770  1.00  0.00     0.064 A 
ATOM     78  C   UNL A   1      43.772  34.727  26.768  1.00  0.00     0.173 A 
ATOM     79  C   UNL A   1      43.985  34.154  29.093  1.00  0.00     0.173 A 
ATOM     80  F   UNL A   1      44.166  34.617  25.490  1.00  0.00    -0.203 F 
ATOM     81  C   UNL A   1      42.735  35.600  27.081  1.00  0.00     0.198 A 
ATOM     82  C   UNL A   1      42.933  35.013  29.400  1.00  0.00     0.198 A 
ATOM     83  F   UNL A   1      44.574  33.474  30.088  1.00  0.00    -0.203 F 
ATOM     84  F   UNL A   1      42.151  36.320  26.112  1.00  0.00    -0.200 F 
ATOM     85  C   UNL A   1      42.312  35.739  28.395  1.00  0.00     0.200 A 
ATOM     86  F   UNL A   1      42.520  35.140  30.669  1.00  0.00    -0.200 F 
ATOM     87  F   UNL A   1      41.311  36.579  28.693  1.00  0.00    -0.200 F 
ENDBRANCH  63  77
BRANCH  64  88
ATOM     88  C   UNL A   1      51.506  27.233  25.863  1.00  0.00     0.064 A 
ATOM     89  C   UNL A   1      51.840  26.829  24.565  1.00  0.00     0.173 A 
ATOM     90  C   UNL A   1      52.236  26.688  26.929  1.00  0.00     0.173 A 
ATOM     91  F   UNL A   1      51.154  27.309  23.517  1.00  0.00    -0.203 F 
ATOM     92  C   UNL A   1      52.871  25.919  24.339  1.00  0.00     0.198 A 
ATOM     93  C   UNL A   1      53.282  25.796  26.701  1.00  0.00     0.198 A 
ATOM     94  F   UNL A   1      51.953  27.046  28.190  1.00  0.00    -0.203 F 
ATOM     95  F   UNL A   1      53.162  25.537  23.089  1.00  0.00    -0.200 F 
ATOM     96  C   UNL A   1      53.598  25.414  25.407  1.00  0.00     0.200 A 
ATOM     97  F   UNL A   1      53.991  25.321  27.733  1.00  0.00    -0.200 F 
ATOM     98  F   UNL A   1      54.603  24.555  25.187  1.00  0.00    -0.200 F 
ENDBRANCH  64  88
BRANCH  76  99
ATOM     99  C   UNL A   1      51.512  34.170  26.458  1.00  0.00     0.064 A 
ATOM    100  C   UNL A   1      52.329  34.500  27.549  1.00  0.00     0.173 A 
ATOM    101  C   UNL A   1      51.761  34.800  25.230  1.00  0.00     0.173 A 
ATOM    102  F   UNL A   1      52.118  33.934  28.746  1.00  0.00    -0.203 F 
ATOM    103  C   UNL A   1      53.348  35.440  27.418  1.00  0.00     0.198 A 
ATOM    104  C   UNL A   1      52.793  35.724  25.099  1.00  0.00     0.198 A 
ATOM    105  F   UNL A   1      51.007  34.513  24.158  1.00  0.00    -0.203 F 
ATOM    106  F   UNL A   1      54.093  35.770  28.482  1.00  0.00    -0.200 F 
ATOM    107  C   UNL A   1      53.582  36.047  26.193  1.00  0.00     0.200 A 
ATOM    108  F   UNL A   1      53.024  36.304  23.913  1.00  0.00    -0.200 F 
ATOM    109  F   UNL A   1      54.564  36.950  26.069  1.00  0.00    -0.200 F 
ENDBRANCH  76  99
ENDBRANCH  50  51
ENDBRANCH  42  45
ENDBRANCH  40  41
ENDBRANCH  39  40
ENDBRANCH  38  39
ENDBRANCH   1  38
TORSDOF 17
ENDMDL
MODEL 2
REMARK VINA RESULT:     -11.3      6.341     14.066
REMARK SMILES CC[C@@H](C)[C@H](NC(=O)[C@H](C)N1C(=O)N2CCC3=c4cc(OC)ccc4=N[C@@H]3[C@@]2(C)C1=O)C(=O)NCCCCNC(=O)c1ccc(-c2c3nc(c(-c4c(F)c(F)c(F)c(F)c4F)c4ccc([nH]4)c(-c4c(F)c(F)c(F)c(F)c4F)c4nc(c(-c5c(F)c(F)c(F)c(F)c5F)c5ccc2[nH]5)C=C4)C=C3)cc1
REMARK SMILES IDX 35 1 34 2 32 3 33 4 5 6 3 7 4 8 2 9 1 10 6 11 7 12 8 14 9 15
REMARK SMILES IDX 10 16 11 17 12 18 30 19 14 20 13 21 28 22 31 23 15 24 27 25
REMARK SMILES IDX 29 26 16 27 17 28 26 29 18 30 25 31 19 32 24 33 20 34 23 35
REMARK SMILES IDX 21 36 22 37 36 38 37 39 38 40 39 41 40 42 41 44 42 45 43 46
REMARK SMILES IDX 104 47 44 48 103 49 45 50 46 51 47 52 97 53 48 54 102 55
REMARK SMILES IDX 96 56 98 57 49 58 101 59 95 60 94 61 50 63 82 64 62 65 81 66
REMARK SMILES IDX 63 67 66 68 80 69 99 70 64 71 65 72 79 74 100 75 67 76 51 77
REMARK SMILES IDX 52 78 60 79 53 80 54 81 58 82 61 83 55 84 56 85 59 86 57 87
REMARK SMILES IDX 83 88 84 89 92 90 85 91 86 92 90 93 93 94 87 95 88 96 91 97
REMARK SMILES IDX 89 98 68 99 69 100 77 101 70 102 71 103 75 104 78 105 72 106
REMARK SMILES IDX 73 107 76 108 74 109
REMARK H PARENT 34 5 6 13 39 43 98 62 66 73
REMARK Flexibility Score: inf
ROOT
ATOM      1  C   UNL A   1      48.924  25.739  30.205  1.00  0.00     0.116 C 
ENDROOT
BRANCH   1   2
ATOM      2  N   UNL A   1      49.654  26.780  29.504  1.00  0.00    -0.354 N 
ATOM      3  C   UNL A   1      49.244  27.703  28.579  1.00  0.00     0.242 C 
ATOM      4  O   UNL A   1      49.858  28.778  28.586  1.00  0.00    -0.273 OA
ATOM      5  H   UNL A   1      50.611  26.831  29.732  1.00  0.00     0.163 HD
BRANCH   3   6
ATOM      6  C   UNL A   1      47.971  27.541  27.711  1.00  0.00     0.174 C 
BRANCH   6   7
ATOM      7  C   UNL A   1      47.997  26.233  26.818  1.00  0.00     0.018 C 
ATOM      8  C   UNL A   1      47.941  26.467  25.299  1.00  0.00     0.010 C 
BRANCH   7   9
ATOM      9  C   UNL A   1      46.950  25.171  27.232  1.00  0.00     0.002 C 
ATOM     10  C   UNL A   1      45.674  25.708  27.865  1.00  0.00     0.004 C 
ENDBRANCH   7   9
ENDBRANCH   6   7
BRANCH   6  11
ATOM     11  N   UNL A   1      47.647  28.773  26.984  1.00  0.00    -0.342 N 
ATOM     12  C   UNL A   1      46.443  29.428  27.067  1.00  0.00     0.243 C 
ATOM     13  H   UNL A   1      48.340  29.157  26.398  1.00  0.00     0.164 HD
ATOM     14  O   UNL A   1      45.770  29.445  26.025  1.00  0.00    -0.273 OA
BRANCH  12  15
ATOM     15  C   UNL A   1      46.219  30.552  28.097  1.00  0.00     0.181 C 
ATOM     16  C   UNL A   1      45.165  29.856  29.023  1.00  0.00     0.042 C 
BRANCH  15  17
ATOM     17  N   UNL A   1      45.811  31.917  27.739  1.00  0.00    -0.250 N 
ATOM     18  C   UNL A   1      45.348  32.440  26.528  1.00  0.00     0.328 C 
ATOM     19  C   UNL A   1      46.197  32.965  28.517  1.00  0.00     0.259 C 
ATOM     20  N   UNL A   1      45.243  33.881  26.675  1.00  0.00    -0.307 N 
ATOM     21  O   UNL A   1      45.000  31.804  25.545  1.00  0.00    -0.248 OA
ATOM     22  C   UNL A   1      45.400  34.128  28.085  1.00  0.00     0.147 C 
ATOM     23  O   UNL A   1      47.017  33.009  29.423  1.00  0.00    -0.271 OA
ATOM     24  C   UNL A   1      44.236  34.821  26.019  1.00  0.00     0.127 C 
ATOM     25  C   UNL A   1      43.935  33.933  28.482  1.00  0.00     0.168 C 
ATOM     26  C   UNL A   1      46.195  35.419  28.336  1.00  0.00     0.048 C 
ATOM     27  C   UNL A   1      43.332  35.762  27.105  1.00  0.00     0.055 C 
ATOM     28  C   UNL A   1      43.322  35.258  28.574  1.00  0.00    -0.032 C 
ATOM     29  N   UNL A   1      43.371  33.010  29.457  1.00  0.00    -0.274 NA
ATOM     30  C   UNL A   1      42.518  35.255  29.665  1.00  0.00     0.005 A 
ATOM     31  C   UNL A   1      42.309  33.735  29.724  1.00  0.00     0.066 A 
ATOM     32  C   UNL A   1      43.082  35.437  31.080  1.00  0.00     0.056 A 
ATOM     33  C   UNL A   1      41.192  33.343  30.589  1.00  0.00     0.032 A 
ATOM     34  C   UNL A   1      42.630  34.588  32.052  1.00  0.00     0.119 A 
ATOM     35  C   UNL A   1      41.405  33.819  31.821  1.00  0.00     0.048 A 
BRANCH  34  36
ATOM     36  O   UNL A   1      43.459  34.110  33.058  1.00  0.00    -0.497 OA
ATOM     37  C   UNL A   1      42.746  33.256  33.989  1.00  0.00     0.278 C 
ENDBRANCH  34  36
ENDBRANCH  15  17
ENDBRANCH  12  15
ENDBRANCH   6  11
ENDBRANCH   3   6
ENDBRANCH   1   2
BRANCH   1  38
ATOM     38  C   UNL A   1      48.135  26.247  31.410  1.00  0.00     0.023 C 
BRANCH  38  39
ATOM     39  C   UNL A   1      48.788  26.030  32.778  1.00  0.00     0.023 C 
BRANCH  39  40
ATOM     40  C   UNL A   1      48.147  24.972  33.672  1.00  0.00     0.116 C 
BRANCH  40  41
ATOM     41  N   UNL A   1      48.343  25.209  35.093  1.00  0.00    -0.352 N 
ATOM     42  C   UNL A   1      47.620  25.998  35.959  1.00  0.00     0.251 C 
ATOM     43  H   UNL A   1      49.107  24.735  35.495  1.00  0.00     0.163 HD
ATOM     44  O   UNL A   1      47.995  26.150  37.117  1.00  0.00    -0.269 OA
BRANCH  42  45
ATOM     45  C   UNL A   1      46.411  26.702  35.480  1.00  0.00     0.039 A 
ATOM     46  C   UNL A   1      45.152  26.108  35.571  1.00  0.00     0.014 A 
ATOM     47  C   UNL A   1      46.551  27.965  34.896  1.00  0.00     0.014 A 
ATOM     48  C   UNL A   1      44.069  26.690  34.921  1.00  0.00     0.010 A 
ATOM     49  C   UNL A   1      45.443  28.587  34.313  1.00  0.00     0.010 A 
ATOM     50  C   UNL A   1      44.205  27.929  34.272  1.00  0.00    -0.014 A 
BRANCH  50  51
ATOM     51  C   UNL A   1      43.050  28.507  33.539  1.00  0.00     0.031 A 
ATOM     52  C   UNL A   1      42.775  28.114  32.112  1.00  0.00     0.074 A 
ATOM     53  C   UNL A   1      42.212  29.346  34.177  1.00  0.00     0.049 A 
ATOM     54  N   UNL A   1      41.836  28.539  31.302  1.00  0.00    -0.248 NA
ATOM     55  C   UNL A   1      43.671  27.113  31.513  1.00  0.00     0.031 C 
ATOM     56  C   UNL A   1      42.354  29.779  35.566  1.00  0.00     0.029 A 
ATOM     57  N   UNL A   1      41.061  29.959  33.751  1.00  0.00    -0.354 N 
ATOM     58  C   UNL A   1      42.046  27.881  30.097  1.00  0.00     0.074 A 
ATOM     59  C   UNL A   1      43.208  27.038  30.273  1.00  0.00     0.031 C 
ATOM     60  C   UNL A   1      41.299  30.537  35.899  1.00  0.00     0.029 A 
ATOM     61  C   UNL A   1      40.444  30.699  34.727  1.00  0.00     0.049 A 
ATOM     62  H   UNL A   1      40.713  29.876  32.834  1.00  0.00     0.167 HD
ATOM     63  C   UNL A   1      41.328  27.969  28.951  1.00  0.00     0.037 A 
ATOM     64  C   UNL A   1      39.322  31.442  34.682  1.00  0.00     0.037 A 
ATOM     65  C   UNL A   1      40.155  28.788  28.785  1.00  0.00     0.049 A 
ATOM     66  C   UNL A   1      38.569  31.553  33.389  1.00  0.00     0.074 A 
ATOM     67  C   UNL A   1      39.360  28.942  27.663  1.00  0.00     0.029 A 
ATOM     68  N   UNL A   1      39.604  29.585  29.778  1.00  0.00    -0.354 N 
ATOM     69  N   UNL A   1      38.805  30.966  32.243  1.00  0.00    -0.248 NA
ATOM     70  C   UNL A   1      37.407  32.453  33.378  1.00  0.00     0.031 C 
ATOM     71  C   UNL A   1      38.343  29.856  27.969  1.00  0.00     0.029 A 
ATOM     72  C   UNL A   1      38.486  30.243  29.291  1.00  0.00     0.049 A 
ATOM     73  H   UNL A   1      39.954  29.669  30.694  1.00  0.00     0.167 HD
ATOM     74  C   UNL A   1      37.833  31.430  31.370  1.00  0.00     0.074 A 
ATOM     75  C   UNL A   1      36.981  32.324  32.129  1.00  0.00     0.031 C 
ATOM     76  C   UNL A   1      37.667  31.147  30.055  1.00  0.00     0.037 A 
BRANCH  63  77
ATOM     77  C   UNL A   1      41.804  27.171  27.773  1.00  0.00     0.064 A 
ATOM     78  C   UNL A   1      42.570  27.752  26.752  1.00  0.00     0.173 A 
ATOM     79  C   UNL A   1      41.524  25.799  27.685  1.00  0.00     0.173 A 
ATOM     80  F   UNL A   1      42.851  29.063  26.784  1.00  0.00    -0.203 F 
ATOM     81  C   UNL A   1      43.020  26.992  25.675  1.00  0.00     0.198 A 
ATOM     82  C   UNL A   1      41.994  25.038  26.618  1.00  0.00     0.198 A 
ATOM     83  F   UNL A   1      40.797  25.195  28.638  1.00  0.00    -0.203 F 
ATOM     84  F   UNL A   1      43.718  27.576  24.691  1.00  0.00    -0.200 F 
ATOM     85  C   UNL A   1      42.737  25.636  25.612  1.00  0.00     0.200 A 
ATOM     86  F   UNL A   1      41.727  23.726  26.562  1.00  0.00    -0.200 F 
ATOM     87  F   UNL A   1      43.175  24.906  24.576  1.00  0.00    -0.200 F 
ENDBRANCH  63  77
BRANCH  64  88
ATOM     88  C   UNL A   1      38.858  32.135  35.908  1.00  0.00     0.064 A 
ATOM     89  C   UNL A   1      38.113  31.452  36.877  1.00  0.00     0.173 A 
ATOM     90  C   UNL A   1      39.193  33.474  36.158  1.00  0.00     0.173 A 
ATOM     91  F   UNL A   1      37.752  30.178  36.669  1.00  0.00    -0.203 F 
ATOM     92  C   UNL A   1      37.723  32.082  38.057  1.00  0.00     0.198 A 
ATOM     93  C   UNL A   1      38.823  34.095  37.349  1.00  0.00     0.198 A 
ATOM     94  F   UNL A   1      39.907  34.167  35.260  1.00  0.00    -0.203 F 
ATOM     95  F   UNL A   1      36.998  31.413  38.963  1.00  0.00    -0.200 F 
ATOM     96  C   UNL A   1      38.089  33.399  38.296  1.00  0.00     0.200 A 
ATOM     97  F   UNL A   1      39.191  35.361  37.583  1.00  0.00    -0.200 F 
ATOM     98  F   UNL A   1      37.731  33.997  39.442  1.00  0.00    -0.200 F 
ENDBRANCH  64  88
BRANCH  76  99
ATOM     99  C   UNL A   1      36.532  31.829  29.353  1.00  0.00     0.064 A 
ATOM    100  C   UNL A   1      35.402  31.111  28.936  1.00  0.00     0.173 A 
ATOM    101  C   UNL A   1      36.557  33.213  29.125  1.00  0.00     0.173 A 
ATOM    102  F   UNL A   1      35.341  29.783  29.119  1.00  0.00    -0.203 F 
ATOM    103  C   UNL A   1      34.343  31.752  28.299  1.00  0.00     0.198 A 
ATOM    104  C   UNL A   1      35.487  33.854  28.507  1.00  0.00     0.198 A 
ATOM    105  F   UNL A   1      37.615  33.942  29.509  1.00  0.00    -0.203 F 
ATOM    106  F   UNL A   1      33.289  31.042  27.874  1.00  0.00    -0.200 F 
ATOM    107  C   UNL A   1      34.385  33.123  28.090  1.00  0.00     0.200 A 
ATOM    108  F   UNL A   1      35.525  35.179  28.311  1.00  0.00    -0.200 F 
ATOM    109  F   UNL A   1      33.363  33.739  27.478  1.00  0.00    -0.200 F 
ENDBRANCH  76  99
ENDBRANCH  50  51
ENDBRANCH  42  45
ENDBRANCH  40  41
ENDBRANCH  39  40
ENDBRANCH  38  39
ENDBRANCH   1  38
TORSDOF 17
ENDMDL
MODEL 3
REMARK VINA RESULT:     -11.3      5.749     11.190
REMARK SMILES CC[C@@H](C)[C@H](NC(=O)[C@H](C)N1C(=O)N2CCC3=c4cc(OC)ccc4=N[C@@H]3[C@@]2(C)C1=O)C(=O)NCCCCNC(=O)c1ccc(-c2c3nc(c(-c4c(F)c(F)c(F)c(F)c4F)c4ccc([nH]4)c(-c4c(F)c(F)c(F)c(F)c4F)c4nc(c(-c5c(F)c(F)c(F)c(F)c5F)c5ccc2[nH]5)C=C4)C=C3)cc1
REMARK SMILES IDX 35 1 34 2 32 3 33 4 5 6 3 7 4 8 2 9 1 10 6 11 7 12 8 14 9 15
REMARK SMILES IDX 10 16 11 17 12 18 30 19 14 20 13 21 28 22 31 23 15 24 27 25
REMARK SMILES IDX 29 26 16 27 17 28 26 29 18 30 25 31 19 32 24 33 20 34 23 35
REMARK SMILES IDX 21 36 22 37 36 38 37 39 38 40 39 41 40 42 41 44 42 45 43 46
REMARK SMILES IDX 104 47 44 48 103 49 45 50 46 51 47 52 97 53 48 54 102 55
REMARK SMILES IDX 96 56 98 57 49 58 101 59 95 60 94 61 50 63 82 64 62 65 81 66
REMARK SMILES IDX 63 67 66 68 80 69 99 70 64 71 65 72 79 74 100 75 67 76 51 77
REMARK SMILES IDX 52 78 60 79 53 80 54 81 58 82 61 83 55 84 56 85 59 86 57 87
REMARK SMILES IDX 83 88 84 89 92 90 85 91 86 92 90 93 93 94 87 95 88 96 91 97
REMARK SMILES IDX 89 98 68 99 69 100 77 101 70 102 71 103 75 104 78 105 72 106
REMARK SMILES IDX 73 107 76 108 74 109
REMARK H PARENT 34 5 6 13 39 43 98 62 66 73
REMARK Flexibility Score: inf
ROOT
ATOM      1  C   UNL A   1      44.566  24.140  26.440  1.00  0.00     0.116 C 
ENDROOT
BRANCH   1   2
ATOM      2  N   UNL A   1      44.530  24.605  27.815  1.00  0.00    -0.354 N 
ATOM      3  C   UNL A   1      43.481  24.939  28.627  1.00  0.00     0.242 C 
ATOM      4  O   UNL A   1      43.653  24.738  29.837  1.00  0.00    -0.273 OA
ATOM      5  H   UNL A   1      45.416  24.697  28.237  1.00  0.00     0.163 HD
BRANCH   3   6
ATOM      6  C   UNL A   1      42.081  25.344  28.099  1.00  0.00     0.174 C 
BRANCH   6   7
ATOM      7  C   UNL A   1      41.210  24.099  27.649  1.00  0.00     0.018 C 
ATOM      8  C   UNL A   1      39.688  24.311  27.678  1.00  0.00     0.010 C 
BRANCH   7   9
ATOM      9  C   UNL A   1      41.579  22.783  28.376  1.00  0.00     0.002 C 
ATOM     10  C   UNL A   1      41.451  21.511  27.550  1.00  0.00     0.004 C 
ENDBRANCH   7   9
ENDBRANCH   6   7
BRANCH   6  11
ATOM     11  N   UNL A   1      42.162  26.423  27.110  1.00  0.00    -0.342 N 
ATOM     12  C   UNL A   1      41.081  27.128  26.641  1.00  0.00     0.243 C 
ATOM     13  H   UNL A   1      43.052  26.660  26.760  1.00  0.00     0.164 HD
ATOM     14  O   UNL A   1      40.820  26.970  25.438  1.00  0.00    -0.273 OA
BRANCH  12  15
ATOM     15  C   UNL A   1      40.631  28.437  27.317  1.00  0.00     0.181 C 
ATOM     16  C   UNL A   1      41.907  29.314  27.071  1.00  0.00     0.042 C 
BRANCH  15  17
ATOM     17  N   UNL A   1      40.176  28.521  28.711  1.00  0.00    -0.250 N 
ATOM     18  C   UNL A   1      40.795  28.115  29.897  1.00  0.00     0.328 C 
ATOM     19  C   UNL A   1      38.854  28.705  28.982  1.00  0.00     0.259 C 
ATOM     20  N   UNL A   1      39.840  28.281  30.979  1.00  0.00    -0.307 N 
ATOM     21  O   UNL A   1      41.959  27.770  30.030  1.00  0.00    -0.248 OA
ATOM     22  C   UNL A   1      38.759  29.046  30.412  1.00  0.00     0.147 C 
ATOM     23  O   UNL A   1      37.885  28.640  28.239  1.00  0.00    -0.271 OA
ATOM     24  C   UNL A   1      40.124  28.644  32.433  1.00  0.00     0.127 C 
ATOM     25  C   UNL A   1      39.352  30.435  30.659  1.00  0.00     0.168 C 
ATOM     26  C   UNL A   1      37.403  28.579  30.964  1.00  0.00     0.048 C 
ATOM     27  C   UNL A   1      39.309  30.025  32.991  1.00  0.00     0.055 C 
ATOM     28  C   UNL A   1      38.750  30.961  31.885  1.00  0.00    -0.032 C 
ATOM     29  N   UNL A   1      39.626  31.492  29.697  1.00  0.00    -0.274 NA
ATOM     30  C   UNL A   1      38.485  32.273  31.671  1.00  0.00     0.005 A 
ATOM     31  C   UNL A   1      39.517  32.481  30.554  1.00  0.00     0.066 A 
ATOM     32  C   UNL A   1      37.245  32.725  30.888  1.00  0.00     0.056 A 
ATOM     33  C   UNL A   1      39.786  33.895  30.278  1.00  0.00     0.032 A 
ATOM     34  C   UNL A   1      37.420  33.694  29.939  1.00  0.00     0.119 A 
ATOM     35  C   UNL A   1      38.639  34.503  29.954  1.00  0.00     0.048 A 
BRANCH  34  36
ATOM     36  O   UNL A   1      36.718  33.686  28.741  1.00  0.00    -0.497 OA
ATOM     37  C   UNL A   1      35.284  33.716  28.952  1.00  0.00     0.278 C 
ENDBRANCH  34  36
ENDBRANCH  15  17
ENDBRANCH  12  15
ENDBRANCH   6  11
ENDBRANCH   3   6
ENDBRANCH   1   2
BRANCH   1  38
ATOM     38  C   UNL A   1      45.865  23.429  26.065  1.00  0.00     0.023 C 
BRANCH  38  39
ATOM     39  C   UNL A   1      46.623  24.008  24.866  1.00  0.00     0.023 C 
BRANCH  39  40
ATOM     40  C   UNL A   1      47.828  24.886  25.189  1.00  0.00     0.116 C 
BRANCH  40  41
ATOM     41  N   UNL A   1      48.024  25.980  24.251  1.00  0.00    -0.352 N 
ATOM     42  C   UNL A   1      47.684  27.309  24.370  1.00  0.00     0.251 C 
ATOM     43  H   UNL A   1      48.464  25.734  23.406  1.00  0.00     0.163 HD
ATOM     44  O   UNL A   1      47.845  28.075  23.426  1.00  0.00    -0.269 OA
BRANCH  42  45
ATOM     45  C   UNL A   1      47.079  27.806  25.625  1.00  0.00     0.039 A 
ATOM     46  C   UNL A   1      45.713  27.658  25.868  1.00  0.00     0.014 A 
ATOM     47  C   UNL A   1      47.891  28.463  26.553  1.00  0.00     0.014 A 
ATOM     48  C   UNL A   1      45.131  28.321  26.944  1.00  0.00     0.010 A 
ATOM     49  C   UNL A   1      47.316  29.060  27.679  1.00  0.00     0.010 A 
ATOM     50  C   UNL A   1      45.924  29.041  27.854  1.00  0.00    -0.014 A 
BRANCH  50  51
ATOM     51  C   UNL A   1      45.278  29.786  28.965  1.00  0.00     0.031 A 
ATOM     52  C   UNL A   1      45.031  29.118  30.292  1.00  0.00     0.074 A 
ATOM     53  C   UNL A   1      44.965  31.085  28.800  1.00  0.00     0.049 A 
ATOM     54  N   UNL A   1      44.450  29.597  31.364  1.00  0.00    -0.248 NA
ATOM     55  C   UNL A   1      45.495  27.729  30.434  1.00  0.00     0.031 C 
ATOM     56  C   UNL A   1      45.182  31.851  27.573  1.00  0.00     0.029 A 
ATOM     57  N   UNL A   1      44.426  31.995  29.672  1.00  0.00    -0.354 N 
ATOM     58  C   UNL A   1      44.454  28.565  32.293  1.00  0.00     0.074 A 
ATOM     59  C   UNL A   1      45.082  27.427  31.657  1.00  0.00     0.031 C 
ATOM     60  C   UNL A   1      44.839  33.130  27.789  1.00  0.00     0.029 A 
ATOM     61  C   UNL A   1      44.314  33.257  29.145  1.00  0.00     0.049 A 
ATOM     62  H   UNL A   1      44.146  31.765  30.588  1.00  0.00     0.167 HD
ATOM     63  C   UNL A   1      43.983  28.570  33.564  1.00  0.00     0.037 A 
ATOM     64  C   UNL A   1      43.826  34.388  29.685  1.00  0.00     0.037 A 
ATOM     65  C   UNL A   1      43.383  29.712  34.205  1.00  0.00     0.049 A 
ATOM     66  C   UNL A   1      43.274  34.357  31.080  1.00  0.00     0.074 A 
ATOM     67  C   UNL A   1      42.877  29.815  35.489  1.00  0.00     0.029 A 
ATOM     68  N   UNL A   1      43.218  30.953  33.610  1.00  0.00    -0.354 N 
ATOM     69  N   UNL A   1      43.238  33.361  31.931  1.00  0.00    -0.248 NA
ATOM     70  C   UNL A   1      42.670  35.599  31.579  1.00  0.00     0.031 C 
ATOM     71  C   UNL A   1      42.378  31.112  35.661  1.00  0.00     0.029 A 
ATOM     72  C   UNL A   1      42.606  31.826  34.496  1.00  0.00     0.049 A 
ATOM     73  H   UNL A   1      43.495  31.182  32.694  1.00  0.00     0.167 HD
ATOM     74  C   UNL A   1      42.601  33.850  33.061  1.00  0.00     0.074 A 
ATOM     75  C   UNL A   1      42.295  35.243  32.800  1.00  0.00     0.031 C 
ATOM     76  C   UNL A   1      42.288  33.200  34.209  1.00  0.00     0.037 A 
BRANCH  63  77
ATOM     77  C   UNL A   1      44.079  27.291  34.343  1.00  0.00     0.064 A 
ATOM     78  C   UNL A   1      43.017  26.377  34.391  1.00  0.00     0.173 A 
ATOM     79  C   UNL A   1      45.263  26.959  35.018  1.00  0.00     0.173 A 
ATOM     80  F   UNL A   1      41.859  26.657  33.773  1.00  0.00    -0.203 F 
ATOM     81  C   UNL A   1      43.129  25.187  35.103  1.00  0.00     0.198 A 
ATOM     82  C   UNL A   1      45.380  25.757  35.711  1.00  0.00     0.198 A 
ATOM     83  F   UNL A   1      46.309  27.798  35.001  1.00  0.00    -0.203 F 
ATOM     84  F   UNL A   1      42.088  24.345  35.167  1.00  0.00    -0.200 F 
ATOM     85  C   UNL A   1      44.312  24.874  35.757  1.00  0.00     0.200 A 
ATOM     86  F   UNL A   1      46.526  25.453  36.337  1.00  0.00    -0.200 F 
ATOM     87  F   UNL A   1      44.419  23.725  36.440  1.00  0.00    -0.200 F 
ENDBRANCH  63  77
BRANCH  64  88
ATOM     88  C   UNL A   1      43.842  35.641  28.890  1.00  0.00     0.064 A 
ATOM     89  C   UNL A   1      44.977  36.459  28.867  1.00  0.00     0.173 A 
ATOM     90  C   UNL A   1      42.745  36.015  28.100  1.00  0.00     0.173 A 
ATOM     91  F   UNL A   1      46.040  36.150  29.624  1.00  0.00    -0.203 F 
ATOM     92  C   UNL A   1      45.019  37.606  28.077  1.00  0.00     0.198 A 
ATOM     93  C   UNL A   1      42.797  37.149  27.292  1.00  0.00     0.198 A 
ATOM     94  F   UNL A   1      41.637  35.260  28.088  1.00  0.00    -0.203 F 
ATOM     95  F   UNL A   1      46.111  38.381  28.083  1.00  0.00    -0.200 F 
ATOM     96  C   UNL A   1      43.933  37.942  27.282  1.00  0.00     0.200 A 
ATOM     97  F   UNL A   1      41.753  37.462  26.515  1.00  0.00    -0.200 F 
ATOM     98  F   UNL A   1      43.982  39.035  26.506  1.00  0.00    -0.200 F 
ENDBRANCH  64  88
BRANCH  76  99
ATOM     99  C   UNL A   1      41.562  33.986  35.257  1.00  0.00     0.064 A 
ATOM    100  C   UNL A   1      42.253  34.842  36.129  1.00  0.00     0.173 A 
ATOM    101  C   UNL A   1      40.166  33.912  35.372  1.00  0.00     0.173 A 
ATOM    102  F   UNL A   1      43.589  34.932  36.066  1.00  0.00    -0.203 F 
ATOM    103  C   UNL A   1      41.572  35.582  37.090  1.00  0.00     0.198 A 
ATOM    104  C   UNL A   1      39.487  34.670  36.321  1.00  0.00     0.198 A 
ATOM    105  F   UNL A   1      39.463  33.110  34.558  1.00  0.00    -0.203 F 
ATOM    106  F   UNL A   1      42.253  36.364  37.938  1.00  0.00    -0.200 F 
ATOM    107  C   UNL A   1      40.189  35.500  37.182  1.00  0.00     0.200 A 
ATOM    108  F   UNL A   1      38.151  34.596  36.404  1.00  0.00    -0.200 F 
ATOM    109  F   UNL A   1      39.535  36.215  38.108  1.00  0.00    -0.200 F 
ENDBRANCH  76  99
ENDBRANCH  50  51
ENDBRANCH  42  45
ENDBRANCH  40  41
ENDBRANCH  39  40
ENDBRANCH  38  39
ENDBRANCH   1  38
TORSDOF 17
ENDMDL
