MODEL 1
REMARK VINA RESULT:     -12.3      0.000      0.000
REMARK SMILES Cc1c(Cc2ccccc2)c(=O)oc2cc(OCC(=O)N[C@H](C)C(=O)NCCCCNC(=O)c3ccc(-c4c5nc(c(-c6c(F)c(F)c(F)c(F)c6F)c6ccc([nH]6)c(-c6c(F)c(F)c(F)c(F)c6F)c6nc(c(-c7c(F)c(F)c(F)c(F)c7F)c7ccc4[nH]7)C=C6)C=C5)cc3)ccc12
REMARK SMILES IDX 24 1 25 2 26 3 22 5 23 6 21 7 19 8 20 9 18 11 17 12 16 13
REMARK SMILES IDX 1 14 2 15 3 16 99 17 11 18 14 19 98 20 12 21 13 22 15 23
REMARK SMILES IDX 97 24 4 25 5 26 6 27 10 28 7 29 9 30 8 31 27 32 28 33 29 34
REMARK SMILES IDX 30 35 31 36 32 37 33 39 34 40 35 41 96 42 36 43 95 44 37 45
REMARK SMILES IDX 38 46 39 47 89 48 40 49 94 50 88 51 90 52 41 53 93 54 87 55
REMARK SMILES IDX 86 56 42 58 74 59 54 60 73 61 55 62 58 63 72 64 91 65 56 66
REMARK SMILES IDX 57 67 71 69 92 70 59 71 43 72 44 73 52 74 45 75 46 76 50 77
REMARK SMILES IDX 53 78 47 79 48 80 51 81 49 82 75 83 76 84 84 85 77 86 78 87
REMARK SMILES IDX 82 88 85 89 79 90 80 91 83 92 81 93 60 94 61 95 69 96 62 97
REMARK SMILES IDX 63 98 67 99 70 100 64 101 65 102 68 103 66 104
REMARK H PARENT 26 4 21 10 31 38 90 57 58 68
REMARK Flexibility Score: inf
ROOT
ATOM      1  C   UNL A   1      30.084  29.883  22.523  1.00  0.00     0.242 C 
ATOM      2  O   UNL A   1      29.921  29.764  21.306  1.00  0.00    -0.273 OA
ATOM      3  N   UNL A   1      31.275  29.460  23.041  1.00  0.00    -0.354 N 
ATOM      4  H   UNL A   1      31.883  29.004  22.414  1.00  0.00     0.163 HD
ENDROOT
BRANCH   1   5
ATOM      5  C   UNL A   1      28.933  30.412  23.427  1.00  0.00     0.168 C 
ATOM      6  C   UNL A   1      28.790  31.916  23.289  1.00  0.00     0.041 C 
BRANCH   5   7
ATOM      7  N   UNL A   1      27.710  29.585  23.439  1.00  0.00    -0.342 N 
ATOM      8  C   UNL A   1      27.363  28.274  23.501  1.00  0.00     0.258 C 
ATOM      9  O   UNL A   1      26.152  28.041  23.614  1.00  0.00    -0.271 OA
ATOM     10  H   UNL A   1      26.908  30.153  23.388  1.00  0.00     0.164 HD
BRANCH   8  11
ATOM     11  C   UNL A   1      28.347  27.091  23.496  1.00  0.00     0.329 C 
BRANCH  11  12
ATOM     12  O   UNL A   1      29.022  26.791  24.694  1.00  0.00    -0.484 OA
BRANCH  12  13
ATOM     13  C   UNL A   1      30.042  25.892  24.623  1.00  0.00     0.123 A 
ATOM     14  C   UNL A   1      34.009  23.176  22.706  1.00  0.00     0.046 C 
ATOM     15  C   UNL A   1      33.321  23.188  24.045  1.00  0.00    -0.029 A 
ATOM     16  C   UNL A   1      33.661  22.405  25.095  1.00  0.00     0.046 A 
ATOM     17  C   UNL A   1      32.187  24.113  24.191  1.00  0.00     0.021 A 
ATOM     18  C   UNL A   1      33.008  22.558  26.428  1.00  0.00     0.340 A 
ATOM     19  C   UNL A   1      31.628  24.293  25.451  1.00  0.00     0.142 A 
ATOM     20  C   UNL A   1      31.617  24.822  23.125  1.00  0.00     0.016 A 
ATOM     21  O   UNL A   1      33.314  21.863  27.391  1.00  0.00    -0.246 OA
ATOM     22  O   UNL A   1      32.078  23.572  26.563  1.00  0.00    -0.422 OA
ATOM     23  C   UNL A   1      30.577  25.175  25.685  1.00  0.00     0.094 A 
ATOM     24  C   UNL A   1      30.555  25.701  23.341  1.00  0.00     0.047 A 
BRANCH  16  25
ATOM     25  C   UNL A   1      34.731  21.337  25.074  1.00  0.00     0.079 C 
BRANCH  25  26
ATOM     26  C   UNL A   1      36.104  21.875  25.423  1.00  0.00    -0.043 A 
ATOM     27  C   UNL A   1      36.265  23.212  25.810  1.00  0.00     0.004 A 
ATOM     28  C   UNL A   1      37.236  21.047  25.379  1.00  0.00     0.004 A 
ATOM     29  C   UNL A   1      37.531  23.711  26.126  1.00  0.00     0.000 A 
ATOM     30  C   UNL A   1      38.497  21.543  25.709  1.00  0.00     0.000 A 
ATOM     31  C   UNL A   1      38.646  22.876  26.076  1.00  0.00     0.000 A 
ENDBRANCH  25  26
ENDBRANCH  16  25
ENDBRANCH  12  13
ENDBRANCH  11  12
ENDBRANCH   8  11
ENDBRANCH   5   7
ENDBRANCH   1   5
BRANCH   3  32
ATOM     32  C   UNL A   1      31.747  29.604  24.389  1.00  0.00     0.116 C 
BRANCH  32  33
ATOM     33  C   UNL A   1      32.521  28.399  24.912  1.00  0.00     0.023 C 
BRANCH  33  34
ATOM     34  C   UNL A   1      33.782  28.760  25.687  1.00  0.00     0.023 C 
BRANCH  34  35
ATOM     35  C   UNL A   1      33.608  28.864  27.198  1.00  0.00     0.116 C 
BRANCH  35  36
ATOM     36  N   UNL A   1      33.646  30.220  27.726  1.00  0.00    -0.352 N 
ATOM     37  C   UNL A   1      34.722  30.853  28.319  1.00  0.00     0.251 C 
ATOM     38  H   UNL A   1      32.815  30.744  27.653  1.00  0.00     0.163 HD
ATOM     39  O   UNL A   1      34.632  31.978  28.775  1.00  0.00    -0.269 OA
BRANCH  37  40
ATOM     40  C   UNL A   1      35.980  30.086  28.436  1.00  0.00     0.039 A 
ATOM     41  C   UNL A   1      36.924  30.181  27.411  1.00  0.00     0.014 A 
ATOM     42  C   UNL A   1      36.279  29.425  29.630  1.00  0.00     0.014 A 
ATOM     43  C   UNL A   1      38.214  29.694  27.626  1.00  0.00     0.010 A 
ATOM     44  C   UNL A   1      37.584  29.014  29.868  1.00  0.00     0.010 A 
ATOM     45  C   UNL A   1      38.568  29.159  28.876  1.00  0.00    -0.014 A 
BRANCH  45  46
ATOM     46  C   UNL A   1      39.959  28.740  29.184  1.00  0.00     0.031 A 
ATOM     47  C   UNL A   1      40.865  29.683  29.922  1.00  0.00     0.074 A 
ATOM     48  C   UNL A   1      40.433  27.566  28.721  1.00  0.00     0.049 A 
ATOM     49  N   UNL A   1      42.152  29.598  30.138  1.00  0.00    -0.248 NA
ATOM     50  C   UNL A   1      40.242  30.904  30.459  1.00  0.00     0.031 C 
ATOM     51  C   UNL A   1      39.666  26.578  27.959  1.00  0.00     0.029 A 
ATOM     52  N   UNL A   1      41.687  27.014  28.808  1.00  0.00    -0.354 N 
ATOM     53  C   UNL A   1      42.495  30.762  30.812  1.00  0.00     0.074 A 
ATOM     54  C   UNL A   1      41.294  31.560  30.925  1.00  0.00     0.031 C 
ATOM     55  C   UNL A   1      40.460  25.535  27.664  1.00  0.00     0.029 A 
ATOM     56  C   UNL A   1      41.801  25.797  28.176  1.00  0.00     0.049 A 
ATOM     57  H   UNL A   1      42.435  27.447  29.279  1.00  0.00     0.167 HD
ATOM     58  C   UNL A   1      43.699  31.123  31.316  1.00  0.00     0.037 A 
ATOM     59  C   UNL A   1      42.872  24.996  28.019  1.00  0.00     0.037 A 
ATOM     60  C   UNL A   1      44.884  30.313  31.236  1.00  0.00     0.049 A 
ATOM     61  C   UNL A   1      44.197  25.418  28.596  1.00  0.00     0.074 A 
ATOM     62  C   UNL A   1      46.149  30.582  31.728  1.00  0.00     0.029 A 
ATOM     63  N   UNL A   1      44.942  29.063  30.638  1.00  0.00    -0.354 N 
ATOM     64  N   UNL A   1      44.504  26.511  29.252  1.00  0.00    -0.248 NA
ATOM     65  C   UNL A   1      45.327  24.494  28.413  1.00  0.00     0.031 C 
ATOM     66  C   UNL A   1      46.978  29.501  31.414  1.00  0.00     0.029 A 
ATOM     67  C   UNL A   1      46.221  28.546  30.757  1.00  0.00     0.049 A 
ATOM     68  H   UNL A   1      44.188  28.612  30.196  1.00  0.00     0.167 HD
ATOM     69  C   UNL A   1      45.844  26.388  29.593  1.00  0.00     0.074 A 
ATOM     70  C   UNL A   1      46.294  25.113  29.076  1.00  0.00     0.031 C 
ATOM     71  C   UNL A   1      46.634  27.256  30.270  1.00  0.00     0.037 A 
BRANCH  58  72
ATOM     72  C   UNL A   1      43.784  32.443  32.019  1.00  0.00     0.064 A 
ATOM     73  C   UNL A   1      44.043  33.628  31.313  1.00  0.00     0.173 A 
ATOM     74  C   UNL A   1      43.576  32.532  33.403  1.00  0.00     0.173 A 
ATOM     75  F   UNL A   1      44.266  33.589  29.991  1.00  0.00    -0.203 F 
ATOM     76  C   UNL A   1      44.113  34.852  31.972  1.00  0.00     0.198 A 
ATOM     77  C   UNL A   1      43.620  33.762  34.054  1.00  0.00     0.198 A 
ATOM     78  F   UNL A   1      43.324  31.429  34.123  1.00  0.00    -0.203 F 
ATOM     79  F   UNL A   1      44.406  35.964  31.284  1.00  0.00    -0.200 F 
ATOM     80  C   UNL A   1      43.894  34.919  33.340  1.00  0.00     0.200 A 
ATOM     81  F   UNL A   1      43.399  33.829  35.374  1.00  0.00    -0.200 F 
ATOM     82  F   UNL A   1      43.955  36.101  33.970  1.00  0.00    -0.200 F 
ENDBRANCH  58  72
BRANCH  59  83
ATOM     83  C   UNL A   1      42.745  23.700  27.301  1.00  0.00     0.064 A 
ATOM     84  C   UNL A   1      42.264  22.560  27.962  1.00  0.00     0.173 A 
ATOM     85  C   UNL A   1      43.135  23.561  25.962  1.00  0.00     0.173 A 
ATOM     86  F   UNL A   1      41.901  22.637  29.251  1.00  0.00    -0.203 F 
ATOM     87  C   UNL A   1      42.208  21.325  27.321  1.00  0.00     0.198 A 
ATOM     88  C   UNL A   1      43.052  22.331  25.313  1.00  0.00     0.198 A 
ATOM     89  F   UNL A   1      43.597  24.622  25.283  1.00  0.00    -0.203 F 
ATOM     90  F   UNL A   1      41.798  20.241  27.994  1.00  0.00    -0.200 F 
ATOM     91  C   UNL A   1      42.599  21.211  25.996  1.00  0.00     0.200 A 
ATOM     92  F   UNL A   1      43.421  22.227  24.029  1.00  0.00    -0.200 F 
ATOM     93  F   UNL A   1      42.552  20.022  25.380  1.00  0.00    -0.200 F 
ENDBRANCH  59  83
BRANCH  71  94
ATOM     94  C   UNL A   1      48.042  26.830  30.554  1.00  0.00     0.064 A 
ATOM     95  C   UNL A   1      49.102  27.180  29.708  1.00  0.00     0.173 A 
ATOM     96  C   UNL A   1      48.338  26.110  31.722  1.00  0.00     0.173 A 
ATOM     97  F   UNL A   1      48.864  27.855  28.573  1.00  0.00    -0.203 F 
ATOM     98  C   UNL A   1      50.409  26.811  30.012  1.00  0.00     0.198 A 
ATOM     99  C   UNL A   1      49.649  25.764  32.035  1.00  0.00     0.198 A 
ATOM    100  F   UNL A   1      47.356  25.757  32.566  1.00  0.00    -0.203 F 
ATOM    101  F   UNL A   1      51.404  27.126  29.172  1.00  0.00    -0.200 F 
ATOM    102  C   UNL A   1      50.682  26.111  31.179  1.00  0.00     0.200 A 
ATOM    103  F   UNL A   1      49.912  25.096  33.167  1.00  0.00    -0.200 F 
ATOM    104  F   UNL A   1      51.943  25.765  31.474  1.00  0.00    -0.200 F 
ENDBRANCH  71  94
ENDBRANCH  45  46
ENDBRANCH  37  40
ENDBRANCH  35  36
ENDBRANCH  34  35
ENDBRANCH  33  34
ENDBRANCH  32  33
ENDBRANCH   3  32
TORSDOF 17
ENDMDL
MODEL 2
REMARK VINA RESULT:     -11.9      5.795     13.382
REMARK SMILES Cc1c(Cc2ccccc2)c(=O)oc2cc(OCC(=O)N[C@H](C)C(=O)NCCCCNC(=O)c3ccc(-c4c5nc(c(-c6c(F)c(F)c(F)c(F)c6F)c6ccc([nH]6)c(-c6c(F)c(F)c(F)c(F)c6F)c6nc(c(-c7c(F)c(F)c(F)c(F)c7F)c7ccc4[nH]7)C=C6)C=C5)cc3)ccc12
REMARK SMILES IDX 24 1 25 2 26 3 22 5 23 6 21 7 19 8 20 9 18 11 17 12 16 13
REMARK SMILES IDX 1 14 2 15 3 16 99 17 11 18 14 19 98 20 12 21 13 22 15 23
REMARK SMILES IDX 97 24 4 25 5 26 6 27 10 28 7 29 9 30 8 31 27 32 28 33 29 34
REMARK SMILES IDX 30 35 31 36 32 37 33 39 34 40 35 41 96 42 36 43 95 44 37 45
REMARK SMILES IDX 38 46 39 47 89 48 40 49 94 50 88 51 90 52 41 53 93 54 87 55
REMARK SMILES IDX 86 56 42 58 74 59 54 60 73 61 55 62 58 63 72 64 91 65 56 66
REMARK SMILES IDX 57 67 71 69 92 70 59 71 43 72 44 73 52 74 45 75 46 76 50 77
REMARK SMILES IDX 53 78 47 79 48 80 51 81 49 82 75 83 76 84 84 85 77 86 78 87
REMARK SMILES IDX 82 88 85 89 79 90 80 91 83 92 81 93 60 94 61 95 69 96 62 97
REMARK SMILES IDX 63 98 67 99 70 100 64 101 65 102 68 103 66 104
REMARK H PARENT 26 4 21 10 31 38 90 57 58 68
REMARK Flexibility Score: inf
ROOT
ATOM      1  C   UNL A   1      50.077  28.430  29.864  1.00  0.00     0.242 C 
ATOM      2  O   UNL A   1      51.061  29.018  30.320  1.00  0.00    -0.273 OA
ATOM      3  N   UNL A   1      49.070  28.125  30.735  1.00  0.00    -0.354 N 
ATOM      4  H   UNL A   1      49.247  28.314  31.686  1.00  0.00     0.163 HD
ENDROOT
BRANCH   1   5
ATOM      5  C   UNL A   1      50.041  27.985  28.374  1.00  0.00     0.168 C 
ATOM      6  C   UNL A   1      50.802  28.966  27.501  1.00  0.00     0.041 C 
BRANCH   5   7
ATOM      7  N   UNL A   1      50.233  26.539  28.143  1.00  0.00    -0.342 N 
ATOM      8  C   UNL A   1      49.519  25.469  27.710  1.00  0.00     0.258 C 
ATOM      9  O   UNL A   1      50.158  24.420  27.554  1.00  0.00    -0.271 OA
ATOM     10  H   UNL A   1      51.153  26.272  28.370  1.00  0.00     0.164 HD
BRANCH   8  11
ATOM     11  C   UNL A   1      48.021  25.483  27.357  1.00  0.00     0.329 C 
BRANCH  11  12
ATOM     12  O   UNL A   1      47.571  24.590  26.366  1.00  0.00    -0.484 OA
BRANCH  12  13
ATOM     13  C   UNL A   1      46.422  23.906  26.624  1.00  0.00     0.123 A 
ATOM     14  C   UNL A   1      41.941  22.585  28.852  1.00  0.00     0.046 C 
ATOM     15  C   UNL A   1      42.731  22.008  27.707  1.00  0.00    -0.029 A 
ATOM     16  C   UNL A   1      42.363  20.927  26.981  1.00  0.00     0.046 A 
ATOM     17  C   UNL A   1      44.002  22.675  27.386  1.00  0.00     0.021 A 
ATOM     18  C   UNL A   1      43.139  20.486  25.786  1.00  0.00     0.340 A 
ATOM     19  C   UNL A   1      44.684  22.298  26.235  1.00  0.00     0.142 A 
ATOM     20  C   UNL A   1      44.583  23.669  28.184  1.00  0.00     0.016 A 
ATOM     21  O   UNL A   1      42.811  19.515  25.113  1.00  0.00    -0.246 OA
ATOM     22  O   UNL A   1      44.222  21.262  25.415  1.00  0.00    -0.422 OA
ATOM     23  C   UNL A   1      45.873  22.901  25.837  1.00  0.00     0.094 A 
ATOM     24  C   UNL A   1      45.782  24.276  27.805  1.00  0.00     0.047 A 
BRANCH  16  25
ATOM     25  C   UNL A   1      41.143  20.073  27.248  1.00  0.00     0.079 C 
BRANCH  25  26
ATOM     26  C   UNL A   1      39.946  20.486  26.418  1.00  0.00    -0.043 A 
ATOM     27  C   UNL A   1      39.265  19.545  25.635  1.00  0.00     0.004 A 
ATOM     28  C   UNL A   1      39.485  21.812  26.426  1.00  0.00     0.004 A 
ATOM     29  C   UNL A   1      38.163  19.926  24.865  1.00  0.00     0.000 A 
ATOM     30  C   UNL A   1      38.376  22.188  25.668  1.00  0.00     0.000 A 
ATOM     31  C   UNL A   1      37.720  21.247  24.882  1.00  0.00     0.000 A 
ENDBRANCH  25  26
ENDBRANCH  16  25
ENDBRANCH  12  13
ENDBRANCH  11  12
ENDBRANCH   8  11
ENDBRANCH   5   7
ENDBRANCH   1   5
BRANCH   3  32
ATOM     32  C   UNL A   1      47.785  27.562  30.430  1.00  0.00     0.116 C 
BRANCH  32  33
ATOM     33  C   UNL A   1      47.259  26.597  31.487  1.00  0.00     0.023 C 
BRANCH  33  34
ATOM     34  C   UNL A   1      48.351  25.918  32.305  1.00  0.00     0.023 C 
BRANCH  34  35
ATOM     35  C   UNL A   1      47.856  24.920  33.345  1.00  0.00     0.116 C 
BRANCH  35  36
ATOM     36  N   UNL A   1      48.370  25.135  34.691  1.00  0.00    -0.352 N 
ATOM     37  C   UNL A   1      47.807  25.917  35.682  1.00  0.00     0.251 C 
ATOM     38  H   UNL A   1      49.209  24.673  34.921  1.00  0.00     0.163 HD
ATOM     39  O   UNL A   1      48.347  26.069  36.763  1.00  0.00    -0.269 OA
BRANCH  37  40
ATOM     40  C   UNL A   1      46.545  26.616  35.360  1.00  0.00     0.039 A 
ATOM     41  C   UNL A   1      46.605  27.921  34.867  1.00  0.00     0.014 A 
ATOM     42  C   UNL A   1      45.338  25.912  35.388  1.00  0.00     0.014 A 
ATOM     43  C   UNL A   1      45.461  28.490  34.305  1.00  0.00     0.010 A 
ATOM     44  C   UNL A   1      44.225  26.451  34.758  1.00  0.00     0.010 A 
ATOM     45  C   UNL A   1      44.280  27.738  34.195  1.00  0.00    -0.014 A 
BRANCH  45  46
ATOM     46  C   UNL A   1      43.078  28.264  33.499  1.00  0.00     0.031 A 
ATOM     47  C   UNL A   1      42.875  27.949  32.044  1.00  0.00     0.074 A 
ATOM     48  C   UNL A   1      42.230  29.094  34.137  1.00  0.00     0.049 A 
ATOM     49  N   UNL A   1      42.004  28.442  31.202  1.00  0.00    -0.248 NA
ATOM     50  C   UNL A   1      43.803  26.972  31.450  1.00  0.00     0.031 C 
ATOM     51  C   UNL A   1      42.336  29.507  35.538  1.00  0.00     0.029 A 
ATOM     52  N   UNL A   1      41.118  29.757  33.682  1.00  0.00    -0.354 N 
ATOM     53  C   UNL A   1      42.295  27.855  29.978  1.00  0.00     0.074 A 
ATOM     54  C   UNL A   1      43.452  27.010  30.173  1.00  0.00     0.031 C 
ATOM     55  C   UNL A   1      41.323  30.338  35.832  1.00  0.00     0.029 A 
ATOM     56  C   UNL A   1      40.520  30.552  34.632  1.00  0.00     0.049 A 
ATOM     57  H   UNL A   1      40.779  29.671  32.762  1.00  0.00     0.167 HD
ATOM     58  C   UNL A   1      41.639  27.989  28.801  1.00  0.00     0.037 A 
ATOM     59  C   UNL A   1      39.453  31.369  34.536  1.00  0.00     0.037 A 
ATOM     60  C   UNL A   1      40.467  28.801  28.615  1.00  0.00     0.049 A 
ATOM     61  C   UNL A   1      38.738  31.492  33.217  1.00  0.00     0.074 A 
ATOM     62  C   UNL A   1      39.720  28.991  27.467  1.00  0.00     0.029 A 
ATOM     63  N   UNL A   1      39.860  29.544  29.617  1.00  0.00    -0.354 N 
ATOM     64  N   UNL A   1      39.008  30.914  32.071  1.00  0.00    -0.248 NA
ATOM     65  C   UNL A   1      37.567  32.381  33.176  1.00  0.00     0.031 C 
ATOM     66  C   UNL A   1      38.670  29.863  27.768  1.00  0.00     0.029 A 
ATOM     67  C   UNL A   1      38.743  30.188  29.113  1.00  0.00     0.049 A 
ATOM     68  H   UNL A   1      40.177  29.605  30.547  1.00  0.00     0.167 HD
ATOM     69  C   UNL A   1      38.022  31.335  31.189  1.00  0.00     0.074 A 
ATOM     70  C   UNL A   1      37.144  32.215  31.930  1.00  0.00     0.031 C 
ATOM     71  C   UNL A   1      37.861  31.025  29.881  1.00  0.00     0.037 A 
BRANCH  58  72
ATOM     72  C   UNL A   1      42.165  27.219  27.628  1.00  0.00     0.064 A 
ATOM     73  C   UNL A   1      43.278  27.669  26.902  1.00  0.00     0.173 A 
ATOM     74  C   UNL A   1      41.573  26.008  27.243  1.00  0.00     0.173 A 
ATOM     75  F   UNL A   1      43.866  28.832  27.222  1.00  0.00    -0.203 F 
ATOM     76  C   UNL A   1      43.766  26.946  25.818  1.00  0.00     0.198 A 
ATOM     77  C   UNL A   1      42.081  25.272  26.175  1.00  0.00     0.198 A 
ATOM     78  F   UNL A   1      40.508  25.533  27.905  1.00  0.00    -0.203 F 
ATOM     79  F   UNL A   1      44.802  27.418  25.112  1.00  0.00    -0.200 F 
ATOM     80  C   UNL A   1      43.172  25.744  25.460  1.00  0.00     0.200 A 
ATOM     81  F   UNL A   1      41.514  24.107  25.836  1.00  0.00    -0.200 F 
ATOM     82  F   UNL A   1      43.649  25.045  24.421  1.00  0.00    -0.200 F 
ENDBRANCH  58  72
BRANCH  59  83
ATOM     83  C   UNL A   1      38.973  32.125  35.723  1.00  0.00     0.064 A 
ATOM     84  C   UNL A   1      39.325  33.470  35.904  1.00  0.00     0.173 A 
ATOM     85  C   UNL A   1      38.192  31.516  36.714  1.00  0.00     0.173 A 
ATOM     86  F   UNL A   1      40.091  34.090  34.994  1.00  0.00    -0.203 F 
ATOM     87  C   UNL A   1      38.940  34.168  37.047  1.00  0.00     0.198 A 
ATOM     88  C   UNL A   1      37.784  32.223  37.843  1.00  0.00     0.198 A 
ATOM     89  F   UNL A   1      37.823  30.232  36.586  1.00  0.00    -0.203 F 
ATOM     90  F   UNL A   1      39.339  35.436  37.221  1.00  0.00    -0.200 F 
ATOM     91  C   UNL A   1      38.168  33.546  38.015  1.00  0.00     0.200 A 
ATOM     92  F   UNL A   1      37.028  31.621  38.772  1.00  0.00    -0.200 F 
ATOM     93  F   UNL A   1      37.803  34.213  39.117  1.00  0.00    -0.200 F 
ENDBRANCH  59  83
BRANCH  71  94
ATOM     94  C   UNL A   1      36.657  31.581  29.183  1.00  0.00     0.064 A 
ATOM     95  C   UNL A   1      35.555  30.776  28.863  1.00  0.00     0.173 A 
ATOM     96  C   UNL A   1      36.584  32.950  28.885  1.00  0.00     0.173 A 
ATOM     97  F   UNL A   1      35.585  29.459  29.116  1.00  0.00    -0.203 F 
ATOM     98  C   UNL A   1      34.428  31.320  28.254  1.00  0.00     0.198 A 
ATOM     99  C   UNL A   1      35.447  33.494  28.298  1.00  0.00     0.198 A 
ATOM    100  F   UNL A   1      37.612  33.761  29.178  1.00  0.00    -0.203 F 
ATOM    101  F   UNL A   1      33.399  30.528  27.925  1.00  0.00    -0.200 F 
ATOM    102  C   UNL A   1      34.372  32.679  27.979  1.00  0.00     0.200 A 
ATOM    103  F   UNL A   1      35.389  34.809  28.042  1.00  0.00    -0.200 F 
ATOM    104  F   UNL A   1      33.281  33.202  27.401  1.00  0.00    -0.200 F 
ENDBRANCH  71  94
ENDBRANCH  45  46
ENDBRANCH  37  40
ENDBRANCH  35  36
ENDBRANCH  34  35
ENDBRANCH  33  34
ENDBRANCH  32  33
ENDBRANCH   3  32
TORSDOF 17
ENDMDL
MODEL 3
REMARK VINA RESULT:     -11.9      9.373     16.367
REMARK SMILES Cc1c(Cc2ccccc2)c(=O)oc2cc(OCC(=O)N[C@H](C)C(=O)NCCCCNC(=O)c3ccc(-c4c5nc(c(-c6c(F)c(F)c(F)c(F)c6F)c6ccc([nH]6)c(-c6c(F)c(F)c(F)c(F)c6F)c6nc(c(-c7c(F)c(F)c(F)c(F)c7F)c7ccc4[nH]7)C=C6)C=C5)cc3)ccc12
REMARK SMILES IDX 24 1 25 2 26 3 22 5 23 6 21 7 19 8 20 9 18 11 17 12 16 13
REMARK SMILES IDX 1 14 2 15 3 16 99 17 11 18 14 19 98 20 12 21 13 22 15 23
REMARK SMILES IDX 97 24 4 25 5 26 6 27 10 28 7 29 9 30 8 31 27 32 28 33 29 34
REMARK SMILES IDX 30 35 31 36 32 37 33 39 34 40 35 41 96 42 36 43 95 44 37 45
REMARK SMILES IDX 38 46 39 47 89 48 40 49 94 50 88 51 90 52 41 53 93 54 87 55
REMARK SMILES IDX 86 56 42 58 74 59 54 60 73 61 55 62 58 63 72 64 91 65 56 66
REMARK SMILES IDX 57 67 71 69 92 70 59 71 43 72 44 73 52 74 45 75 46 76 50 77
REMARK SMILES IDX 53 78 47 79 48 80 51 81 49 82 75 83 76 84 84 85 77 86 78 87
REMARK SMILES IDX 82 88 85 89 79 90 80 91 83 92 81 93 60 94 61 95 69 96 62 97
REMARK SMILES IDX 63 98 67 99 70 100 64 101 65 102 68 103 66 104
REMARK H PARENT 26 4 21 10 31 38 90 57 58 68
REMARK Flexibility Score: inf
ROOT
ATOM      1  C   UNL A   1      47.032  22.325  37.659  1.00  0.00     0.242 C 
ATOM      2  O   UNL A   1      47.331  23.000  38.647  1.00  0.00    -0.273 OA
ATOM      3  N   UNL A   1      45.828  22.581  37.067  1.00  0.00    -0.354 N 
ATOM      4  H   UNL A   1      45.245  23.225  37.530  1.00  0.00     0.163 HD
ENDROOT
BRANCH   1   5
ATOM      5  C   UNL A   1      47.960  21.173  37.178  1.00  0.00     0.168 C 
ATOM      6  C   UNL A   1      49.103  21.718  36.342  1.00  0.00     0.041 C 
BRANCH   5   7
ATOM      7  N   UNL A   1      48.255  20.137  38.187  1.00  0.00    -0.342 N 
ATOM      8  C   UNL A   1      47.593  19.205  38.920  1.00  0.00     0.258 C 
ATOM      9  O   UNL A   1      48.301  18.434  39.581  1.00  0.00    -0.271 OA
ATOM     10  H   UNL A   1      49.218  20.114  38.389  1.00  0.00     0.164 HD
BRANCH   8  11
ATOM     11  C   UNL A   1      46.067  19.010  38.942  1.00  0.00     0.329 C 
BRANCH  11  12
ATOM     12  O   UNL A   1      45.551  17.795  38.454  1.00  0.00    -0.484 OA
BRANCH  12  13
ATOM     13  C   UNL A   1      44.801  17.050  39.313  1.00  0.00     0.123 A 
ATOM     14  C   UNL A   1      42.542  15.482  43.698  1.00  0.00     0.046 C 
ATOM     15  C   UNL A   1      42.530  14.955  42.287  1.00  0.00    -0.029 A 
ATOM     16  C   UNL A   1      41.847  13.860  41.878  1.00  0.00     0.046 A 
ATOM     17  C   UNL A   1      43.342  15.690  41.305  1.00  0.00     0.021 A 
ATOM     18  C   UNL A   1      41.789  13.468  40.440  1.00  0.00     0.340 A 
ATOM     19  C   UNL A   1      43.230  15.356  39.961  1.00  0.00     0.142 A 
ATOM     20  C   UNL A   1      44.242  16.708  41.645  1.00  0.00     0.016 A 
ATOM     21  O   UNL A   1      41.166  12.485  40.053  1.00  0.00    -0.246 OA
ATOM     22  O   UNL A   1      42.415  14.302  39.532  1.00  0.00    -0.422 OA
ATOM     23  C   UNL A   1      43.934  16.023  38.962  1.00  0.00     0.094 A 
ATOM     24  C   UNL A   1      44.964  17.379  40.657  1.00  0.00     0.047 A 
BRANCH  16  25
ATOM     25  C   UNL A   1      41.053  12.942  42.779  1.00  0.00     0.079 C 
BRANCH  25  26
ATOM     26  C   UNL A   1      41.926  11.958  43.530  1.00  0.00    -0.043 A 
ATOM     27  C   UNL A   1      41.965  10.610  43.152  1.00  0.00     0.004 A 
ATOM     28  C   UNL A   1      42.723  12.378  44.607  1.00  0.00     0.004 A 
ATOM     29  C   UNL A   1      42.767   9.701  43.847  1.00  0.00     0.000 A 
ATOM     30  C   UNL A   1      43.534  11.472  45.291  1.00  0.00     0.000 A 
ATOM     31  C   UNL A   1      43.551  10.132  44.915  1.00  0.00     0.000 A 
ENDBRANCH  25  26
ENDBRANCH  16  25
ENDBRANCH  12  13
ENDBRANCH  11  12
ENDBRANCH   8  11
ENDBRANCH   5   7
ENDBRANCH   1   5
BRANCH   3  32
ATOM     32  C   UNL A   1      45.313  22.024  35.848  1.00  0.00     0.116 C 
BRANCH  32  33
ATOM     33  C   UNL A   1      45.405  22.958  34.646  1.00  0.00     0.023 C 
BRANCH  33  34
ATOM     34  C   UNL A   1      46.779  22.988  33.988  1.00  0.00     0.023 C 
BRANCH  34  35
ATOM     35  C   UNL A   1      47.467  24.347  33.985  1.00  0.00     0.116 C 
BRANCH  35  36
ATOM     36  N   UNL A   1      48.070  24.731  35.253  1.00  0.00    -0.352 N 
ATOM     37  C   UNL A   1      47.657  25.743  36.099  1.00  0.00     0.251 C 
ATOM     38  H   UNL A   1      48.858  24.213  35.540  1.00  0.00     0.163 HD
ATOM     39  O   UNL A   1      48.265  26.014  37.118  1.00  0.00    -0.269 OA
BRANCH  37  40
ATOM     40  C   UNL A   1      46.475  26.529  35.690  1.00  0.00     0.039 A 
ATOM     41  C   UNL A   1      46.659  27.648  34.875  1.00  0.00     0.014 A 
ATOM     42  C   UNL A   1      45.194  26.051  35.975  1.00  0.00     0.014 A 
ATOM     43  C   UNL A   1      45.552  28.233  34.260  1.00  0.00     0.010 A 
ATOM     44  C   UNL A   1      44.104  26.586  35.300  1.00  0.00     0.010 A 
ATOM     45  C   UNL A   1      44.274  27.671  34.422  1.00  0.00    -0.014 A 
BRANCH  45  46
ATOM     46  C   UNL A   1      43.090  28.189  33.693  1.00  0.00     0.031 A 
ATOM     47  C   UNL A   1      42.896  27.820  32.250  1.00  0.00     0.074 A 
ATOM     48  C   UNL A   1      42.252  29.061  34.288  1.00  0.00     0.049 A 
ATOM     49  N   UNL A   1      42.043  28.295  31.379  1.00  0.00    -0.248 NA
ATOM     50  C   UNL A   1      43.810  26.803  31.705  1.00  0.00     0.031 C 
ATOM     51  C   UNL A   1      42.353  29.529  35.672  1.00  0.00     0.029 A 
ATOM     52  N   UNL A   1      41.157  29.726  33.795  1.00  0.00    -0.354 N 
ATOM     53  C   UNL A   1      42.334  27.653  30.183  1.00  0.00     0.074 A 
ATOM     54  C   UNL A   1      43.472  26.795  30.425  1.00  0.00     0.031 C 
ATOM     55  C   UNL A   1      41.352  30.390  35.921  1.00  0.00     0.029 A 
ATOM     56  C   UNL A   1      40.565  30.570  34.705  1.00  0.00     0.049 A 
ATOM     57  H   UNL A   1      40.826  29.609  32.875  1.00  0.00     0.167 HD
ATOM     58  C   UNL A   1      41.692  27.751  28.995  1.00  0.00     0.037 A 
ATOM     59  C   UNL A   1      39.516  31.402  34.565  1.00  0.00     0.037 A 
ATOM     60  C   UNL A   1      40.538  28.576  28.764  1.00  0.00     0.049 A 
ATOM     61  C   UNL A   1      38.816  31.485  33.234  1.00  0.00     0.074 A 
ATOM     62  C   UNL A   1      39.806  28.734  27.601  1.00  0.00     0.029 A 
ATOM     63  N   UNL A   1      39.936  29.371  29.729  1.00  0.00    -0.354 N 
ATOM     64  N   UNL A   1      39.086  30.855  32.116  1.00  0.00    -0.248 NA
ATOM     65  C   UNL A   1      37.662  32.393  33.145  1.00  0.00     0.031 C 
ATOM     66  C   UNL A   1      38.770  29.637  27.856  1.00  0.00     0.029 A 
ATOM     67  C   UNL A   1      38.836  30.015  29.187  1.00  0.00     0.049 A 
ATOM     68  H   UNL A   1      40.245  29.464  30.659  1.00  0.00     0.167 HD
ATOM     69  C   UNL A   1      38.117  31.259  31.207  1.00  0.00     0.074 A 
ATOM     70  C   UNL A   1      37.249  32.185  31.903  1.00  0.00     0.031 C 
ATOM     71  C   UNL A   1      37.963  30.899  29.911  1.00  0.00     0.037 A 
BRANCH  58  72
ATOM     72  C   UNL A   1      42.214  26.924  27.859  1.00  0.00     0.064 A 
ATOM     73  C   UNL A   1      41.723  25.633  27.614  1.00  0.00     0.173 A 
ATOM     74  C   UNL A   1      43.190  27.434  26.991  1.00  0.00     0.173 A 
ATOM     75  F   UNL A   1      40.801  25.097  28.428  1.00  0.00    -0.203 F 
ATOM     76  C   UNL A   1      42.206  24.874  26.553  1.00  0.00     0.198 A 
ATOM     77  C   UNL A   1      43.651  26.682  25.914  1.00  0.00     0.198 A 
ATOM     78  F   UNL A   1      43.691  28.663  27.182  1.00  0.00    -0.203 F 
ATOM     79  F   UNL A   1      41.754  23.626  26.365  1.00  0.00    -0.200 F 
ATOM     80  C   UNL A   1      43.164  25.401  25.700  1.00  0.00     0.200 A 
ATOM     81  F   UNL A   1      44.570  27.195  25.085  1.00  0.00    -0.200 F 
ATOM     82  F   UNL A   1      43.623  24.670  24.674  1.00  0.00    -0.200 F 
ENDBRANCH  58  72
BRANCH  59  83
ATOM     83  C   UNL A   1      39.039  32.215  35.715  1.00  0.00     0.064 A 
ATOM     84  C   UNL A   1      39.449  33.547  35.868  1.00  0.00     0.173 A 
ATOM     85  C   UNL A   1      38.201  31.673  36.699  1.00  0.00     0.173 A 
ATOM     86  F   UNL A   1      40.268  34.103  34.964  1.00  0.00    -0.203 F 
ATOM     87  C   UNL A   1      39.065  34.295  36.979  1.00  0.00     0.198 A 
ATOM     88  C   UNL A   1      37.796  32.431  37.796  1.00  0.00     0.198 A 
ATOM     89  F   UNL A   1      37.777  30.404  36.597  1.00  0.00    -0.203 F 
ATOM     90  F   UNL A   1      39.518  35.548  37.129  1.00  0.00    -0.200 F 
ATOM     91  C   UNL A   1      38.237  33.739  37.941  1.00  0.00     0.200 A 
ATOM     92  F   UNL A   1      36.987  31.893  38.718  1.00  0.00    -0.200 F 
ATOM     93  F   UNL A   1      37.873  34.455  39.013  1.00  0.00    -0.200 F 
ENDBRANCH  59  83
BRANCH  71  94
ATOM     94  C   UNL A   1      36.776  31.448  29.179  1.00  0.00     0.064 A 
ATOM     95  C   UNL A   1      35.670  30.648  28.864  1.00  0.00     0.173 A 
ATOM     96  C   UNL A   1      36.725  32.810  28.841  1.00  0.00     0.173 A 
ATOM     97  F   UNL A   1      35.681  29.338  29.154  1.00  0.00    -0.203 F 
ATOM     98  C   UNL A   1      34.560  31.187  28.221  1.00  0.00     0.198 A 
ATOM     99  C   UNL A   1      35.603  33.350  28.221  1.00  0.00     0.198 A 
ATOM    100  F   UNL A   1      37.758  33.616  29.128  1.00  0.00    -0.203 F 
ATOM    101  F   UNL A   1      33.527  30.398  27.898  1.00  0.00    -0.200 F 
ATOM    102  C   UNL A   1      34.524  32.539  27.908  1.00  0.00     0.200 A 
ATOM    103  F   UNL A   1      35.565  34.658  27.927  1.00  0.00    -0.200 F 
ATOM    104  F   UNL A   1      33.449  33.057  27.298  1.00  0.00    -0.200 F 
ENDBRANCH  71  94
ENDBRANCH  45  46
ENDBRANCH  37  40
ENDBRANCH  35  36
ENDBRANCH  34  35
ENDBRANCH  33  34
ENDBRANCH  32  33
ENDBRANCH   3  32
TORSDOF 17
ENDMDL
