MODEL 1
REMARK VINA RESULT:     -13.1      0.000      0.000
REMARK SMILES COc1ccc(-n2ccnc2C[N@@H+]2CCn3nc(C(=O)NCCCCNC(=O)c4ccc(-c5c6nc(c(-c7c(F)c(F)c(F)c(F)c7F)c7ccc([nH]7)c(-c7c(F)c(F)c(F)c(F)c7F)c7nc(c(-c8c(F)c(F)c(F)c(F)c8F)c8ccc5[nH]8)C=C7)C=C6)cc4)cc3C2)cc1
REMARK SMILES IDX 22 1 21 2 19 3 20 4 18 6 13 7 14 8 94 9 15 11 93 12 16 13
REMARK SMILES IDX 92 14 17 15 12 16 11 17 7 18 8 19 9 20 10 21 6 22 3 23 4 24
REMARK SMILES IDX 96 25 5 26 95 27 2 28 1 29 23 30 24 31 25 32 26 33 27 34
REMARK SMILES IDX 28 36 29 37 30 38 91 39 31 40 90 41 32 42 33 43 34 44 84 45
REMARK SMILES IDX 35 46 89 47 83 48 85 49 36 50 88 51 82 52 81 53 37 55 69 56
REMARK SMILES IDX 49 57 68 58 50 59 53 60 67 61 86 62 51 63 52 64 66 66 87 67
REMARK SMILES IDX 54 68 38 69 39 70 47 71 40 72 41 73 45 74 48 75 42 76 43 77
REMARK SMILES IDX 46 78 44 79 70 80 71 81 79 82 72 83 73 84 77 85 80 86 74 87
REMARK SMILES IDX 75 88 78 89 76 90 55 91 56 92 64 93 57 94 58 95 62 96 65 97
REMARK SMILES IDX 59 98 60 99 63 100 61 101
REMARK H PARENT 21 5 13 10 26 35 85 54 53 65
REMARK Flexibility Score: inf
ROOT
ATOM      1  C   UNL A   1      39.325  21.378  25.906  1.00  0.00     0.116 C 
ENDROOT
BRANCH   1   2
ATOM      2  N   UNL A   1      39.038  22.801  26.202  1.00  0.00    -0.351 N 
ATOM      3  C   UNL A   1      37.971  23.704  26.116  1.00  0.00     0.271 C 
ATOM      4  O   UNL A   1      38.215  24.809  26.613  1.00  0.00    -0.267 OA
ATOM      5  H   UNL A   1      39.838  23.245  26.568  1.00  0.00     0.163 HD
BRANCH   3   6
ATOM      6  C   UNL A   1      36.662  23.484  25.420  1.00  0.00     0.150 A 
ATOM      7  N   UNL A   1      32.696  23.942  23.405  1.00  0.00    -0.322 N 
ATOM      8  C   UNL A   1      32.232  23.540  24.748  1.00  0.00     0.286 C 
ATOM      9  C   UNL A   1      33.848  23.114  22.967  1.00  0.00     0.319 C 
ATOM     10  H   UNL A   1      31.846  23.783  22.864  1.00  0.00     0.348 HD
ATOM     11  C   UNL A   1      33.212  22.766  25.676  1.00  0.00     0.206 C 
ATOM     12  C   UNL A   1      34.943  23.206  23.981  1.00  0.00     0.094 A 
ATOM     13  N   UNL A   1      34.592  22.945  25.266  1.00  0.00    -0.257 N 
ATOM     14  C   UNL A   1      36.274  23.594  24.040  1.00  0.00     0.065 A 
ATOM     15  N   UNL A   1      35.625  22.953  26.119  1.00  0.00    -0.167 NA
BRANCH   7  16
ATOM     16  C   UNL A   1      33.019  25.362  23.139  1.00  0.00     0.339 C 
BRANCH  16  17
ATOM     17  C   UNL A   1      33.251  26.378  24.236  1.00  0.00     0.168 A 
ATOM     18  N   UNL A   1      32.520  27.547  24.449  1.00  0.00    -0.299 N 
ATOM     19  C   UNL A   1      32.896  28.045  25.674  1.00  0.00     0.113 A 
ATOM     20  C   UNL A   1      33.798  27.144  26.177  1.00  0.00     0.132 A 
ATOM     21  N   UNL A   1      34.051  26.154  25.271  1.00  0.00    -0.236 NA
BRANCH  18  22
ATOM     22  C   UNL A   1      31.409  28.036  23.737  1.00  0.00     0.047 A 
ATOM     23  C   UNL A   1      29.161  28.934  22.342  1.00  0.00     0.119 A 
ATOM     24  C   UNL A   1      29.098  27.930  23.290  1.00  0.00     0.048 A 
ATOM     25  C   UNL A   1      30.380  29.539  22.111  1.00  0.00     0.048 A 
ATOM     26  C   UNL A   1      30.184  27.470  24.003  1.00  0.00     0.030 A 
ATOM     27  C   UNL A   1      31.514  29.100  22.821  1.00  0.00     0.030 A 
BRANCH  23  28
ATOM     28  O   UNL A   1      27.988  29.414  21.836  1.00  0.00    -0.497 OA
ATOM     29  C   UNL A   1      28.121  30.647  21.132  1.00  0.00     0.278 C 
ENDBRANCH  23  28
ENDBRANCH  18  22
ENDBRANCH  16  17
ENDBRANCH   7  16
ENDBRANCH   3   6
ENDBRANCH   1   2
BRANCH   1  30
ATOM     30  C   UNL A   1      40.520  20.741  26.692  1.00  0.00     0.023 C 
BRANCH  30  31
ATOM     31  C   UNL A   1      41.336  19.569  26.124  1.00  0.00     0.023 C 
BRANCH  31  32
ATOM     32  C   UNL A   1      42.761  19.403  26.627  1.00  0.00     0.116 C 
BRANCH  32  33
ATOM     33  N   UNL A   1      43.736  19.014  25.609  1.00  0.00    -0.352 N 
ATOM     34  C   UNL A   1      44.314  19.864  24.672  1.00  0.00     0.251 C 
ATOM     35  H   UNL A   1      44.007  18.069  25.584  1.00  0.00     0.163 HD
ATOM     36  O   UNL A   1      44.728  19.463  23.603  1.00  0.00    -0.269 OA
BRANCH  34  37
ATOM     37  C   UNL A   1      44.410  21.295  25.026  1.00  0.00     0.039 A 
ATOM     38  C   UNL A   1      43.479  22.219  24.554  1.00  0.00     0.014 A 
ATOM     39  C   UNL A   1      45.407  21.667  25.929  1.00  0.00     0.014 A 
ATOM     40  C   UNL A   1      43.489  23.505  25.091  1.00  0.00     0.010 A 
ATOM     41  C   UNL A   1      45.347  22.900  26.538  1.00  0.00     0.010 A 
ATOM     42  C   UNL A   1      44.396  23.828  26.118  1.00  0.00    -0.014 A 
BRANCH  42  43
ATOM     43  C   UNL A   1      44.204  25.058  26.893  1.00  0.00     0.031 A 
ATOM     44  C   UNL A   1      45.206  26.116  26.578  1.00  0.00     0.074 A 
ATOM     45  C   UNL A   1      43.126  25.312  27.669  1.00  0.00     0.049 A 
ATOM     46  N   UNL A   1      46.122  26.576  27.363  1.00  0.00    -0.248 NA
ATOM     47  C   UNL A   1      45.311  26.617  25.196  1.00  0.00     0.031 C 
ATOM     48  C   UNL A   1      41.928  24.480  27.823  1.00  0.00     0.029 A 
ATOM     49  N   UNL A   1      42.816  26.419  28.411  1.00  0.00    -0.354 N 
ATOM     50  C   UNL A   1      46.774  27.581  26.651  1.00  0.00     0.074 A 
ATOM     51  C   UNL A   1      46.366  27.433  25.281  1.00  0.00     0.031 C 
ATOM     52  C   UNL A   1      40.942  25.202  28.398  1.00  0.00     0.029 A 
ATOM     53  C   UNL A   1      41.480  26.488  28.805  1.00  0.00     0.049 A 
ATOM     54  H   UNL A   1      43.478  27.109  28.645  1.00  0.00     0.167 HD
ATOM     55  C   UNL A   1      47.344  28.622  27.319  1.00  0.00     0.037 A 
ATOM     56  C   UNL A   1      40.852  27.523  29.415  1.00  0.00     0.037 A 
ATOM     57  C   UNL A   1      47.476  28.301  28.719  1.00  0.00     0.049 A 
ATOM     58  C   UNL A   1      41.893  28.349  30.060  1.00  0.00     0.074 A 
ATOM     59  C   UNL A   1      48.213  27.420  29.481  1.00  0.00     0.029 A 
ATOM     60  N   UNL A   1      46.409  28.698  29.476  1.00  0.00    -0.354 N 
ATOM     61  N   UNL A   1      42.587  27.958  31.091  1.00  0.00    -0.248 NA
ATOM     62  C   UNL A   1      42.423  29.505  29.350  1.00  0.00     0.031 C 
ATOM     63  C   UNL A   1      47.401  27.118  30.617  1.00  0.00     0.029 A 
ATOM     64  C   UNL A   1      46.229  27.871  30.547  1.00  0.00     0.049 A 
ATOM     65  H   UNL A   1      45.843  29.478  29.274  1.00  0.00     0.167 HD
ATOM     66  C   UNL A   1      43.842  28.490  30.870  1.00  0.00     0.074 A 
ATOM     67  C   UNL A   1      43.629  29.574  29.918  1.00  0.00     0.031 C 
ATOM     68  C   UNL A   1      44.954  27.782  31.222  1.00  0.00     0.037 A 
BRANCH  55  69
ATOM     69  C   UNL A   1      47.267  30.076  26.874  1.00  0.00     0.064 A 
ATOM     70  C   UNL A   1      48.408  30.894  27.033  1.00  0.00     0.173 A 
ATOM     71  C   UNL A   1      46.060  30.772  26.642  1.00  0.00     0.173 A 
ATOM     72  F   UNL A   1      49.609  30.349  27.283  1.00  0.00    -0.203 F 
ATOM     73  C   UNL A   1      48.327  32.291  27.051  1.00  0.00     0.198 A 
ATOM     74  C   UNL A   1      45.992  32.164  26.611  1.00  0.00     0.198 A 
ATOM     75  F   UNL A   1      44.879  30.151  26.558  1.00  0.00    -0.203 F 
ATOM     76  F   UNL A   1      49.413  33.019  27.343  1.00  0.00    -0.200 F 
ATOM     77  C   UNL A   1      47.117  32.925  26.847  1.00  0.00     0.200 A 
ATOM     78  F   UNL A   1      44.802  32.760  26.442  1.00  0.00    -0.200 F 
ATOM     79  F   UNL A   1      47.020  34.259  26.929  1.00  0.00    -0.200 F 
ENDBRANCH  55  69
BRANCH  56  80
ATOM     80  C   UNL A   1      39.442  27.978  29.335  1.00  0.00     0.064 A 
ATOM     81  C   UNL A   1      38.652  28.103  30.493  1.00  0.00     0.173 A 
ATOM     82  C   UNL A   1      38.943  28.594  28.172  1.00  0.00     0.173 A 
ATOM     83  F   UNL A   1      39.064  27.572  31.654  1.00  0.00    -0.203 F 
ATOM     84  C   UNL A   1      37.466  28.845  30.500  1.00  0.00     0.198 A 
ATOM     85  C   UNL A   1      37.755  29.330  28.179  1.00  0.00     0.198 A 
ATOM     86  F   UNL A   1      39.649  28.580  27.032  1.00  0.00    -0.203 F 
ATOM     87  F   UNL A   1      36.785  29.007  31.643  1.00  0.00    -0.200 F 
ATOM     88  C   UNL A   1      37.029  29.473  29.347  1.00  0.00     0.200 A 
ATOM     89  F   UNL A   1      37.360  29.961  27.064  1.00  0.00    -0.200 F 
ATOM     90  F   UNL A   1      35.936  30.249  29.370  1.00  0.00    -0.200 F 
ENDBRANCH  56  80
BRANCH  68  91
ATOM     91  C   UNL A   1      44.792  26.741  32.290  1.00  0.00     0.064 A 
ATOM     92  C   UNL A   1      44.514  25.382  32.061  1.00  0.00     0.173 A 
ATOM     93  C   UNL A   1      44.976  27.149  33.619  1.00  0.00     0.173 A 
ATOM     94  F   UNL A   1      44.415  24.892  30.820  1.00  0.00    -0.203 F 
ATOM     95  C   UNL A   1      44.366  24.492  33.124  1.00  0.00     0.198 A 
ATOM     96  C   UNL A   1      44.872  26.249  34.673  1.00  0.00     0.198 A 
ATOM     97  F   UNL A   1      45.285  28.426  33.893  1.00  0.00    -0.203 F 
ATOM     98  F   UNL A   1      44.061  23.207  32.888  1.00  0.00    -0.200 F 
ATOM     99  C   UNL A   1      44.549  24.926  34.427  1.00  0.00     0.200 A 
ATOM    100  F   UNL A   1      45.096  26.666  35.926  1.00  0.00    -0.200 F 
ATOM    101  F   UNL A   1      44.432  24.064  35.448  1.00  0.00    -0.200 F 
ENDBRANCH  68  91
ENDBRANCH  42  43
ENDBRANCH  34  37
ENDBRANCH  32  33
ENDBRANCH  31  32
ENDBRANCH  30  31
ENDBRANCH   1  30
TORSDOF 15
ENDMDL
MODEL 2
REMARK VINA RESULT:     -12.9      1.319      1.954
REMARK SMILES COc1ccc(-n2ccnc2C[N@@H+]2CCn3nc(C(=O)NCCCCNC(=O)c4ccc(-c5c6nc(c(-c7c(F)c(F)c(F)c(F)c7F)c7ccc([nH]7)c(-c7c(F)c(F)c(F)c(F)c7F)c7nc(c(-c8c(F)c(F)c(F)c(F)c8F)c8ccc5[nH]8)C=C7)C=C6)cc4)cc3C2)cc1
REMARK SMILES IDX 22 1 21 2 19 3 20 4 18 6 13 7 14 8 94 9 15 11 93 12 16 13
REMARK SMILES IDX 92 14 17 15 12 16 11 17 7 18 8 19 9 20 10 21 6 22 3 23 4 24
REMARK SMILES IDX 96 25 5 26 95 27 2 28 1 29 23 30 24 31 25 32 26 33 27 34
REMARK SMILES IDX 28 36 29 37 30 38 91 39 31 40 90 41 32 42 33 43 34 44 84 45
REMARK SMILES IDX 35 46 89 47 83 48 85 49 36 50 88 51 82 52 81 53 37 55 69 56
REMARK SMILES IDX 49 57 68 58 50 59 53 60 67 61 86 62 51 63 52 64 66 66 87 67
REMARK SMILES IDX 54 68 38 69 39 70 47 71 40 72 41 73 45 74 48 75 42 76 43 77
REMARK SMILES IDX 46 78 44 79 70 80 71 81 79 82 72 83 73 84 77 85 80 86 74 87
REMARK SMILES IDX 75 88 78 89 76 90 55 91 56 92 64 93 57 94 58 95 62 96 65 97
REMARK SMILES IDX 59 98 60 99 63 100 61 101
REMARK H PARENT 21 5 13 10 26 35 85 54 53 65
REMARK Flexibility Score: inf
ROOT
ATOM      1  C   UNL A   1      39.607  21.326  25.987  1.00  0.00     0.116 C 
ENDROOT
BRANCH   1   2
ATOM      2  N   UNL A   1      39.227  22.737  26.230  1.00  0.00    -0.351 N 
ATOM      3  C   UNL A   1      38.089  23.550  26.171  1.00  0.00     0.271 C 
ATOM      4  O   UNL A   1      38.275  24.697  26.594  1.00  0.00    -0.267 OA
ATOM      5  H   UNL A   1      40.011  23.260  26.519  1.00  0.00     0.163 HD
BRANCH   3   6
ATOM      6  C   UNL A   1      36.760  23.194  25.576  1.00  0.00     0.150 A 
ATOM      7  N   UNL A   1      32.442  22.986  24.428  1.00  0.00    -0.322 N 
ATOM      8  C   UNL A   1      32.478  21.885  25.410  1.00  0.00     0.286 C 
ATOM      9  C   UNL A   1      33.625  22.940  23.531  1.00  0.00     0.319 C 
ATOM     10  H   UNL A   1      31.561  22.782  23.956  1.00  0.00     0.348 HD
ATOM     11  C   UNL A   1      33.842  21.207  25.725  1.00  0.00     0.206 C 
ATOM     12  C   UNL A   1      34.875  22.970  24.351  1.00  0.00     0.094 A 
ATOM     13  N   UNL A   1      34.960  22.052  25.347  1.00  0.00    -0.257 N 
ATOM     14  C   UNL A   1      36.011  23.757  24.485  1.00  0.00     0.065 A 
ATOM     15  N   UNL A   1      36.133  22.063  25.991  1.00  0.00    -0.167 NA
BRANCH   7  16
ATOM     16  C   UNL A   1      32.272  24.380  24.897  1.00  0.00     0.339 C 
BRANCH  16  17
ATOM     17  C   UNL A   1      31.076  25.233  24.539  1.00  0.00     0.168 A 
ATOM     18  N   UNL A   1      30.914  26.592  24.819  1.00  0.00    -0.299 N 
ATOM     19  C   UNL A   1      29.815  27.024  24.116  1.00  0.00     0.113 A 
ATOM     20  C   UNL A   1      29.381  25.937  23.404  1.00  0.00     0.132 A 
ATOM     21  N   UNL A   1      30.124  24.831  23.706  1.00  0.00    -0.236 NA
BRANCH  18  22
ATOM     22  C   UNL A   1      31.806  27.474  25.458  1.00  0.00     0.047 A 
ATOM     23  C   UNL A   1      33.621  29.230  26.651  1.00  0.00     0.119 A 
ATOM     24  C   UNL A   1      33.486  29.116  25.280  1.00  0.00     0.048 A 
ATOM     25  C   UNL A   1      32.794  28.472  27.455  1.00  0.00     0.048 A 
ATOM     26  C   UNL A   1      32.596  28.268  24.659  1.00  0.00     0.030 A 
ATOM     27  C   UNL A   1      31.868  27.595  26.858  1.00  0.00     0.030 A 
BRANCH  23  28
ATOM     28  O   UNL A   1      34.415  30.228  27.137  1.00  0.00    -0.497 OA
ATOM     29  C   UNL A   1      33.696  31.380  27.574  1.00  0.00     0.278 C 
ENDBRANCH  23  28
ENDBRANCH  18  22
ENDBRANCH  16  17
ENDBRANCH   7  16
ENDBRANCH   3   6
ENDBRANCH   1   2
BRANCH   1  30
ATOM     30  C   UNL A   1      41.084  20.943  26.338  1.00  0.00     0.023 C 
BRANCH  30  31
ATOM     31  C   UNL A   1      41.653  19.544  26.050  1.00  0.00     0.023 C 
BRANCH  31  32
ATOM     32  C   UNL A   1      43.116  19.304  26.383  1.00  0.00     0.116 C 
BRANCH  32  33
ATOM     33  N   UNL A   1      43.967  18.980  25.238  1.00  0.00    -0.352 N 
ATOM     34  C   UNL A   1      44.446  19.888  24.300  1.00  0.00     0.251 C 
ATOM     35  H   UNL A   1      44.223  18.038  25.122  1.00  0.00     0.163 HD
ATOM     36  O   UNL A   1      44.734  19.556  23.167  1.00  0.00    -0.269 OA
BRANCH  34  37
ATOM     37  C   UNL A   1      44.598  21.292  24.733  1.00  0.00     0.039 A 
ATOM     38  C   UNL A   1      43.775  22.297  24.226  1.00  0.00     0.014 A 
ATOM     39  C   UNL A   1      45.526  21.556  25.741  1.00  0.00     0.014 A 
ATOM     40  C   UNL A   1      43.814  23.553  24.825  1.00  0.00     0.010 A 
ATOM     41  C   UNL A   1      45.485  22.762  26.404  1.00  0.00     0.010 A 
ATOM     42  C   UNL A   1      44.638  23.769  25.946  1.00  0.00    -0.014 A 
BRANCH  42  43
ATOM     43  C   UNL A   1      44.450  24.973  26.761  1.00  0.00     0.031 A 
ATOM     44  C   UNL A   1      45.445  26.045  26.468  1.00  0.00     0.074 A 
ATOM     45  C   UNL A   1      43.380  25.199  27.558  1.00  0.00     0.049 A 
ATOM     46  N   UNL A   1      46.367  26.484  27.256  1.00  0.00    -0.248 NA
ATOM     47  C   UNL A   1      45.531  26.590  25.101  1.00  0.00     0.031 C 
ATOM     48  C   UNL A   1      42.188  24.357  27.700  1.00  0.00     0.029 A 
ATOM     49  N   UNL A   1      43.075  26.281  28.337  1.00  0.00    -0.354 N 
ATOM     50  C   UNL A   1      47.007  27.514  26.568  1.00  0.00     0.074 A 
ATOM     51  C   UNL A   1      46.583  27.407  25.199  1.00  0.00     0.031 C 
ATOM     52  C   UNL A   1      41.206  25.056  28.309  1.00  0.00     0.029 A 
ATOM     53  C   UNL A   1      41.744  26.331  28.749  1.00  0.00     0.049 A 
ATOM     54  H   UNL A   1      43.737  26.965  28.585  1.00  0.00     0.167 HD
ATOM     55  C   UNL A   1      47.581  28.536  27.261  1.00  0.00     0.037 A 
ATOM     56  C   UNL A   1      41.118  27.344  29.399  1.00  0.00     0.037 A 
ATOM     57  C   UNL A   1      47.731  28.172  28.649  1.00  0.00     0.049 A 
ATOM     58  C   UNL A   1      42.165  28.154  30.056  1.00  0.00     0.074 A 
ATOM     59  C   UNL A   1      48.480  27.271  29.375  1.00  0.00     0.029 A 
ATOM     60  N   UNL A   1      46.671  28.540  29.431  1.00  0.00    -0.354 N 
ATOM     61  N   UNL A   1      42.872  27.734  31.066  1.00  0.00    -0.248 NA
ATOM     62  C   UNL A   1      42.681  29.334  29.377  1.00  0.00     0.031 C 
ATOM     63  C   UNL A   1      47.683  26.929  30.510  1.00  0.00     0.029 A 
ATOM     64  C   UNL A   1      46.508  27.680  30.477  1.00  0.00     0.049 A 
ATOM     65  H   UNL A   1      46.100  29.324  29.260  1.00  0.00     0.167 HD
ATOM     66  C   UNL A   1      44.122  28.278  30.848  1.00  0.00     0.074 A 
ATOM     67  C   UNL A   1      43.893  29.390  29.933  1.00  0.00     0.031 C 
ATOM     68  C   UNL A   1      45.241  27.564  31.164  1.00  0.00     0.037 A 
BRANCH  55  69
ATOM     69  C   UNL A   1      47.493  30.002  26.863  1.00  0.00     0.064 A 
ATOM     70  C   UNL A   1      48.633  30.820  27.034  1.00  0.00     0.173 A 
ATOM     71  C   UNL A   1      46.281  30.701  26.669  1.00  0.00     0.173 A 
ATOM     72  F   UNL A   1      49.840  30.273  27.250  1.00  0.00    -0.203 F 
ATOM     73  C   UNL A   1      48.547  32.216  27.095  1.00  0.00     0.198 A 
ATOM     74  C   UNL A   1      46.207  32.093  26.682  1.00  0.00     0.198 A 
ATOM     75  F   UNL A   1      45.101  30.078  26.580  1.00  0.00    -0.203 F 
ATOM     76  F   UNL A   1      49.634  32.938  27.396  1.00  0.00    -0.200 F 
ATOM     77  C   UNL A   1      47.332  32.850  26.927  1.00  0.00     0.200 A 
ATOM     78  F   UNL A   1      45.013  32.689  26.546  1.00  0.00    -0.200 F 
ATOM     79  F   UNL A   1      47.232  34.181  27.053  1.00  0.00    -0.200 F 
ENDBRANCH  55  69
BRANCH  56  80
ATOM     80  C   UNL A   1      39.706  27.795  29.349  1.00  0.00     0.064 A 
ATOM     81  C   UNL A   1      38.938  27.908  30.523  1.00  0.00     0.173 A 
ATOM     82  C   UNL A   1      39.183  28.420  28.201  1.00  0.00     0.173 A 
ATOM     83  F   UNL A   1      39.374  27.369  31.671  1.00  0.00    -0.203 F 
ATOM     84  C   UNL A   1      37.750  28.646  30.559  1.00  0.00     0.198 A 
ATOM     85  C   UNL A   1      37.994  29.152  28.238  1.00  0.00     0.198 A 
ATOM     86  F   UNL A   1      39.867  28.417  27.048  1.00  0.00    -0.203 F 
ATOM     87  F   UNL A   1      37.091  28.797  31.717  1.00  0.00    -0.200 F 
ATOM     88  C   UNL A   1      37.289  29.283  29.420  1.00  0.00     0.200 A 
ATOM     89  F   UNL A   1      37.575  29.791  27.136  1.00  0.00    -0.200 F 
ATOM     90  F   UNL A   1      36.194  30.054  29.471  1.00  0.00    -0.200 F 
ENDBRANCH  56  80
BRANCH  68  91
ATOM     91  C   UNL A   1      45.096  26.489  32.201  1.00  0.00     0.064 A 
ATOM     92  C   UNL A   1      44.732  25.156  31.941  1.00  0.00     0.173 A 
ATOM     93  C   UNL A   1      45.389  26.833  33.528  1.00  0.00     0.173 A 
ATOM     94  F   UNL A   1      44.525  24.723  30.691  1.00  0.00    -0.203 F 
ATOM     95  C   UNL A   1      44.608  24.232  32.977  1.00  0.00     0.198 A 
ATOM     96  C   UNL A   1      45.309  25.897  34.552  1.00  0.00     0.198 A 
ATOM     97  F   UNL A   1      45.783  28.080  33.829  1.00  0.00    -0.203 F 
ATOM     98  F   UNL A   1      44.221  22.975  32.714  1.00  0.00    -0.200 F 
ATOM     99  C   UNL A   1      44.901  24.602  34.280  1.00  0.00     0.200 A 
ATOM    100  F   UNL A   1      45.637  26.250  35.802  1.00  0.00    -0.200 F 
ATOM    101  F   UNL A   1      44.806  23.707  35.273  1.00  0.00    -0.200 F 
ENDBRANCH  68  91
ENDBRANCH  42  43
ENDBRANCH  34  37
ENDBRANCH  32  33
ENDBRANCH  31  32
ENDBRANCH  30  31
ENDBRANCH   1  30
TORSDOF 15
ENDMDL
MODEL 3
REMARK VINA RESULT:     -12.9      2.343      3.451
REMARK SMILES COc1ccc(-n2ccnc2C[N@@H+]2CCn3nc(C(=O)NCCCCNC(=O)c4ccc(-c5c6nc(c(-c7c(F)c(F)c(F)c(F)c7F)c7ccc([nH]7)c(-c7c(F)c(F)c(F)c(F)c7F)c7nc(c(-c8c(F)c(F)c(F)c(F)c8F)c8ccc5[nH]8)C=C7)C=C6)cc4)cc3C2)cc1
REMARK SMILES IDX 22 1 21 2 19 3 20 4 18 6 13 7 14 8 94 9 15 11 93 12 16 13
REMARK SMILES IDX 92 14 17 15 12 16 11 17 7 18 8 19 9 20 10 21 6 22 3 23 4 24
REMARK SMILES IDX 96 25 5 26 95 27 2 28 1 29 23 30 24 31 25 32 26 33 27 34
REMARK SMILES IDX 28 36 29 37 30 38 91 39 31 40 90 41 32 42 33 43 34 44 84 45
REMARK SMILES IDX 35 46 89 47 83 48 85 49 36 50 88 51 82 52 81 53 37 55 69 56
REMARK SMILES IDX 49 57 68 58 50 59 53 60 67 61 86 62 51 63 52 64 66 66 87 67
REMARK SMILES IDX 54 68 38 69 39 70 47 71 40 72 41 73 45 74 48 75 42 76 43 77
REMARK SMILES IDX 46 78 44 79 70 80 71 81 79 82 72 83 73 84 77 85 80 86 74 87
REMARK SMILES IDX 75 88 78 89 76 90 55 91 56 92 64 93 57 94 58 95 62 96 65 97
REMARK SMILES IDX 59 98 60 99 63 100 61 101
REMARK H PARENT 21 5 13 10 26 35 85 54 53 65
REMARK Flexibility Score: inf
ROOT
ATOM      1  C   UNL A   1      39.894  22.138  26.524  1.00  0.00     0.116 C 
ENDROOT
BRANCH   1   2
ATOM      2  N   UNL A   1      38.975  21.150  25.913  1.00  0.00    -0.351 N 
ATOM      3  C   UNL A   1      37.774  21.127  25.194  1.00  0.00     0.271 C 
ATOM      4  O   UNL A   1      37.452  20.000  24.800  1.00  0.00    -0.267 OA
ATOM      5  H   UNL A   1      39.308  20.234  26.058  1.00  0.00     0.163 HD
BRANCH   3   6
ATOM      6  C   UNL A   1      36.845  22.280  24.959  1.00  0.00     0.150 A 
ATOM      7  N   UNL A   1      33.413  25.147  24.953  1.00  0.00    -0.322 N 
ATOM      8  C   UNL A   1      33.157  24.472  23.666  1.00  0.00     0.286 C 
ATOM      9  C   UNL A   1      34.856  25.457  25.117  1.00  0.00     0.319 C 
ATOM     10  H   UNL A   1      32.825  25.974  24.846  1.00  0.00     0.348 HD
ATOM     11  C   UNL A   1      34.337  23.752  22.952  1.00  0.00     0.206 C 
ATOM     12  C   UNL A   1      35.655  24.200  24.983  1.00  0.00     0.094 A 
ATOM     13  N   UNL A   1      35.420  23.457  23.872  1.00  0.00    -0.257 N 
ATOM     14  C   UNL A   1      36.551  23.454  25.736  1.00  0.00     0.065 A 
ATOM     15  N   UNL A   1      36.222  22.391  23.757  1.00  0.00    -0.167 NA
BRANCH   7  16
ATOM     16  C   UNL A   1      32.926  24.534  26.210  1.00  0.00     0.339 C 
BRANCH  16  17
ATOM     17  C   UNL A   1      31.581  23.852  26.330  1.00  0.00     0.168 A 
ATOM     18  N   UNL A   1      31.296  22.523  26.011  1.00  0.00    -0.299 N 
ATOM     19  C   UNL A   1      30.038  22.250  26.491  1.00  0.00     0.113 A 
ATOM     20  C   UNL A   1      29.626  23.396  27.121  1.00  0.00     0.132 A 
ATOM     21  N   UNL A   1      30.552  24.389  26.974  1.00  0.00    -0.236 NA
BRANCH  18  22
ATOM     22  C   UNL A   1      32.166  21.521  25.541  1.00  0.00     0.047 A 
ATOM     23  C   UNL A   1      33.952  19.560  24.666  1.00  0.00     0.119 A 
ATOM     24  C   UNL A   1      34.080  20.192  25.889  1.00  0.00     0.048 A 
ATOM     25  C   UNL A   1      32.874  19.888  23.870  1.00  0.00     0.048 A 
ATOM     26  C   UNL A   1      33.213  21.156  26.356  1.00  0.00     0.030 A 
ATOM     27  C   UNL A   1      31.963  20.866  24.312  1.00  0.00     0.030 A 
BRANCH  23  28
ATOM     28  O   UNL A   1      34.776  18.505  24.400  1.00  0.00    -0.497 OA
ATOM     29  C   UNL A   1      34.124  17.405  23.770  1.00  0.00     0.278 C 
ENDBRANCH  23  28
ENDBRANCH  18  22
ENDBRANCH  16  17
ENDBRANCH   7  16
ENDBRANCH   3   6
ENDBRANCH   1   2
BRANCH   1  30
ATOM     30  C   UNL A   1      40.876  21.583  27.609  1.00  0.00     0.023 C 
BRANCH  30  31
ATOM     31  C   UNL A   1      42.015  20.612  27.256  1.00  0.00     0.023 C 
BRANCH  31  32
ATOM     32  C   UNL A   1      42.134  20.175  25.804  1.00  0.00     0.116 C 
BRANCH  32  33
ATOM     33  N   UNL A   1      43.451  19.671  25.415  1.00  0.00    -0.352 N 
ATOM     34  C   UNL A   1      44.480  20.427  24.866  1.00  0.00     0.251 C 
ATOM     35  H   UNL A   1      43.623  18.712  25.554  1.00  0.00     0.163 HD
ATOM     36  O   UNL A   1      45.335  19.938  24.155  1.00  0.00    -0.269 OA
BRANCH  34  37
ATOM     37  C   UNL A   1      44.502  21.870  25.183  1.00  0.00     0.039 A 
ATOM     38  C   UNL A   1      43.540  22.737  24.667  1.00  0.00     0.014 A 
ATOM     39  C   UNL A   1      45.461  22.312  26.096  1.00  0.00     0.014 A 
ATOM     40  C   UNL A   1      43.478  24.035  25.168  1.00  0.00     0.010 A 
ATOM     41  C   UNL A   1      45.329  23.557  26.670  1.00  0.00     0.010 A 
ATOM     42  C   UNL A   1      44.346  24.428  26.205  1.00  0.00    -0.014 A 
BRANCH  42  43
ATOM     43  C   UNL A   1      44.080  25.667  26.942  1.00  0.00     0.031 A 
ATOM     44  C   UNL A   1      45.026  26.769  26.604  1.00  0.00     0.074 A 
ATOM     45  C   UNL A   1      42.982  25.884  27.702  1.00  0.00     0.049 A 
ATOM     46  N   UNL A   1      45.907  27.301  27.382  1.00  0.00    -0.248 NA
ATOM     47  C   UNL A   1      45.116  27.235  25.209  1.00  0.00     0.031 C 
ATOM     48  C   UNL A   1      41.830  24.992  27.871  1.00  0.00     0.029 A 
ATOM     49  N   UNL A   1      42.605  26.994  28.408  1.00  0.00    -0.354 N 
ATOM     50  C   UNL A   1      46.510  28.319  26.646  1.00  0.00     0.074 A 
ATOM     51  C   UNL A   1      46.123  28.109  25.277  1.00  0.00     0.031 C 
ATOM     52  C   UNL A   1      40.801  25.675  28.417  1.00  0.00     0.029 A 
ATOM     53  C   UNL A   1      41.264  27.000  28.790  1.00  0.00     0.049 A 
ATOM     54  H   UNL A   1      43.227  27.725  28.627  1.00  0.00     0.167 HD
ATOM     55  C   UNL A   1      47.016  29.409  27.286  1.00  0.00     0.037 A 
ATOM     56  C   UNL A   1      40.575  28.017  29.365  1.00  0.00     0.037 A 
ATOM     57  C   UNL A   1      47.153  29.136  28.696  1.00  0.00     0.049 A 
ATOM     58  C   UNL A   1      41.564  28.917  29.993  1.00  0.00     0.074 A 
ATOM     59  C   UNL A   1      47.929  28.320  29.490  1.00  0.00     0.029 A 
ATOM     60  N   UNL A   1      46.058  29.496  29.434  1.00  0.00    -0.354 N 
ATOM     61  N   UNL A   1      42.268  28.595  31.040  1.00  0.00    -0.248 NA
ATOM     62  C   UNL A   1      42.036  30.079  29.253  1.00  0.00     0.031 C 
ATOM     63  C   UNL A   1      47.125  28.006  30.629  1.00  0.00     0.029 A 
ATOM     64  C   UNL A   1      45.914  28.692  30.527  1.00  0.00     0.049 A 
ATOM     65  H   UNL A   1      45.453  30.238  29.205  1.00  0.00     0.167 HD
ATOM     66  C   UNL A   1      43.494  29.188  30.814  1.00  0.00     0.074 A 
ATOM     67  C   UNL A   1      43.231  30.231  29.828  1.00  0.00     0.031 C 
ATOM     68  C   UNL A   1      44.640  28.552  31.195  1.00  0.00     0.037 A 
BRANCH  55  69
ATOM     69  C   UNL A   1      46.864  30.843  26.798  1.00  0.00     0.064 A 
ATOM     70  C   UNL A   1      47.975  31.711  26.892  1.00  0.00     0.173 A 
ATOM     71  C   UNL A   1      45.622  31.482  26.587  1.00  0.00     0.173 A 
ATOM     72  F   UNL A   1      49.206  31.224  27.117  1.00  0.00    -0.203 F 
ATOM     73  C   UNL A   1      47.836  33.104  26.868  1.00  0.00     0.198 A 
ATOM     74  C   UNL A   1      45.495  32.868  26.514  1.00  0.00     0.198 A 
ATOM     75  F   UNL A   1      44.466  30.811  26.563  1.00  0.00    -0.203 F 
ATOM     76  F   UNL A   1      48.900  33.884  27.098  1.00  0.00    -0.200 F 
ATOM     77  C   UNL A   1      46.595  33.681  26.686  1.00  0.00     0.200 A 
ATOM     78  F   UNL A   1      44.277  33.409  26.367  1.00  0.00    -0.200 F 
ATOM     79  F   UNL A   1      46.446  35.012  26.729  1.00  0.00    -0.200 F 
ENDBRANCH  55  69
BRANCH  56  80
ATOM     80  C   UNL A   1      39.143  28.391  29.260  1.00  0.00     0.064 A 
ATOM     81  C   UNL A   1      38.332  28.490  30.407  1.00  0.00     0.173 A 
ATOM     82  C   UNL A   1      38.626  28.960  28.082  1.00  0.00     0.173 A 
ATOM     83  F   UNL A   1      38.759  28.002  31.581  1.00  0.00    -0.203 F 
ATOM     84  C   UNL A   1      37.107  29.165  30.387  1.00  0.00     0.198 A 
ATOM     85  C   UNL A   1      37.399  29.629  28.062  1.00  0.00     0.198 A 
ATOM     86  F   UNL A   1      39.345  28.967  26.950  1.00  0.00    -0.203 F 
ATOM     87  F   UNL A   1      36.404  29.307  31.520  1.00  0.00    -0.200 F 
ATOM     88  C   UNL A   1      36.650  29.749  29.219  1.00  0.00     0.200 A 
ATOM     89  F   UNL A   1      36.983  30.219  26.932  1.00  0.00    -0.200 F 
ATOM     90  F   UNL A   1      35.516  30.463  29.216  1.00  0.00    -0.200 F 
ENDBRANCH  56  80
BRANCH  68  91
ATOM     91  C   UNL A   1      44.525  27.536  32.291  1.00  0.00     0.064 A 
ATOM     92  C   UNL A   1      44.321  26.158  32.101  1.00  0.00     0.173 A 
ATOM     93  C   UNL A   1      44.678  27.991  33.609  1.00  0.00     0.173 A 
ATOM     94  F   UNL A   1      44.256  25.628  30.873  1.00  0.00    -0.203 F 
ATOM     95  C   UNL A   1      44.211  25.292  33.188  1.00  0.00     0.198 A 
ATOM     96  C   UNL A   1      44.614  27.117  34.688  1.00  0.00     0.198 A 
ATOM     97  F   UNL A   1      44.918  29.290  33.848  1.00  0.00    -0.203 F 
ATOM     98  F   UNL A   1      43.976  23.987  32.988  1.00  0.00    -0.200 F 
ATOM     99  C   UNL A   1      44.362  25.772  34.479  1.00  0.00     0.200 A 
ATOM    100  F   UNL A   1      44.807  27.581  35.930  1.00  0.00    -0.200 F 
ATOM    101  F   UNL A   1      44.284  24.936  35.524  1.00  0.00    -0.200 F 
ENDBRANCH  68  91
ENDBRANCH  42  43
ENDBRANCH  34  37
ENDBRANCH  32  33
ENDBRANCH  31  32
ENDBRANCH  30  31
ENDBRANCH   1  30
TORSDOF 15
ENDMDL
