MODEL 1
REMARK VINA RESULT:     -10.9      0.000      0.000
REMARK SMILES O=C(COc1ccc2c(c1)CCC2)N[C@@H](CO)C(=O)NCCCCNC(=O)c1ccc(-c2c3nc(c(-c4c(F)c(F)c(F)c(F)c4F)c4ccc([nH]4)c(-c4c(F)c(F)c(F)c(F)c4F)c4nc(c(-c5c(F)c(F)c(F)c(F)c5F)c5ccc2[nH]5)C=C4)C=C3)cc1
REMARK SMILES IDX 21 1 20 2 18 3 19 4 15 6 14 7 1 8 2 9 3 11 4 12 5 13 6 14
REMARK SMILES IDX 10 15 7 16 9 17 8 18 11 19 13 20 12 21 16 22 17 23 22 25
REMARK SMILES IDX 23 26 24 27 25 28 26 29 27 31 28 32 29 33 90 34 30 35 89 36
REMARK SMILES IDX 31 37 32 38 33 39 83 40 34 41 88 42 82 43 84 44 35 45 87 46
REMARK SMILES IDX 81 47 80 48 36 50 68 51 48 52 67 53 49 54 52 55 66 56 85 57
REMARK SMILES IDX 50 58 51 59 65 61 86 62 53 63 37 64 38 65 46 66 39 67 40 68
REMARK SMILES IDX 44 69 47 70 41 71 42 72 45 73 43 74 69 75 70 76 78 77 71 78
REMARK SMILES IDX 72 79 76 80 79 81 73 82 74 83 77 84 75 85 54 86 55 87 63 88
REMARK SMILES IDX 56 89 57 90 61 91 64 92 58 93 59 94 62 95 60 96
REMARK H PARENT 20 5 14 10 17 24 25 30 84 49 52 60
REMARK Flexibility Score: inf
ROOT
ATOM      1  C   UNL A   1      42.152  19.609  26.063  1.00  0.00     0.116 C 
ENDROOT
BRANCH   1   2
ATOM      2  N   UNL A   1      43.324  18.756  25.987  1.00  0.00    -0.354 N 
ATOM      3  C   UNL A   1      44.413  18.826  25.166  1.00  0.00     0.244 C 
ATOM      4  O   UNL A   1      45.397  18.146  25.475  1.00  0.00    -0.273 OA
ATOM      5  H   UNL A   1      43.335  18.009  26.626  1.00  0.00     0.163 HD
BRANCH   3   6
ATOM      6  C   UNL A   1      44.457  19.754  23.941  1.00  0.00     0.197 C 
BRANCH   6   7
ATOM      7  N   UNL A   1      45.298  20.920  24.204  1.00  0.00    -0.339 N 
ATOM      8  O   UNL A   1      44.203  22.353  22.797  1.00  0.00    -0.271 OA
ATOM      9  C   UNL A   1      44.972  22.170  23.734  1.00  0.00     0.258 C 
ATOM     10  H   UNL A   1      46.120  20.807  24.732  1.00  0.00     0.164 HD
BRANCH   9  11
ATOM     11  C   UNL A   1      45.633  23.316  24.511  1.00  0.00     0.329 C 
BRANCH  11  12
ATOM     12  O   UNL A   1      46.315  22.924  25.704  1.00  0.00    -0.484 OA
BRANCH  12  13
ATOM     13  C   UNL A   1      45.710  23.309  26.876  1.00  0.00     0.120 A 
ATOM     14  C   UNL A   1      44.481  22.791  27.318  1.00  0.00     0.047 A 
ATOM     15  C   UNL A   1      46.439  24.180  27.690  1.00  0.00     0.050 A 
ATOM     16  C   UNL A   1      43.971  23.127  28.574  1.00  0.00     0.008 A 
ATOM     17  C   UNL A   1      45.918  24.517  28.931  1.00  0.00    -0.041 A 
ATOM     18  C   UNL A   1      44.704  23.984  29.373  1.00  0.00    -0.045 A 
ATOM     19  C   UNL A   1      46.471  25.471  29.944  1.00  0.00     0.036 C 
ATOM     20  C   UNL A   1      44.351  24.496  30.734  1.00  0.00     0.036 C 
ATOM     21  C   UNL A   1      45.706  25.041  31.206  1.00  0.00     0.010 C 
ENDBRANCH  12  13
ENDBRANCH  11  12
ENDBRANCH   9  11
ENDBRANCH   6   7
BRANCH   6  22
ATOM     22  C   UNL A   1      44.758  18.995  22.643  1.00  0.00     0.191 C 
BRANCH  22  23
ATOM     23  O   UNL A   1      46.123  18.601  22.518  1.00  0.00    -0.394 OA
ATOM     24  H   UNL A   1      46.520  19.049  21.754  1.00  0.00     0.210 HD
ENDBRANCH  22  23
ENDBRANCH   6  22
ENDBRANCH   3   6
ENDBRANCH   1   2
BRANCH   1  25
ATOM     25  C   UNL A   1      41.743  19.911  27.501  1.00  0.00     0.023 C 
BRANCH  25  26
ATOM     26  C   UNL A   1      41.080  21.269  27.713  1.00  0.00     0.023 C 
BRANCH  26  27
ATOM     27  C   UNL A   1      41.050  22.178  26.489  1.00  0.00     0.116 C 
BRANCH  27  28
ATOM     28  N   UNL A   1      39.704  22.445  26.002  1.00  0.00    -0.352 N 
ATOM     29  C   UNL A   1      38.929  23.565  26.180  1.00  0.00     0.251 C 
ATOM     30  H   UNL A   1      39.293  21.723  25.473  1.00  0.00     0.163 HD
ATOM     31  O   UNL A   1      37.764  23.588  25.796  1.00  0.00    -0.269 OA
BRANCH  29  32
ATOM     32  C   UNL A   1      39.500  24.736  26.874  1.00  0.00     0.039 A 
ATOM     33  C   UNL A   1      40.216  25.681  26.134  1.00  0.00     0.014 A 
ATOM     34  C   UNL A   1      39.289  24.920  28.242  1.00  0.00     0.014 A 
ATOM     35  C   UNL A   1      40.655  26.853  26.753  1.00  0.00     0.010 A 
ATOM     36  C   UNL A   1      39.662  26.119  28.840  1.00  0.00     0.010 A 
ATOM     37  C   UNL A   1      40.346  27.098  28.100  1.00  0.00    -0.014 A 
BRANCH  37  38
ATOM     38  C   UNL A   1      40.730  28.363  28.773  1.00  0.00     0.031 A 
ATOM     39  C   UNL A   1      42.134  28.540  29.275  1.00  0.00     0.074 A 
ATOM     40  C   UNL A   1      39.799  29.304  29.019  1.00  0.00     0.049 A 
ATOM     41  N   UNL A   1      42.637  29.494  30.018  1.00  0.00    -0.248 NA
ATOM     42  C   UNL A   1      43.094  27.481  28.924  1.00  0.00     0.031 C 
ATOM     43  C   UNL A   1      38.392  29.230  28.620  1.00  0.00     0.029 A 
ATOM     44  N   UNL A   1      39.892  30.500  29.687  1.00  0.00    -0.354 N 
ATOM     45  C   UNL A   1      43.958  29.133  30.247  1.00  0.00     0.074 A 
ATOM     46  C   UNL A   1      44.167  27.854  29.605  1.00  0.00     0.031 C 
ATOM     47  C   UNL A   1      37.758  30.335  29.043  1.00  0.00     0.029 A 
ATOM     48  C   UNL A   1      38.700  31.175  29.775  1.00  0.00     0.049 A 
ATOM     49  H   UNL A   1      40.733  30.840  30.068  1.00  0.00     0.167 HD
ATOM     50  C   UNL A   1      44.915  29.819  30.917  1.00  0.00     0.037 A 
ATOM     51  C   UNL A   1      38.399  32.335  30.390  1.00  0.00     0.037 A 
ATOM     52  C   UNL A   1      44.712  31.107  31.523  1.00  0.00     0.049 A 
ATOM     53  C   UNL A   1      39.483  33.086  31.114  1.00  0.00     0.074 A 
ATOM     54  C   UNL A   1      45.632  31.912  32.172  1.00  0.00     0.029 A 
ATOM     55  N   UNL A   1      43.500  31.782  31.550  1.00  0.00    -0.354 N 
ATOM     56  N   UNL A   1      40.742  32.763  31.281  1.00  0.00    -0.248 NA
ATOM     57  C   UNL A   1      39.105  34.365  31.732  1.00  0.00     0.031 C 
ATOM     58  C   UNL A   1      44.969  33.058  32.623  1.00  0.00     0.029 A 
ATOM     59  C   UNL A   1      43.645  32.988  32.216  1.00  0.00     0.049 A 
ATOM     60  H   UNL A   1      42.661  31.452  31.155  1.00  0.00     0.167 HD
ATOM     61  C   UNL A   1      41.314  33.808  31.995  1.00  0.00     0.074 A 
ATOM     62  C   UNL A   1      40.264  34.779  32.223  1.00  0.00     0.031 C 
ATOM     63  C   UNL A   1      42.593  33.949  32.421  1.00  0.00     0.037 A 
BRANCH  50  64
ATOM     64  C   UNL A   1      46.269  29.180  31.024  1.00  0.00     0.064 A 
ATOM     65  C   UNL A   1      47.226  29.307  30.006  1.00  0.00     0.173 A 
ATOM     66  C   UNL A   1      46.618  28.442  32.165  1.00  0.00     0.173 A 
ATOM     67  F   UNL A   1      46.937  29.991  28.889  1.00  0.00    -0.203 F 
ATOM     68  C   UNL A   1      48.468  28.687  30.108  1.00  0.00     0.198 A 
ATOM     69  C   UNL A   1      47.873  27.849  32.277  1.00  0.00     0.198 A 
ATOM     70  F   UNL A   1      45.743  28.293  33.170  1.00  0.00    -0.203 F 
ATOM     71  F   UNL A   1      49.343  28.773  29.097  1.00  0.00    -0.200 F 
ATOM     72  C   UNL A   1      48.793  27.963  31.246  1.00  0.00     0.200 A 
ATOM     73  F   UNL A   1      48.190  27.159  33.382  1.00  0.00    -0.200 F 
ATOM     74  F   UNL A   1      49.989  27.367  31.343  1.00  0.00    -0.200 F 
ENDBRANCH  50  64
BRANCH  51  75
ATOM     75  C   UNL A   1      37.015  32.869  30.323  1.00  0.00     0.064 A 
ATOM     76  C   UNL A   1      36.107  32.639  31.365  1.00  0.00     0.173 A 
ATOM     77  C   UNL A   1      36.575  33.627  29.229  1.00  0.00     0.173 A 
ATOM     78  F   UNL A   1      36.476  31.902  32.424  1.00  0.00    -0.203 F 
ATOM     79  C   UNL A   1      34.806  33.135  31.309  1.00  0.00     0.198 A 
ATOM     80  C   UNL A   1      35.282  34.142  29.184  1.00  0.00     0.198 A 
ATOM     81  F   UNL A   1      37.408  33.879  28.208  1.00  0.00    -0.203 F 
ATOM     82  F   UNL A   1      33.947  32.869  32.302  1.00  0.00    -0.200 F 
ATOM     83  C   UNL A   1      34.396  33.891  30.222  1.00  0.00     0.200 A 
ATOM     84  F   UNL A   1      34.894  34.885  28.139  1.00  0.00    -0.200 F 
ATOM     85  F   UNL A   1      33.147  34.373  30.171  1.00  0.00    -0.200 F 
ENDBRANCH  51  75
BRANCH  63  86
ATOM     86  C   UNL A   1      42.943  35.219  33.139  1.00  0.00     0.064 A 
ATOM     87  C   UNL A   1      42.843  35.329  34.533  1.00  0.00     0.173 A 
ATOM     88  C   UNL A   1      43.434  36.322  32.424  1.00  0.00     0.173 A 
ATOM     89  F   UNL A   1      42.363  34.306  35.258  1.00  0.00    -0.203 F 
ATOM     90  C   UNL A   1      43.205  36.504  35.184  1.00  0.00     0.198 A 
ATOM     91  C   UNL A   1      43.820  37.486  33.082  1.00  0.00     0.198 A 
ATOM     92  F   UNL A   1      43.554  36.264  31.090  1.00  0.00    -0.203 F 
ATOM     93  F   UNL A   1      43.065  36.602  36.514  1.00  0.00    -0.200 F 
ATOM     94  C   UNL A   1      43.701  37.578  34.461  1.00  0.00     0.200 A 
ATOM     95  F   UNL A   1      44.310  38.518  32.382  1.00  0.00    -0.200 F 
ATOM     96  F   UNL A   1      44.059  38.705  35.091  1.00  0.00    -0.200 F 
ENDBRANCH  63  86
ENDBRANCH  37  38
ENDBRANCH  29  32
ENDBRANCH  27  28
ENDBRANCH  26  27
ENDBRANCH  25  26
ENDBRANCH   1  25
TORSDOF 17
ENDMDL
MODEL 2
REMARK VINA RESULT:     -10.7      5.874     11.676
REMARK SMILES O=C(COc1ccc2c(c1)CCC2)N[C@@H](CO)C(=O)NCCCCNC(=O)c1ccc(-c2c3nc(c(-c4c(F)c(F)c(F)c(F)c4F)c4ccc([nH]4)c(-c4c(F)c(F)c(F)c(F)c4F)c4nc(c(-c5c(F)c(F)c(F)c(F)c5F)c5ccc2[nH]5)C=C4)C=C3)cc1
REMARK SMILES IDX 21 1 20 2 18 3 19 4 15 6 14 7 1 8 2 9 3 11 4 12 5 13 6 14
REMARK SMILES IDX 10 15 7 16 9 17 8 18 11 19 13 20 12 21 16 22 17 23 22 25
REMARK SMILES IDX 23 26 24 27 25 28 26 29 27 31 28 32 29 33 90 34 30 35 89 36
REMARK SMILES IDX 31 37 32 38 33 39 83 40 34 41 88 42 82 43 84 44 35 45 87 46
REMARK SMILES IDX 81 47 80 48 36 50 68 51 48 52 67 53 49 54 52 55 66 56 85 57
REMARK SMILES IDX 50 58 51 59 65 61 86 62 53 63 37 64 38 65 46 66 39 67 40 68
REMARK SMILES IDX 44 69 47 70 41 71 42 72 45 73 43 74 69 75 70 76 78 77 71 78
REMARK SMILES IDX 72 79 76 80 79 81 73 82 74 83 77 84 75 85 54 86 55 87 63 88
REMARK SMILES IDX 56 89 57 90 61 91 64 92 58 93 59 94 62 95 60 96
REMARK H PARENT 20 5 14 10 17 24 25 30 84 49 52 60
REMARK Flexibility Score: inf
ROOT
ATOM      1  C   UNL A   1      30.770  30.641  24.821  1.00  0.00     0.116 C 
ENDROOT
BRANCH   1   2
ATOM      2  N   UNL A   1      29.699  31.544  24.445  1.00  0.00    -0.354 N 
ATOM      3  C   UNL A   1      28.766  31.439  23.452  1.00  0.00     0.244 C 
ATOM      4  O   UNL A   1      27.799  32.206  23.504  1.00  0.00    -0.273 OA
ATOM      5  H   UNL A   1      29.634  32.361  24.989  1.00  0.00     0.163 HD
BRANCH   3   6
ATOM      6  C   UNL A   1      28.865  30.377  22.345  1.00  0.00     0.197 C 
BRANCH   6   7
ATOM      7  N   UNL A   1      28.521  29.055  22.863  1.00  0.00    -0.339 N 
ATOM      8  O   UNL A   1      30.307  27.949  21.960  1.00  0.00    -0.271 OA
ATOM      9  C   UNL A   1      29.386  27.990  22.768  1.00  0.00     0.258 C 
ATOM     10  H   UNL A   1      27.646  28.923  23.294  1.00  0.00     0.164 HD
BRANCH   9  11
ATOM     11  C   UNL A   1      29.112  26.875  23.785  1.00  0.00     0.329 C 
BRANCH  11  12
ATOM     12  O   UNL A   1      30.150  25.900  23.907  1.00  0.00    -0.484 OA
BRANCH  12  13
ATOM     13  C   UNL A   1      31.299  26.343  24.514  1.00  0.00     0.120 A 
ATOM     14  C   UNL A   1      32.563  26.301  23.901  1.00  0.00     0.047 A 
ATOM     15  C   UNL A   1      31.143  26.958  25.759  1.00  0.00     0.050 A 
ATOM     16  C   UNL A   1      33.678  26.876  24.516  1.00  0.00     0.008 A 
ATOM     17  C   UNL A   1      32.259  27.515  26.367  1.00  0.00    -0.041 A 
ATOM     18  C   UNL A   1      33.510  27.486  25.743  1.00  0.00    -0.045 A 
ATOM     19  C   UNL A   1      32.360  28.162  27.713  1.00  0.00     0.036 C 
ATOM     20  C   UNL A   1      34.553  28.144  26.591  1.00  0.00     0.036 C 
ATOM     21  C   UNL A   1      33.679  28.938  27.573  1.00  0.00     0.010 C 
ENDBRANCH  12  13
ENDBRANCH  11  12
ENDBRANCH   9  11
ENDBRANCH   6   7
BRANCH   6  22
ATOM     22  C   UNL A   1      28.136  30.799  21.064  1.00  0.00     0.191 C 
BRANCH  22  23
ATOM     23  O   UNL A   1      28.568  32.058  20.551  1.00  0.00    -0.394 OA
ATOM     24  H   UNL A   1      29.513  32.014  20.337  1.00  0.00     0.210 HD
ENDBRANCH  22  23
ENDBRANCH   6  22
ENDBRANCH   3   6
ENDBRANCH   1   2
BRANCH   1  25
ATOM     25  C   UNL A   1      31.434  31.041  26.135  1.00  0.00     0.023 C 
BRANCH  25  26
ATOM     26  C   UNL A   1      31.359  32.528  26.471  1.00  0.00     0.023 C 
BRANCH  26  27
ATOM     27  C   UNL A   1      32.465  33.048  27.383  1.00  0.00     0.116 C 
BRANCH  27  28
ATOM     28  N   UNL A   1      32.308  34.451  27.737  1.00  0.00    -0.352 N 
ATOM     29  C   UNL A   1      32.988  35.183  28.680  1.00  0.00     0.251 C 
ATOM     30  H   UNL A   1      31.621  34.942  27.231  1.00  0.00     0.163 HD
ATOM     31  O   UNL A   1      32.657  36.337  28.934  1.00  0.00    -0.269 OA
BRANCH  29  32
ATOM     32  C   UNL A   1      34.104  34.557  29.415  1.00  0.00     0.039 A 
ATOM     33  C   UNL A   1      33.834  33.867  30.600  1.00  0.00     0.014 A 
ATOM     34  C   UNL A   1      35.405  34.615  28.910  1.00  0.00     0.014 A 
ATOM     35  C   UNL A   1      34.859  33.167  31.240  1.00  0.00     0.010 A 
ATOM     36  C   UNL A   1      36.407  33.858  29.506  1.00  0.00     0.010 A 
ATOM     37  C   UNL A   1      36.143  33.125  30.675  1.00  0.00    -0.014 A 
BRANCH  37  38
ATOM     38  C   UNL A   1      37.239  32.334  31.284  1.00  0.00     0.031 A 
ATOM     39  C   UNL A   1      37.750  32.699  32.648  1.00  0.00     0.074 A 
ATOM     40  C   UNL A   1      37.839  31.357  30.575  1.00  0.00     0.049 A 
ATOM     41  N   UNL A   1      38.791  32.240  33.296  1.00  0.00    -0.248 NA
ATOM     42  C   UNL A   1      37.009  33.748  33.366  1.00  0.00     0.031 C 
ATOM     43  C   UNL A   1      37.463  30.938  29.225  1.00  0.00     0.029 A 
ATOM     44  N   UNL A   1      38.909  30.556  30.887  1.00  0.00    -0.354 N 
ATOM     45  C   UNL A   1      38.846  32.965  34.479  1.00  0.00     0.074 A 
ATOM     46  C   UNL A   1      37.764  33.924  34.440  1.00  0.00     0.031 C 
ATOM     47  C   UNL A   1      38.283  29.952  28.827  1.00  0.00     0.029 A 
ATOM     48  C   UNL A   1      39.264  29.696  29.877  1.00  0.00     0.049 A 
ATOM     49  H   UNL A   1      39.377  30.594  31.751  1.00  0.00     0.167 HD
ATOM     50  C   UNL A   1      39.711  32.829  35.512  1.00  0.00     0.037 A 
ATOM     51  C   UNL A   1      40.278  28.813  29.801  1.00  0.00     0.037 A 
ATOM     52  C   UNL A   1      40.763  31.850  35.562  1.00  0.00     0.049 A 
ATOM     53  C   UNL A   1      41.216  28.669  30.969  1.00  0.00     0.074 A 
ATOM     54  C   UNL A   1      41.655  31.591  36.588  1.00  0.00     0.029 A 
ATOM     55  N   UNL A   1      41.064  30.964  34.537  1.00  0.00    -0.354 N 
ATOM     56  N   UNL A   1      41.229  29.323  32.104  1.00  0.00    -0.248 NA
ATOM     57  C   UNL A   1      42.278  27.660  30.846  1.00  0.00     0.031 C 
ATOM     58  C   UNL A   1      42.517  30.571  36.170  1.00  0.00     0.029 A 
ATOM     59  C   UNL A   1      42.135  30.165  34.901  1.00  0.00     0.049 A 
ATOM     60  H   UNL A   1      40.586  30.912  33.678  1.00  0.00     0.167 HD
ATOM     61  C   UNL A   1      42.276  28.788  32.842  1.00  0.00     0.074 A 
ATOM     62  C   UNL A   1      42.872  27.749  32.027  1.00  0.00     0.031 C 
ATOM     63  C   UNL A   1      42.705  29.126  34.083  1.00  0.00     0.037 A 
BRANCH  50  64
ATOM     64  C   UNL A   1      39.548  33.767  36.673  1.00  0.00     0.064 A 
ATOM     65  C   UNL A   1      40.153  35.033  36.687  1.00  0.00     0.173 A 
ATOM     66  C   UNL A   1      38.767  33.400  37.778  1.00  0.00     0.173 A 
ATOM     67  F   UNL A   1      40.921  35.426  35.660  1.00  0.00    -0.203 F 
ATOM     68  C   UNL A   1      40.015  35.881  37.783  1.00  0.00     0.198 A 
ATOM     69  C   UNL A   1      38.605  34.263  38.859  1.00  0.00     0.198 A 
ATOM     70  F   UNL A   1      38.162  32.203  37.814  1.00  0.00    -0.203 F 
ATOM     71  F   UNL A   1      40.651  37.060  37.799  1.00  0.00    -0.200 F 
ATOM     72  C   UNL A   1      39.237  35.498  38.865  1.00  0.00     0.200 A 
ATOM     73  F   UNL A   1      37.844  33.897  39.900  1.00  0.00    -0.200 F 
ATOM     74  F   UNL A   1      39.104  36.316  39.918  1.00  0.00    -0.200 F 
ENDBRANCH  50  64
BRANCH  51  75
ATOM     75  C   UNL A   1      40.440  27.976  28.584  1.00  0.00     0.064 A 
ATOM     76  C   UNL A   1      39.840  26.714  28.498  1.00  0.00     0.173 A 
ATOM     77  C   UNL A   1      41.183  28.424  27.483  1.00  0.00     0.173 A 
ATOM     78  F   UNL A   1      39.136  26.235  29.535  1.00  0.00    -0.203 F 
ATOM     79  C   UNL A   1      39.989  25.922  27.361  1.00  0.00     0.198 A 
ATOM     80  C   UNL A   1      41.312  27.642  26.338  1.00  0.00     0.198 A 
ATOM     81  F   UNL A   1      41.773  29.628  27.515  1.00  0.00    -0.203 F 
ATOM     82  F   UNL A   1      39.435  24.703  27.319  1.00  0.00    -0.200 F 
ATOM     83  C   UNL A   1      40.720  26.389  26.280  1.00  0.00     0.200 A 
ATOM     84  F   UNL A   1      42.007  28.102  25.288  1.00  0.00    -0.200 F 
ATOM     85  F   UNL A   1      40.857  25.631  25.184  1.00  0.00    -0.200 F 
ENDBRANCH  51  75
BRANCH  63  86
ATOM     86  C   UNL A   1      43.846  28.338  34.656  1.00  0.00     0.064 A 
ATOM     87  C   UNL A   1      45.173  28.771  34.538  1.00  0.00     0.173 A 
ATOM     88  C   UNL A   1      43.598  27.161  35.379  1.00  0.00     0.173 A 
ATOM     89  F   UNL A   1      45.462  29.883  33.843  1.00  0.00    -0.203 F 
ATOM     90  C   UNL A   1      46.215  28.044  35.106  1.00  0.00     0.198 A 
ATOM     91  C   UNL A   1      44.639  26.451  35.968  1.00  0.00     0.198 A 
ATOM     92  F   UNL A   1      42.344  26.709  35.524  1.00  0.00    -0.203 F 
ATOM     93  F   UNL A   1      47.481  28.455  34.948  1.00  0.00    -0.200 F 
ATOM     94  C   UNL A   1      45.948  26.890  35.828  1.00  0.00     0.200 A 
ATOM     95  F   UNL A   1      44.377  25.343  36.674  1.00  0.00    -0.200 F 
ATOM     96  F   UNL A   1      46.951  26.197  36.383  1.00  0.00    -0.200 F 
ENDBRANCH  63  86
ENDBRANCH  37  38
ENDBRANCH  29  32
ENDBRANCH  27  28
ENDBRANCH  26  27
ENDBRANCH  25  26
ENDBRANCH   1  25
TORSDOF 17
ENDMDL
MODEL 3
REMARK VINA RESULT:     -10.7      1.210      2.090
REMARK SMILES O=C(COc1ccc2c(c1)CCC2)N[C@@H](CO)C(=O)NCCCCNC(=O)c1ccc(-c2c3nc(c(-c4c(F)c(F)c(F)c(F)c4F)c4ccc([nH]4)c(-c4c(F)c(F)c(F)c(F)c4F)c4nc(c(-c5c(F)c(F)c(F)c(F)c5F)c5ccc2[nH]5)C=C4)C=C3)cc1
REMARK SMILES IDX 21 1 20 2 18 3 19 4 15 6 14 7 1 8 2 9 3 11 4 12 5 13 6 14
REMARK SMILES IDX 10 15 7 16 9 17 8 18 11 19 13 20 12 21 16 22 17 23 22 25
REMARK SMILES IDX 23 26 24 27 25 28 26 29 27 31 28 32 29 33 90 34 30 35 89 36
REMARK SMILES IDX 31 37 32 38 33 39 83 40 34 41 88 42 82 43 84 44 35 45 87 46
REMARK SMILES IDX 81 47 80 48 36 50 68 51 48 52 67 53 49 54 52 55 66 56 85 57
REMARK SMILES IDX 50 58 51 59 65 61 86 62 53 63 37 64 38 65 46 66 39 67 40 68
REMARK SMILES IDX 44 69 47 70 41 71 42 72 45 73 43 74 69 75 70 76 78 77 71 78
REMARK SMILES IDX 72 79 76 80 79 81 73 82 74 83 77 84 75 85 54 86 55 87 63 88
REMARK SMILES IDX 56 89 57 90 61 91 64 92 58 93 59 94 62 95 60 96
REMARK H PARENT 20 5 14 10 17 24 25 30 84 49 52 60
REMARK Flexibility Score: inf
ROOT
ATOM      1  C   UNL A   1      41.942  19.392  25.945  1.00  0.00     0.116 C 
ENDROOT
BRANCH   1   2
ATOM      2  N   UNL A   1      43.050  18.456  25.899  1.00  0.00    -0.354 N 
ATOM      3  C   UNL A   1      44.343  18.640  25.500  1.00  0.00     0.244 C 
ATOM      4  O   UNL A   1      45.158  17.763  25.805  1.00  0.00    -0.273 OA
ATOM      5  H   UNL A   1      42.836  17.544  26.200  1.00  0.00     0.163 HD
BRANCH   3   6
ATOM      6  C   UNL A   1      44.799  19.907  24.758  1.00  0.00     0.197 C 
BRANCH   6   7
ATOM      7  N   UNL A   1      44.936  21.029  25.686  1.00  0.00    -0.339 N 
ATOM      8  O   UNL A   1      43.712  22.527  24.466  1.00  0.00    -0.271 OA
ATOM      9  C   UNL A   1      44.218  22.191  25.531  1.00  0.00     0.258 C 
ATOM     10  H   UNL A   1      45.560  20.949  26.442  1.00  0.00     0.164 HD
BRANCH   9  11
ATOM     11  C   UNL A   1      44.081  23.011  26.820  1.00  0.00     0.329 C 
BRANCH  11  12
ATOM     12  O   UNL A   1      44.277  24.419  26.664  1.00  0.00    -0.484 OA
BRANCH  12  13
ATOM     13  C   UNL A   1      45.587  24.829  26.664  1.00  0.00     0.120 A 
ATOM     14  C   UNL A   1      46.489  24.535  27.700  1.00  0.00     0.047 A 
ATOM     15  C   UNL A   1      46.033  25.475  25.507  1.00  0.00     0.050 A 
ATOM     16  C   UNL A   1      47.841  24.872  27.593  1.00  0.00     0.008 A 
ATOM     17  C   UNL A   1      47.374  25.817  25.416  1.00  0.00    -0.041 A 
ATOM     18  C   UNL A   1      48.270  25.505  26.442  1.00  0.00    -0.045 A 
ATOM     19  C   UNL A   1      48.071  26.563  24.321  1.00  0.00     0.036 C 
ATOM     20  C   UNL A   1      49.653  25.975  26.116  1.00  0.00     0.036 C 
ATOM     21  C   UNL A   1      49.538  26.202  24.601  1.00  0.00     0.010 C 
ENDBRANCH  12  13
ENDBRANCH  11  12
ENDBRANCH   9  11
ENDBRANCH   6   7
BRANCH   6  22
ATOM     22  C   UNL A   1      46.001  19.649  23.843  1.00  0.00     0.191 C 
BRANCH  22  23
ATOM     23  O   UNL A   1      45.731  18.721  22.796  1.00  0.00    -0.394 OA
ATOM     24  H   UNL A   1      44.831  18.371  22.897  1.00  0.00     0.210 HD
ENDBRANCH  22  23
ENDBRANCH   6  22
ENDBRANCH   3   6
ENDBRANCH   1   2
BRANCH   1  25
ATOM     25  C   UNL A   1      41.657  19.887  27.360  1.00  0.00     0.023 C 
BRANCH  25  26
ATOM     26  C   UNL A   1      40.797  21.145  27.444  1.00  0.00     0.023 C 
BRANCH  26  27
ATOM     27  C   UNL A   1      40.633  21.911  26.135  1.00  0.00     0.116 C 
BRANCH  27  28
ATOM     28  N   UNL A   1      39.245  22.212  25.814  1.00  0.00    -0.352 N 
ATOM     29  C   UNL A   1      38.513  23.332  26.123  1.00  0.00     0.251 C 
ATOM     30  H   UNL A   1      38.767  21.517  25.306  1.00  0.00     0.163 HD
ATOM     31  O   UNL A   1      37.313  23.383  25.873  1.00  0.00    -0.269 OA
BRANCH  29  32
ATOM     32  C   UNL A   1      39.176  24.468  26.793  1.00  0.00     0.039 A 
ATOM     33  C   UNL A   1      39.952  25.346  26.033  1.00  0.00     0.014 A 
ATOM     34  C   UNL A   1      38.993  24.686  28.161  1.00  0.00     0.014 A 
ATOM     35  C   UNL A   1      40.483  26.491  26.630  1.00  0.00     0.010 A 
ATOM     36  C   UNL A   1      39.459  25.863  28.736  1.00  0.00     0.010 A 
ATOM     37  C   UNL A   1      40.207  26.777  27.976  1.00  0.00    -0.014 A 
BRANCH  37  38
ATOM     38  C   UNL A   1      40.690  28.020  28.626  1.00  0.00     0.031 A 
ATOM     39  C   UNL A   1      42.129  28.128  29.043  1.00  0.00     0.074 A 
ATOM     40  C   UNL A   1      39.821  29.003  28.930  1.00  0.00     0.049 A 
ATOM     41  N   UNL A   1      42.720  29.054  29.754  1.00  0.00    -0.248 NA
ATOM     42  C   UNL A   1      43.014  27.027  28.632  1.00  0.00     0.031 C 
ATOM     43  C   UNL A   1      38.391  28.996  28.618  1.00  0.00     0.029 A 
ATOM     44  N   UNL A   1      40.011  30.189  29.593  1.00  0.00    -0.354 N 
ATOM     45  C   UNL A   1      44.034  28.631  29.902  1.00  0.00     0.074 A 
ATOM     46  C   UNL A   1      44.143  27.346  29.247  1.00  0.00     0.031 C 
ATOM     47  C   UNL A   1      37.836  30.128  29.080  1.00  0.00     0.029 A 
ATOM     48  C   UNL A   1      38.860  30.920  29.755  1.00  0.00     0.049 A 
ATOM     49  H   UNL A   1      40.889  30.488  29.923  1.00  0.00     0.167 HD
ATOM     50  C   UNL A   1      45.061  29.268  30.514  1.00  0.00     0.037 A 
ATOM     51  C   UNL A   1      38.652  32.089  30.389  1.00  0.00     0.037 A 
ATOM     52  C   UNL A   1      44.957  30.561  31.133  1.00  0.00     0.049 A 
ATOM     53  C   UNL A   1      39.812  32.785  31.047  1.00  0.00     0.074 A 
ATOM     54  C   UNL A   1      45.952  31.319  31.726  1.00  0.00     0.029 A 
ATOM     55  N   UNL A   1      43.782  31.292  31.236  1.00  0.00    -0.354 N 
ATOM     56  N   UNL A   1      41.062  32.403  31.137  1.00  0.00    -0.248 NA
ATOM     57  C   UNL A   1      39.533  34.078  31.689  1.00  0.00     0.031 C 
ATOM     58  C   UNL A   1      45.372  32.493  32.219  1.00  0.00     0.029 A 
ATOM     59  C   UNL A   1      44.024  32.487  31.893  1.00  0.00     0.049 A 
ATOM     60  H   UNL A   1      42.905  31.004  30.892  1.00  0.00     0.167 HD
ATOM     61  C   UNL A   1      41.725  33.417  31.815  1.00  0.00     0.074 A 
ATOM     62  C   UNL A   1      40.738  34.436  32.109  1.00  0.00     0.031 C 
ATOM     63  C   UNL A   1      43.032  33.496  32.163  1.00  0.00     0.037 A 
BRANCH  50  64
ATOM     64  C   UNL A   1      46.388  28.566  30.538  1.00  0.00     0.064 A 
ATOM     65  C   UNL A   1      47.322  28.722  29.502  1.00  0.00     0.173 A 
ATOM     66  C   UNL A   1      46.734  27.737  31.615  1.00  0.00     0.173 A 
ATOM     67  F   UNL A   1      47.034  29.492  28.443  1.00  0.00    -0.203 F 
ATOM     68  C   UNL A   1      48.537  28.043  29.525  1.00  0.00     0.198 A 
ATOM     69  C   UNL A   1      47.964  27.084  31.650  1.00  0.00     0.198 A 
ATOM     70  F   UNL A   1      45.880  27.557  32.634  1.00  0.00    -0.203 F 
ATOM     71  F   UNL A   1      49.388  28.161  28.497  1.00  0.00    -0.200 F 
ATOM     72  C   UNL A   1      48.860  27.229  30.601  1.00  0.00     0.200 A 
ATOM     73  F   UNL A   1      48.279  26.307  32.696  1.00  0.00    -0.200 F 
ATOM     74  F   UNL A   1      50.030  26.577  30.623  1.00  0.00    -0.200 F 
ENDBRANCH  50  64
BRANCH  51  75
ATOM     75  C   UNL A   1      37.292  32.688  30.407  1.00  0.00     0.064 A 
ATOM     76  C   UNL A   1      36.869  33.536  29.376  1.00  0.00     0.173 A 
ATOM     77  C   UNL A   1      36.388  32.418  31.445  1.00  0.00     0.173 A 
ATOM     78  F   UNL A   1      37.706  33.839  28.372  1.00  0.00    -0.203 F 
ATOM     79  C   UNL A   1      35.596  34.104  29.387  1.00  0.00     0.198 A 
ATOM     80  C   UNL A   1      35.108  32.967  31.443  1.00  0.00     0.198 A 
ATOM     81  F   UNL A   1      36.744  31.609  32.453  1.00  0.00    -0.203 F 
ATOM     82  F   UNL A   1      35.230  34.940  28.406  1.00  0.00    -0.200 F 
ATOM     83  C   UNL A   1      34.715  33.814  30.417  1.00  0.00     0.200 A 
ATOM     84  F   UNL A   1      34.253  32.674  32.432  1.00  0.00    -0.200 F 
ATOM     85  F   UNL A   1      33.489  34.355  30.424  1.00  0.00    -0.200 F 
ENDBRANCH  51  75
BRANCH  63  86
ATOM     86  C   UNL A   1      43.485  34.745  32.861  1.00  0.00     0.064 A 
ATOM     87  C   UNL A   1      43.568  34.819  34.258  1.00  0.00     0.173 A 
ATOM     88  C   UNL A   1      43.889  35.863  32.115  1.00  0.00     0.173 A 
ATOM     89  F   UNL A   1      43.178  33.781  35.014  1.00  0.00    -0.203 F 
ATOM     90  C   UNL A   1      44.023  35.975  34.886  1.00  0.00     0.198 A 
ATOM     91  C   UNL A   1      44.368  37.007  32.746  1.00  0.00     0.198 A 
ATOM     92  F   UNL A   1      43.833  35.838  30.776  1.00  0.00    -0.203 F 
ATOM     93  F   UNL A   1      44.059  36.039  36.224  1.00  0.00    -0.200 F 
ATOM     94  C   UNL A   1      44.431  37.064  34.131  1.00  0.00     0.200 A 
ATOM     95  F   UNL A   1      44.773  38.054  32.014  1.00  0.00    -0.200 F 
ATOM     96  F   UNL A   1      44.878  38.172  34.736  1.00  0.00    -0.200 F 
ENDBRANCH  63  86
ENDBRANCH  37  38
ENDBRANCH  29  32
ENDBRANCH  27  28
ENDBRANCH  26  27
ENDBRANCH  25  26
ENDBRANCH   1  25
TORSDOF 17
ENDMDL
