MODEL 1
REMARK VINA RESULT:     -11.3      0.000      0.000
REMARK SMILES CC[C@H](O)C[C@@H](Cc1ccccc1OC)C(=O)NCCCCNC(=O)c1ccc(-c2c3nc(c(-c4c(F)c(F)c(F)c(F)c4F)c4ccc([nH]4)c(-c4c(F)c(F)c(F)c(F)c4F)c4nc(c(-c5c(F)c(F)c(F)c(F)c5F)c5ccc2[nH]5)C=C4)C=C3)cc1
REMARK SMILES IDX 20 1 19 2 18 3 16 4 17 5 6 7 5 8 3 9 2 10 1 11 4 12 7 14
REMARK SMILES IDX 8 15 9 16 13 17 10 18 12 19 11 20 14 21 15 22 21 23 22 24
REMARK SMILES IDX 23 25 24 26 25 28 26 29 27 30 88 31 28 32 87 33 29 34 30 35
REMARK SMILES IDX 31 36 81 37 32 38 86 39 80 40 82 41 33 42 85 43 79 44 78 45
REMARK SMILES IDX 34 47 66 48 46 49 65 50 47 51 50 52 64 53 83 54 48 55 49 56
REMARK SMILES IDX 63 58 84 59 51 60 35 61 36 62 44 63 37 64 38 65 42 66 45 67
REMARK SMILES IDX 39 68 40 69 43 70 41 71 67 72 68 73 76 74 69 75 70 76 74 77
REMARK SMILES IDX 77 78 71 79 72 80 75 81 73 82 52 83 53 84 61 85 54 86 55 87
REMARK SMILES IDX 59 88 62 89 56 90 57 91 60 92 58 93
REMARK H PARENT 18 6 4 13 23 27 82 46 50 57
REMARK Flexibility Score: inf
ROOT
ATOM      1  C   UNL A   1      32.203  30.334  26.714  1.00  0.00     0.023 C 
ENDROOT
BRANCH   1   2
ATOM      2  C   UNL A   1      31.884  29.729  25.356  1.00  0.00     0.116 C 
BRANCH   2   3
ATOM      3  N   UNL A   1      32.998  29.708  24.440  1.00  0.00    -0.356 N 
ATOM      4  C   UNL A   1      33.540  28.657  23.768  1.00  0.00     0.223 C 
ATOM      5  O   UNL A   1      34.381  28.922  22.902  1.00  0.00    -0.275 OA
ATOM      6  H   UNL A   1      33.428  30.579  24.279  1.00  0.00     0.163 HD
BRANCH   4   7
ATOM      7  C   UNL A   1      33.186  27.193  24.070  1.00  0.00     0.085 C 
BRANCH   7   8
ATOM      8  C   UNL A   1      33.235  26.305  22.814  1.00  0.00     0.045 C 
BRANCH   8   9
ATOM      9  C   UNL A   1      31.862  25.813  22.340  1.00  0.00     0.115 C 
BRANCH   9  10
ATOM     10  C   UNL A   1      31.631  24.362  22.778  1.00  0.00     0.028 C 
ATOM     11  C   UNL A   1      32.870  23.498  22.604  1.00  0.00     0.006 C 
ENDBRANCH   9  10
BRANCH   9  12
ATOM     12  O   UNL A   1      31.771  25.928  20.925  1.00  0.00    -0.393 OA
ATOM     13  H   UNL A   1      31.746  25.042  20.530  1.00  0.00     0.210 HD
ENDBRANCH   9  12
ENDBRANCH   8   9
ENDBRANCH   7   8
BRANCH   7  14
ATOM     14  C   UNL A   1      33.781  26.650  25.393  1.00  0.00     0.053 C 
BRANCH  14  15
ATOM     15  C   UNL A   1      33.421  25.273  25.914  1.00  0.00    -0.005 A 
ATOM     16  C   UNL A   1      32.127  24.993  26.391  1.00  0.00     0.007 A 
ATOM     17  C   UNL A   1      34.358  24.223  25.947  1.00  0.00     0.122 A 
ATOM     18  C   UNL A   1      31.746  23.693  26.742  1.00  0.00     0.001 A 
ATOM     19  C   UNL A   1      33.979  22.923  26.296  1.00  0.00     0.047 A 
ATOM     20  C   UNL A   1      32.666  22.654  26.676  1.00  0.00     0.004 A 
BRANCH  17  21
ATOM     21  O   UNL A   1      35.662  24.396  25.563  1.00  0.00    -0.496 OA
ATOM     22  C   UNL A   1      36.000  23.560  24.451  1.00  0.00     0.278 C 
ENDBRANCH  17  21
ENDBRANCH  14  15
ENDBRANCH   7  14
ENDBRANCH   4   7
ENDBRANCH   2   3
ENDBRANCH   1   2
BRANCH   1  23
ATOM     23  C   UNL A   1      31.813  31.798  26.870  1.00  0.00     0.023 C 
BRANCH  23  24
ATOM     24  C   UNL A   1      32.911  32.723  27.386  1.00  0.00     0.116 C 
BRANCH  24  25
ATOM     25  N   UNL A   1      32.471  34.081  27.686  1.00  0.00    -0.352 N 
ATOM     26  C   UNL A   1      32.991  34.966  28.604  1.00  0.00     0.251 C 
ATOM     27  H   UNL A   1      31.702  34.408  27.165  1.00  0.00     0.163 HD
ATOM     28  O   UNL A   1      32.485  36.069  28.779  1.00  0.00    -0.269 OA
BRANCH  26  29
ATOM     29  C   UNL A   1      34.148  34.540  29.419  1.00  0.00     0.039 A 
ATOM     30  C   UNL A   1      33.922  33.976  30.676  1.00  0.00     0.014 A 
ATOM     31  C   UNL A   1      35.438  34.595  28.885  1.00  0.00     0.014 A 
ATOM     32  C   UNL A   1      34.978  33.362  31.351  1.00  0.00     0.010 A 
ATOM     33  C   UNL A   1      36.468  33.913  29.520  1.00  0.00     0.010 A 
ATOM     34  C   UNL A   1      36.245  33.271  30.750  1.00  0.00    -0.014 A 
BRANCH  34  35
ATOM     35  C   UNL A   1      37.343  32.480  31.362  1.00  0.00     0.031 A 
ATOM     36  C   UNL A   1      37.858  32.839  32.726  1.00  0.00     0.074 A 
ATOM     37  C   UNL A   1      37.943  31.506  30.649  1.00  0.00     0.049 A 
ATOM     38  N   UNL A   1      38.882  32.349  33.379  1.00  0.00    -0.248 NA
ATOM     39  C   UNL A   1      37.150  33.915  33.436  1.00  0.00     0.031 C 
ATOM     40  C   UNL A   1      37.580  31.104  29.288  1.00  0.00     0.029 A 
ATOM     41  N   UNL A   1      39.002  30.689  30.962  1.00  0.00    -0.354 N 
ATOM     42  C   UNL A   1      38.954  33.075  34.560  1.00  0.00     0.074 A 
ATOM     43  C   UNL A   1      37.903  34.068  34.515  1.00  0.00     0.031 C 
ATOM     44  C   UNL A   1      38.387  30.105  28.893  1.00  0.00     0.029 A 
ATOM     45  C   UNL A   1      39.347  29.821  29.956  1.00  0.00     0.049 A 
ATOM     46  H   UNL A   1      39.469  30.723  31.828  1.00  0.00     0.167 HD
ATOM     47  C   UNL A   1      39.808  32.913  35.599  1.00  0.00     0.037 A 
ATOM     48  C   UNL A   1      40.331  28.904  29.893  1.00  0.00     0.037 A 
ATOM     49  C   UNL A   1      40.826  31.900  35.663  1.00  0.00     0.049 A 
ATOM     50  C   UNL A   1      41.248  28.727  31.072  1.00  0.00     0.074 A 
ATOM     51  C   UNL A   1      41.690  31.608  36.704  1.00  0.00     0.029 A 
ATOM     52  N   UNL A   1      41.115  31.009  34.641  1.00  0.00    -0.354 N 
ATOM     53  N   UNL A   1      41.261  29.371  32.213  1.00  0.00    -0.248 NA
ATOM     54  C   UNL A   1      42.284  27.690  30.956  1.00  0.00     0.031 C 
ATOM     55  C   UNL A   1      42.524  30.560  36.299  1.00  0.00     0.029 A 
ATOM     56  C   UNL A   1      42.154  30.174  35.022  1.00  0.00     0.049 A 
ATOM     57  H   UNL A   1      40.652  30.974  33.772  1.00  0.00     0.167 HD
ATOM     58  C   UNL A   1      42.285  28.804  32.959  1.00  0.00     0.074 A 
ATOM     59  C   UNL A   1      42.864  27.754  32.147  1.00  0.00     0.031 C 
ATOM     60  C   UNL A   1      42.709  29.125  34.205  1.00  0.00     0.037 A 
BRANCH  47  61
ATOM     61  C   UNL A   1      39.665  33.851  36.762  1.00  0.00     0.064 A 
ATOM     62  C   UNL A   1      40.305  35.099  36.780  1.00  0.00     0.173 A 
ATOM     63  C   UNL A   1      38.856  33.509  37.857  1.00  0.00     0.173 A 
ATOM     64  F   UNL A   1      41.099  35.464  35.763  1.00  0.00    -0.203 F 
ATOM     65  C   UNL A   1      40.163  35.959  37.864  1.00  0.00     0.198 A 
ATOM     66  C   UNL A   1      38.695  34.385  38.927  1.00  0.00     0.198 A 
ATOM     67  F   UNL A   1      38.219  32.329  37.885  1.00  0.00    -0.203 F 
ATOM     68  F   UNL A   1      40.823  37.126  37.882  1.00  0.00    -0.200 F 
ATOM     69  C   UNL A   1      39.354  35.604  38.934  1.00  0.00     0.200 A 
ATOM     70  F   UNL A   1      37.904  34.046  39.954  1.00  0.00    -0.200 F 
ATOM     71  F   UNL A   1      39.215  36.437  39.975  1.00  0.00    -0.200 F 
ENDBRANCH  47  61
BRANCH  48  72
ATOM     72  C   UNL A   1      40.485  28.059  28.680  1.00  0.00     0.064 A 
ATOM     73  C   UNL A   1      41.263  28.495  27.598  1.00  0.00     0.173 A 
ATOM     74  C   UNL A   1      39.859  26.809  28.574  1.00  0.00     0.173 A 
ATOM     75  F   UNL A   1      41.863  29.693  27.646  1.00  0.00    -0.203 F 
ATOM     76  C   UNL A   1      41.392  27.721  26.448  1.00  0.00     0.198 A 
ATOM     77  C   UNL A   1      40.010  26.025  27.433  1.00  0.00     0.198 A 
ATOM     78  F   UNL A   1      39.108  26.346  29.584  1.00  0.00    -0.203 F 
ATOM     79  F   UNL A   1      42.107  28.179  25.412  1.00  0.00    -0.200 F 
ATOM     80  C   UNL A   1      40.770  26.484  26.367  1.00  0.00     0.200 A 
ATOM     81  F   UNL A   1      39.416  24.825  27.363  1.00  0.00    -0.200 F 
ATOM     82  F   UNL A   1      40.896  25.739  25.261  1.00  0.00    -0.200 F 
ENDBRANCH  48  72
BRANCH  60  83
ATOM     83  C   UNL A   1      43.827  28.312  34.784  1.00  0.00     0.064 A 
ATOM     84  C   UNL A   1      43.582  27.121  35.482  1.00  0.00     0.173 A 
ATOM     85  C   UNL A   1      45.160  28.706  34.596  1.00  0.00     0.173 A 
ATOM     86  F   UNL A   1      42.323  26.713  35.700  1.00  0.00    -0.203 F 
ATOM     87  C   UNL A   1      44.634  26.360  35.986  1.00  0.00     0.198 A 
ATOM     88  C   UNL A   1      46.209  27.930  35.080  1.00  0.00     0.198 A 
ATOM     89  F   UNL A   1      45.445  29.835  33.931  1.00  0.00    -0.203 F 
ATOM     90  F   UNL A   1      44.377  25.245  36.682  1.00  0.00    -0.200 F 
ATOM     91  C   UNL A   1      45.945  26.762  35.779  1.00  0.00     0.200 A 
ATOM     92  F   UNL A   1      47.476  28.313  34.870  1.00  0.00    -0.200 F 
ATOM     93  F   UNL A   1      46.956  26.024  36.258  1.00  0.00    -0.200 F 
ENDBRANCH  60  83
ENDBRANCH  34  35
ENDBRANCH  26  29
ENDBRANCH  24  25
ENDBRANCH  23  24
ENDBRANCH   1  23
TORSDOF 18
ENDMDL
MODEL 2
REMARK VINA RESULT:     -11.1      0.585      7.367
REMARK SMILES CC[C@H](O)C[C@@H](Cc1ccccc1OC)C(=O)NCCCCNC(=O)c1ccc(-c2c3nc(c(-c4c(F)c(F)c(F)c(F)c4F)c4ccc([nH]4)c(-c4c(F)c(F)c(F)c(F)c4F)c4nc(c(-c5c(F)c(F)c(F)c(F)c5F)c5ccc2[nH]5)C=C4)C=C3)cc1
REMARK SMILES IDX 20 1 19 2 18 3 16 4 17 5 6 7 5 8 3 9 2 10 1 11 4 12 7 14
REMARK SMILES IDX 8 15 9 16 13 17 10 18 12 19 11 20 14 21 15 22 21 23 22 24
REMARK SMILES IDX 23 25 24 26 25 28 26 29 27 30 88 31 28 32 87 33 29 34 30 35
REMARK SMILES IDX 31 36 81 37 32 38 86 39 80 40 82 41 33 42 85 43 79 44 78 45
REMARK SMILES IDX 34 47 66 48 46 49 65 50 47 51 50 52 64 53 83 54 48 55 49 56
REMARK SMILES IDX 63 58 84 59 51 60 35 61 36 62 44 63 37 64 38 65 42 66 45 67
REMARK SMILES IDX 39 68 40 69 43 70 41 71 67 72 68 73 76 74 69 75 70 76 74 77
REMARK SMILES IDX 77 78 71 79 72 80 75 81 73 82 52 83 53 84 61 85 54 86 55 87
REMARK SMILES IDX 59 88 62 89 56 90 57 91 60 92 58 93
REMARK H PARENT 18 6 4 13 23 27 82 46 50 57
REMARK Flexibility Score: inf
ROOT
ATOM      1  C   UNL A   1      32.587  30.089  26.652  1.00  0.00     0.023 C 
ENDROOT
BRANCH   1   2
ATOM      2  C   UNL A   1      32.142  29.512  25.318  1.00  0.00     0.116 C 
BRANCH   2   3
ATOM      3  N   UNL A   1      33.160  29.526  24.297  1.00  0.00    -0.356 N 
ATOM      4  C   UNL A   1      33.665  28.493  23.569  1.00  0.00     0.223 C 
ATOM      5  O   UNL A   1      34.407  28.784  22.625  1.00  0.00    -0.275 OA
ATOM      6  H   UNL A   1      33.546  30.409  24.098  1.00  0.00     0.163 HD
BRANCH   4   7
ATOM      7  C   UNL A   1      33.387  27.018  23.898  1.00  0.00     0.085 C 
BRANCH   7   8
ATOM      8  C   UNL A   1      33.610  26.093  22.689  1.00  0.00     0.045 C 
BRANCH   8   9
ATOM      9  C   UNL A   1      32.320  25.687  21.964  1.00  0.00     0.115 C 
BRANCH   9  10
ATOM     10  C   UNL A   1      31.138  25.672  22.941  1.00  0.00     0.028 C 
ATOM     11  C   UNL A   1      30.665  24.262  23.259  1.00  0.00     0.006 C 
ENDBRANCH   9  10
BRANCH   9  12
ATOM     12  O   UNL A   1      32.488  24.409  21.363  1.00  0.00    -0.393 OA
ATOM     13  H   UNL A   1      33.356  24.365  20.933  1.00  0.00     0.210 HD
ENDBRANCH   9  12
ENDBRANCH   8   9
ENDBRANCH   7   8
BRANCH   7  14
ATOM     14  C   UNL A   1      33.895  26.566  25.289  1.00  0.00     0.053 C 
BRANCH  14  15
ATOM     15  C   UNL A   1      33.466  25.244  25.895  1.00  0.00    -0.005 A 
ATOM     16  C   UNL A   1      32.176  25.079  26.435  1.00  0.00     0.007 A 
ATOM     17  C   UNL A   1      34.331  24.135  25.949  1.00  0.00     0.122 A 
ATOM     18  C   UNL A   1      31.724  23.828  26.869  1.00  0.00     0.001 A 
ATOM     19  C   UNL A   1      33.880  22.883  26.381  1.00  0.00     0.047 A 
ATOM     20  C   UNL A   1      32.569  22.725  26.823  1.00  0.00     0.004 A 
BRANCH  17  21
ATOM     21  O   UNL A   1      35.626  24.198  25.508  1.00  0.00    -0.496 OA
ATOM     22  C   UNL A   1      36.321  22.967  25.734  1.00  0.00     0.278 C 
ENDBRANCH  17  21
ENDBRANCH  14  15
ENDBRANCH   7  14
ENDBRANCH   4   7
ENDBRANCH   2   3
ENDBRANCH   1   2
BRANCH   1  23
ATOM     23  C   UNL A   1      32.048  31.480  26.960  1.00  0.00     0.023 C 
BRANCH  23  24
ATOM     24  C   UNL A   1      33.058  32.469  27.533  1.00  0.00     0.116 C 
BRANCH  24  25
ATOM     25  N   UNL A   1      32.551  33.827  27.703  1.00  0.00    -0.352 N 
ATOM     26  C   UNL A   1      33.032  34.823  28.522  1.00  0.00     0.251 C 
ATOM     27  H   UNL A   1      31.763  34.061  27.161  1.00  0.00     0.163 HD
ATOM     28  O   UNL A   1      32.471  35.911  28.593  1.00  0.00    -0.269 OA
BRANCH  26  29
ATOM     29  C   UNL A   1      34.215  34.539  29.361  1.00  0.00     0.039 A 
ATOM     30  C   UNL A   1      34.027  34.047  30.654  1.00  0.00     0.014 A 
ATOM     31  C   UNL A   1      35.499  34.651  28.822  1.00  0.00     0.014 A 
ATOM     32  C   UNL A   1      35.124  33.558  31.367  1.00  0.00     0.010 A 
ATOM     33  C   UNL A   1      36.574  34.091  29.499  1.00  0.00     0.010 A 
ATOM     34  C   UNL A   1      36.395  33.519  30.770  1.00  0.00    -0.014 A 
BRANCH  34  35
ATOM     35  C   UNL A   1      37.546  32.853  31.432  1.00  0.00     0.031 A 
ATOM     36  C   UNL A   1      38.223  31.688  30.770  1.00  0.00     0.074 A 
ATOM     37  C   UNL A   1      37.913  33.231  32.673  1.00  0.00     0.049 A 
ATOM     38  N   UNL A   1      39.161  30.902  31.235  1.00  0.00    -0.248 NA
ATOM     39  C   UNL A   1      37.759  31.337  29.418  1.00  0.00     0.031 C 
ATOM     40  C   UNL A   1      37.294  34.306  33.451  1.00  0.00     0.029 A 
ATOM     41  N   UNL A   1      38.887  32.738  33.508  1.00  0.00    -0.354 N 
ATOM     42  C   UNL A   1      39.379  29.952  30.247  1.00  0.00     0.074 A 
ATOM     43  C   UNL A   1      38.445  30.230  29.177  1.00  0.00     0.031 C 
ATOM     44  C   UNL A   1      37.915  34.404  34.638  1.00  0.00     0.029 A 
ATOM     45  C   UNL A   1      38.950  33.379  34.721  1.00  0.00     0.049 A 
ATOM     46  H   UNL A   1      39.484  31.996  33.258  1.00  0.00     0.167 HD
ATOM     47  C   UNL A   1      40.290  28.952  30.224  1.00  0.00     0.037 A 
ATOM     48  C   UNL A   1      39.746  33.159  35.784  1.00  0.00     0.037 A 
ATOM     49  C   UNL A   1      41.247  28.700  31.268  1.00  0.00     0.049 A 
ATOM     50  C   UNL A   1      40.770  32.058  35.721  1.00  0.00     0.074 A 
ATOM     51  C   UNL A   1      42.260  27.759  31.304  1.00  0.00     0.029 A 
ATOM     52  N   UNL A   1      41.308  29.400  32.464  1.00  0.00    -0.354 N 
ATOM     53  N   UNL A   1      41.014  31.211  34.751  1.00  0.00    -0.248 NA
ATOM     54  C   UNL A   1      41.631  31.885  36.900  1.00  0.00     0.031 C 
ATOM     55  C   UNL A   1      42.915  27.867  32.535  1.00  0.00     0.029 A 
ATOM     56  C   UNL A   1      42.335  28.902  33.250  1.00  0.00     0.049 A 
ATOM     57  H   UNL A   1      40.712  30.141  32.718  1.00  0.00     0.167 HD
ATOM     58  C   UNL A   1      42.070  30.424  35.190  1.00  0.00     0.074 A 
ATOM     59  C   UNL A   1      42.430  30.901  36.509  1.00  0.00     0.031 C 
ATOM     60  C   UNL A   1      42.687  29.398  34.556  1.00  0.00     0.037 A 
BRANCH  47  61
ATOM     61  C   UNL A   1      40.305  28.059  29.018  1.00  0.00     0.064 A 
ATOM     62  C   UNL A   1      41.038  28.392  27.869  1.00  0.00     0.173 A 
ATOM     63  C   UNL A   1      39.603  26.844  29.022  1.00  0.00     0.173 A 
ATOM     64  F   UNL A   1      41.714  29.548  27.812  1.00  0.00    -0.203 F 
ATOM     65  C   UNL A   1      41.045  27.555  26.757  1.00  0.00     0.198 A 
ATOM     66  C   UNL A   1      39.635  25.996  27.918  1.00  0.00     0.198 A 
ATOM     67  F   UNL A   1      38.891  26.478  30.098  1.00  0.00    -0.203 F 
ATOM     68  F   UNL A   1      41.712  27.916  25.652  1.00  0.00    -0.200 F 
ATOM     69  C   UNL A   1      40.348  26.355  26.785  1.00  0.00     0.200 A 
ATOM     70  F   UNL A   1      38.970  24.832  27.951  1.00  0.00    -0.200 F 
ATOM     71  F   UNL A   1      40.359  25.548  25.715  1.00  0.00    -0.200 F 
ENDBRANCH  47  61
BRANCH  48  72
ATOM     72  C   UNL A   1      39.632  34.018  36.991  1.00  0.00     0.064 A 
ATOM     73  C   UNL A   1      38.840  33.623  38.077  1.00  0.00     0.173 A 
ATOM     74  C   UNL A   1      40.303  35.245  37.083  1.00  0.00     0.173 A 
ATOM     75  F   UNL A   1      38.162  32.467  38.026  1.00  0.00    -0.203 F 
ATOM     76  C   UNL A   1      38.707  34.434  39.203  1.00  0.00     0.198 A 
ATOM     77  C   UNL A   1      40.189  36.043  38.219  1.00  0.00     0.198 A 
ATOM     78  F   UNL A   1      41.077  35.665  36.071  1.00  0.00    -0.203 F 
ATOM     79  F   UNL A   1      37.909  34.052  40.209  1.00  0.00    -0.200 F 
ATOM     80  C   UNL A   1      39.385  35.641  39.275  1.00  0.00     0.200 A 
ATOM     81  F   UNL A   1      40.856  37.204  38.290  1.00  0.00    -0.200 F 
ATOM     82  F   UNL A   1      39.258  36.419  40.358  1.00  0.00    -0.200 F 
ENDBRANCH  48  72
BRANCH  60  83
ATOM     83  C   UNL A   1      43.835  28.743  35.262  1.00  0.00     0.064 A 
ATOM     84  C   UNL A   1      43.642  27.656  36.126  1.00  0.00     0.173 A 
ATOM     85  C   UNL A   1      45.149  29.179  35.033  1.00  0.00     0.173 A 
ATOM     86  F   UNL A   1      42.402  27.214  36.387  1.00  0.00    -0.203 F 
ATOM     87  C   UNL A   1      44.722  27.039  36.750  1.00  0.00     0.198 A 
ATOM     88  C   UNL A   1      46.229  28.543  35.640  1.00  0.00     0.198 A 
ATOM     89  F   UNL A   1      45.385  30.213  34.212  1.00  0.00    -0.203 F 
ATOM     90  F   UNL A   1      44.512  26.025  37.601  1.00  0.00    -0.200 F 
ATOM     91  C   UNL A   1      46.014  27.478  36.501  1.00  0.00     0.200 A 
ATOM     92  F   UNL A   1      47.477  28.963  35.390  1.00  0.00    -0.200 F 
ATOM     93  F   UNL A   1      47.053  26.877  37.097  1.00  0.00    -0.200 F 
ENDBRANCH  60  83
ENDBRANCH  34  35
ENDBRANCH  26  29
ENDBRANCH  24  25
ENDBRANCH  23  24
ENDBRANCH   1  23
TORSDOF 18
ENDMDL
MODEL 3
REMARK VINA RESULT:     -11.0      5.687     11.126
REMARK SMILES CC[C@H](O)C[C@@H](Cc1ccccc1OC)C(=O)NCCCCNC(=O)c1ccc(-c2c3nc(c(-c4c(F)c(F)c(F)c(F)c4F)c4ccc([nH]4)c(-c4c(F)c(F)c(F)c(F)c4F)c4nc(c(-c5c(F)c(F)c(F)c(F)c5F)c5ccc2[nH]5)C=C4)C=C3)cc1
REMARK SMILES IDX 20 1 19 2 18 3 16 4 17 5 6 7 5 8 3 9 2 10 1 11 4 12 7 14
REMARK SMILES IDX 8 15 9 16 13 17 10 18 12 19 11 20 14 21 15 22 21 23 22 24
REMARK SMILES IDX 23 25 24 26 25 28 26 29 27 30 88 31 28 32 87 33 29 34 30 35
REMARK SMILES IDX 31 36 81 37 32 38 86 39 80 40 82 41 33 42 85 43 79 44 78 45
REMARK SMILES IDX 34 47 66 48 46 49 65 50 47 51 50 52 64 53 83 54 48 55 49 56
REMARK SMILES IDX 63 58 84 59 51 60 35 61 36 62 44 63 37 64 38 65 42 66 45 67
REMARK SMILES IDX 39 68 40 69 43 70 41 71 67 72 68 73 76 74 69 75 70 76 74 77
REMARK SMILES IDX 77 78 71 79 72 80 75 81 73 82 52 83 53 84 61 85 54 86 55 87
REMARK SMILES IDX 59 88 62 89 56 90 57 91 60 92 58 93
REMARK H PARENT 18 6 4 13 23 27 82 46 50 57
REMARK Flexibility Score: inf
ROOT
ATOM      1  C   UNL A   1      37.170  21.202  24.594  1.00  0.00     0.023 C 
ENDROOT
BRANCH   1   2
ATOM      2  C   UNL A   1      36.922  22.433  25.451  1.00  0.00     0.116 C 
BRANCH   2   3
ATOM      3  N   UNL A   1      35.917  22.253  26.470  1.00  0.00    -0.356 N 
ATOM      4  C   UNL A   1      34.645  21.784  26.352  1.00  0.00     0.223 C 
ATOM      5  O   UNL A   1      34.034  21.555  27.402  1.00  0.00    -0.275 OA
ATOM      6  H   UNL A   1      36.190  22.507  27.381  1.00  0.00     0.163 HD
BRANCH   4   7
ATOM      7  C   UNL A   1      33.948  21.577  24.999  1.00  0.00     0.085 C 
BRANCH   7   8
ATOM      8  C   UNL A   1      32.902  20.449  25.043  1.00  0.00     0.045 C 
BRANCH   8   9
ATOM      9  C   UNL A   1      33.491  19.058  25.308  1.00  0.00     0.115 C 
BRANCH   9  10
ATOM     10  C   UNL A   1      33.518  18.232  24.016  1.00  0.00     0.028 C 
ATOM     11  C   UNL A   1      34.235  16.902  24.191  1.00  0.00     0.006 C 
ENDBRANCH   9  10
BRANCH   9  12
ATOM     12  O   UNL A   1      32.729  18.394  26.309  1.00  0.00    -0.393 OA
ATOM     13  H   UNL A   1      32.024  18.983  26.621  1.00  0.00     0.210 HD
ENDBRANCH   9  12
ENDBRANCH   8   9
ENDBRANCH   7   8
BRANCH   7  14
ATOM     14  C   UNL A   1      33.602  22.888  24.250  1.00  0.00     0.053 C 
BRANCH  14  15
ATOM     15  C   UNL A   1      33.302  24.171  24.999  1.00  0.00    -0.005 A 
ATOM     16  C   UNL A   1      34.290  25.159  25.172  1.00  0.00     0.007 A 
ATOM     17  C   UNL A   1      32.035  24.427  25.555  1.00  0.00     0.122 A 
ATOM     18  C   UNL A   1      33.986  26.402  25.738  1.00  0.00     0.001 A 
ATOM     19  C   UNL A   1      31.727  25.669  26.121  1.00  0.00     0.047 A 
ATOM     20  C   UNL A   1      32.699  26.664  26.194  1.00  0.00     0.004 A 
BRANCH  17  21
ATOM     21  O   UNL A   1      31.015  23.513  25.501  1.00  0.00    -0.496 OA
ATOM     22  C   UNL A   1      30.737  22.955  26.790  1.00  0.00     0.278 C 
ENDBRANCH  17  21
ENDBRANCH  14  15
ENDBRANCH   7  14
ENDBRANCH   4   7
ENDBRANCH   2   3
ENDBRANCH   1   2
BRANCH   1  23
ATOM     23  C   UNL A   1      37.891  20.063  25.303  1.00  0.00     0.023 C 
BRANCH  23  24
ATOM     24  C   UNL A   1      39.308  20.370  25.777  1.00  0.00     0.116 C 
BRANCH  24  25
ATOM     25  N   UNL A   1      40.189  19.209  25.853  1.00  0.00    -0.352 N 
ATOM     26  C   UNL A   1      41.539  19.176  26.123  1.00  0.00     0.251 C 
ATOM     27  H   UNL A   1      39.764  18.337  25.690  1.00  0.00     0.163 HD
ATOM     28  O   UNL A   1      42.162  18.121  26.110  1.00  0.00    -0.269 OA
BRANCH  26  29
ATOM     29  C   UNL A   1      42.240  20.452  26.380  1.00  0.00     0.039 A 
ATOM     30  C   UNL A   1      42.734  21.183  25.298  1.00  0.00     0.014 A 
ATOM     31  C   UNL A   1      42.299  20.969  27.676  1.00  0.00     0.014 A 
ATOM     32  C   UNL A   1      43.187  22.488  25.503  1.00  0.00     0.010 A 
ATOM     33  C   UNL A   1      42.673  22.294  27.865  1.00  0.00     0.010 A 
ATOM     34  C   UNL A   1      43.101  23.074  26.778  1.00  0.00    -0.014 A 
BRANCH  34  35
ATOM     35  C   UNL A   1      43.413  24.510  26.997  1.00  0.00     0.031 A 
ATOM     36  C   UNL A   1      44.799  25.027  26.736  1.00  0.00     0.074 A 
ATOM     37  C   UNL A   1      42.479  25.323  27.528  1.00  0.00     0.049 A 
ATOM     38  N   UNL A   1      45.299  26.212  26.977  1.00  0.00    -0.248 NA
ATOM     39  C   UNL A   1      45.760  24.073  26.160  1.00  0.00     0.031 C 
ATOM     40  C   UNL A   1      41.115  24.929  27.887  1.00  0.00     0.029 A 
ATOM     41  N   UNL A   1      42.541  26.651  27.878  1.00  0.00    -0.354 N 
ATOM     42  C   UNL A   1      46.635  26.137  26.608  1.00  0.00     0.074 A 
ATOM     43  C   UNL A   1      46.880  24.780  26.171  1.00  0.00     0.031 C 
ATOM     44  C   UNL A   1      40.465  25.994  28.386  1.00  0.00     0.029 A 
ATOM     45  C   UNL A   1      41.374  27.135  28.416  1.00  0.00     0.049 A 
ATOM     46  H   UNL A   1      43.347  27.202  27.753  1.00  0.00     0.167 HD
ATOM     47  C   UNL A   1      47.568  27.118  26.612  1.00  0.00     0.037 A 
ATOM     48  C   UNL A   1      41.073  28.359  28.889  1.00  0.00     0.037 A 
ATOM     49  C   UNL A   1      47.315  28.478  27.006  1.00  0.00     0.049 A 
ATOM     50  C   UNL A   1      42.121  29.439  28.856  1.00  0.00     0.074 A 
ATOM     51  C   UNL A   1      48.175  29.561  26.973  1.00  0.00     0.029 A 
ATOM     52  N   UNL A   1      46.106  28.941  27.504  1.00  0.00    -0.354 N 
ATOM     53  N   UNL A   1      43.361  29.374  28.438  1.00  0.00    -0.248 NA
ATOM     54  C   UNL A   1      41.724  30.763  29.358  1.00  0.00     0.031 C 
ATOM     55  C   UNL A   1      47.497  30.674  27.482  1.00  0.00     0.029 A 
ATOM     56  C   UNL A   1      46.203  30.293  27.795  1.00  0.00     0.049 A 
ATOM     57  H   UNL A   1      45.299  28.392  27.632  1.00  0.00     0.167 HD
ATOM     58  C   UNL A   1      43.884  30.650  28.601  1.00  0.00     0.074 A 
ATOM     59  C   UNL A   1      42.824  31.472  29.145  1.00  0.00     0.031 C 
ATOM     60  C   UNL A   1      45.133  31.098  28.324  1.00  0.00     0.037 A 
BRANCH  47  61
ATOM     61  C   UNL A   1      48.953  26.756  26.160  1.00  0.00     0.064 A 
ATOM     62  C   UNL A   1      49.366  26.955  24.834  1.00  0.00     0.173 A 
ATOM     63  C   UNL A   1      49.884  26.232  27.069  1.00  0.00     0.173 A 
ATOM     64  F   UNL A   1      48.508  27.441  23.926  1.00  0.00    -0.203 F 
ATOM     65  C   UNL A   1      50.653  26.616  24.428  1.00  0.00     0.198 A 
ATOM     66  C   UNL A   1      51.180  25.920  26.665  1.00  0.00     0.198 A 
ATOM     67  F   UNL A   1      49.539  26.027  28.349  1.00  0.00    -0.203 F 
ATOM     68  F   UNL A   1      51.012  26.770  23.145  1.00  0.00    -0.200 F 
ATOM     69  C   UNL A   1      51.560  26.105  25.345  1.00  0.00     0.200 A 
ATOM     70  F   UNL A   1      52.058  25.436  27.554  1.00  0.00    -0.200 F 
ATOM     71  F   UNL A   1      52.801  25.783  24.953  1.00  0.00    -0.200 F 
ENDBRANCH  47  61
BRANCH  48  72
ATOM     72  C   UNL A   1      39.710  28.643  29.407  1.00  0.00     0.064 A 
ATOM     73  C   UNL A   1      38.715  29.151  28.561  1.00  0.00     0.173 A 
ATOM     74  C   UNL A   1      39.375  28.419  30.749  1.00  0.00     0.173 A 
ATOM     75  F   UNL A   1      38.995  29.402  27.274  1.00  0.00    -0.203 F 
ATOM     76  C   UNL A   1      37.441  29.444  29.043  1.00  0.00     0.198 A 
ATOM     77  C   UNL A   1      38.093  28.688  31.225  1.00  0.00     0.198 A 
ATOM     78  F   UNL A   1      40.291  27.929  31.597  1.00  0.00    -0.203 F 
ATOM     79  F   UNL A   1      36.521  29.968  28.222  1.00  0.00    -0.200 F 
ATOM     80  C   UNL A   1      37.129  29.208  30.373  1.00  0.00     0.200 A 
ATOM     81  F   UNL A   1      37.792  28.448  32.508  1.00  0.00    -0.200 F 
ATOM     82  F   UNL A   1      35.904  29.487  30.836  1.00  0.00    -0.200 F 
ENDBRANCH  48  72
BRANCH  60  83
ATOM     83  C   UNL A   1      45.413  32.550  28.571  1.00  0.00     0.064 A 
ATOM     84  C   UNL A   1      45.148  33.524  27.597  1.00  0.00     0.173 A 
ATOM     85  C   UNL A   1      45.908  32.975  29.813  1.00  0.00     0.173 A 
ATOM     86  F   UNL A   1      44.689  33.163  26.389  1.00  0.00    -0.203 F 
ATOM     87  C   UNL A   1      45.384  34.872  27.853  1.00  0.00     0.198 A 
ATOM     88  C   UNL A   1      46.119  34.327  30.073  1.00  0.00     0.198 A 
ATOM     89  F   UNL A   1      46.173  32.082  30.777  1.00  0.00    -0.203 F 
ATOM     90  F   UNL A   1      45.159  35.782  26.896  1.00  0.00    -0.200 F 
ATOM     91  C   UNL A   1      45.862  35.272  29.092  1.00  0.00     0.200 A 
ATOM     92  F   UNL A   1      46.571  34.713  31.274  1.00  0.00    -0.200 F 
ATOM     93  F   UNL A   1      46.081  36.571  29.338  1.00  0.00    -0.200 F 
ENDBRANCH  60  83
ENDBRANCH  34  35
ENDBRANCH  26  29
ENDBRANCH  24  25
ENDBRANCH  23  24
ENDBRANCH   1  23
TORSDOF 18
ENDMDL
