MODEL 1
REMARK VINA RESULT:     -13.4      0.000      0.000
REMARK SMILES CC(C)c1cc(C2CC[NH+](Cc3c[nH]nc3C(=O)NCCCCNC(=O)c3ccc(-c4c5nc(c(-c6c(F)c(F)c(F)c(F)c6F)c6ccc([nH]6)c(-c6c(F)c(F)c(F)c(F)c6F)c6nc(c(-c7c(F)c(F)c(F)c(F)c7F)c7ccc4[nH]7)C=C6)C=C5)cc3)CC2)n[nH]1
REMARK SMILES IDX 20 1 19 2 17 3 18 4 16 6 12 7 13 8 14 9 15 10 11 12 10 13
REMARK SMILES IDX 7 14 8 15 91 16 9 17 90 18 6 20 4 21 5 22 93 23 92 24 2 26
REMARK SMILES IDX 1 27 3 28 21 29 22 30 23 31 24 32 25 33 26 35 27 36 28 37
REMARK SMILES IDX 89 38 29 39 88 40 30 41 31 42 32 43 82 44 33 45 87 46 81 47
REMARK SMILES IDX 83 48 34 49 86 50 80 51 79 52 35 54 67 55 47 56 66 57 48 58
REMARK SMILES IDX 51 59 65 60 84 61 49 62 50 63 64 65 85 66 52 67 36 68 37 69
REMARK SMILES IDX 45 70 38 71 39 72 43 73 46 74 40 75 41 76 44 77 42 78 68 79
REMARK SMILES IDX 69 80 77 81 70 82 71 83 75 84 78 85 72 86 73 87 76 88 74 89
REMARK SMILES IDX 53 90 54 91 62 92 55 93 56 94 60 95 63 96 57 97 58 98 61 99
REMARK SMILES IDX 59 100
REMARK H PARENT 19 5 14 11 10 19 93 25 24 34 83 53 51 64
REMARK Flexibility Score: inf
ROOT
ATOM      1  C   UNL A   1      33.004  28.717  23.249  1.00  0.00     0.116 C 
ENDROOT
BRANCH   1   2
ATOM      2  N   UNL A   1      31.959  29.331  22.508  1.00  0.00    -0.351 N 
ATOM      3  C   UNL A   1      30.649  28.954  22.346  1.00  0.00     0.272 C 
ATOM      4  O   UNL A   1      30.036  29.710  21.578  1.00  0.00    -0.267 OA
ATOM      5  H   UNL A   1      32.215  30.157  22.036  1.00  0.00     0.163 HD
BRANCH   3   6
ATOM      6  C   UNL A   1      29.962  27.783  22.996  1.00  0.00     0.158 A 
ATOM      7  C   UNL A   1      30.306  26.498  23.622  1.00  0.00     0.057 A 
ATOM      8  C   UNL A   1      29.090  26.048  24.128  1.00  0.00     0.115 A 
ATOM      9  N   UNL A   1      28.134  26.909  23.727  1.00  0.00    -0.284 N 
ATOM     10  N   UNL A   1      28.613  27.937  23.050  1.00  0.00    -0.170 NA
ATOM     11  H   UNL A   1      27.177  26.785  23.919  1.00  0.00     0.189 HD
BRANCH   7  12
ATOM     12  C   UNL A   1      31.569  25.697  23.879  1.00  0.00     0.303 C 
BRANCH  12  13
ATOM     13  N   UNL A   1      31.383  24.228  24.021  1.00  0.00    -0.331 N 
ATOM     14  C   UNL A   1      32.325  21.514  24.796  1.00  0.00     0.051 C 
ATOM     15  C   UNL A   1      32.145  21.911  23.331  1.00  0.00     0.071 C 
ATOM     16  C   UNL A   1      31.228  22.222  25.589  1.00  0.00     0.071 C 
ATOM     17  C   UNL A   1      32.196  23.425  23.106  1.00  0.00     0.263 C 
ATOM     18  C   UNL A   1      31.264  23.737  25.392  1.00  0.00     0.263 C 
ATOM     19  H   UNL A   1      30.437  24.064  23.677  1.00  0.00     0.348 HD
BRANCH  14  20
ATOM     20  C   UNL A   1      33.698  21.764  25.379  1.00  0.00     0.066 A 
ATOM     21  C   UNL A   1      35.846  22.331  25.600  1.00  0.00     0.038 A 
ATOM     22  C   UNL A   1      34.947  21.780  24.721  1.00  0.00     0.049 A 
ATOM     23  N   UNL A   1      35.150  22.454  26.770  1.00  0.00    -0.282 N 
ATOM     24  N   UNL A   1      33.843  22.145  26.656  1.00  0.00    -0.180 NA
ATOM     25  H   UNL A   1      35.565  22.741  27.616  1.00  0.00     0.190 HD
BRANCH  21  26
ATOM     26  C   UNL A   1      37.253  22.774  25.342  1.00  0.00     0.031 C 
ATOM     27  C   UNL A   1      37.667  23.974  26.189  1.00  0.00     0.014 C 
ATOM     28  C   UNL A   1      38.237  21.618  25.489  1.00  0.00     0.014 C 
ENDBRANCH  21  26
ENDBRANCH  14  20
ENDBRANCH  12  13
ENDBRANCH   7  12
ENDBRANCH   3   6
ENDBRANCH   1   2
BRANCH   1  29
ATOM     29  C   UNL A   1      33.272  29.343  24.609  1.00  0.00     0.023 C 
BRANCH  29  30
ATOM     30  C   UNL A   1      32.113  29.261  25.588  1.00  0.00     0.023 C 
BRANCH  30  31
ATOM     31  C   UNL A   1      32.429  29.764  26.991  1.00  0.00     0.116 C 
BRANCH  31  32
ATOM     32  N   UNL A   1      32.325  31.214  27.145  1.00  0.00    -0.352 N 
ATOM     33  C   UNL A   1      33.278  32.142  27.503  1.00  0.00     0.251 C 
ATOM     34  H   UNL A   1      31.433  31.588  26.964  1.00  0.00     0.163 HD
ATOM     35  O   UNL A   1      32.984  33.320  27.653  1.00  0.00    -0.269 OA
BRANCH  33  36
ATOM     36  C   UNL A   1      34.653  31.678  27.770  1.00  0.00     0.039 A 
ATOM     37  C   UNL A   1      35.665  32.626  27.926  1.00  0.00     0.014 A 
ATOM     38  C   UNL A   1      34.896  30.326  28.003  1.00  0.00     0.014 A 
ATOM     39  C   UNL A   1      36.887  32.232  28.472  1.00  0.00     0.010 A 
ATOM     40  C   UNL A   1      36.066  29.958  28.651  1.00  0.00     0.010 A 
ATOM     41  C   UNL A   1      37.059  30.913  28.920  1.00  0.00    -0.014 A 
BRANCH  41  42
ATOM     42  C   UNL A   1      38.235  30.508  29.731  1.00  0.00     0.031 A 
ATOM     43  C   UNL A   1      39.221  29.520  29.178  1.00  0.00     0.074 A 
ATOM     44  C   UNL A   1      38.339  30.925  31.009  1.00  0.00     0.049 A 
ATOM     45  N   UNL A   1      40.211  28.912  29.781  1.00  0.00    -0.248 NA
ATOM     46  C   UNL A   1      39.040  29.126  27.773  1.00  0.00     0.031 C 
ATOM     47  C   UNL A   1      37.409  31.832  31.687  1.00  0.00     0.029 A 
ATOM     48  N   UNL A   1      39.265  30.624  31.977  1.00  0.00    -0.354 N 
ATOM     49  C   UNL A   1      40.738  28.036  28.843  1.00  0.00     0.074 A 
ATOM     50  C   UNL A   1      39.933  28.157  27.647  1.00  0.00     0.031 C 
ATOM     51  C   UNL A   1      37.833  32.045  32.942  1.00  0.00     0.029 A 
ATOM     52  C   UNL A   1      39.033  31.249  33.178  1.00  0.00     0.049 A 
ATOM     53  H   UNL A   1      40.026  30.018  31.824  1.00  0.00     0.167 HD
ATOM     54  C   UNL A   1      41.812  27.222  28.962  1.00  0.00     0.037 A 
ATOM     55  C   UNL A   1      39.705  31.179  34.343  1.00  0.00     0.037 A 
ATOM     56  C   UNL A   1      42.649  27.156  30.130  1.00  0.00     0.049 A 
ATOM     57  C   UNL A   1      40.904  30.278  34.443  1.00  0.00     0.074 A 
ATOM     58  C   UNL A   1      43.832  26.461  30.305  1.00  0.00     0.029 A 
ATOM     59  N   UNL A   1      42.388  27.814  31.323  1.00  0.00    -0.354 N 
ATOM     60  N   UNL A   1      41.442  29.514  33.524  1.00  0.00    -0.248 NA
ATOM     61  C   UNL A   1      41.581  30.220  35.747  1.00  0.00     0.031 C 
ATOM     62  C   UNL A   1      44.268  26.667  31.618  1.00  0.00     0.029 A 
ATOM     63  C   UNL A   1      43.375  27.518  32.249  1.00  0.00     0.049 A 
ATOM     64  H   UNL A   1      41.617  28.404  31.486  1.00  0.00     0.167 HD
ATOM     65  C   UNL A   1      42.531  28.902  34.128  1.00  0.00     0.074 A 
ATOM     66  C   UNL A   1      42.583  29.391  35.491  1.00  0.00     0.031 C 
ATOM     67  C   UNL A   1      43.409  28.015  33.600  1.00  0.00     0.037 A 
BRANCH  54  68
ATOM     68  C   UNL A   1      42.145  26.344  27.793  1.00  0.00     0.064 A 
ATOM     69  C   UNL A   1      41.495  25.118  27.582  1.00  0.00     0.173 A 
ATOM     70  C   UNL A   1      43.120  26.739  26.865  1.00  0.00     0.173 A 
ATOM     71  F   UNL A   1      40.566  24.689  28.449  1.00  0.00    -0.203 F 
ATOM     72  C   UNL A   1      41.834  24.305  26.504  1.00  0.00     0.198 A 
ATOM     73  C   UNL A   1      43.435  25.937  25.772  1.00  0.00     0.198 A 
ATOM     74  F   UNL A   1      43.768  27.904  27.019  1.00  0.00    -0.203 F 
ATOM     75  F   UNL A   1      41.240  23.113  26.356  1.00  0.00    -0.200 F 
ATOM     76  C   UNL A   1      42.799  24.716  25.598  1.00  0.00     0.200 A 
ATOM     77  F   UNL A   1      44.362  26.339  24.892  1.00  0.00    -0.200 F 
ATOM     78  F   UNL A   1      43.124  23.932  24.561  1.00  0.00    -0.200 F 
ENDBRANCH  54  68
BRANCH  55  79
ATOM     79  C   UNL A   1      39.279  32.010  35.498  1.00  0.00     0.064 A 
ATOM     80  C   UNL A   1      39.712  33.337  35.614  1.00  0.00     0.173 A 
ATOM     81  C   UNL A   1      38.434  31.507  36.497  1.00  0.00     0.173 A 
ATOM     82  F   UNL A   1      40.539  33.853  34.692  1.00  0.00    -0.203 F 
ATOM     83  C   UNL A   1      39.324  34.130  36.691  1.00  0.00     0.198 A 
ATOM     84  C   UNL A   1      38.029  32.308  37.563  1.00  0.00     0.198 A 
ATOM     85  F   UNL A   1      37.990  30.243  36.429  1.00  0.00    -0.203 F 
ATOM     86  F   UNL A   1      39.779  35.386  36.795  1.00  0.00    -0.200 F 
ATOM     87  C   UNL A   1      38.478  33.617  37.662  1.00  0.00     0.200 A 
ATOM     88  F   UNL A   1      37.202  31.812  38.495  1.00  0.00    -0.200 F 
ATOM     89  F   UNL A   1      38.101  34.380  38.697  1.00  0.00    -0.200 F 
ENDBRANCH  55  79
BRANCH  67  90
ATOM     90  C   UNL A   1      44.512  27.529  34.491  1.00  0.00     0.064 A 
ATOM     91  C   UNL A   1      44.381  26.346  35.233  1.00  0.00     0.173 A 
ATOM     92  C   UNL A   1      45.726  28.225  34.563  1.00  0.00     0.173 A 
ATOM     93  F   UNL A   1      43.230  25.659  35.210  1.00  0.00    -0.203 F 
ATOM     94  C   UNL A   1      45.428  25.883  36.026  1.00  0.00     0.198 A 
ATOM     95  C   UNL A   1      46.779  27.746  35.337  1.00  0.00     0.198 A 
ATOM     96  F   UNL A   1      45.898  29.359  33.868  1.00  0.00    -0.203 F 
ATOM     97  F   UNL A   1      45.272  24.769  36.753  1.00  0.00    -0.200 F 
ATOM     98  C   UNL A   1      46.628  26.578  36.070  1.00  0.00     0.200 A 
ATOM     99  F   UNL A   1      47.941  28.413  35.372  1.00  0.00    -0.200 F 
ATOM    100  F   UNL A   1      47.637  26.125  36.826  1.00  0.00    -0.200 F 
ENDBRANCH  67  90
ENDBRANCH  41  42
ENDBRANCH  33  36
ENDBRANCH  31  32
ENDBRANCH  30  31
ENDBRANCH  29  30
ENDBRANCH   1  29
TORSDOF 15
ENDMDL
MODEL 2
REMARK VINA RESULT:     -13.3      1.283      7.394
REMARK SMILES CC(C)c1cc(C2CC[NH+](Cc3c[nH]nc3C(=O)NCCCCNC(=O)c3ccc(-c4c5nc(c(-c6c(F)c(F)c(F)c(F)c6F)c6ccc([nH]6)c(-c6c(F)c(F)c(F)c(F)c6F)c6nc(c(-c7c(F)c(F)c(F)c(F)c7F)c7ccc4[nH]7)C=C6)C=C5)cc3)CC2)n[nH]1
REMARK SMILES IDX 20 1 19 2 17 3 18 4 16 6 12 7 13 8 14 9 15 10 11 12 10 13
REMARK SMILES IDX 7 14 8 15 91 16 9 17 90 18 6 20 4 21 5 22 93 23 92 24 2 26
REMARK SMILES IDX 1 27 3 28 21 29 22 30 23 31 24 32 25 33 26 35 27 36 28 37
REMARK SMILES IDX 89 38 29 39 88 40 30 41 31 42 32 43 82 44 33 45 87 46 81 47
REMARK SMILES IDX 83 48 34 49 86 50 80 51 79 52 35 54 67 55 47 56 66 57 48 58
REMARK SMILES IDX 51 59 65 60 84 61 49 62 50 63 64 65 85 66 52 67 36 68 37 69
REMARK SMILES IDX 45 70 38 71 39 72 43 73 46 74 40 75 41 76 44 77 42 78 68 79
REMARK SMILES IDX 69 80 77 81 70 82 71 83 75 84 78 85 72 86 73 87 76 88 74 89
REMARK SMILES IDX 53 90 54 91 62 92 55 93 56 94 60 95 63 96 57 97 58 98 61 99
REMARK SMILES IDX 59 100
REMARK H PARENT 19 5 14 11 10 19 93 25 24 34 83 53 51 64
REMARK Flexibility Score: inf
ROOT
ATOM      1  C   UNL A   1      33.833  29.017  23.124  1.00  0.00     0.116 C 
ENDROOT
BRANCH   1   2
ATOM      2  N   UNL A   1      33.849  27.917  22.225  1.00  0.00    -0.351 N 
ATOM      3  C   UNL A   1      32.891  26.967  21.972  1.00  0.00     0.272 C 
ATOM      4  O   UNL A   1      33.276  26.119  21.153  1.00  0.00    -0.267 OA
ATOM      5  H   UNL A   1      34.677  27.821  21.701  1.00  0.00     0.163 HD
BRANCH   3   6
ATOM      6  C   UNL A   1      31.509  26.900  22.566  1.00  0.00     0.158 A 
ATOM      7  C   UNL A   1      30.749  26.082  23.522  1.00  0.00     0.057 A 
ATOM      8  C   UNL A   1      29.546  26.771  23.652  1.00  0.00     0.115 A 
ATOM      9  N   UNL A   1      29.561  27.793  22.775  1.00  0.00    -0.284 N 
ATOM     10  N   UNL A   1      30.700  27.892  22.112  1.00  0.00    -0.170 NA
ATOM     11  H   UNL A   1      28.802  28.405  22.642  1.00  0.00     0.189 HD
BRANCH   7  12
ATOM     12  C   UNL A   1      31.000  24.845  24.363  1.00  0.00     0.303 C 
BRANCH  12  13
ATOM     13  N   UNL A   1      32.421  24.419  24.477  1.00  0.00    -0.331 N 
ATOM     14  C   UNL A   1      34.531  22.382  24.977  1.00  0.00     0.051 C 
ATOM     15  C   UNL A   1      34.257  23.512  25.970  1.00  0.00     0.071 C 
ATOM     16  C   UNL A   1      34.304  22.952  23.578  1.00  0.00     0.071 C 
ATOM     17  C   UNL A   1      32.849  24.100  25.840  1.00  0.00     0.263 C 
ATOM     18  C   UNL A   1      32.901  23.536  23.417  1.00  0.00     0.263 C 
ATOM     19  H   UNL A   1      32.950  25.267  24.272  1.00  0.00     0.348 HD
BRANCH  14  20
ATOM     20  C   UNL A   1      33.751  21.106  25.204  1.00  0.00     0.066 A 
ATOM     21  C   UNL A   1      32.902  19.058  24.953  1.00  0.00     0.038 A 
ATOM     22  C   UNL A   1      33.294  20.170  24.251  1.00  0.00     0.049 A 
ATOM     23  N   UNL A   1      32.977  19.435  26.265  1.00  0.00    -0.282 N 
ATOM     24  N   UNL A   1      33.514  20.658  26.445  1.00  0.00    -0.180 NA
ATOM     25  H   UNL A   1      32.668  18.867  27.008  1.00  0.00     0.190 HD
BRANCH  21  26
ATOM     26  C   UNL A   1      32.540  17.702  24.429  1.00  0.00     0.031 C 
ATOM     27  C   UNL A   1      33.296  17.331  23.156  1.00  0.00     0.014 C 
ATOM     28  C   UNL A   1      32.692  16.630  25.503  1.00  0.00     0.014 C 
ENDBRANCH  21  26
ENDBRANCH  14  20
ENDBRANCH  12  13
ENDBRANCH   7  12
ENDBRANCH   3   6
ENDBRANCH   1   2
BRANCH   1  29
ATOM     29  C   UNL A   1      33.407  28.674  24.542  1.00  0.00     0.023 C 
BRANCH  29  30
ATOM     30  C   UNL A   1      32.320  29.566  25.115  1.00  0.00     0.023 C 
BRANCH  30  31
ATOM     31  C   UNL A   1      32.440  29.837  26.609  1.00  0.00     0.116 C 
BRANCH  31  32
ATOM     32  N   UNL A   1      32.429  31.255  26.964  1.00  0.00    -0.352 N 
ATOM     33  C   UNL A   1      33.418  32.045  27.506  1.00  0.00     0.251 C 
ATOM     34  H   UNL A   1      31.579  31.720  26.787  1.00  0.00     0.163 HD
ATOM     35  O   UNL A   1      33.199  33.210  27.807  1.00  0.00    -0.269 OA
BRANCH  33  36
ATOM     36  C   UNL A   1      34.735  31.439  27.782  1.00  0.00     0.039 A 
ATOM     37  C   UNL A   1      35.829  32.278  28.001  1.00  0.00     0.014 A 
ATOM     38  C   UNL A   1      34.842  30.062  27.964  1.00  0.00     0.014 A 
ATOM     39  C   UNL A   1      36.993  31.746  28.555  1.00  0.00     0.010 A 
ATOM     40  C   UNL A   1      35.954  29.556  28.620  1.00  0.00     0.010 A 
ATOM     41  C   UNL A   1      37.027  30.399  28.951  1.00  0.00    -0.014 A 
BRANCH  41  42
ATOM     42  C   UNL A   1      38.138  29.850  29.769  1.00  0.00     0.031 A 
ATOM     43  C   UNL A   1      38.333  30.325  31.180  1.00  0.00     0.074 A 
ATOM     44  C   UNL A   1      39.044  29.031  29.199  1.00  0.00     0.049 A 
ATOM     45  N   UNL A   1      39.329  30.102  31.998  1.00  0.00    -0.248 NA
ATOM     46  C   UNL A   1      37.292  31.209  31.726  1.00  0.00     0.031 C 
ATOM     47  C   UNL A   1      39.005  28.549  27.815  1.00  0.00     0.029 A 
ATOM     48  N   UNL A   1      40.190  28.472  29.707  1.00  0.00    -0.354 N 
ATOM     49  C   UNL A   1      39.055  30.851  33.134  1.00  0.00     0.074 A 
ATOM     50  C   UNL A   1      37.824  31.569  32.883  1.00  0.00     0.031 C 
ATOM     51  C   UNL A   1      40.052  27.739  27.600  1.00  0.00     0.029 A 
ATOM     52  C   UNL A   1      40.867  27.684  28.808  1.00  0.00     0.049 A 
ATOM     53  H   UNL A   1      40.498  28.621  30.631  1.00  0.00     0.167 HD
ATOM     54  C   UNL A   1      39.755  30.914  34.290  1.00  0.00     0.037 A 
ATOM     55  C   UNL A   1      42.021  27.003  28.940  1.00  0.00     0.037 A 
ATOM     56  C   UNL A   1      40.941  30.146  34.557  1.00  0.00     0.049 A 
ATOM     57  C   UNL A   1      42.771  27.078  30.241  1.00  0.00     0.074 A 
ATOM     58  C   UNL A   1      41.651  30.041  35.739  1.00  0.00     0.029 A 
ATOM     59  N   UNL A   1      41.589  29.348  33.626  1.00  0.00    -0.354 N 
ATOM     60  N   UNL A   1      42.461  27.726  31.336  1.00  0.00    -0.248 NA
ATOM     61  C   UNL A   1      44.039  26.338  30.317  1.00  0.00     0.031 C 
ATOM     62  C   UNL A   1      42.753  29.209  35.513  1.00  0.00     0.029 A 
ATOM     63  C   UNL A   1      42.709  28.769  34.199  1.00  0.00     0.049 A 
ATOM     64  H   UNL A   1      41.296  29.214  32.695  1.00  0.00     0.167 HD
ATOM     65  C   UNL A   1      43.479  27.456  32.240  1.00  0.00     0.074 A 
ATOM     66  C   UNL A   1      44.413  26.577  31.566  1.00  0.00     0.031 C 
ATOM     67  C   UNL A   1      43.626  27.897  33.512  1.00  0.00     0.037 A 
BRANCH  54  68
ATOM     68  C   UNL A   1      39.249  31.841  35.353  1.00  0.00     0.064 A 
ATOM     69  C   UNL A   1      39.601  33.199  35.378  1.00  0.00     0.173 A 
ATOM     70  C   UNL A   1      38.388  31.368  36.355  1.00  0.00     0.173 A 
ATOM     71  F   UNL A   1      40.432  33.697  34.450  1.00  0.00    -0.203 F 
ATOM     72  C   UNL A   1      39.140  34.040  36.386  1.00  0.00     0.198 A 
ATOM     73  C   UNL A   1      37.906  32.218  37.346  1.00  0.00     0.198 A 
ATOM     74  F   UNL A   1      38.018  30.078  36.375  1.00  0.00    -0.203 F 
ATOM     75  F   UNL A   1      39.536  35.320  36.421  1.00  0.00    -0.200 F 
ATOM     76  C   UNL A   1      38.289  33.551  37.367  1.00  0.00     0.200 A 
ATOM     77  F   UNL A   1      37.077  31.747  38.288  1.00  0.00    -0.200 F 
ATOM     78  F   UNL A   1      37.847  34.362  38.337  1.00  0.00    -0.200 F 
ENDBRANCH  54  68
BRANCH  55  79
ATOM     79  C   UNL A   1      42.522  26.165  27.821  1.00  0.00     0.064 A 
ATOM     80  C   UNL A   1      43.468  26.674  26.922  1.00  0.00     0.173 A 
ATOM     81  C   UNL A   1      42.080  24.848  27.629  1.00  0.00     0.173 A 
ATOM     82  F   UNL A   1      43.903  27.936  27.055  1.00  0.00    -0.203 F 
ATOM     83  C   UNL A   1      43.946  25.903  25.866  1.00  0.00     0.198 A 
ATOM     84  C   UNL A   1      42.575  24.070  26.584  1.00  0.00     0.198 A 
ATOM     85  F   UNL A   1      41.177  24.314  28.465  1.00  0.00    -0.203 F 
ATOM     86  F   UNL A   1      44.827  26.427  25.001  1.00  0.00    -0.200 F 
ATOM     87  C   UNL A   1      43.504  24.599  25.701  1.00  0.00     0.200 A 
ATOM     88  F   UNL A   1      42.153  22.806  26.434  1.00  0.00    -0.200 F 
ATOM     89  F   UNL A   1      43.968  23.856  24.687  1.00  0.00    -0.200 F 
ENDBRANCH  55  79
BRANCH  67  90
ATOM     90  C   UNL A   1      44.830  27.422  34.267  1.00  0.00     0.064 A 
ATOM     91  C   UNL A   1      44.811  26.219  34.988  1.00  0.00     0.173 A 
ATOM     92  C   UNL A   1      46.028  28.149  34.225  1.00  0.00     0.173 A 
ATOM     93  F   UNL A   1      43.682  25.499  35.071  1.00  0.00    -0.203 F 
ATOM     94  C   UNL A   1      45.949  25.767  35.651  1.00  0.00     0.198 A 
ATOM     95  C   UNL A   1      47.170  27.682  34.870  1.00  0.00     0.198 A 
ATOM     96  F   UNL A   1      46.095  29.304  33.546  1.00  0.00    -0.203 F 
ATOM     97  F   UNL A   1      45.901  24.633  36.362  1.00  0.00    -0.200 F 
ATOM     98  C   UNL A   1      47.129  26.494  35.584  1.00  0.00     0.200 A 
ATOM     99  F   UNL A   1      48.311  28.380  34.796  1.00  0.00    -0.200 F 
ATOM    100  F   UNL A   1      48.225  26.053  36.215  1.00  0.00    -0.200 F 
ENDBRANCH  67  90
ENDBRANCH  41  42
ENDBRANCH  33  36
ENDBRANCH  31  32
ENDBRANCH  30  31
ENDBRANCH  29  30
ENDBRANCH   1  29
TORSDOF 15
ENDMDL
MODEL 3
REMARK VINA RESULT:     -13.3      1.428      2.357
REMARK SMILES CC(C)c1cc(C2CC[NH+](Cc3c[nH]nc3C(=O)NCCCCNC(=O)c3ccc(-c4c5nc(c(-c6c(F)c(F)c(F)c(F)c6F)c6ccc([nH]6)c(-c6c(F)c(F)c(F)c(F)c6F)c6nc(c(-c7c(F)c(F)c(F)c(F)c7F)c7ccc4[nH]7)C=C6)C=C5)cc3)CC2)n[nH]1
REMARK SMILES IDX 20 1 19 2 17 3 18 4 16 6 12 7 13 8 14 9 15 10 11 12 10 13
REMARK SMILES IDX 7 14 8 15 91 16 9 17 90 18 6 20 4 21 5 22 93 23 92 24 2 26
REMARK SMILES IDX 1 27 3 28 21 29 22 30 23 31 24 32 25 33 26 35 27 36 28 37
REMARK SMILES IDX 89 38 29 39 88 40 30 41 31 42 32 43 82 44 33 45 87 46 81 47
REMARK SMILES IDX 83 48 34 49 86 50 80 51 79 52 35 54 67 55 47 56 66 57 48 58
REMARK SMILES IDX 51 59 65 60 84 61 49 62 50 63 64 65 85 66 52 67 36 68 37 69
REMARK SMILES IDX 45 70 38 71 39 72 43 73 46 74 40 75 41 76 44 77 42 78 68 79
REMARK SMILES IDX 69 80 77 81 70 82 71 83 75 84 78 85 72 86 73 87 76 88 74 89
REMARK SMILES IDX 53 90 54 91 62 92 55 93 56 94 60 95 63 96 57 97 58 98 61 99
REMARK SMILES IDX 59 100
REMARK H PARENT 19 5 14 11 10 19 93 25 24 34 83 53 51 64
REMARK Flexibility Score: inf
ROOT
ATOM      1  C   UNL A   1      31.950  26.694  26.597  1.00  0.00     0.116 C 
ENDROOT
BRANCH   1   2
ATOM      2  N   UNL A   1      30.827  26.784  25.731  1.00  0.00    -0.351 N 
ATOM      3  C   UNL A   1      30.770  26.955  24.371  1.00  0.00     0.272 C 
ATOM      4  O   UNL A   1      29.605  27.043  23.958  1.00  0.00    -0.267 OA
ATOM      5  H   UNL A   1      29.952  26.713  26.178  1.00  0.00     0.163 HD
BRANCH   3   6
ATOM      6  C   UNL A   1      31.937  27.026  23.422  1.00  0.00     0.158 A 
ATOM      7  C   UNL A   1      32.956  26.138  22.845  1.00  0.00     0.057 A 
ATOM      8  C   UNL A   1      33.598  26.947  21.910  1.00  0.00     0.115 A 
ATOM      9  N   UNL A   1      33.095  28.191  22.029  1.00  0.00    -0.284 N 
ATOM     10  N   UNL A   1      32.121  28.274  22.918  1.00  0.00    -0.170 NA
ATOM     11  H   UNL A   1      33.419  28.959  21.506  1.00  0.00     0.189 HD
BRANCH   7  12
ATOM     12  C   UNL A   1      33.352  24.679  22.972  1.00  0.00     0.303 C 
BRANCH  12  13
ATOM     13  N   UNL A   1      33.241  24.097  24.337  1.00  0.00    -0.331 N 
ATOM     14  C   UNL A   1      33.059  21.797  26.216  1.00  0.00     0.051 C 
ATOM     15  C   UNL A   1      31.865  22.716  25.955  1.00  0.00     0.071 C 
ATOM     16  C   UNL A   1      34.313  22.668  26.157  1.00  0.00     0.071 C 
ATOM     17  C   UNL A   1      31.955  23.458  24.619  1.00  0.00     0.263 C 
ATOM     18  C   UNL A   1      34.434  23.412  24.828  1.00  0.00     0.263 C 
ATOM     19  H   UNL A   1      33.223  24.911  24.951  1.00  0.00     0.348 HD
BRANCH  14  20
ATOM     20  C   UNL A   1      33.166  20.588  25.313  1.00  0.00     0.066 A 
ATOM     21  C   UNL A   1      33.856  18.680  24.383  1.00  0.00     0.038 A 
ATOM     22  C   UNL A   1      34.309  19.825  24.991  1.00  0.00     0.049 A 
ATOM     23  N   UNL A   1      32.515  18.886  24.217  1.00  0.00    -0.282 N 
ATOM     24  N   UNL A   1      32.068  20.019  24.796  1.00  0.00    -0.180 NA
ATOM     25  H   UNL A   1      31.932  18.267  23.722  1.00  0.00     0.190 HD
BRANCH  21  26
ATOM     26  C   UNL A   1      34.624  17.442  24.035  1.00  0.00     0.031 C 
ATOM     27  C   UNL A   1      34.903  16.552  25.243  1.00  0.00     0.014 C 
ATOM     28  C   UNL A   1      33.946  16.664  22.912  1.00  0.00     0.014 C 
ENDBRANCH  21  26
ENDBRANCH  14  20
ENDBRANCH  12  13
ENDBRANCH   7  12
ENDBRANCH   3   6
ENDBRANCH   1   2
BRANCH   1  29
ATOM     29  C   UNL A   1      32.264  27.966  27.368  1.00  0.00     0.023 C 
BRANCH  29  30
ATOM     30  C   UNL A   1      31.618  29.223  26.812  1.00  0.00     0.023 C 
BRANCH  30  31
ATOM     31  C   UNL A   1      32.598  30.253  26.263  1.00  0.00     0.116 C 
BRANCH  31  32
ATOM     32  N   UNL A   1      32.424  31.597  26.812  1.00  0.00    -0.352 N 
ATOM     33  C   UNL A   1      33.300  32.389  27.521  1.00  0.00     0.251 C 
ATOM     34  H   UNL A   1      31.541  32.000  26.649  1.00  0.00     0.163 HD
ATOM     35  O   UNL A   1      32.948  33.472  27.967  1.00  0.00    -0.269 OA
BRANCH  33  36
ATOM     36  C   UNL A   1      34.657  31.878  27.792  1.00  0.00     0.039 A 
ATOM     37  C   UNL A   1      35.710  32.787  27.900  1.00  0.00     0.014 A 
ATOM     38  C   UNL A   1      34.845  30.527  28.077  1.00  0.00     0.014 A 
ATOM     39  C   UNL A   1      36.920  32.363  28.448  1.00  0.00     0.010 A 
ATOM     40  C   UNL A   1      36.006  30.135  28.727  1.00  0.00     0.010 A 
ATOM     41  C   UNL A   1      37.042  31.056  28.947  1.00  0.00    -0.014 A 
BRANCH  41  42
ATOM     42  C   UNL A   1      38.209  30.634  29.762  1.00  0.00     0.031 A 
ATOM     43  C   UNL A   1      39.189  29.640  29.207  1.00  0.00     0.074 A 
ATOM     44  C   UNL A   1      38.309  31.040  31.043  1.00  0.00     0.049 A 
ATOM     45  N   UNL A   1      40.169  29.018  29.811  1.00  0.00    -0.248 NA
ATOM     46  C   UNL A   1      39.012  29.259  27.798  1.00  0.00     0.031 C 
ATOM     47  C   UNL A   1      37.385  31.952  31.723  1.00  0.00     0.029 A 
ATOM     48  N   UNL A   1      39.228  30.723  32.014  1.00  0.00    -0.354 N 
ATOM     49  C   UNL A   1      40.693  28.145  28.869  1.00  0.00     0.074 A 
ATOM     50  C   UNL A   1      39.896  28.282  27.669  1.00  0.00     0.031 C 
ATOM     51  C   UNL A   1      37.804  32.150  32.982  1.00  0.00     0.029 A 
ATOM     52  C   UNL A   1      38.995  31.341  33.219  1.00  0.00     0.049 A 
ATOM     53  H   UNL A   1      39.984  30.111  31.861  1.00  0.00     0.167 HD
ATOM     54  C   UNL A   1      41.759  27.319  28.988  1.00  0.00     0.037 A 
ATOM     55  C   UNL A   1      39.659  31.255  34.386  1.00  0.00     0.037 A 
ATOM     56  C   UNL A   1      42.588  27.236  30.159  1.00  0.00     0.049 A 
ATOM     57  C   UNL A   1      40.849  30.342  34.487  1.00  0.00     0.074 A 
ATOM     58  C   UNL A   1      43.763  26.528  30.336  1.00  0.00     0.029 A 
ATOM     59  N   UNL A   1      42.327  27.887  31.356  1.00  0.00    -0.354 N 
ATOM     60  N   UNL A   1      41.385  29.580  33.565  1.00  0.00    -0.248 NA
ATOM     61  C   UNL A   1      41.518  30.268  35.794  1.00  0.00     0.031 C 
ATOM     62  C   UNL A   1      44.194  26.721  31.653  1.00  0.00     0.029 A 
ATOM     63  C   UNL A   1      43.305  27.575  32.285  1.00  0.00     0.049 A 
ATOM     64  H   UNL A   1      41.561  28.484  31.519  1.00  0.00     0.167 HD
ATOM     65  C   UNL A   1      42.465  28.953  34.170  1.00  0.00     0.074 A 
ATOM     66  C   UNL A   1      42.514  29.431  35.537  1.00  0.00     0.031 C 
ATOM     67  C   UNL A   1      43.336  28.062  33.640  1.00  0.00     0.037 A 
BRANCH  54  68
ATOM     68  C   UNL A   1      42.090  26.447  27.814  1.00  0.00     0.064 A 
ATOM     69  C   UNL A   1      41.457  25.211  27.612  1.00  0.00     0.173 A 
ATOM     70  C   UNL A   1      43.045  26.858  26.872  1.00  0.00     0.173 A 
ATOM     71  F   UNL A   1      40.547  24.767  28.491  1.00  0.00    -0.203 F 
ATOM     72  C   UNL A   1      41.794  24.403  26.529  1.00  0.00     0.198 A 
ATOM     73  C   UNL A   1      43.358  26.061  25.775  1.00  0.00     0.198 A 
ATOM     74  F   UNL A   1      43.677  28.033  27.018  1.00  0.00    -0.203 F 
ATOM     75  F   UNL A   1      41.217  23.202  26.388  1.00  0.00    -0.200 F 
ATOM     76  C   UNL A   1      42.740  24.830  25.609  1.00  0.00     0.200 A 
ATOM     77  F   UNL A   1      44.267  26.478  24.883  1.00  0.00    -0.200 F 
ATOM     78  F   UNL A   1      43.064  24.052  24.568  1.00  0.00    -0.200 F 
ENDBRANCH  54  68
BRANCH  55  79
ATOM     79  C   UNL A   1      39.235  32.082  35.545  1.00  0.00     0.064 A 
ATOM     80  C   UNL A   1      38.412  31.537  36.540  1.00  0.00     0.173 A 
ATOM     81  C   UNL A   1      39.643  33.415  35.691  1.00  0.00     0.173 A 
ATOM     82  F   UNL A   1      37.980  30.272  36.431  1.00  0.00    -0.203 F 
ATOM     83  C   UNL A   1      38.002  32.299  37.632  1.00  0.00     0.198 A 
ATOM     84  C   UNL A   1      39.250  34.169  36.795  1.00  0.00     0.198 A 
ATOM     85  F   UNL A   1      40.434  33.980  34.767  1.00  0.00    -0.203 F 
ATOM     86  F   UNL A   1      37.188  31.763  38.552  1.00  0.00    -0.200 F 
ATOM     87  C   UNL A   1      38.427  33.612  37.762  1.00  0.00     0.200 A 
ATOM     88  F   UNL A   1      39.671  35.435  36.923  1.00  0.00    -0.200 F 
ATOM     89  F   UNL A   1      38.037  34.343  38.815  1.00  0.00    -0.200 F 
ENDBRANCH  55  79
BRANCH  67  90
ATOM     90  C   UNL A   1      44.429  27.558  34.534  1.00  0.00     0.064 A 
ATOM     91  C   UNL A   1      44.283  26.371  35.266  1.00  0.00     0.173 A 
ATOM     92  C   UNL A   1      45.650  28.242  34.618  1.00  0.00     0.173 A 
ATOM     93  F   UNL A   1      43.126  25.694  35.231  1.00  0.00    -0.203 F 
ATOM     94  C   UNL A   1      45.321  25.891  36.061  1.00  0.00     0.198 A 
ATOM     95  C   UNL A   1      46.694  27.747  35.395  1.00  0.00     0.198 A 
ATOM     96  F   UNL A   1      45.837  29.380  33.934  1.00  0.00    -0.203 F 
ATOM     97  F   UNL A   1      45.151  24.773  36.778  1.00  0.00    -0.200 F 
ATOM     98  C   UNL A   1      46.527  26.574  36.118  1.00  0.00     0.200 A 
ATOM     99  F   UNL A   1      47.862  28.402  35.442  1.00  0.00    -0.200 F 
ATOM    100  F   UNL A   1      47.528  26.106  36.875  1.00  0.00    -0.200 F 
ENDBRANCH  67  90
ENDBRANCH  41  42
ENDBRANCH  33  36
ENDBRANCH  31  32
ENDBRANCH  30  31
ENDBRANCH  29  30
ENDBRANCH   1  29
TORSDOF 15
ENDMDL
