MODEL 1
REMARK VINA RESULT:     -12.5      0.000      0.000
REMARK SMILES O=C(NCCCCNC(=O)C1(CCc2ccccn2)CCCCC1)c1ccc(-c2c3nc(c(-c4c(F)c(F)c(F)c(F)c4F)c4ccc([nH]4)c(-c4c(F)c(F)c(F)c(F)c4F)c4nc(c(-c5c(F)c(F)c(F)c(F)c5F)c5ccc2[nH]5)C=C4)C=C3)cc1
REMARK SMILES IDX 6 1 5 2 4 3 3 4 1 5 2 6 25 8 26 9 87 10 27 11 86 12 28 13
REMARK SMILES IDX 29 14 30 15 80 16 31 17 85 18 79 19 81 20 32 21 84 22 78 23
REMARK SMILES IDX 77 24 33 26 65 27 45 28 64 29 46 30 49 31 63 32 82 33 47 34
REMARK SMILES IDX 48 35 62 37 83 38 50 39 34 40 35 41 43 42 36 43 37 44 41 45
REMARK SMILES IDX 44 46 38 47 39 48 42 49 40 50 66 51 67 52 75 53 68 54 69 55
REMARK SMILES IDX 73 56 76 57 70 58 71 59 74 60 72 61 51 62 52 63 60 64 53 65
REMARK SMILES IDX 54 66 58 67 61 68 55 69 56 70 59 71 57 72 7 73 8 74 9 75
REMARK SMILES IDX 10 77 11 78 20 79 24 80 21 81 23 82 22 83 12 84 13 85 14 86
REMARK SMILES IDX 15 87 19 88 16 89 18 90 17 91
REMARK H PARENT 3 7 81 25 49 36 8 76
REMARK Flexibility Score: inf
ROOT
ATOM      1  C   UNL A   1      31.473  30.675  26.460  1.00  0.00     0.023 C 
ENDROOT
BRANCH   1   2
ATOM      2  C   UNL A   1      31.409  32.183  26.642  1.00  0.00     0.023 C 
BRANCH   2   3
ATOM      3  C   UNL A   1      32.640  32.805  27.253  1.00  0.00     0.116 C 
BRANCH   3   4
ATOM      4  N   UNL A   1      32.421  34.198  27.607  1.00  0.00    -0.352 N 
ATOM      5  O   UNL A   1      32.529  36.003  28.965  1.00  0.00    -0.269 OA
ATOM      6  C   UNL A   1      32.992  34.907  28.632  1.00  0.00     0.251 C 
ATOM      7  H   UNL A   1      31.784  34.692  27.043  1.00  0.00     0.163 HD
BRANCH   6   8
ATOM      8  C   UNL A   1      34.167  34.356  29.335  1.00  0.00     0.039 A 
ATOM      9  C   UNL A   1      33.994  33.588  30.489  1.00  0.00     0.014 A 
ATOM     10  C   UNL A   1      35.451  34.578  28.827  1.00  0.00     0.014 A 
ATOM     11  C   UNL A   1      35.096  33.142  31.200  1.00  0.00     0.010 A 
ATOM     12  C   UNL A   1      36.556  34.027  29.479  1.00  0.00     0.010 A 
ATOM     13  C   UNL A   1      36.384  33.305  30.669  1.00  0.00    -0.014 A 
BRANCH  13  14
ATOM     14  C   UNL A   1      37.507  32.575  31.305  1.00  0.00     0.031 A 
ATOM     15  C   UNL A   1      38.228  31.473  30.595  1.00  0.00     0.074 A 
ATOM     16  C   UNL A   1      37.870  32.948  32.549  1.00  0.00     0.049 A 
ATOM     17  N   UNL A   1      39.218  30.730  31.022  1.00  0.00    -0.248 NA
ATOM     18  C   UNL A   1      37.780  31.151  29.232  1.00  0.00     0.031 C 
ATOM     19  C   UNL A   1      37.221  34.006  33.332  1.00  0.00     0.029 A 
ATOM     20  N   UNL A   1      38.874  32.503  33.368  1.00  0.00    -0.354 N 
ATOM     21  C   UNL A   1      39.499  29.843  29.993  1.00  0.00     0.074 A 
ATOM     22  C   UNL A   1      38.559  30.122  28.927  1.00  0.00     0.031 C 
ATOM     23  C   UNL A   1      37.876  34.166  34.488  1.00  0.00     0.029 A 
ATOM     24  C   UNL A   1      38.931  33.166  34.569  1.00  0.00     0.049 A 
ATOM     25  H   UNL A   1      39.493  31.779  33.119  1.00  0.00     0.167 HD
ATOM     26  C   UNL A   1      40.460  28.887  29.950  1.00  0.00     0.037 A 
ATOM     27  C   UNL A   1      39.728  32.971  35.634  1.00  0.00     0.037 A 
ATOM     28  C   UNL A   1      41.387  28.629  31.024  1.00  0.00     0.049 A 
ATOM     29  C   UNL A   1      40.752  31.876  35.571  1.00  0.00     0.074 A 
ATOM     30  C   UNL A   1      42.414  27.702  31.073  1.00  0.00     0.029 A 
ATOM     31  N   UNL A   1      41.394  29.295  32.243  1.00  0.00    -0.354 N 
ATOM     32  N   UNL A   1      41.027  31.060  34.583  1.00  0.00    -0.248 NA
ATOM     33  C   UNL A   1      41.570  31.672  36.770  1.00  0.00     0.031 C 
ATOM     34  C   UNL A   1      43.003  27.768  32.340  1.00  0.00     0.029 A 
ATOM     35  C   UNL A   1      42.390  28.781  33.060  1.00  0.00     0.049 A 
ATOM     36  H   UNL A   1      40.783  30.027  32.490  1.00  0.00     0.167 HD
ATOM     37  C   UNL A   1      42.064  30.257  35.032  1.00  0.00     0.074 A 
ATOM     38  C   UNL A   1      42.382  30.702  36.375  1.00  0.00     0.031 C 
ATOM     39  C   UNL A   1      42.692  29.241  34.393  1.00  0.00     0.037 A 
BRANCH  26  40
ATOM     40  C   UNL A   1      40.541  28.032  28.718  1.00  0.00     0.064 A 
ATOM     41  C   UNL A   1      41.329  28.396  27.615  1.00  0.00     0.173 A 
ATOM     42  C   UNL A   1      39.857  26.807  28.657  1.00  0.00     0.173 A 
ATOM     43  F   UNL A   1      41.995  29.559  27.614  1.00  0.00    -0.203 F 
ATOM     44  C   UNL A   1      41.408  27.578  26.489  1.00  0.00     0.198 A 
ATOM     45  C   UNL A   1      39.963  25.979  27.543  1.00  0.00     0.198 A 
ATOM     46  F   UNL A   1      39.094  26.408  29.685  1.00  0.00    -0.203 F 
ATOM     47  F   UNL A   1      42.129  27.969  25.429  1.00  0.00    -0.200 F 
ATOM     48  C   UNL A   1      40.731  26.367  26.457  1.00  0.00     0.200 A 
ATOM     49  F   UNL A   1      39.320  24.804  27.520  1.00  0.00    -0.200 F 
ATOM     50  F   UNL A   1      40.816  25.579  25.376  1.00  0.00    -0.200 F 
ENDBRANCH  26  40
BRANCH  27  51
ATOM     51  C   UNL A   1      39.569  33.820  36.844  1.00  0.00     0.064 A 
ATOM     52  C   UNL A   1      40.209  35.062  36.943  1.00  0.00     0.173 A 
ATOM     53  C   UNL A   1      38.762  33.413  37.919  1.00  0.00     0.173 A 
ATOM     54  F   UNL A   1      41.002  35.489  35.950  1.00  0.00    -0.203 F 
ATOM     55  C   UNL A   1      40.065  35.856  38.079  1.00  0.00     0.198 A 
ATOM     56  C   UNL A   1      38.590  34.224  39.038  1.00  0.00     0.198 A 
ATOM     57  F   UNL A   1      38.120  32.238  37.870  1.00  0.00    -0.203 F 
ATOM     58  F   UNL A   1      40.724  37.019  38.168  1.00  0.00    -0.200 F 
ATOM     59  C   UNL A   1      39.250  35.441  39.122  1.00  0.00     0.200 A 
ATOM     60  F   UNL A   1      37.784  33.827  40.032  1.00  0.00    -0.200 F 
ATOM     61  F   UNL A   1      39.104  36.208  40.209  1.00  0.00    -0.200 F 
ENDBRANCH  27  51
BRANCH  39  62
ATOM     62  C   UNL A   1      43.814  28.569  35.129  1.00  0.00     0.064 A 
ATOM     63  C   UNL A   1      43.588  27.486  35.992  1.00  0.00     0.173 A 
ATOM     64  C   UNL A   1      45.136  29.003  34.952  1.00  0.00     0.173 A 
ATOM     65  F   UNL A   1      42.338  27.047  36.211  1.00  0.00    -0.203 F 
ATOM     66  C   UNL A   1      44.641  26.883  36.674  1.00  0.00     0.198 A 
ATOM     67  C   UNL A   1      46.190  28.376  35.607  1.00  0.00     0.198 A 
ATOM     68  F   UNL A   1      45.407  30.032  34.133  1.00  0.00    -0.203 F 
ATOM     69  F   UNL A   1      44.394  25.889  37.537  1.00  0.00    -0.200 F 
ATOM     70  C   UNL A   1      45.941  27.322  36.475  1.00  0.00     0.200 A 
ATOM     71  F   UNL A   1      47.448  28.791  35.403  1.00  0.00    -0.200 F 
ATOM     72  F   UNL A   1      46.954  26.738  37.128  1.00  0.00    -0.200 F 
ENDBRANCH  39  62
ENDBRANCH  13  14
ENDBRANCH   6   8
ENDBRANCH   3   4
ENDBRANCH   2   3
ENDBRANCH   1   2
BRANCH   1  73
ATOM     73  C   UNL A   1      32.849  30.013  26.236  1.00  0.00     0.116 C 
BRANCH  73  74
ATOM     74  N   UNL A   1      33.308  29.782  24.870  1.00  0.00    -0.356 N 
ATOM     75  C   UNL A   1      33.323  28.721  24.000  1.00  0.00     0.226 C 
ATOM     76  H   UNL A   1      33.710  30.590  24.475  1.00  0.00     0.163 HD
ATOM     77  O   UNL A   1      33.566  29.009  22.819  1.00  0.00    -0.274 OA
BRANCH  75  78
ATOM     78  C   UNL A   1      32.941  27.266  24.388  1.00  0.00     0.050 C 
ATOM     79  C   UNL A   1      33.479  26.436  23.186  1.00  0.00     0.017 C 
ATOM     80  C   UNL A   1      33.710  26.754  25.644  1.00  0.00     0.017 C 
ATOM     81  C   UNL A   1      33.439  24.919  23.352  1.00  0.00     0.001 C 
ATOM     82  C   UNL A   1      33.505  25.246  25.870  1.00  0.00     0.001 C 
ATOM     83  C   UNL A   1      34.007  24.436  24.682  1.00  0.00     0.000 C 
BRANCH  78  84
ATOM     84  C   UNL A   1      31.430  27.083  24.667  1.00  0.00     0.023 C 
BRANCH  84  85
ATOM     85  C   UNL A   1      30.403  27.258  23.494  1.00  0.00     0.057 C 
BRANCH  85  86
ATOM     86  C   UNL A   1      29.448  28.434  23.364  1.00  0.00     0.040 A 
ATOM     87  C   UNL A   1      29.911  29.745  23.439  1.00  0.00     0.024 A 
ATOM     88  N   UNL A   1      28.149  28.203  23.126  1.00  0.00    -0.261 NA
ATOM     89  C   UNL A   1      29.004  30.807  23.325  1.00  0.00     0.003 A 
ATOM     90  C   UNL A   1      27.277  29.233  23.020  1.00  0.00     0.111 A 
ATOM     91  C   UNL A   1      27.654  30.550  23.130  1.00  0.00     0.020 A 
ENDBRANCH  85  86
ENDBRANCH  84  85
ENDBRANCH  78  84
ENDBRANCH  75  78
ENDBRANCH  73  74
ENDBRANCH   1  73
TORSDOF 14
ENDMDL
MODEL 2
REMARK VINA RESULT:     -12.5      0.299      7.507
REMARK SMILES O=C(NCCCCNC(=O)C1(CCc2ccccn2)CCCCC1)c1ccc(-c2c3nc(c(-c4c(F)c(F)c(F)c(F)c4F)c4ccc([nH]4)c(-c4c(F)c(F)c(F)c(F)c4F)c4nc(c(-c5c(F)c(F)c(F)c(F)c5F)c5ccc2[nH]5)C=C4)C=C3)cc1
REMARK SMILES IDX 6 1 5 2 4 3 3 4 1 5 2 6 25 8 26 9 87 10 27 11 86 12 28 13
REMARK SMILES IDX 29 14 30 15 80 16 31 17 85 18 79 19 81 20 32 21 84 22 78 23
REMARK SMILES IDX 77 24 33 26 65 27 45 28 64 29 46 30 49 31 63 32 82 33 47 34
REMARK SMILES IDX 48 35 62 37 83 38 50 39 34 40 35 41 43 42 36 43 37 44 41 45
REMARK SMILES IDX 44 46 38 47 39 48 42 49 40 50 66 51 67 52 75 53 68 54 69 55
REMARK SMILES IDX 73 56 76 57 70 58 71 59 74 60 72 61 51 62 52 63 60 64 53 65
REMARK SMILES IDX 54 66 58 67 61 68 55 69 56 70 59 71 57 72 7 73 8 74 9 75
REMARK SMILES IDX 10 77 11 78 20 79 24 80 21 81 23 82 22 83 12 84 13 85 14 86
REMARK SMILES IDX 15 87 19 88 16 89 18 90 17 91
REMARK H PARENT 3 7 81 25 49 36 8 76
REMARK Flexibility Score: inf
ROOT
ATOM      1  C   UNL A   1      31.475  30.633  26.389  1.00  0.00     0.023 C 
ENDROOT
BRANCH   1   2
ATOM      2  C   UNL A   1      31.457  32.145  26.550  1.00  0.00     0.023 C 
BRANCH   2   3
ATOM      3  C   UNL A   1      32.632  32.721  27.300  1.00  0.00     0.116 C 
BRANCH   3   4
ATOM      4  N   UNL A   1      32.444  34.133  27.594  1.00  0.00    -0.352 N 
ATOM      5  O   UNL A   1      32.604  35.995  28.867  1.00  0.00    -0.269 OA
ATOM      6  C   UNL A   1      33.042  34.877  28.578  1.00  0.00     0.251 C 
ATOM      7  H   UNL A   1      31.809  34.614  27.015  1.00  0.00     0.163 HD
BRANCH   6   8
ATOM      8  C   UNL A   1      34.216  34.334  29.292  1.00  0.00     0.039 A 
ATOM      9  C   UNL A   1      34.039  33.576  30.452  1.00  0.00     0.014 A 
ATOM     10  C   UNL A   1      35.501  34.555  28.787  1.00  0.00     0.014 A 
ATOM     11  C   UNL A   1      35.140  33.140  31.171  1.00  0.00     0.010 A 
ATOM     12  C   UNL A   1      36.605  34.013  29.449  1.00  0.00     0.010 A 
ATOM     13  C   UNL A   1      36.429  33.301  30.645  1.00  0.00    -0.014 A 
BRANCH  13  14
ATOM     14  C   UNL A   1      37.551  32.580  31.291  1.00  0.00     0.031 A 
ATOM     15  C   UNL A   1      38.016  32.928  32.671  1.00  0.00     0.074 A 
ATOM     16  C   UNL A   1      38.136  31.583  30.598  1.00  0.00     0.049 A 
ATOM     17  N   UNL A   1      38.992  32.402  33.366  1.00  0.00    -0.248 NA
ATOM     18  C   UNL A   1      37.302  34.012  33.362  1.00  0.00     0.031 C 
ATOM     19  C   UNL A   1      37.763  31.173  29.239  1.00  0.00     0.029 A 
ATOM     20  N   UNL A   1      39.148  30.722  30.932  1.00  0.00    -0.354 N 
ATOM     21  C   UNL A   1      39.025  33.100  34.565  1.00  0.00     0.074 A 
ATOM     22  C   UNL A   1      37.985  34.105  34.496  1.00  0.00     0.031 C 
ATOM     23  C   UNL A   1      38.493  30.110  28.881  1.00  0.00     0.029 A 
ATOM     24  C   UNL A   1      39.445  29.818  29.943  1.00  0.00     0.049 A 
ATOM     25  H   UNL A   1      39.617  30.751  31.798  1.00  0.00     0.167 HD
ATOM     26  C   UNL A   1      39.850  32.908  35.623  1.00  0.00     0.037 A 
ATOM     27  C   UNL A   1      40.400  28.874  29.883  1.00  0.00     0.037 A 
ATOM     28  C   UNL A   1      40.877  31.898  35.671  1.00  0.00     0.049 A 
ATOM     29  C   UNL A   1      41.325  28.717  31.054  1.00  0.00     0.074 A 
ATOM     30  C   UNL A   1      41.751  31.602  36.703  1.00  0.00     0.029 A 
ATOM     31  N   UNL A   1      41.175  31.020  34.636  1.00  0.00    -0.354 N 
ATOM     32  N   UNL A   1      41.330  29.364  32.194  1.00  0.00    -0.248 NA
ATOM     33  C   UNL A   1      42.378  27.705  30.929  1.00  0.00     0.031 C 
ATOM     34  C   UNL A   1      42.612  30.588  36.272  1.00  0.00     0.029 A 
ATOM     35  C   UNL A   1      42.237  30.203  34.996  1.00  0.00     0.049 A 
ATOM     36  H   UNL A   1      40.701  30.983  33.773  1.00  0.00     0.167 HD
ATOM     37  C   UNL A   1      42.373  28.826  32.932  1.00  0.00     0.074 A 
ATOM     38  C   UNL A   1      42.962  27.782  32.116  1.00  0.00     0.031 C 
ATOM     39  C   UNL A   1      42.806  29.167  34.169  1.00  0.00     0.037 A 
BRANCH  26  40
ATOM     40  C   UNL A   1      39.697  33.824  36.804  1.00  0.00     0.064 A 
ATOM     41  C   UNL A   1      40.317  35.082  36.851  1.00  0.00     0.173 A 
ATOM     42  C   UNL A   1      38.880  33.457  37.886  1.00  0.00     0.173 A 
ATOM     43  F   UNL A   1      41.115  35.480  35.850  1.00  0.00    -0.203 F 
ATOM     44  C   UNL A   1      40.145  35.927  37.945  1.00  0.00     0.198 A 
ATOM     45  C   UNL A   1      38.687  34.316  38.965  1.00  0.00     0.198 A 
ATOM     46  F   UNL A   1      38.260  32.268  37.892  1.00  0.00    -0.203 F 
ATOM     47  F   UNL A   1      40.784  37.104  37.989  1.00  0.00    -0.200 F 
ATOM     48  C   UNL A   1      39.324  35.546  38.998  1.00  0.00     0.200 A 
ATOM     49  F   UNL A   1      37.884  33.953  39.973  1.00  0.00    -0.200 F 
ATOM     50  F   UNL A   1      39.154  36.364  40.046  1.00  0.00    -0.200 F 
ENDBRANCH  26  40
BRANCH  27  51
ATOM     51  C   UNL A   1      40.532  28.029  28.668  1.00  0.00     0.064 A 
ATOM     52  C   UNL A   1      39.876  26.795  28.573  1.00  0.00     0.173 A 
ATOM     53  C   UNL A   1      41.304  28.444  27.572  1.00  0.00     0.173 A 
ATOM     54  F   UNL A   1      39.138  26.347  29.599  1.00  0.00    -0.203 F 
ATOM     55  C   UNL A   1      40.003  25.999  27.436  1.00  0.00     0.198 A 
ATOM     56  C   UNL A   1      41.401  27.664  26.422  1.00  0.00     0.198 A 
ATOM     57  F   UNL A   1      41.945  29.621  27.608  1.00  0.00    -0.203 F 
ATOM     58  F   UNL A   1      39.402  24.802  27.389  1.00  0.00    -0.200 F 
ATOM     59  C   UNL A   1      40.759  26.437  26.359  1.00  0.00     0.200 A 
ATOM     60  F   UNL A   1      42.115  28.103  25.376  1.00  0.00    -0.200 F 
ATOM     61  F   UNL A   1      40.873  25.676  25.263  1.00  0.00    -0.200 F 
ENDBRANCH  27  51
BRANCH  39  62
ATOM     62  C   UNL A   1      43.951  28.374  34.729  1.00  0.00     0.064 A 
ATOM     63  C   UNL A   1      45.282  28.788  34.574  1.00  0.00     0.173 A 
ATOM     64  C   UNL A   1      43.708  27.193  35.446  1.00  0.00     0.173 A 
ATOM     65  F   UNL A   1      45.567  29.900  33.879  1.00  0.00    -0.203 F 
ATOM     66  C   UNL A   1      46.330  28.033  35.092  1.00  0.00     0.198 A 
ATOM     67  C   UNL A   1      44.756  26.459  35.993  1.00  0.00     0.198 A 
ATOM     68  F   UNL A   1      42.452  26.756  35.626  1.00  0.00    -0.203 F 
ATOM     69  F   UNL A   1      47.596  28.416  34.882  1.00  0.00    -0.200 F 
ATOM     70  C   UNL A   1      46.066  26.875  35.807  1.00  0.00     0.200 A 
ATOM     71  F   UNL A   1      44.499  25.348  36.696  1.00  0.00    -0.200 F 
ATOM     72  F   UNL A   1      47.076  26.151  36.309  1.00  0.00    -0.200 F 
ENDBRANCH  39  62
ENDBRANCH  13  14
ENDBRANCH   6   8
ENDBRANCH   3   4
ENDBRANCH   2   3
ENDBRANCH   1   2
BRANCH   1  73
ATOM     73  C   UNL A   1      32.828  29.930  26.149  1.00  0.00     0.116 C 
BRANCH  73  74
ATOM     74  N   UNL A   1      33.308  29.767  24.781  1.00  0.00    -0.356 N 
ATOM     75  C   UNL A   1      33.386  28.736  23.879  1.00  0.00     0.226 C 
ATOM     76  H   UNL A   1      33.666  30.607  24.413  1.00  0.00     0.163 HD
ATOM     77  O   UNL A   1      33.620  29.072  22.709  1.00  0.00    -0.274 OA
BRANCH  75  78
ATOM     78  C   UNL A   1      33.081  27.250  24.220  1.00  0.00     0.050 C 
ATOM     79  C   UNL A   1      33.724  26.484  23.026  1.00  0.00     0.017 C 
ATOM     80  C   UNL A   1      33.827  26.759  25.498  1.00  0.00     0.017 C 
ATOM     81  C   UNL A   1      33.774  24.964  23.159  1.00  0.00     0.001 C 
ATOM     82  C   UNL A   1      33.711  25.236  25.685  1.00  0.00     0.001 C 
ATOM     83  C   UNL A   1      34.314  24.488  24.504  1.00  0.00     0.000 C 
BRANCH  78  84
ATOM     84  C   UNL A   1      31.575  26.965  24.427  1.00  0.00     0.023 C 
BRANCH  84  85
ATOM     85  C   UNL A   1      30.574  27.208  23.244  1.00  0.00     0.057 C 
BRANCH  85  86
ATOM     86  C   UNL A   1      29.527  28.310  23.224  1.00  0.00     0.040 A 
ATOM     87  C   UNL A   1      29.898  29.652  23.254  1.00  0.00     0.024 A 
ATOM     88  N   UNL A   1      28.230  27.984  23.128  1.00  0.00    -0.261 NA
ATOM     89  C   UNL A   1      28.909  30.644  23.243  1.00  0.00     0.003 A 
ATOM     90  C   UNL A   1      27.279  28.946  23.123  1.00  0.00     0.111 A 
ATOM     91  C   UNL A   1      27.568  30.288  23.196  1.00  0.00     0.020 A 
ENDBRANCH  85  86
ENDBRANCH  84  85
ENDBRANCH  78  84
ENDBRANCH  75  78
ENDBRANCH  73  74
ENDBRANCH   1  73
TORSDOF 14
ENDMDL
MODEL 3
REMARK VINA RESULT:     -12.5      0.669      1.788
REMARK SMILES O=C(NCCCCNC(=O)C1(CCc2ccccn2)CCCCC1)c1ccc(-c2c3nc(c(-c4c(F)c(F)c(F)c(F)c4F)c4ccc([nH]4)c(-c4c(F)c(F)c(F)c(F)c4F)c4nc(c(-c5c(F)c(F)c(F)c(F)c5F)c5ccc2[nH]5)C=C4)C=C3)cc1
REMARK SMILES IDX 6 1 5 2 4 3 3 4 1 5 2 6 25 8 26 9 87 10 27 11 86 12 28 13
REMARK SMILES IDX 29 14 30 15 80 16 31 17 85 18 79 19 81 20 32 21 84 22 78 23
REMARK SMILES IDX 77 24 33 26 65 27 45 28 64 29 46 30 49 31 63 32 82 33 47 34
REMARK SMILES IDX 48 35 62 37 83 38 50 39 34 40 35 41 43 42 36 43 37 44 41 45
REMARK SMILES IDX 44 46 38 47 39 48 42 49 40 50 66 51 67 52 75 53 68 54 69 55
REMARK SMILES IDX 73 56 76 57 70 58 71 59 74 60 72 61 51 62 52 63 60 64 53 65
REMARK SMILES IDX 54 66 58 67 61 68 55 69 56 70 59 71 57 72 7 73 8 74 9 75
REMARK SMILES IDX 10 77 11 78 20 79 24 80 21 81 23 82 22 83 12 84 13 85 14 86
REMARK SMILES IDX 15 87 19 88 16 89 18 90 17 91
REMARK H PARENT 3 7 81 25 49 36 8 76
REMARK Flexibility Score: inf
ROOT
ATOM      1  C   UNL A   1      31.534  30.677  26.294  1.00  0.00     0.023 C 
ENDROOT
BRANCH   1   2
ATOM      2  C   UNL A   1      31.437  32.168  26.575  1.00  0.00     0.023 C 
BRANCH   2   3
ATOM      3  C   UNL A   1      32.617  32.757  27.306  1.00  0.00     0.116 C 
BRANCH   3   4
ATOM      4  N   UNL A   1      32.411  34.163  27.618  1.00  0.00    -0.352 N 
ATOM      5  O   UNL A   1      32.546  36.009  28.916  1.00  0.00    -0.269 OA
ATOM      6  C   UNL A   1      32.998  34.901  28.613  1.00  0.00     0.251 C 
ATOM      7  H   UNL A   1      31.772  34.643  27.044  1.00  0.00     0.163 HD
BRANCH   6   8
ATOM      8  C   UNL A   1      34.177  34.364  29.323  1.00  0.00     0.039 A 
ATOM      9  C   UNL A   1      34.010  33.642  30.508  1.00  0.00     0.014 A 
ATOM     10  C   UNL A   1      35.455  34.551  28.789  1.00  0.00     0.014 A 
ATOM     11  C   UNL A   1      35.117  33.212  31.220  1.00  0.00     0.010 A 
ATOM     12  C   UNL A   1      36.563  34.014  29.448  1.00  0.00     0.010 A 
ATOM     13  C   UNL A   1      36.400  33.340  30.667  1.00  0.00    -0.014 A 
BRANCH  13  14
ATOM     14  C   UNL A   1      37.523  32.623  31.316  1.00  0.00     0.031 A 
ATOM     15  C   UNL A   1      38.254  31.517  30.620  1.00  0.00     0.074 A 
ATOM     16  C   UNL A   1      37.878  33.010  32.558  1.00  0.00     0.049 A 
ATOM     17  N   UNL A   1      39.246  30.784  31.060  1.00  0.00    -0.248 NA
ATOM     18  C   UNL A   1      37.815  31.180  29.258  1.00  0.00     0.031 C 
ATOM     19  C   UNL A   1      37.220  34.072  33.327  1.00  0.00     0.029 A 
ATOM     20  N   UNL A   1      38.880  32.579  33.387  1.00  0.00    -0.354 N 
ATOM     21  C   UNL A   1      39.537  29.889  30.041  1.00  0.00     0.074 A 
ATOM     22  C   UNL A   1      38.601  30.152  28.968  1.00  0.00     0.031 C 
ATOM     23  C   UNL A   1      37.867  34.247  34.485  1.00  0.00     0.029 A 
ATOM     24  C   UNL A   1      38.928  33.254  34.581  1.00  0.00     0.049 A 
ATOM     25  H   UNL A   1      39.504  31.856  33.148  1.00  0.00     0.167 HD
ATOM     26  C   UNL A   1      40.503  28.938  30.013  1.00  0.00     0.037 A 
ATOM     27  C   UNL A   1      39.719  33.074  35.653  1.00  0.00     0.037 A 
ATOM     28  C   UNL A   1      41.426  28.695  31.094  1.00  0.00     0.049 A 
ATOM     29  C   UNL A   1      40.750  31.984  35.605  1.00  0.00     0.074 A 
ATOM     30  C   UNL A   1      42.458  27.775  31.158  1.00  0.00     0.029 A 
ATOM     31  N   UNL A   1      41.424  29.374  32.306  1.00  0.00    -0.354 N 
ATOM     32  N   UNL A   1      41.035  31.160  34.627  1.00  0.00    -0.248 NA
ATOM     33  C   UNL A   1      41.563  31.796  36.811  1.00  0.00     0.031 C 
ATOM     34  C   UNL A   1      43.040  27.857  32.427  1.00  0.00     0.029 A 
ATOM     35  C   UNL A   1      42.418  28.873  33.134  1.00  0.00     0.049 A 
ATOM     36  H   UNL A   1      40.807  30.105  32.543  1.00  0.00     0.167 HD
ATOM     37  C   UNL A   1      42.073  30.367  35.089  1.00  0.00     0.074 A 
ATOM     38  C   UNL A   1      42.382  30.827  36.429  1.00  0.00     0.031 C 
ATOM     39  C   UNL A   1      42.711  29.348  34.463  1.00  0.00     0.037 A 
BRANCH  26  40
ATOM     40  C   UNL A   1      40.595  28.071  28.790  1.00  0.00     0.064 A 
ATOM     41  C   UNL A   1      39.897  26.858  28.687  1.00  0.00     0.173 A 
ATOM     42  C   UNL A   1      41.358  28.481  27.684  1.00  0.00     0.173 A 
ATOM     43  F   UNL A   1      39.161  26.412  29.716  1.00  0.00    -0.203 F 
ATOM     44  C   UNL A   1      39.978  26.078  27.536  1.00  0.00     0.198 A 
ATOM     45  C   UNL A   1      41.413  27.714  26.524  1.00  0.00     0.198 A 
ATOM     46  F   UNL A   1      42.043  29.634  27.726  1.00  0.00    -0.203 F 
ATOM     47  F   UNL A   1      39.339  24.901  27.479  1.00  0.00    -0.200 F 
ATOM     48  C   UNL A   1      40.730  26.510  26.452  1.00  0.00     0.200 A 
ATOM     49  F   UNL A   1      42.128  28.140  25.474  1.00  0.00    -0.200 F 
ATOM     50  F   UNL A   1      40.799  25.762  25.342  1.00  0.00    -0.200 F 
ENDBRANCH  26  40
BRANCH  27  51
ATOM     51  C   UNL A   1      39.550  33.934  36.853  1.00  0.00     0.064 A 
ATOM     52  C   UNL A   1      40.148  35.198  36.925  1.00  0.00     0.173 A 
ATOM     53  C   UNL A   1      38.774  33.515  37.945  1.00  0.00     0.173 A 
ATOM     54  F   UNL A   1      40.911  35.638  35.913  1.00  0.00    -0.203 F 
ATOM     55  C   UNL A   1      39.994  36.003  38.052  1.00  0.00     0.198 A 
ATOM     56  C   UNL A   1      38.591  34.335  39.056  1.00  0.00     0.198 A 
ATOM     57  F   UNL A   1      38.172  32.318  37.922  1.00  0.00    -0.203 F 
ATOM     58  F   UNL A   1      40.614  37.190  38.115  1.00  0.00    -0.200 F 
ATOM     59  C   UNL A   1      39.209  35.575  39.113  1.00  0.00     0.200 A 
ATOM     60  F   UNL A   1      37.815  33.925  40.068  1.00  0.00    -0.200 F 
ATOM     61  F   UNL A   1      39.054  36.353  40.192  1.00  0.00    -0.200 F 
ENDBRANCH  27  51
BRANCH  39  62
ATOM     62  C   UNL A   1      43.833  28.689  35.212  1.00  0.00     0.064 A 
ATOM     63  C   UNL A   1      45.158  29.136  35.101  1.00  0.00     0.173 A 
ATOM     64  C   UNL A   1      43.573  27.607  36.065  1.00  0.00     0.173 A 
ATOM     65  F   UNL A   1      45.461  30.155  34.281  1.00  0.00    -0.203 F 
ATOM     66  C   UNL A   1      46.186  28.504  35.794  1.00  0.00     0.198 A 
ATOM     67  C   UNL A   1      44.597  27.000  36.784  1.00  0.00     0.198 A 
ATOM     68  F   UNL A   1      42.322  27.144  36.209  1.00  0.00    -0.203 F 
ATOM     69  F   UNL A   1      47.451  28.911  35.628  1.00  0.00    -0.200 F 
ATOM     70  C   UNL A   1      45.904  27.443  36.641  1.00  0.00     0.200 A 
ATOM     71  F   UNL A   1      44.321  25.984  37.614  1.00  0.00    -0.200 F 
ATOM     72  F   UNL A   1      46.894  26.839  37.312  1.00  0.00    -0.200 F 
ENDBRANCH  39  62
ENDBRANCH  13  14
ENDBRANCH   6   8
ENDBRANCH   3   4
ENDBRANCH   2   3
ENDBRANCH   1   2
BRANCH   1  73
ATOM     73  C   UNL A   1      32.924  30.061  26.027  1.00  0.00     0.116 C 
BRANCH  73  74
ATOM     74  N   UNL A   1      33.283  29.691  24.662  1.00  0.00    -0.356 N 
ATOM     75  C   UNL A   1      32.872  28.746  23.756  1.00  0.00     0.226 C 
ATOM     76  H   UNL A   1      34.000  30.261  24.301  1.00  0.00     0.163 HD
ATOM     77  O   UNL A   1      33.249  28.932  22.589  1.00  0.00    -0.274 OA
BRANCH  75  78
ATOM     78  C   UNL A   1      31.897  27.582  24.086  1.00  0.00     0.050 C 
ATOM     79  C   UNL A   1      32.206  26.545  22.967  1.00  0.00     0.017 C 
ATOM     80  C   UNL A   1      32.236  26.875  25.435  1.00  0.00     0.017 C 
ATOM     81  C   UNL A   1      31.545  25.178  23.124  1.00  0.00     0.001 C 
ATOM     82  C   UNL A   1      31.423  25.583  25.629  1.00  0.00     0.001 C 
ATOM     83  C   UNL A   1      31.704  24.580  24.519  1.00  0.00     0.000 C 
BRANCH  78  84
ATOM     84  C   UNL A   1      30.417  28.024  24.159  1.00  0.00     0.023 C 
BRANCH  84  85
ATOM     85  C   UNL A   1      29.663  28.413  22.839  1.00  0.00     0.057 C 
BRANCH  85  86
ATOM     86  C   UNL A   1      29.135  29.806  22.536  1.00  0.00     0.040 A 
ATOM     87  C   UNL A   1      29.126  30.797  23.513  1.00  0.00     0.024 A 
ATOM     88  N   UNL A   1      28.716  30.095  21.296  1.00  0.00    -0.261 NA
ATOM     89  C   UNL A   1      28.625  32.069  23.205  1.00  0.00     0.003 A 
ATOM     90  C   UNL A   1      28.229  31.323  21.005  1.00  0.00     0.111 A 
ATOM     91  C   UNL A   1      28.147  32.337  21.930  1.00  0.00     0.020 A 
ENDBRANCH  85  86
ENDBRANCH  84  85
ENDBRANCH  78  84
ENDBRANCH  75  78
ENDBRANCH  73  74
ENDBRANCH   1  73
TORSDOF 14
ENDMDL
