MODEL 1
REMARK VINA RESULT:     -13.0      0.000      0.000
REMARK SMILES C[C@]1(CNC(=O)N2CCOC[C@H]2C(=O)NCCCCNC(=O)c2ccc(-c3c4nc(c(-c5c(F)c(F)c(F)c(F)c5F)c5ccc([nH]5)c(-c5c(F)c(F)c(F)c(F)c5F)c5nc(c(-c6c(F)c(F)c(F)c(F)c6F)c6ccc3[nH]6)C=C5)C=C4)cc2)CCCO1
REMARK SMILES IDX 17 1 16 2 15 3 13 4 14 5 12 7 7 8 8 9 9 10 11 11 10 12 5 13
REMARK SMILES IDX 4 14 6 16 3 17 2 18 1 19 86 20 89 21 87 22 88 23 18 24 19 25
REMARK SMILES IDX 20 26 21 27 22 29 23 30 24 31 85 32 25 33 84 34 26 35 27 36
REMARK SMILES IDX 28 37 78 38 29 39 83 40 77 41 79 42 30 43 82 44 76 45 75 46
REMARK SMILES IDX 31 48 63 49 43 50 62 51 44 52 47 53 61 54 80 55 45 56 46 57
REMARK SMILES IDX 60 59 81 60 48 61 32 62 33 63 41 64 34 65 35 66 39 67 42 68
REMARK SMILES IDX 36 69 37 70 40 71 38 72 64 73 65 74 73 75 66 76 67 77 71 78
REMARK SMILES IDX 74 79 68 80 69 81 72 82 70 83 49 84 50 85 58 86 51 87 52 88
REMARK SMILES IDX 56 89 59 90 53 91 54 92 57 93 55 94
REMARK H PARENT 15 6 4 15 20 28 79 47 47 58
REMARK Flexibility Score: inf
ROOT
ATOM      1  C   UNL A   1      32.214  30.448  26.651  1.00  0.00     0.023 C 
ENDROOT
BRANCH   1   2
ATOM      2  C   UNL A   1      31.776  29.815  25.324  1.00  0.00     0.116 C 
BRANCH   2   3
ATOM      3  N   UNL A   1      32.906  29.532  24.460  1.00  0.00    -0.354 N 
ATOM      4  C   UNL A   1      33.365  28.418  23.829  1.00  0.00     0.245 C 
ATOM      5  O   UNL A   1      34.331  28.626  23.079  1.00  0.00    -0.273 OA
ATOM      6  H   UNL A   1      33.465  30.325  24.291  1.00  0.00     0.163 HD
BRANCH   4   7
ATOM      7  C   UNL A   1      32.774  26.982  23.940  1.00  0.00     0.202 C 
ATOM      8  N   UNL A   1      31.667  26.605  23.033  1.00  0.00    -0.308 N 
ATOM      9  C   UNL A   1      32.114  26.074  21.767  1.00  0.00     0.151 C 
ATOM     10  C   UNL A   1      33.011  24.866  22.000  1.00  0.00     0.182 C 
ATOM     11  C   UNL A   1      33.833  25.860  24.011  1.00  0.00     0.195 C 
ATOM     12  O   UNL A   1      34.176  25.269  22.742  1.00  0.00    -0.377 OA
BRANCH   8  13
ATOM     13  C   UNL A   1      30.384  26.737  23.467  1.00  0.00     0.318 C 
ATOM     14  N   UNL A   1      29.665  27.861  23.252  1.00  0.00    -0.335 N 
ATOM     15  H   UNL A   1      28.887  27.934  23.851  1.00  0.00     0.165 HD
ATOM     16  O   UNL A   1      29.804  25.828  24.063  1.00  0.00    -0.249 OA
BRANCH  14  17
ATOM     17  C   UNL A   1      29.777  28.990  22.334  1.00  0.00     0.152 C 
BRANCH  17  18
ATOM     18  C   UNL A   1      28.571  29.952  22.316  1.00  0.00     0.083 C 
ATOM     19  C   UNL A   1      27.335  29.295  22.934  1.00  0.00     0.044 C 
ATOM     20  C   UNL A   1      28.939  31.261  23.028  1.00  0.00     0.039 C 
ATOM     21  O   UNL A   1      28.259  30.342  20.964  1.00  0.00    -0.373 OA
ATOM     22  C   UNL A   1      28.081  32.283  22.328  1.00  0.00     0.031 C 
ATOM     23  C   UNL A   1      28.028  31.755  20.911  1.00  0.00     0.161 C 
ENDBRANCH  17  18
ENDBRANCH  14  17
ENDBRANCH   8  13
ENDBRANCH   4   7
ENDBRANCH   2   3
ENDBRANCH   1   2
BRANCH   1  24
ATOM     24  C   UNL A   1      31.775  31.888  26.869  1.00  0.00     0.023 C 
BRANCH  24  25
ATOM     25  C   UNL A   1      32.890  32.822  27.314  1.00  0.00     0.116 C 
BRANCH  25  26
ATOM     26  N   UNL A   1      32.453  34.168  27.667  1.00  0.00    -0.352 N 
ATOM     27  C   UNL A   1      32.998  35.003  28.618  1.00  0.00     0.251 C 
ATOM     28  H   UNL A   1      31.680  34.521  27.168  1.00  0.00     0.163 HD
ATOM     29  O   UNL A   1      32.511  36.098  28.862  1.00  0.00    -0.269 OA
BRANCH  27  30
ATOM     30  C   UNL A   1      34.162  34.511  29.383  1.00  0.00     0.039 A 
ATOM     31  C   UNL A   1      33.945  33.823  30.578  1.00  0.00     0.014 A 
ATOM     32  C   UNL A   1      35.443  34.612  28.837  1.00  0.00     0.014 A 
ATOM     33  C   UNL A   1      35.010  33.156  31.183  1.00  0.00     0.010 A 
ATOM     34  C   UNL A   1      36.477  33.868  29.386  1.00  0.00     0.010 A 
ATOM     35  C   UNL A   1      36.272  33.133  30.564  1.00  0.00    -0.014 A 
BRANCH  35  36
ATOM     36  C   UNL A   1      37.406  32.369  31.139  1.00  0.00     0.031 A 
ATOM     37  C   UNL A   1      37.899  32.704  32.516  1.00  0.00     0.074 A 
ATOM     38  C   UNL A   1      38.041  31.441  30.396  1.00  0.00     0.049 A 
ATOM     39  N   UNL A   1      38.934  32.236  33.165  1.00  0.00    -0.248 NA
ATOM     40  C   UNL A   1      37.151  33.740  33.248  1.00  0.00     0.031 C 
ATOM     41  C   UNL A   1      37.696  31.069  29.022  1.00  0.00     0.029 A 
ATOM     42  N   UNL A   1      39.118  30.646  30.694  1.00  0.00    -0.354 N 
ATOM     43  C   UNL A   1      38.976  32.940  34.361  1.00  0.00     0.074 A 
ATOM     44  C   UNL A   1      37.904  33.910  34.323  1.00  0.00     0.031 C 
ATOM     45  C   UNL A   1      38.523  30.095  28.610  1.00  0.00     0.029 A 
ATOM     46  C   UNL A   1      39.474  29.795  29.676  1.00  0.00     0.049 A 
ATOM     47  H   UNL A   1      39.591  30.681  31.557  1.00  0.00     0.167 HD
ATOM     48  C   UNL A   1      39.812  32.771  35.412  1.00  0.00     0.037 A 
ATOM     49  C   UNL A   1      40.454  28.874  29.618  1.00  0.00     0.037 A 
ATOM     50  C   UNL A   1      40.845  31.773  35.468  1.00  0.00     0.049 A 
ATOM     51  C   UNL A   1      41.346  28.677  30.813  1.00  0.00     0.074 A 
ATOM     52  C   UNL A   1      41.711  31.479  36.505  1.00  0.00     0.029 A 
ATOM     53  N   UNL A   1      41.142  30.896  34.434  1.00  0.00    -0.354 N 
ATOM     54  N   UNL A   1      41.340  29.308  31.963  1.00  0.00    -0.248 NA
ATOM     55  C   UNL A   1      42.376  27.634  30.706  1.00  0.00     0.031 C 
ATOM     56  C   UNL A   1      42.548  30.438  36.092  1.00  0.00     0.029 A 
ATOM     57  C   UNL A   1      42.180  30.059  34.810  1.00  0.00     0.049 A 
ATOM     58  H   UNL A   1      40.683  30.871  33.563  1.00  0.00     0.167 HD
ATOM     59  C   UNL A   1      42.337  28.717  32.727  1.00  0.00     0.074 A 
ATOM     60  C   UNL A   1      42.924  27.672  31.913  1.00  0.00     0.031 C 
ATOM     61  C   UNL A   1      42.730  29.011  33.991  1.00  0.00     0.037 A 
BRANCH  48  62
ATOM     62  C   UNL A   1      39.623  33.682  36.589  1.00  0.00     0.064 A 
ATOM     63  C   UNL A   1      38.828  33.309  37.685  1.00  0.00     0.173 A 
ATOM     64  C   UNL A   1      40.232  34.945  36.621  1.00  0.00     0.173 A 
ATOM     65  F   UNL A   1      38.208  32.119  37.695  1.00  0.00    -0.203 F 
ATOM     66  C   UNL A   1      38.619  34.182  38.749  1.00  0.00     0.198 A 
ATOM     67  C   UNL A   1      40.046  35.802  37.702  1.00  0.00     0.198 A 
ATOM     68  F   UNL A   1      41.003  35.350  35.601  1.00  0.00    -0.203 F 
ATOM     69  F   UNL A   1      37.803  33.828  39.752  1.00  0.00    -0.200 F 
ATOM     70  C   UNL A   1      39.231  35.425  38.759  1.00  0.00     0.200 A 
ATOM     71  F   UNL A   1      40.646  37.001  37.716  1.00  0.00    -0.200 F 
ATOM     72  F   UNL A   1      39.025  36.266  39.782  1.00  0.00    -0.200 F 
ENDBRANCH  48  62
BRANCH  49  73
ATOM     73  C   UNL A   1      40.605  28.024  28.410  1.00  0.00     0.064 A 
ATOM     74  C   UNL A   1      39.973  26.774  28.335  1.00  0.00     0.173 A 
ATOM     75  C   UNL A   1      41.373  28.434  27.311  1.00  0.00     0.173 A 
ATOM     76  F   UNL A   1      39.244  26.331  29.370  1.00  0.00    -0.203 F 
ATOM     77  C   UNL A   1      40.120  25.958  27.215  1.00  0.00     0.198 A 
ATOM     78  C   UNL A   1      41.499  27.627  26.182  1.00  0.00     0.198 A 
ATOM     79  F   UNL A   1      41.991  29.624  27.331  1.00  0.00    -0.203 F 
ATOM     80  F   UNL A   1      39.537  24.752  27.187  1.00  0.00    -0.200 F 
ATOM     81  C   UNL A   1      40.878  26.388  26.137  1.00  0.00     0.200 A 
ATOM     82  F   UNL A   1      42.224  28.049  25.136  1.00  0.00    -0.200 F 
ATOM     83  F   UNL A   1      41.017  25.604  25.059  1.00  0.00    -0.200 F 
ENDBRANCH  49  73
BRANCH  61  84
ATOM     84  C   UNL A   1      43.811  28.162  34.587  1.00  0.00     0.064 A 
ATOM     85  C   UNL A   1      43.524  26.957  35.244  1.00  0.00     0.173 A 
ATOM     86  C   UNL A   1      45.157  28.539  34.457  1.00  0.00     0.173 A 
ATOM     87  F   UNL A   1      42.251  26.564  35.406  1.00  0.00    -0.203 F 
ATOM     88  C   UNL A   1      44.545  26.169  35.769  1.00  0.00     0.198 A 
ATOM     89  C   UNL A   1      46.176  27.735  34.961  1.00  0.00     0.198 A 
ATOM     90  F   UNL A   1      45.482  29.679  33.832  1.00  0.00    -0.203 F 
ATOM     91  F   UNL A   1      44.245  25.042  36.429  1.00  0.00    -0.200 F 
ATOM     92  C   UNL A   1      45.869  26.555  35.621  1.00  0.00     0.200 A 
ATOM     93  F   UNL A   1      47.455  28.104  34.808  1.00  0.00    -0.200 F 
ATOM     94  F   UNL A   1      46.850  25.792  36.121  1.00  0.00    -0.200 F 
ENDBRANCH  61  84
ENDBRANCH  35  36
ENDBRANCH  27  30
ENDBRANCH  25  26
ENDBRANCH  24  25
ENDBRANCH   1  24
TORSDOF 14
ENDMDL
MODEL 2
REMARK VINA RESULT:     -13.0      0.221      1.608
REMARK SMILES C[C@]1(CNC(=O)N2CCOC[C@H]2C(=O)NCCCCNC(=O)c2ccc(-c3c4nc(c(-c5c(F)c(F)c(F)c(F)c5F)c5ccc([nH]5)c(-c5c(F)c(F)c(F)c(F)c5F)c5nc(c(-c6c(F)c(F)c(F)c(F)c6F)c6ccc3[nH]6)C=C5)C=C4)cc2)CCCO1
REMARK SMILES IDX 17 1 16 2 15 3 13 4 14 5 12 7 7 8 8 9 9 10 11 11 10 12 5 13
REMARK SMILES IDX 4 14 6 16 3 17 2 18 1 19 86 20 89 21 87 22 88 23 18 24 19 25
REMARK SMILES IDX 20 26 21 27 22 29 23 30 24 31 85 32 25 33 84 34 26 35 27 36
REMARK SMILES IDX 28 37 78 38 29 39 83 40 77 41 79 42 30 43 82 44 76 45 75 46
REMARK SMILES IDX 31 48 63 49 43 50 62 51 44 52 47 53 61 54 80 55 45 56 46 57
REMARK SMILES IDX 60 59 81 60 48 61 32 62 33 63 41 64 34 65 35 66 39 67 42 68
REMARK SMILES IDX 36 69 37 70 40 71 38 72 64 73 65 74 73 75 66 76 67 77 71 78
REMARK SMILES IDX 74 79 68 80 69 81 72 82 70 83 49 84 50 85 58 86 51 87 52 88
REMARK SMILES IDX 56 89 59 90 53 91 54 92 57 93 55 94
REMARK H PARENT 15 6 4 15 20 28 79 47 47 58
REMARK Flexibility Score: inf
ROOT
ATOM      1  C   UNL A   1      32.142  30.614  26.683  1.00  0.00     0.023 C 
ENDROOT
BRANCH   1   2
ATOM      2  C   UNL A   1      31.650  29.903  25.415  1.00  0.00     0.116 C 
BRANCH   2   3
ATOM      3  N   UNL A   1      32.739  29.598  24.508  1.00  0.00    -0.354 N 
ATOM      4  C   UNL A   1      33.170  28.469  23.883  1.00  0.00     0.245 C 
ATOM      5  O   UNL A   1      34.100  28.658  23.085  1.00  0.00    -0.273 OA
ATOM      6  H   UNL A   1      33.291  30.386  24.295  1.00  0.00     0.163 HD
BRANCH   4   7
ATOM      7  C   UNL A   1      32.584  27.036  24.055  1.00  0.00     0.202 C 
ATOM      8  N   UNL A   1      31.539  26.586  23.109  1.00  0.00    -0.308 N 
ATOM      9  C   UNL A   1      32.068  25.976  21.912  1.00  0.00     0.151 C 
ATOM     10  C   UNL A   1      32.958  24.798  22.282  1.00  0.00     0.182 C 
ATOM     11  C   UNL A   1      33.646  25.935  24.267  1.00  0.00     0.195 C 
ATOM     12  O   UNL A   1      34.072  25.264  23.065  1.00  0.00    -0.377 OA
BRANCH   8  13
ATOM     13  C   UNL A   1      30.231  26.731  23.453  1.00  0.00     0.318 C 
ATOM     14  N   UNL A   1      29.553  27.879  23.234  1.00  0.00    -0.335 N 
ATOM     15  H   UNL A   1      28.735  27.948  23.777  1.00  0.00     0.165 HD
ATOM     16  O   UNL A   1      29.589  25.813  23.967  1.00  0.00    -0.249 OA
BRANCH  14  17
ATOM     17  C   UNL A   1      29.756  29.042  22.373  1.00  0.00     0.152 C 
BRANCH  17  18
ATOM     18  C   UNL A   1      28.565  30.018  22.285  1.00  0.00     0.083 C 
ATOM     19  C   UNL A   1      27.342  29.459  23.017  1.00  0.00     0.044 C 
ATOM     20  C   UNL A   1      28.976  31.393  22.828  1.00  0.00     0.039 C 
ATOM     21  O   UNL A   1      28.210  30.254  20.908  1.00  0.00    -0.373 OA
ATOM     22  C   UNL A   1      28.109  32.343  22.043  1.00  0.00     0.031 C 
ATOM     23  C   UNL A   1      27.998  31.656  20.699  1.00  0.00     0.161 C 
ENDBRANCH  17  18
ENDBRANCH  14  17
ENDBRANCH   8  13
ENDBRANCH   4   7
ENDBRANCH   2   3
ENDBRANCH   1   2
BRANCH   1  24
ATOM     24  C   UNL A   1      31.775  32.085  26.795  1.00  0.00     0.023 C 
BRANCH  24  25
ATOM     25  C   UNL A   1      32.856  32.955  27.419  1.00  0.00     0.116 C 
BRANCH  25  26
ATOM     26  N   UNL A   1      32.430  34.307  27.760  1.00  0.00    -0.352 N 
ATOM     27  C   UNL A   1      32.985  35.148  28.701  1.00  0.00     0.251 C 
ATOM     28  H   UNL A   1      31.658  34.660  27.261  1.00  0.00     0.163 HD
ATOM     29  O   UNL A   1      32.507  36.249  28.936  1.00  0.00    -0.269 OA
BRANCH  27  30
ATOM     30  C   UNL A   1      34.148  34.655  29.466  1.00  0.00     0.039 A 
ATOM     31  C   UNL A   1      33.934  34.015  30.688  1.00  0.00     0.014 A 
ATOM     32  C   UNL A   1      35.423  34.707  28.899  1.00  0.00     0.014 A 
ATOM     33  C   UNL A   1      34.993  33.344  31.300  1.00  0.00     0.010 A 
ATOM     34  C   UNL A   1      36.448  33.958  29.459  1.00  0.00     0.010 A 
ATOM     35  C   UNL A   1      36.244  33.270  30.664  1.00  0.00    -0.014 A 
BRANCH  35  36
ATOM     36  C   UNL A   1      37.369  32.499  31.249  1.00  0.00     0.031 A 
ATOM     37  C   UNL A   1      37.860  32.842  32.626  1.00  0.00     0.074 A 
ATOM     38  C   UNL A   1      37.997  31.560  30.517  1.00  0.00     0.049 A 
ATOM     39  N   UNL A   1      38.888  32.368  33.282  1.00  0.00    -0.248 NA
ATOM     40  C   UNL A   1      37.120  33.890  33.347  1.00  0.00     0.031 C 
ATOM     41  C   UNL A   1      37.654  31.181  29.144  1.00  0.00     0.029 A 
ATOM     42  N   UNL A   1      39.066  30.757  30.824  1.00  0.00    -0.354 N 
ATOM     43  C   UNL A   1      38.933  33.082  34.472  1.00  0.00     0.074 A 
ATOM     44  C   UNL A   1      37.870  34.061  34.422  1.00  0.00     0.031 C 
ATOM     45  C   UNL A   1      38.473  30.195  28.742  1.00  0.00     0.029 A 
ATOM     46  C   UNL A   1      39.418  29.894  29.815  1.00  0.00     0.049 A 
ATOM     47  H   UNL A   1      39.537  30.795  31.689  1.00  0.00     0.167 HD
ATOM     48  C   UNL A   1      39.763  32.913  35.528  1.00  0.00     0.037 A 
ATOM     49  C   UNL A   1      40.389  28.964  29.767  1.00  0.00     0.037 A 
ATOM     50  C   UNL A   1      40.786  31.906  35.595  1.00  0.00     0.049 A 
ATOM     51  C   UNL A   1      41.275  28.768  30.968  1.00  0.00     0.074 A 
ATOM     52  C   UNL A   1      41.646  31.612  36.638  1.00  0.00     0.029 A 
ATOM     53  N   UNL A   1      41.079  31.018  34.570  1.00  0.00    -0.354 N 
ATOM     54  N   UNL A   1      41.271  29.408  32.112  1.00  0.00    -0.248 NA
ATOM     55  C   UNL A   1      42.295  27.715  30.872  1.00  0.00     0.031 C 
ATOM     56  C   UNL A   1      42.475  30.560  36.236  1.00  0.00     0.029 A 
ATOM     57  C   UNL A   1      42.107  30.174  34.956  1.00  0.00     0.049 A 
ATOM     58  H   UNL A   1      40.623  30.990  33.697  1.00  0.00     0.167 HD
ATOM     59  C   UNL A   1      42.259  28.814  32.885  1.00  0.00     0.074 A 
ATOM     60  C   UNL A   1      42.839  27.757  32.081  1.00  0.00     0.031 C 
ATOM     61  C   UNL A   1      42.651  29.115  34.147  1.00  0.00     0.037 A 
BRANCH  48  62
ATOM     62  C   UNL A   1      39.578  33.836  36.696  1.00  0.00     0.064 A 
ATOM     63  C   UNL A   1      40.192  35.098  36.739  1.00  0.00     0.173 A 
ATOM     64  C   UNL A   1      38.788  33.454  37.790  1.00  0.00     0.173 A 
ATOM     65  F   UNL A   1      40.973  35.503  35.725  1.00  0.00    -0.203 F 
ATOM     66  C   UNL A   1      40.054  35.925  37.850  1.00  0.00     0.198 A 
ATOM     67  C   UNL A   1      38.627  34.298  38.886  1.00  0.00     0.198 A 
ATOM     68  F   UNL A   1      38.177  32.260  37.800  1.00  0.00    -0.203 F 
ATOM     69  F   UNL A   1      40.704  37.097  37.895  1.00  0.00    -0.200 F 
ATOM     70  C   UNL A   1      39.269  35.527  38.920  1.00  0.00     0.200 A 
ATOM     71  F   UNL A   1      37.859  33.917  39.917  1.00  0.00    -0.200 F 
ATOM     72  F   UNL A   1      39.140  36.323  39.991  1.00  0.00    -0.200 F 
ENDBRANCH  48  62
BRANCH  49  73
ATOM     73  C   UNL A   1      40.536  28.103  28.566  1.00  0.00     0.064 A 
ATOM     74  C   UNL A   1      39.881  26.865  28.493  1.00  0.00     0.173 A 
ATOM     75  C   UNL A   1      41.324  28.491  27.473  1.00  0.00     0.173 A 
ATOM     76  F   UNL A   1      39.132  26.444  29.523  1.00  0.00    -0.203 F 
ATOM     77  C   UNL A   1      40.023  26.039  27.381  1.00  0.00     0.198 A 
ATOM     78  C   UNL A   1      41.446  27.674  26.351  1.00  0.00     0.198 A 
ATOM     79  F   UNL A   1      41.965  29.668  27.492  1.00  0.00    -0.203 F 
ATOM     80  F   UNL A   1      39.417  24.844  27.354  1.00  0.00    -0.200 F 
ATOM     81  C   UNL A   1      40.802  26.446  26.308  1.00  0.00     0.200 A 
ATOM     82  F   UNL A   1      42.191  28.074  25.311  1.00  0.00    -0.200 F 
ATOM     83  F   UNL A   1      40.936  25.653  25.237  1.00  0.00    -0.200 F 
ENDBRANCH  49  73
BRANCH  61  84
ATOM     84  C   UNL A   1      43.722  28.260  34.755  1.00  0.00     0.064 A 
ATOM     85  C   UNL A   1      45.075  28.623  34.699  1.00  0.00     0.173 A 
ATOM     86  C   UNL A   1      43.381  27.085  35.442  1.00  0.00     0.173 A 
ATOM     87  F   UNL A   1      45.450  29.730  34.040  1.00  0.00    -0.203 F 
ATOM     88  C   UNL A   1      46.052  27.828  35.292  1.00  0.00     0.198 A 
ATOM     89  C   UNL A   1      44.358  26.307  36.056  1.00  0.00     0.198 A 
ATOM     90  F   UNL A   1      42.099  26.700  35.527  1.00  0.00    -0.203 F 
ATOM     91  F   UNL A   1      47.342  28.173  35.192  1.00  0.00    -0.200 F 
ATOM     92  C   UNL A   1      45.692  26.676  35.975  1.00  0.00     0.200 A 
ATOM     93  F   UNL A   1      44.008  25.199  36.724  1.00  0.00    -0.200 F 
ATOM     94  F   UNL A   1      46.633  25.916  36.551  1.00  0.00    -0.200 F 
ENDBRANCH  61  84
ENDBRANCH  35  36
ENDBRANCH  27  30
ENDBRANCH  25  26
ENDBRANCH  24  25
ENDBRANCH   1  24
TORSDOF 14
ENDMDL
MODEL 3
REMARK VINA RESULT:     -12.9      1.148      1.800
REMARK SMILES C[C@]1(CNC(=O)N2CCOC[C@H]2C(=O)NCCCCNC(=O)c2ccc(-c3c4nc(c(-c5c(F)c(F)c(F)c(F)c5F)c5ccc([nH]5)c(-c5c(F)c(F)c(F)c(F)c5F)c5nc(c(-c6c(F)c(F)c(F)c(F)c6F)c6ccc3[nH]6)C=C5)C=C4)cc2)CCCO1
REMARK SMILES IDX 17 1 16 2 15 3 13 4 14 5 12 7 7 8 8 9 9 10 11 11 10 12 5 13
REMARK SMILES IDX 4 14 6 16 3 17 2 18 1 19 86 20 89 21 87 22 88 23 18 24 19 25
REMARK SMILES IDX 20 26 21 27 22 29 23 30 24 31 85 32 25 33 84 34 26 35 27 36
REMARK SMILES IDX 28 37 78 38 29 39 83 40 77 41 79 42 30 43 82 44 76 45 75 46
REMARK SMILES IDX 31 48 63 49 43 50 62 51 44 52 47 53 61 54 80 55 45 56 46 57
REMARK SMILES IDX 60 59 81 60 48 61 32 62 33 63 41 64 34 65 35 66 39 67 42 68
REMARK SMILES IDX 36 69 37 70 40 71 38 72 64 73 65 74 73 75 66 76 67 77 71 78
REMARK SMILES IDX 74 79 68 80 69 81 72 82 70 83 49 84 50 85 58 86 51 87 52 88
REMARK SMILES IDX 56 89 59 90 53 91 54 92 57 93 55 94
REMARK H PARENT 15 6 4 15 20 28 79 47 47 58
REMARK Flexibility Score: inf
ROOT
ATOM      1  C   UNL A   1      31.397  30.449  25.536  1.00  0.00     0.023 C 
ENDROOT
BRANCH   1   2
ATOM      2  C   UNL A   1      32.620  29.548  25.755  1.00  0.00     0.116 C 
BRANCH   2   3
ATOM      3  N   UNL A   1      33.368  29.343  24.529  1.00  0.00    -0.354 N 
ATOM      4  C   UNL A   1      33.480  28.317  23.644  1.00  0.00     0.245 C 
ATOM      5  O   UNL A   1      34.161  28.588  22.642  1.00  0.00    -0.273 OA
ATOM      6  H   UNL A   1      33.918  30.123  24.283  1.00  0.00     0.163 HD
BRANCH   4   7
ATOM      7  C   UNL A   1      32.817  26.914  23.765  1.00  0.00     0.202 C 
ATOM      8  N   UNL A   1      31.642  26.615  22.917  1.00  0.00    -0.308 N 
ATOM      9  C   UNL A   1      31.987  26.085  21.619  1.00  0.00     0.151 C 
ATOM     10  C   UNL A   1      32.827  24.826  21.781  1.00  0.00     0.182 C 
ATOM     11  C   UNL A   1      33.814  25.735  23.758  1.00  0.00     0.195 C 
ATOM     12  O   UNL A   1      34.053  25.150  22.462  1.00  0.00    -0.377 OA
BRANCH   8  13
ATOM     13  C   UNL A   1      30.395  26.809  23.425  1.00  0.00     0.318 C 
ATOM     14  N   UNL A   1      29.735  27.980  23.285  1.00  0.00    -0.335 N 
ATOM     15  H   UNL A   1      28.997  28.080  23.928  1.00  0.00     0.165 HD
ATOM     16  O   UNL A   1      29.793  25.917  24.026  1.00  0.00    -0.249 OA
BRANCH  14  17
ATOM     17  C   UNL A   1      29.866  29.130  22.395  1.00  0.00     0.152 C 
BRANCH  17  18
ATOM     18  C   UNL A   1      28.620  30.034  22.292  1.00  0.00     0.083 C 
ATOM     19  C   UNL A   1      27.407  29.374  22.952  1.00  0.00     0.044 C 
ATOM     20  C   UNL A   1      28.922  31.410  22.900  1.00  0.00     0.039 C 
ATOM     21  O   UNL A   1      28.306  30.301  20.910  1.00  0.00    -0.373 OA
ATOM     22  C   UNL A   1      28.028  32.334  22.115  1.00  0.00     0.031 C 
ATOM     23  C   UNL A   1      28.014  31.694  20.744  1.00  0.00     0.161 C 
ENDBRANCH  17  18
ENDBRANCH  14  17
ENDBRANCH   8  13
ENDBRANCH   4   7
ENDBRANCH   2   3
ENDBRANCH   1   2
BRANCH   1  24
ATOM     24  C   UNL A   1      31.346  31.706  26.390  1.00  0.00     0.023 C 
BRANCH  24  25
ATOM     25  C   UNL A   1      32.677  32.091  27.019  1.00  0.00     0.116 C 
BRANCH  25  26
ATOM     26  N   UNL A   1      32.771  33.482  27.445  1.00  0.00    -0.352 N 
ATOM     27  C   UNL A   1      33.796  34.074  28.152  1.00  0.00     0.251 C 
ATOM     28  H   UNL A   1      32.016  34.066  27.200  1.00  0.00     0.163 HD
ATOM     29  O   UNL A   1      33.740  35.246  28.498  1.00  0.00    -0.269 OA
BRANCH  27  30
ATOM     30  C   UNL A   1      34.947  33.232  28.533  1.00  0.00     0.039 A 
ATOM     31  C   UNL A   1      36.236  33.762  28.438  1.00  0.00     0.014 A 
ATOM     32  C   UNL A   1      34.729  31.981  29.112  1.00  0.00     0.014 A 
ATOM     33  C   UNL A   1      37.301  33.068  29.010  1.00  0.00     0.010 A 
ATOM     34  C   UNL A   1      35.773  31.342  29.765  1.00  0.00     0.010 A 
ATOM     35  C   UNL A   1      37.069  31.878  29.720  1.00  0.00    -0.014 A 
BRANCH  35  36
ATOM     36  C   UNL A   1      38.168  31.155  30.407  1.00  0.00     0.031 A 
ATOM     37  C   UNL A   1      38.461  31.458  31.848  1.00  0.00     0.074 A 
ATOM     38  C   UNL A   1      38.947  30.299  29.720  1.00  0.00     0.049 A 
ATOM     39  N   UNL A   1      39.433  31.022  32.608  1.00  0.00    -0.248 NA
ATOM     40  C   UNL A   1      37.564  32.416  32.515  1.00  0.00     0.031 C 
ATOM     41  C   UNL A   1      38.803  29.968  28.300  1.00  0.00     0.029 A 
ATOM     42  N   UNL A   1      40.026  29.554  30.125  1.00  0.00    -0.354 N 
ATOM     43  C   UNL A   1      39.280  31.675  33.823  1.00  0.00     0.074 A 
ATOM     44  C   UNL A   1      38.163  32.582  33.682  1.00  0.00     0.031 C 
ATOM     45  C   UNL A   1      39.734  29.061  27.963  1.00  0.00     0.029 A 
ATOM     46  C   UNL A   1      40.560  28.770  29.131  1.00  0.00     0.049 A 
ATOM     47  H   UNL A   1      40.384  29.579  31.042  1.00  0.00     0.167 HD
ATOM     48  C   UNL A   1      39.985  31.508  34.966  1.00  0.00     0.037 A 
ATOM     49  C   UNL A   1      41.595  27.911  29.166  1.00  0.00     0.037 A 
ATOM     50  C   UNL A   1      41.063  30.570  35.118  1.00  0.00     0.049 A 
ATOM     51  C   UNL A   1      42.340  27.713  30.459  1.00  0.00     0.074 A 
ATOM     52  C   UNL A   1      41.808  30.281  36.247  1.00  0.00     0.029 A 
ATOM     53  N   UNL A   1      41.542  29.756  34.101  1.00  0.00    -0.354 N 
ATOM     54  N   UNL A   1      42.149  28.291  31.620  1.00  0.00    -0.248 NA
ATOM     55  C   UNL A   1      43.437  26.736  30.447  1.00  0.00     0.031 C 
ATOM     56  C   UNL A   1      42.754  29.308  35.908  1.00  0.00     0.029 A 
ATOM     57  C   UNL A   1      42.575  28.965  34.577  1.00  0.00     0.049 A 
ATOM     58  H   UNL A   1      41.200  29.743  33.178  1.00  0.00     0.167 HD
ATOM     59  C   UNL A   1      43.077  27.726  32.484  1.00  0.00     0.074 A 
ATOM     60  C   UNL A   1      43.826  26.753  31.715  1.00  0.00     0.031 C 
ATOM     61  C   UNL A   1      43.289  27.987  33.798  1.00  0.00     0.037 A 
BRANCH  48  62
ATOM     62  C   UNL A   1      39.593  32.355  36.141  1.00  0.00     0.064 A 
ATOM     63  C   UNL A   1      38.526  31.995  36.980  1.00  0.00     0.173 A 
ATOM     64  C   UNL A   1      40.281  33.542  36.428  1.00  0.00     0.173 A 
ATOM     65  F   UNL A   1      37.824  30.877  36.737  1.00  0.00    -0.203 F 
ATOM     66  C   UNL A   1      38.138  32.813  38.038  1.00  0.00     0.198 A 
ATOM     67  C   UNL A   1      39.910  34.342  37.506  1.00  0.00     0.198 A 
ATOM     68  F   UNL A   1      41.309  33.931  35.659  1.00  0.00    -0.203 F 
ATOM     69  F   UNL A   1      37.076  32.481  38.784  1.00  0.00    -0.200 F 
ATOM     70  C   UNL A   1      38.833  33.983  38.303  1.00  0.00     0.200 A 
ATOM     71  F   UNL A   1      40.588  35.468  37.768  1.00  0.00    -0.200 F 
ATOM     72  F   UNL A   1      38.456  34.771  39.319  1.00  0.00    -0.200 F 
ENDBRANCH  48  62
BRANCH  49  73
ATOM     73  C   UNL A   1      41.949  27.124  27.958  1.00  0.00     0.064 A 
ATOM     74  C   UNL A   1      41.385  25.859  27.740  1.00  0.00     0.173 A 
ATOM     75  C   UNL A   1      42.850  27.611  26.999  1.00  0.00     0.173 A 
ATOM     76  F   UNL A   1      40.534  25.344  28.639  1.00  0.00    -0.203 F 
ATOM     77  C   UNL A   1      41.721  25.102  26.620  1.00  0.00     0.198 A 
ATOM     78  C   UNL A   1      43.167  26.863  25.867  1.00  0.00     0.198 A 
ATOM     79  F   UNL A   1      43.412  28.817  27.158  1.00  0.00    -0.203 F 
ATOM     80  F   UNL A   1      41.196  23.880  26.458  1.00  0.00    -0.200 F 
ATOM     81  C   UNL A   1      42.608  25.607  25.682  1.00  0.00     0.200 A 
ATOM     82  F   UNL A   1      44.017  27.357  24.956  1.00  0.00    -0.200 F 
ATOM     83  F   UNL A   1      42.930  24.880  24.603  1.00  0.00    -0.200 F 
ENDBRANCH  49  73
BRANCH  61  84
ATOM     84  C   UNL A   1      44.337  27.176  34.497  1.00  0.00     0.064 A 
ATOM     85  C   UNL A   1      45.656  27.631  34.627  1.00  0.00     0.173 A 
ATOM     86  C   UNL A   1      44.001  25.947  35.086  1.00  0.00     0.173 A 
ATOM     87  F   UNL A   1      46.027  28.793  34.068  1.00  0.00    -0.203 F 
ATOM     88  C   UNL A   1      46.609  26.874  35.304  1.00  0.00     0.198 A 
ATOM     89  C   UNL A   1      44.950  25.205  35.784  1.00  0.00     0.198 A 
ATOM     90  F   UNL A   1      42.750  25.473  34.994  1.00  0.00    -0.203 F 
ATOM     91  F   UNL A   1      47.874  27.308  35.381  1.00  0.00    -0.200 F 
ATOM     92  C   UNL A   1      46.253  25.666  35.886  1.00  0.00     0.200 A 
ATOM     93  F   UNL A   1      44.602  24.044  36.356  1.00  0.00    -0.200 F 
ATOM     94  F   UNL A   1      47.170  24.943  36.543  1.00  0.00    -0.200 F 
ENDBRANCH  61  84
ENDBRANCH  35  36
ENDBRANCH  27  30
ENDBRANCH  25  26
ENDBRANCH  24  25
ENDBRANCH   1  24
TORSDOF 14
ENDMDL
