MODEL 1
REMARK VINA RESULT:     -12.0      0.000      0.000
REMARK SMILES Cc1cc(C(=O)Nc2ccn(C)n2)sc1/C=C/C(=O)NCCCCNC(=O)c1ccc(-c2c3nc(c(-c4c(F)c(F)c(F)c(F)c4F)c4ccc([nH]4)c(-c4c(F)c(F)c(F)c(F)c4F)c4nc(c(-c5c(F)c(F)c(F)c(F)c5F)c5ccc2[nH]5)C=C4)C=C3)cc1
REMARK SMILES IDX 22 1 21 2 20 3 18 4 19 5 17 7 16 8 15 9 1 10 2 11 3 12 4 13
REMARK SMILES IDX 14 14 5 15 6 16 7 17 8 19 9 20 13 21 10 22 11 23 12 24 23 25
REMARK SMILES IDX 24 26 25 27 26 28 27 30 28 31 29 32 90 33 30 34 89 35 31 36
REMARK SMILES IDX 32 37 33 38 83 39 34 40 88 41 82 42 84 43 35 44 87 45 81 46
REMARK SMILES IDX 80 47 36 49 68 50 48 51 67 52 49 53 52 54 66 55 85 56 50 57
REMARK SMILES IDX 51 58 65 60 86 61 53 62 37 63 38 64 46 65 39 66 40 67 44 68
REMARK SMILES IDX 47 69 41 70 42 71 45 72 43 73 69 74 70 75 78 76 71 77 72 78
REMARK SMILES IDX 76 79 79 80 73 81 74 82 77 83 75 84 54 85 55 86 63 87 56 88
REMARK SMILES IDX 57 89 61 90 64 91 58 92 59 93 62 94 60 95
REMARK H PARENT 20 6 7 18 25 29 84 48 52 59
REMARK Flexibility Score: inf
ROOT
ATOM      1  C   UNL A   1      41.589  21.457  26.305  1.00  0.00     0.023 C 
ENDROOT
BRANCH   1   2
ATOM      2  C   UNL A   1      40.774  21.766  27.560  1.00  0.00     0.116 C 
BRANCH   2   3
ATOM      3  N   UNL A   1      40.402  23.167  27.601  1.00  0.00    -0.353 N 
ATOM      4  C   UNL A   1      39.311  23.796  27.088  1.00  0.00     0.244 C 
ATOM      5  O   UNL A   1      39.138  24.994  27.303  1.00  0.00    -0.270 OA
ATOM      6  H   UNL A   1      41.039  23.753  28.072  1.00  0.00     0.163 HD
BRANCH   4   7
ATOM      7  C   UNL A   1      38.285  23.035  26.344  1.00  0.00     0.072 C 
ATOM      8  C   UNL A   1      37.032  23.476  26.154  1.00  0.00     0.025 C 
BRANCH   8   9
ATOM      9  C   UNL A   1      36.001  22.732  25.510  1.00  0.00     0.031 A 
ATOM     10  C   UNL A   1      36.614  23.021  23.024  1.00  0.00     0.046 C 
ATOM     11  C   UNL A   1      35.716  22.627  24.151  1.00  0.00    -0.032 A 
ATOM     12  C   UNL A   1      34.377  22.135  23.951  1.00  0.00     0.029 A 
ATOM     13  C   UNL A   1      33.734  21.811  25.133  1.00  0.00     0.093 A 
ATOM     14  S   UNL A   1      34.900  21.745  26.381  1.00  0.00    -0.130 S 
BRANCH  13  15
ATOM     15  C   UNL A   1      32.355  21.353  25.296  1.00  0.00     0.266 C 
ATOM     16  O   UNL A   1      31.455  22.143  25.596  1.00  0.00    -0.268 OA
ATOM     17  N   UNL A   1      31.990  20.050  25.040  1.00  0.00    -0.304 N 
ATOM     18  H   UNL A   1      31.034  19.919  24.840  1.00  0.00     0.171 HD
BRANCH  17  19
ATOM     19  C   UNL A   1      32.747  18.908  25.022  1.00  0.00     0.154 A 
ATOM     20  C   UNL A   1      33.922  18.610  24.291  1.00  0.00     0.068 A 
ATOM     21  N   UNL A   1      32.386  17.878  25.790  1.00  0.00    -0.155 NA
ATOM     22  C   UNL A   1      34.155  17.273  24.517  1.00  0.00     0.110 A 
ATOM     23  N   UNL A   1      33.161  16.867  25.355  1.00  0.00    -0.274 N 
ATOM     24  C   UNL A   1      32.823  15.510  25.710  1.00  0.00     0.173 C 
ENDBRANCH  17  19
ENDBRANCH  13  15
ENDBRANCH   8   9
ENDBRANCH   4   7
ENDBRANCH   2   3
ENDBRANCH   1   2
BRANCH   1  25
ATOM     25  C   UNL A   1      41.670  19.968  25.963  1.00  0.00     0.023 C 
BRANCH  25  26
ATOM     26  C   UNL A   1      43.016  19.319  26.264  1.00  0.00     0.116 C 
BRANCH  26  27
ATOM     27  N   UNL A   1      43.704  18.838  25.075  1.00  0.00    -0.352 N 
ATOM     28  C   UNL A   1      44.566  19.528  24.256  1.00  0.00     0.251 C 
ATOM     29  H   UNL A   1      43.530  17.902  24.827  1.00  0.00     0.163 HD
ATOM     30  O   UNL A   1      44.996  19.020  23.231  1.00  0.00    -0.269 OA
BRANCH  28  31
ATOM     31  C   UNL A   1      44.927  20.915  24.611  1.00  0.00     0.039 A 
ATOM     32  C   UNL A   1      44.509  21.951  23.774  1.00  0.00     0.014 A 
ATOM     33  C   UNL A   1      45.627  21.189  25.788  1.00  0.00     0.014 A 
ATOM     34  C   UNL A   1      44.731  23.274  24.155  1.00  0.00     0.010 A 
ATOM     35  C   UNL A   1      45.790  22.508  26.199  1.00  0.00     0.010 A 
ATOM     36  C   UNL A   1      45.340  23.561  25.388  1.00  0.00    -0.014 A 
BRANCH  36  37
ATOM     37  C   UNL A   1      45.508  24.959  25.854  1.00  0.00     0.031 A 
ATOM     38  C   UNL A   1      46.860  25.609  25.802  1.00  0.00     0.074 A 
ATOM     39  C   UNL A   1      44.461  25.609  26.396  1.00  0.00     0.049 A 
ATOM     40  N   UNL A   1      47.230  26.786  26.239  1.00  0.00    -0.248 NA
ATOM     41  C   UNL A   1      47.949  24.820  25.205  1.00  0.00     0.031 C 
ATOM     42  C   UNL A   1      43.112  25.061  26.550  1.00  0.00     0.029 A 
ATOM     43  N   UNL A   1      44.371  26.868  26.932  1.00  0.00    -0.354 N 
ATOM     44  C   UNL A   1      48.593  26.868  25.989  1.00  0.00     0.074 A 
ATOM     45  C   UNL A   1      48.995  25.608  25.404  1.00  0.00     0.031 C 
ATOM     46  C   UNL A   1      42.325  25.985  27.124  1.00  0.00     0.029 A 
ATOM     47  C   UNL A   1      43.120  27.176  27.408  1.00  0.00     0.049 A 
ATOM     48  H   UNL A   1      45.131  27.492  26.973  1.00  0.00     0.167 HD
ATOM     49  C   UNL A   1      49.428  27.912  26.206  1.00  0.00     0.037 A 
ATOM     50  C   UNL A   1      42.669  28.293  28.010  1.00  0.00     0.037 A 
ATOM     51  C   UNL A   1      49.016  29.176  26.756  1.00  0.00     0.049 A 
ATOM     52  C   UNL A   1      43.613  29.444  28.223  1.00  0.00     0.074 A 
ATOM     53  C   UNL A   1      49.771  30.318  26.956  1.00  0.00     0.029 A 
ATOM     54  N   UNL A   1      47.731  29.465  27.191  1.00  0.00    -0.354 N 
ATOM     55  N   UNL A   1      44.885  29.537  27.920  1.00  0.00    -0.248 NA
ATOM     56  C   UNL A   1      43.057  30.649  28.854  1.00  0.00     0.031 C 
ATOM     57  C   UNL A   1      48.952  31.286  27.545  1.00  0.00     0.029 A 
ATOM     58  C   UNL A   1      47.675  30.763  27.673  1.00  0.00     0.049 A 
ATOM     59  H   UNL A   1      46.970  28.840  27.162  1.00  0.00     0.167 HD
ATOM     60  C   UNL A   1      45.274  30.816  28.294  1.00  0.00     0.074 A 
ATOM     61  C   UNL A   1      44.101  31.467  28.839  1.00  0.00     0.031 C 
ATOM     62  C   UNL A   1      46.493  31.398  28.195  1.00  0.00     0.037 A 
BRANCH  49  63
ATOM     63  C   UNL A   1      50.871  27.731  25.839  1.00  0.00     0.064 A 
ATOM     64  C   UNL A   1      51.325  27.930  24.527  1.00  0.00     0.173 A 
ATOM     65  C   UNL A   1      51.816  27.387  26.817  1.00  0.00     0.173 A 
ATOM     66  F   UNL A   1      50.458  28.246  23.554  1.00  0.00    -0.203 F 
ATOM     67  C   UNL A   1      52.668  27.762  24.201  1.00  0.00     0.198 A 
ATOM     68  C   UNL A   1      53.164  27.249  26.493  1.00  0.00     0.198 A 
ATOM     69  F   UNL A   1      51.435  27.190  28.088  1.00  0.00    -0.203 F 
ATOM     70  F   UNL A   1      53.070  27.909  22.931  1.00  0.00    -0.200 F 
ATOM     71  C   UNL A   1      53.587  27.429  25.184  1.00  0.00     0.200 A 
ATOM     72  F   UNL A   1      54.052  26.937  27.446  1.00  0.00    -0.200 F 
ATOM     73  F   UNL A   1      54.880  27.273  24.869  1.00  0.00    -0.200 F 
ENDBRANCH  49  63
BRANCH  50  74
ATOM     74  C   UNL A   1      41.246  28.388  28.422  1.00  0.00     0.064 A 
ATOM     75  C   UNL A   1      40.281  28.913  27.550  1.00  0.00     0.173 A 
ATOM     76  C   UNL A   1      40.820  27.960  29.687  1.00  0.00     0.173 A 
ATOM     77  F   UNL A   1      40.645  29.353  26.337  1.00  0.00    -0.203 F 
ATOM     78  C   UNL A   1      38.947  29.022  27.935  1.00  0.00     0.198 A 
ATOM     79  C   UNL A   1      39.480  28.047  30.062  1.00  0.00     0.198 A 
ATOM     80  F   UNL A   1      41.703  27.445  30.555  1.00  0.00    -0.203 F 
ATOM     81  F   UNL A   1      38.053  29.564  27.097  1.00  0.00    -0.200 F 
ATOM     82  C   UNL A   1      38.547  28.585  29.189  1.00  0.00     0.200 A 
ATOM     83  F   UNL A   1      39.095  27.611  31.269  1.00  0.00    -0.200 F 
ATOM     84  F   UNL A   1      37.262  28.686  29.557  1.00  0.00    -0.200 F 
ENDBRANCH  50  74
BRANCH  62  85
ATOM     85  C   UNL A   1      46.614  32.824  28.645  1.00  0.00     0.064 A 
ATOM     86  C   UNL A   1      46.376  33.893  27.770  1.00  0.00     0.173 A 
ATOM     87  C   UNL A   1      46.925  33.120  29.981  1.00  0.00     0.173 A 
ATOM     88  F   UNL A   1      46.092  33.658  26.479  1.00  0.00    -0.203 F 
ATOM     89  C   UNL A   1      46.462  35.210  28.212  1.00  0.00     0.198 A 
ATOM     90  C   UNL A   1      46.985  34.437  30.425  1.00  0.00     0.198 A 
ATOM     91  F   UNL A   1      47.156  32.131  30.856  1.00  0.00    -0.203 F 
ATOM     92  F   UNL A   1      46.269  36.218  27.349  1.00  0.00    -0.200 F 
ATOM     93  C   UNL A   1      46.758  35.481  29.539  1.00  0.00     0.200 A 
ATOM     94  F   UNL A   1      47.260  34.698  31.711  1.00  0.00    -0.200 F 
ATOM     95  F   UNL A   1      46.832  36.750  29.965  1.00  0.00    -0.200 F 
ENDBRANCH  62  85
ENDBRANCH  36  37
ENDBRANCH  28  31
ENDBRANCH  26  27
ENDBRANCH  25  26
ENDBRANCH   1  25
TORSDOF 14
ENDMDL
MODEL 2
REMARK VINA RESULT:     -12.0      7.404     12.749
REMARK SMILES Cc1cc(C(=O)Nc2ccn(C)n2)sc1/C=C/C(=O)NCCCCNC(=O)c1ccc(-c2c3nc(c(-c4c(F)c(F)c(F)c(F)c4F)c4ccc([nH]4)c(-c4c(F)c(F)c(F)c(F)c4F)c4nc(c(-c5c(F)c(F)c(F)c(F)c5F)c5ccc2[nH]5)C=C4)C=C3)cc1
REMARK SMILES IDX 22 1 21 2 20 3 18 4 19 5 17 7 16 8 15 9 1 10 2 11 3 12 4 13
REMARK SMILES IDX 14 14 5 15 6 16 7 17 8 19 9 20 13 21 10 22 11 23 12 24 23 25
REMARK SMILES IDX 24 26 25 27 26 28 27 30 28 31 29 32 90 33 30 34 89 35 31 36
REMARK SMILES IDX 32 37 33 38 83 39 34 40 88 41 82 42 84 43 35 44 87 45 81 46
REMARK SMILES IDX 80 47 36 49 68 50 48 51 67 52 49 53 52 54 66 55 85 56 50 57
REMARK SMILES IDX 51 58 65 60 86 61 53 62 37 63 38 64 46 65 39 66 40 67 44 68
REMARK SMILES IDX 47 69 41 70 42 71 45 72 43 73 69 74 70 75 78 76 71 77 72 78
REMARK SMILES IDX 76 79 79 80 73 81 74 82 77 83 75 84 54 85 55 86 63 87 56 88
REMARK SMILES IDX 57 89 61 90 64 91 58 92 59 93 62 94 60 95
REMARK H PARENT 20 6 7 18 25 29 84 48 52 59
REMARK Flexibility Score: inf
ROOT
ATOM      1  C   UNL A   1      34.609  33.340  29.246  1.00  0.00     0.023 C 
ENDROOT
BRANCH   1   2
ATOM      2  C   UNL A   1      35.365  32.939  27.980  1.00  0.00     0.116 C 
BRANCH   2   3
ATOM      3  N   UNL A   1      36.090  31.699  28.184  1.00  0.00    -0.353 N 
ATOM      4  C   UNL A   1      35.755  30.426  27.845  1.00  0.00     0.244 C 
ATOM      5  O   UNL A   1      36.553  29.511  28.036  1.00  0.00    -0.270 OA
ATOM      6  H   UNL A   1      36.959  31.795  28.638  1.00  0.00     0.163 HD
BRANCH   4   7
ATOM      7  C   UNL A   1      34.469  30.142  27.171  1.00  0.00     0.072 C 
ATOM      8  C   UNL A   1      34.220  29.001  26.509  1.00  0.00     0.025 C 
BRANCH   8   9
ATOM      9  C   UNL A   1      33.022  28.731  25.784  1.00  0.00     0.031 A 
ATOM     10  C   UNL A   1      31.403  28.061  27.674  1.00  0.00     0.046 C 
ATOM     11  C   UNL A   1      31.823  28.194  26.245  1.00  0.00    -0.032 A 
ATOM     12  C   UNL A   1      31.033  27.702  25.147  1.00  0.00     0.029 A 
ATOM     13  C   UNL A   1      31.605  27.951  23.911  1.00  0.00     0.093 A 
ATOM     14  S   UNL A   1      32.856  29.097  24.116  1.00  0.00    -0.130 S 
BRANCH  13  15
ATOM     15  C   UNL A   1      31.106  27.530  22.602  1.00  0.00     0.266 C 
ATOM     16  O   UNL A   1      30.260  28.199  22.001  1.00  0.00    -0.268 OA
ATOM     17  N   UNL A   1      31.616  26.428  21.953  1.00  0.00    -0.304 N 
ATOM     18  H   UNL A   1      31.484  26.424  20.977  1.00  0.00     0.171 HD
BRANCH  17  19
ATOM     19  C   UNL A   1      32.277  25.336  22.452  1.00  0.00     0.154 A 
ATOM     20  C   UNL A   1      33.653  25.157  22.728  1.00  0.00     0.068 A 
ATOM     21  N   UNL A   1      31.580  24.238  22.752  1.00  0.00    -0.155 NA
ATOM     22  C   UNL A   1      33.786  23.825  23.042  1.00  0.00     0.110 A 
ATOM     23  N   UNL A   1      32.529  23.305  22.963  1.00  0.00    -0.274 N 
ATOM     24  C   UNL A   1      32.161  21.910  22.977  1.00  0.00     0.173 C 
ENDBRANCH  17  19
ENDBRANCH  13  15
ENDBRANCH   8   9
ENDBRANCH   4   7
ENDBRANCH   2   3
ENDBRANCH   1   2
BRANCH   1  25
ATOM     25  C   UNL A   1      33.397  34.238  28.992  1.00  0.00     0.023 C 
BRANCH  25  26
ATOM     26  C   UNL A   1      33.536  35.660  29.523  1.00  0.00     0.116 C 
BRANCH  26  27
ATOM     27  N   UNL A   1      32.528  36.007  30.514  1.00  0.00    -0.352 N 
ATOM     28  C   UNL A   1      32.533  35.733  31.861  1.00  0.00     0.251 C 
ATOM     29  H   UNL A   1      31.746  36.500  30.177  1.00  0.00     0.163 HD
ATOM     30  O   UNL A   1      31.567  36.004  32.558  1.00  0.00    -0.269 OA
BRANCH  28  31
ATOM     31  C   UNL A   1      33.710  35.059  32.445  1.00  0.00     0.039 A 
ATOM     32  C   UNL A   1      33.575  33.744  32.894  1.00  0.00     0.014 A 
ATOM     33  C   UNL A   1      34.947  35.706  32.500  1.00  0.00     0.014 A 
ATOM     34  C   UNL A   1      34.701  33.049  33.333  1.00  0.00     0.010 A 
ATOM     35  C   UNL A   1      36.079  34.992  32.876  1.00  0.00     0.010 A 
ATOM     36  C   UNL A   1      35.967  33.657  33.291  1.00  0.00    -0.014 A 
BRANCH  36  37
ATOM     37  C   UNL A   1      37.191  32.909  33.671  1.00  0.00     0.031 A 
ATOM     38  C   UNL A   1      37.892  33.223  34.960  1.00  0.00     0.074 A 
ATOM     39  C   UNL A   1      37.710  32.008  32.816  1.00  0.00     0.049 A 
ATOM     40  N   UNL A   1      39.016  32.745  35.428  1.00  0.00    -0.248 NA
ATOM     41  C   UNL A   1      37.259  34.231  35.826  1.00  0.00     0.031 C 
ATOM     42  C   UNL A   1      37.149  31.658  31.510  1.00  0.00     0.029 A 
ATOM     43  N   UNL A   1      38.837  31.232  32.912  1.00  0.00    -0.354 N 
ATOM     44  C   UNL A   1      39.234  33.407  36.630  1.00  0.00     0.074 A 
ATOM     45  C   UNL A   1      38.153  34.352  36.797  1.00  0.00     0.031 C 
ATOM     46  C   UNL A   1      37.922  30.724  30.935  1.00  0.00     0.029 A 
ATOM     47  C   UNL A   1      39.051  30.434  31.814  1.00  0.00     0.049 A 
ATOM     48  H   UNL A   1      39.437  31.246  33.692  1.00  0.00     0.167 HD
ATOM     49  C   UNL A   1      40.236  33.224  37.522  1.00  0.00     0.037 A 
ATOM     50  C   UNL A   1      40.048  29.570  31.549  1.00  0.00     0.037 A 
ATOM     51  C   UNL A   1      41.291  32.259  37.367  1.00  0.00     0.049 A 
ATOM     52  C   UNL A   1      41.139  29.373  32.565  1.00  0.00     0.074 A 
ATOM     53  C   UNL A   1      42.316  31.952  38.244  1.00  0.00     0.029 A 
ATOM     54  N   UNL A   1      41.453  31.440  36.260  1.00  0.00    -0.354 N 
ATOM     55  N   UNL A   1      41.299  29.954  33.729  1.00  0.00    -0.248 NA
ATOM     56  C   UNL A   1      42.183  28.393  32.236  1.00  0.00     0.031 C 
ATOM     57  C   UNL A   1      43.119  30.972  37.652  1.00  0.00     0.029 A 
ATOM     58  C   UNL A   1      42.570  30.637  36.425  1.00  0.00     0.049 A 
ATOM     59  H   UNL A   1      40.862  31.430  35.472  1.00  0.00     0.167 HD
ATOM     60  C   UNL A   1      42.440  29.391  34.283  1.00  0.00     0.074 A 
ATOM     61  C   UNL A   1      42.929  28.416  33.331  1.00  0.00     0.031 C 
ATOM     62  C   UNL A   1      43.031  29.659  35.473  1.00  0.00     0.037 A 
BRANCH  49  63
ATOM     63  C   UNL A   1      40.231  34.083  38.752  1.00  0.00     0.064 A 
ATOM     64  C   UNL A   1      39.562  33.688  39.920  1.00  0.00     0.173 A 
ATOM     65  C   UNL A   1      40.930  35.299  38.774  1.00  0.00     0.173 A 
ATOM     66  F   UNL A   1      38.868  32.541  39.945  1.00  0.00    -0.203 F 
ATOM     67  C   UNL A   1      39.569  34.493  41.056  1.00  0.00     0.198 A 
ATOM     68  C   UNL A   1      40.959  36.088  39.921  1.00  0.00     0.198 A 
ATOM     69  F   UNL A   1      41.590  35.721  37.685  1.00  0.00    -0.203 F 
ATOM     70  F   UNL A   1      38.882  34.119  42.145  1.00  0.00    -0.200 F 
ATOM     71  C   UNL A   1      40.273  35.688  41.059  1.00  0.00     0.200 A 
ATOM     72  F   UNL A   1      41.648  37.237  39.925  1.00  0.00    -0.200 F 
ATOM     73  F   UNL A   1      40.282  36.459  42.154  1.00  0.00    -0.200 F 
ENDBRANCH  49  63
BRANCH  50  74
ATOM     74  C   UNL A   1      40.043  28.801  30.278  1.00  0.00     0.064 A 
ATOM     75  C   UNL A   1      39.440  27.537  30.209  1.00  0.00     0.173 A 
ATOM     76  C   UNL A   1      40.634  29.308  29.113  1.00  0.00     0.173 A 
ATOM     77  F   UNL A   1      38.878  27.003  31.304  1.00  0.00    -0.203 F 
ATOM     78  C   UNL A   1      39.445  26.801  29.026  1.00  0.00     0.198 A 
ATOM     79  C   UNL A   1      40.617  28.581  27.924  1.00  0.00     0.198 A 
ATOM     80  F   UNL A   1      41.219  30.515  29.126  1.00  0.00    -0.203 F 
ATOM     81  F   UNL A   1      38.897  25.578  28.998  1.00  0.00    -0.200 F 
ATOM     82  C   UNL A   1      40.030  27.326  27.883  1.00  0.00     0.200 A 
ATOM     83  F   UNL A   1      41.171  29.098  26.818  1.00  0.00    -0.200 F 
ATOM     84  F   UNL A   1      40.031  26.620  26.745  1.00  0.00    -0.200 F 
ENDBRANCH  50  74
BRANCH  62  85
ATOM     85  C   UNL A   1      44.245  28.858  35.835  1.00  0.00     0.064 A 
ATOM     86  C   UNL A   1      44.146  27.653  36.544  1.00  0.00     0.173 A 
ATOM     87  C   UNL A   1      45.519  29.279  35.423  1.00  0.00     0.173 A 
ATOM     88  F   UNL A   1      42.950  27.219  36.973  1.00  0.00    -0.203 F 
ATOM     89  C   UNL A   1      45.281  26.906  36.845  1.00  0.00     0.198 A 
ATOM     90  C   UNL A   1      46.649  28.516  35.703  1.00  0.00     0.198 A 
ATOM     91  F   UNL A   1      45.664  30.422  34.737  1.00  0.00    -0.203 F 
ATOM     92  F   UNL A   1      45.168  25.777  37.558  1.00  0.00    -0.200 F 
ATOM     93  C   UNL A   1      46.530  27.333  36.418  1.00  0.00     0.200 A 
ATOM     94  F   UNL A   1      47.853  28.925  35.280  1.00  0.00    -0.200 F 
ATOM     95  F   UNL A   1      47.621  26.608  36.701  1.00  0.00    -0.200 F 
ENDBRANCH  62  85
ENDBRANCH  36  37
ENDBRANCH  28  31
ENDBRANCH  26  27
ENDBRANCH  25  26
ENDBRANCH   1  25
TORSDOF 14
ENDMDL
MODEL 3
REMARK VINA RESULT:     -11.9      3.117      8.492
REMARK SMILES Cc1cc(C(=O)Nc2ccn(C)n2)sc1/C=C/C(=O)NCCCCNC(=O)c1ccc(-c2c3nc(c(-c4c(F)c(F)c(F)c(F)c4F)c4ccc([nH]4)c(-c4c(F)c(F)c(F)c(F)c4F)c4nc(c(-c5c(F)c(F)c(F)c(F)c5F)c5ccc2[nH]5)C=C4)C=C3)cc1
REMARK SMILES IDX 22 1 21 2 20 3 18 4 19 5 17 7 16 8 15 9 1 10 2 11 3 12 4 13
REMARK SMILES IDX 14 14 5 15 6 16 7 17 8 19 9 20 13 21 10 22 11 23 12 24 23 25
REMARK SMILES IDX 24 26 25 27 26 28 27 30 28 31 29 32 90 33 30 34 89 35 31 36
REMARK SMILES IDX 32 37 33 38 83 39 34 40 88 41 82 42 84 43 35 44 87 45 81 46
REMARK SMILES IDX 80 47 36 49 68 50 48 51 67 52 49 53 52 54 66 55 85 56 50 57
REMARK SMILES IDX 51 58 65 60 86 61 53 62 37 63 38 64 46 65 39 66 40 67 44 68
REMARK SMILES IDX 47 69 41 70 42 71 45 72 43 73 69 74 70 75 78 76 71 77 72 78
REMARK SMILES IDX 76 79 79 80 73 81 74 82 77 83 75 84 54 85 55 86 63 87 56 88
REMARK SMILES IDX 57 89 61 90 64 91 58 92 59 93 62 94 60 95
REMARK H PARENT 20 6 7 18 25 29 84 48 52 59
REMARK Flexibility Score: inf
ROOT
ATOM      1  C   UNL A   1      37.462  21.248  24.678  1.00  0.00     0.023 C 
ENDROOT
BRANCH   1   2
ATOM      2  C   UNL A   1      35.942  21.086  24.647  1.00  0.00     0.116 C 
BRANCH   2   3
ATOM      3  N   UNL A   1      35.401  21.054  25.993  1.00  0.00    -0.353 N 
ATOM      4  C   UNL A   1      34.651  21.977  26.654  1.00  0.00     0.244 C 
ATOM      5  O   UNL A   1      34.217  21.723  27.775  1.00  0.00    -0.270 OA
ATOM      6  H   UNL A   1      35.608  20.240  26.506  1.00  0.00     0.163 HD
BRANCH   4   7
ATOM      7  C   UNL A   1      34.282  23.251  26.002  1.00  0.00     0.072 C 
ATOM      8  C   UNL A   1      33.076  23.479  25.458  1.00  0.00     0.025 C 
BRANCH   8   9
ATOM      9  C   UNL A   1      32.717  24.666  24.755  1.00  0.00     0.031 A 
ATOM     10  C   UNL A   1      30.628  23.897  23.455  1.00  0.00     0.046 C 
ATOM     11  C   UNL A   1      31.741  24.842  23.777  1.00  0.00    -0.032 A 
ATOM     12  C   UNL A   1      31.975  26.057  23.040  1.00  0.00     0.029 A 
ATOM     13  C   UNL A   1      33.046  26.789  23.524  1.00  0.00     0.093 A 
ATOM     14  S   UNL A   1      33.463  26.180  25.066  1.00  0.00    -0.130 S 
BRANCH  13  15
ATOM     15  C   UNL A   1      33.595  28.027  22.973  1.00  0.00     0.266 C 
ATOM     16  O   UNL A   1      34.267  28.016  21.938  1.00  0.00    -0.268 OA
ATOM     17  N   UNL A   1      33.318  29.254  23.532  1.00  0.00    -0.304 N 
ATOM     18  H   UNL A   1      33.428  30.021  22.923  1.00  0.00     0.171 HD
BRANCH  17  19
ATOM     19  C   UNL A   1      32.914  29.576  24.801  1.00  0.00     0.154 A 
ATOM     20  C   UNL A   1      31.609  29.739  25.324  1.00  0.00     0.068 A 
ATOM     21  N   UNL A   1      33.837  29.777  25.744  1.00  0.00    -0.155 NA
ATOM     22  C   UNL A   1      31.790  30.230  26.596  1.00  0.00     0.110 A 
ATOM     23  N   UNL A   1      33.140  30.309  26.766  1.00  0.00    -0.274 N 
ATOM     24  C   UNL A   1      33.844  30.973  27.836  1.00  0.00     0.173 C 
ENDBRANCH  17  19
ENDBRANCH  13  15
ENDBRANCH   8   9
ENDBRANCH   4   7
ENDBRANCH   2   3
ENDBRANCH   1   2
BRANCH   1  25
ATOM     25  C   UNL A   1      38.218  19.972  25.053  1.00  0.00     0.023 C 
BRANCH  25  26
ATOM     26  C   UNL A   1      39.434  20.191  25.945  1.00  0.00     0.116 C 
BRANCH  26  27
ATOM     27  N   UNL A   1      40.377  19.083  25.918  1.00  0.00    -0.352 N 
ATOM     28  C   UNL A   1      41.740  19.124  26.096  1.00  0.00     0.251 C 
ATOM     29  H   UNL A   1      39.990  18.194  25.753  1.00  0.00     0.163 HD
ATOM     30  O   UNL A   1      42.420  18.119  25.951  1.00  0.00    -0.269 OA
BRANCH  28  31
ATOM     31  C   UNL A   1      42.376  20.416  26.420  1.00  0.00     0.039 A 
ATOM     32  C   UNL A   1      42.993  21.135  25.394  1.00  0.00     0.014 A 
ATOM     33  C   UNL A   1      42.316  20.935  27.715  1.00  0.00     0.014 A 
ATOM     34  C   UNL A   1      43.490  22.412  25.651  1.00  0.00     0.010 A 
ATOM     35  C   UNL A   1      42.752  22.233  27.956  1.00  0.00     0.010 A 
ATOM     36  C   UNL A   1      43.339  22.985  26.926  1.00  0.00    -0.014 A 
BRANCH  36  37
ATOM     37  C   UNL A   1      43.781  24.373  27.201  1.00  0.00     0.031 A 
ATOM     38  C   UNL A   1      42.793  25.392  27.689  1.00  0.00     0.074 A 
ATOM     39  C   UNL A   1      45.050  24.732  26.932  1.00  0.00     0.049 A 
ATOM     40  N   UNL A   1      42.961  26.671  27.904  1.00  0.00    -0.248 NA
ATOM     41  C   UNL A   1      41.424  24.913  27.944  1.00  0.00     0.031 C 
ATOM     42  C   UNL A   1      46.087  23.844  26.403  1.00  0.00     0.029 A 
ATOM     43  N   UNL A   1      45.682  25.943  27.054  1.00  0.00    -0.354 N 
ATOM     44  C   UNL A   1      41.719  27.153  28.298  1.00  0.00     0.074 A 
ATOM     45  C   UNL A   1      40.797  26.040  28.249  1.00  0.00     0.031 C 
ATOM     46  C   UNL A   1      47.229  24.535  26.263  1.00  0.00     0.029 A 
ATOM     47  C   UNL A   1      46.998  25.921  26.660  1.00  0.00     0.049 A 
ATOM     48  H   UNL A   1      45.234  26.753  27.391  1.00  0.00     0.167 HD
ATOM     49  C   UNL A   1      41.386  28.406  28.687  1.00  0.00     0.037 A 
ATOM     50  C   UNL A   1      47.911  26.909  26.621  1.00  0.00     0.037 A 
ATOM     51  C   UNL A   1      42.316  29.501  28.767  1.00  0.00     0.049 A 
ATOM     52  C   UNL A   1      47.519  28.288  27.076  1.00  0.00     0.074 A 
ATOM     53  C   UNL A   1      42.092  30.793  29.210  1.00  0.00     0.029 A 
ATOM     54  N   UNL A   1      43.650  29.431  28.397  1.00  0.00    -0.354 N 
ATOM     55  N   UNL A   1      46.360  28.717  27.512  1.00  0.00    -0.248 NA
ATOM     56  C   UNL A   1      48.566  29.319  27.043  1.00  0.00     0.031 C 
ATOM     57  C   UNL A   1      43.283  31.514  29.075  1.00  0.00     0.029 A 
ATOM     58  C   UNL A   1      44.259  30.661  28.588  1.00  0.00     0.049 A 
ATOM     59  H   UNL A   1      44.099  28.626  28.050  1.00  0.00     0.167 HD
ATOM     60  C   UNL A   1      46.543  30.055  27.832  1.00  0.00     0.074 A 
ATOM     61  C   UNL A   1      47.929  30.366  27.549  1.00  0.00     0.031 C 
ATOM     62  C   UNL A   1      45.645  30.946  28.317  1.00  0.00     0.037 A 
BRANCH  49  63
ATOM     63  C   UNL A   1      39.956  28.656  29.065  1.00  0.00     0.064 A 
ATOM     64  C   UNL A   1      39.493  28.437  30.371  1.00  0.00     0.173 A 
ATOM     65  C   UNL A   1      39.046  29.151  28.119  1.00  0.00     0.173 A 
ATOM     66  F   UNL A   1      40.321  27.951  31.308  1.00  0.00    -0.203 F 
ATOM     67  C   UNL A   1      38.164  28.676  30.709  1.00  0.00     0.198 A 
ATOM     68  C   UNL A   1      37.724  29.417  28.468  1.00  0.00     0.198 A 
ATOM     69  F   UNL A   1      39.439  29.382  26.857  1.00  0.00    -0.203 F 
ATOM     70  F   UNL A   1      37.733  28.413  31.951  1.00  0.00    -0.200 F 
ATOM     71  C   UNL A   1      37.283  29.173  29.760  1.00  0.00     0.200 A 
ATOM     72  F   UNL A   1      36.877  29.906  27.553  1.00  0.00    -0.200 F 
ATOM     73  F   UNL A   1      36.006  29.407  30.089  1.00  0.00    -0.200 F 
ENDBRANCH  49  63
BRANCH  50  74
ATOM     74  C   UNL A   1      49.294  26.621  26.165  1.00  0.00     0.064 A 
ATOM     75  C   UNL A   1      49.675  26.864  24.837  1.00  0.00     0.173 A 
ATOM     76  C   UNL A   1      50.260  26.102  27.037  1.00  0.00     0.173 A 
ATOM     77  F   UNL A   1      48.779  27.343  23.961  1.00  0.00    -0.203 F 
ATOM     78  C   UNL A   1      50.966  26.581  24.396  1.00  0.00     0.198 A 
ATOM     79  C   UNL A   1      51.558  25.842  26.601  1.00  0.00     0.198 A 
ATOM     80  F   UNL A   1      49.947  25.858  28.318  1.00  0.00    -0.203 F 
ATOM     81  F   UNL A   1      51.292  26.784  23.112  1.00  0.00    -0.200 F 
ATOM     82  C   UNL A   1      51.907  26.074  25.279  1.00  0.00     0.200 A 
ATOM     83  F   UNL A   1      52.469  25.366  27.461  1.00  0.00    -0.200 F 
ATOM     84  F   UNL A   1      53.150  25.806  24.855  1.00  0.00    -0.200 F 
ENDBRANCH  50  74
BRANCH  62  85
ATOM     85  C   UNL A   1      46.139  32.330  28.614  1.00  0.00     0.064 A 
ATOM     86  C   UNL A   1      46.075  33.353  27.658  1.00  0.00     0.173 A 
ATOM     87  C   UNL A   1      46.637  32.645  29.887  1.00  0.00     0.173 A 
ATOM     88  F   UNL A   1      45.622  33.095  26.422  1.00  0.00    -0.203 F 
ATOM     89  C   UNL A   1      46.510  34.641  27.962  1.00  0.00     0.198 A 
ATOM     90  C   UNL A   1      47.046  33.939  30.195  1.00  0.00     0.198 A 
ATOM     91  F   UNL A   1      46.712  31.700  30.836  1.00  0.00    -0.203 F 
ATOM     92  F   UNL A   1      46.476  35.595  27.021  1.00  0.00    -0.200 F 
ATOM     93  C   UNL A   1      46.987  34.934  29.230  1.00  0.00     0.200 A 
ATOM     94  F   UNL A   1      47.496  34.224  31.425  1.00  0.00    -0.200 F 
ATOM     95  F   UNL A   1      47.397  36.176  29.523  1.00  0.00    -0.200 F 
ENDBRANCH  62  85
ENDBRANCH  36  37
ENDBRANCH  28  31
ENDBRANCH  26  27
ENDBRANCH  25  26
ENDBRANCH   1  25
TORSDOF 14
ENDMDL
