MODEL 1
REMARK VINA RESULT:     -14.0      0.000      0.000
REMARK SMILES CN1C(=O)/C(=C(\SC2=[NH+][C@@H]3N=c4ccccc4=C3N=N2)C(=O)NCCCCNC(=O)c2ccc(-c3c4nc(c(-c5c(F)c(F)c(F)c(F)c5F)c5ccc([nH]5)c(-c5c(F)c(F)c(F)c(F)c5F)c5nc(c(-c6c(F)c(F)c(F)c(F)c6F)c6ccc3[nH]6)C=C5)C=C4)cc2)c2ccccc21
REMARK SMILES IDX 25 1 24 2 23 3 21 4 22 5 6 7 1 8 2 9 3 10 99 11 4 12 5 13
REMARK SMILES IDX 94 14 98 15 95 16 97 17 96 18 7 19 8 20 9 21 20 22 10 23
REMARK SMILES IDX 19 25 11 26 18 27 12 28 17 29 13 30 16 31 14 32 15 33 26 34
REMARK SMILES IDX 27 35 28 36 29 37 30 39 31 40 32 41 93 42 33 43 92 44 34 45
REMARK SMILES IDX 35 46 36 47 86 48 37 49 91 50 85 51 87 52 38 53 90 54 84 55
REMARK SMILES IDX 83 56 39 58 71 59 51 60 70 61 52 62 55 63 69 64 88 65 53 66
REMARK SMILES IDX 54 67 68 69 89 70 56 71 40 72 41 73 49 74 42 75 43 76 47 77
REMARK SMILES IDX 50 78 44 79 45 80 48 81 46 82 72 83 73 84 81 85 74 86 75 87
REMARK SMILES IDX 79 88 82 89 76 90 77 91 80 92 78 93 57 94 58 95 66 96 59 97
REMARK SMILES IDX 60 98 64 99 67 100 61 101 62 102 65 103 63 104
REMARK H PARENT 23 6 9 24 28 38 87 57 55 68
REMARK Flexibility Score: inf
ROOT
ATOM      1  C   UNL A   1      31.674  29.129  26.534  1.00  0.00     0.023 C 
ENDROOT
BRANCH   1   2
ATOM      2  C   UNL A   1      31.694  28.186  27.743  1.00  0.00     0.116 C 
BRANCH   2   3
ATOM      3  N   UNL A   1      31.136  26.891  27.393  1.00  0.00    -0.352 N 
ATOM      4  C   UNL A   1      31.265  25.983  26.394  1.00  0.00     0.259 C 
ATOM      5  O   UNL A   1      30.351  25.154  26.438  1.00  0.00    -0.269 OA
ATOM      6  H   UNL A   1      30.486  26.588  28.067  1.00  0.00     0.163 HD
BRANCH   4   7
ATOM      7  C   UNL A   1      32.370  25.893  25.345  1.00  0.00     0.098 C 
ATOM      8  C   UNL A   1      34.122  28.308  21.615  1.00  0.00     0.153 C 
ATOM      9  N   UNL A   1      33.132  27.731  22.478  1.00  0.00    -0.311 N 
ATOM     10  C   UNL A   1      33.211  26.468  23.047  1.00  0.00     0.260 C 
ATOM     11  C   UNL A   1      31.856  28.261  22.710  1.00  0.00     0.052 A 
ATOM     12  O   UNL A   1      33.885  25.519  22.684  1.00  0.00    -0.269 OA
ATOM     13  C   UNL A   1      32.167  26.474  24.129  1.00  0.00     0.069 C 
ATOM     14  C   UNL A   1      31.158  27.433  23.604  1.00  0.00     0.012 A 
ATOM     15  C   UNL A   1      31.257  29.316  22.039  1.00  0.00     0.027 A 
ATOM     16  C   UNL A   1      29.780  27.558  23.685  1.00  0.00     0.011 A 
ATOM     17  C   UNL A   1      29.881  29.483  22.191  1.00  0.00     0.002 A 
ATOM     18  C   UNL A   1      29.145  28.592  22.985  1.00  0.00     0.001 A 
BRANCH   7  19
ATOM     19  S   UNL A   1      33.755  24.901  25.748  1.00  0.00     0.011 SA
BRANCH  19  20
ATOM     20  C   UNL A   1      33.485  23.209  25.246  1.00  0.00     0.386 C 
ATOM     21  N   UNL A   1      34.350  22.315  25.628  1.00  0.00    -0.235 N 
ATOM     22  N   UNL A   1      32.257  22.944  24.668  1.00  0.00     0.088 NA
ATOM     23  C   UNL A   1      33.767  20.972  25.625  1.00  0.00     0.348 C 
ATOM     24  H   UNL A   1      35.279  22.517  25.888  1.00  0.00     0.308 HD
ATOM     25  N   UNL A   1      31.951  21.810  24.240  1.00  0.00    -0.033 NA
ATOM     26  N   UNL A   1      34.727  19.852  25.467  1.00  0.00    -0.232 NA
ATOM     27  C   UNL A   1      32.790  20.795  24.530  1.00  0.00     0.165 C 
ATOM     28  C   UNL A   1      34.123  19.091  24.595  1.00  0.00     0.072 A 
ATOM     29  C   UNL A   1      32.904  19.610  23.951  1.00  0.00     0.032 A 
ATOM     30  C   UNL A   1      34.552  17.746  24.136  1.00  0.00     0.029 A 
ATOM     31  C   UNL A   1      32.210  18.913  22.916  1.00  0.00     0.012 A 
ATOM     32  C   UNL A   1      33.838  17.117  23.183  1.00  0.00     0.002 A 
ATOM     33  C   UNL A   1      32.662  17.701  22.556  1.00  0.00     0.001 A 
ENDBRANCH  19  20
ENDBRANCH   7  19
ENDBRANCH   4   7
ENDBRANCH   2   3
ENDBRANCH   1   2
BRANCH   1  34
ATOM     34  C   UNL A   1      31.421  30.610  26.832  1.00  0.00     0.023 C 
BRANCH  34  35
ATOM     35  C   UNL A   1      32.560  31.563  26.480  1.00  0.00     0.116 C 
BRANCH  35  36
ATOM     36  N   UNL A   1      32.419  32.878  27.088  1.00  0.00    -0.352 N 
ATOM     37  C   UNL A   1      33.227  33.516  28.000  1.00  0.00     0.251 C 
ATOM     38  H   UNL A   1      31.627  33.387  26.803  1.00  0.00     0.163 HD
ATOM     39  O   UNL A   1      32.887  34.594  28.477  1.00  0.00    -0.269 OA
BRANCH  37  40
ATOM     40  C   UNL A   1      34.488  32.883  28.442  1.00  0.00     0.039 A 
ATOM     41  C   UNL A   1      34.523  31.542  28.828  1.00  0.00     0.014 A 
ATOM     42  C   UNL A   1      35.652  33.658  28.489  1.00  0.00     0.014 A 
ATOM     43  C   UNL A   1      35.672  31.026  29.418  1.00  0.00     0.010 A 
ATOM     44  C   UNL A   1      36.828  33.115  29.017  1.00  0.00     0.010 A 
ATOM     45  C   UNL A   1      36.830  31.812  29.538  1.00  0.00    -0.014 A 
BRANCH  45  46
ATOM     46  C   UNL A   1      38.015  31.262  30.242  1.00  0.00     0.031 A 
ATOM     47  C   UNL A   1      38.265  31.593  31.689  1.00  0.00     0.074 A 
ATOM     48  C   UNL A   1      38.827  30.403  29.599  1.00  0.00     0.049 A 
ATOM     49  N   UNL A   1      39.218  31.167  32.481  1.00  0.00    -0.248 NA
ATOM     50  C   UNL A   1      37.325  32.523  32.333  1.00  0.00     0.031 C 
ATOM     51  C   UNL A   1      38.676  29.994  28.203  1.00  0.00     0.029 A 
ATOM     52  N   UNL A   1      39.914  29.694  30.041  1.00  0.00    -0.354 N 
ATOM     53  C   UNL A   1      39.002  31.786  33.704  1.00  0.00     0.074 A 
ATOM     54  C   UNL A   1      37.844  32.639  33.547  1.00  0.00     0.031 C 
ATOM     55  C   UNL A   1      39.599  29.061  27.919  1.00  0.00     0.029 A 
ATOM     56  C   UNL A   1      40.434  28.844  29.097  1.00  0.00     0.049 A 
ATOM     57  H   UNL A   1      40.286  29.786  30.948  1.00  0.00     0.167 HD
ATOM     58  C   UNL A   1      39.698  31.646  34.857  1.00  0.00     0.037 A 
ATOM     59  C   UNL A   1      41.467  27.986  29.172  1.00  0.00     0.037 A 
ATOM     60  C   UNL A   1      40.835  30.778  35.023  1.00  0.00     0.049 A 
ATOM     61  C   UNL A   1      42.243  27.873  30.452  1.00  0.00     0.074 A 
ATOM     62  C   UNL A   1      41.592  30.555  36.159  1.00  0.00     0.029 A 
ATOM     63  N   UNL A   1      41.374  29.986  34.021  1.00  0.00    -0.354 N 
ATOM     64  N   UNL A   1      42.032  28.469  31.599  1.00  0.00    -0.248 NA
ATOM     65  C   UNL A   1      43.409  26.978  30.443  1.00  0.00     0.031 C 
ATOM     66  C   UNL A   1      42.611  29.652  35.837  1.00  0.00     0.029 A 
ATOM     67  C   UNL A   1      42.466  29.285  34.509  1.00  0.00     0.049 A 
ATOM     68  H   UNL A   1      41.032  29.929  33.099  1.00  0.00     0.167 HD
ATOM     69  C   UNL A   1      43.034  28.026  32.449  1.00  0.00     0.074 A 
ATOM     70  C   UNL A   1      43.842  27.091  31.692  1.00  0.00     0.031 C 
ATOM     71  C   UNL A   1      43.266  28.369  33.739  1.00  0.00     0.037 A 
BRANCH  58  72
ATOM     72  C   UNL A   1      39.255  32.456  36.039  1.00  0.00     0.064 A 
ATOM     73  C   UNL A   1      38.331  31.954  36.967  1.00  0.00     0.173 A 
ATOM     74  C   UNL A   1      39.801  33.727  36.276  1.00  0.00     0.173 A 
ATOM     75  F   UNL A   1      37.772  30.749  36.779  1.00  0.00    -0.203 F 
ATOM     76  C   UNL A   1      37.956  32.703  38.080  1.00  0.00     0.198 A 
ATOM     77  C   UNL A   1      39.440  34.463  37.401  1.00  0.00     0.198 A 
ATOM     78  F   UNL A   1      40.692  34.249  35.421  1.00  0.00    -0.203 F 
ATOM     79  F   UNL A   1      37.046  32.217  38.937  1.00  0.00    -0.200 F 
ATOM     80  C   UNL A   1      38.516  33.952  38.299  1.00  0.00     0.200 A 
ATOM     81  F   UNL A   1      39.989  35.666  37.618  1.00  0.00    -0.200 F 
ATOM     82  F   UNL A   1      38.160  34.668  39.376  1.00  0.00    -0.200 F 
ENDBRANCH  58  72
BRANCH  59  83
ATOM     83  C   UNL A   1      41.805  27.153  27.991  1.00  0.00     0.064 A 
ATOM     84  C   UNL A   1      41.189  25.912  27.791  1.00  0.00     0.173 A 
ATOM     85  C   UNL A   1      42.710  27.602  27.018  1.00  0.00     0.173 A 
ATOM     86  F   UNL A   1      40.332  25.434  28.706  1.00  0.00    -0.203 F 
ATOM     87  C   UNL A   1      41.460  25.150  26.656  1.00  0.00     0.198 A 
ATOM     88  C   UNL A   1      42.964  26.850  25.874  1.00  0.00     0.198 A 
ATOM     89  F   UNL A   1      43.323  28.785  27.167  1.00  0.00    -0.203 F 
ATOM     90  F   UNL A   1      40.871  23.958  26.495  1.00  0.00    -0.200 F 
ATOM     91  C   UNL A   1      42.340  25.625  25.694  1.00  0.00     0.200 A 
ATOM     92  F   UNL A   1      43.803  27.319  24.940  1.00  0.00    -0.200 F 
ATOM     93  F   UNL A   1      42.586  24.901  24.594  1.00  0.00    -0.200 F 
ENDBRANCH  59  83
BRANCH  71  94
ATOM     94  C   UNL A   1      44.444  27.736  34.416  1.00  0.00     0.064 A 
ATOM     95  C   UNL A   1      44.334  26.490  35.048  1.00  0.00     0.173 A 
ATOM     96  C   UNL A   1      45.703  28.352  34.381  1.00  0.00     0.173 A 
ATOM     97  F   UNL A   1      43.145  25.871  35.117  1.00  0.00    -0.203 F 
ATOM     98  C   UNL A   1      45.442  25.886  35.633  1.00  0.00     0.198 A 
ATOM     99  C   UNL A   1      46.814  27.735  34.948  1.00  0.00     0.198 A 
ATOM    100  F   UNL A   1      45.859  29.542  33.783  1.00  0.00    -0.203 F 
ATOM    101  F   UNL A   1      45.311  24.708  36.256  1.00  0.00    -0.200 F 
ATOM    102  C   UNL A   1      46.683  26.505  35.576  1.00  0.00     0.200 A 
ATOM    103  F   UNL A   1      48.014  28.329  34.886  1.00  0.00    -0.200 F 
ATOM    104  F   UNL A   1      47.751  25.917  36.132  1.00  0.00    -0.200 F 
ENDBRANCH  71  94
ENDBRANCH  45  46
ENDBRANCH  37  40
ENDBRANCH  35  36
ENDBRANCH  34  35
ENDBRANCH   1  34
TORSDOF 13
ENDMDL
MODEL 2
REMARK VINA RESULT:     -14.0      1.801      2.953
REMARK SMILES CN1C(=O)/C(=C(\SC2=[NH+][C@@H]3N=c4ccccc4=C3N=N2)C(=O)NCCCCNC(=O)c2ccc(-c3c4nc(c(-c5c(F)c(F)c(F)c(F)c5F)c5ccc([nH]5)c(-c5c(F)c(F)c(F)c(F)c5F)c5nc(c(-c6c(F)c(F)c(F)c(F)c6F)c6ccc3[nH]6)C=C5)C=C4)cc2)c2ccccc21
REMARK SMILES IDX 25 1 24 2 23 3 21 4 22 5 6 7 1 8 2 9 3 10 99 11 4 12 5 13
REMARK SMILES IDX 94 14 98 15 95 16 97 17 96 18 7 19 8 20 9 21 20 22 10 23
REMARK SMILES IDX 19 25 11 26 18 27 12 28 17 29 13 30 16 31 14 32 15 33 26 34
REMARK SMILES IDX 27 35 28 36 29 37 30 39 31 40 32 41 93 42 33 43 92 44 34 45
REMARK SMILES IDX 35 46 36 47 86 48 37 49 91 50 85 51 87 52 38 53 90 54 84 55
REMARK SMILES IDX 83 56 39 58 71 59 51 60 70 61 52 62 55 63 69 64 88 65 53 66
REMARK SMILES IDX 54 67 68 69 89 70 56 71 40 72 41 73 49 74 42 75 43 76 47 77
REMARK SMILES IDX 50 78 44 79 45 80 48 81 46 82 72 83 73 84 81 85 74 86 75 87
REMARK SMILES IDX 79 88 82 89 76 90 77 91 80 92 78 93 57 94 58 95 66 96 59 97
REMARK SMILES IDX 60 98 64 99 67 100 61 101 62 102 65 103 63 104
REMARK H PARENT 23 6 9 24 28 38 87 57 55 68
REMARK Flexibility Score: inf
ROOT
ATOM      1  C   UNL A   1      31.407  27.788  27.025  1.00  0.00     0.023 C 
ENDROOT
BRANCH   1   2
ATOM      2  C   UNL A   1      32.234  26.497  27.007  1.00  0.00     0.116 C 
BRANCH   2   3
ATOM      3  N   UNL A   1      31.383  25.339  27.220  1.00  0.00    -0.352 N 
ATOM      4  C   UNL A   1      30.958  24.265  26.509  1.00  0.00     0.259 C 
ATOM      5  O   UNL A   1      30.016  23.709  27.082  1.00  0.00    -0.269 OA
ATOM      6  H   UNL A   1      31.014  25.329  28.133  1.00  0.00     0.163 HD
BRANCH   4   7
ATOM      7  C   UNL A   1      31.526  23.722  25.201  1.00  0.00     0.098 C 
ATOM      8  C   UNL A   1      32.896  25.209  20.873  1.00  0.00     0.153 C 
ATOM      9  N   UNL A   1      32.077  25.110  22.047  1.00  0.00    -0.311 N 
ATOM     10  C   UNL A   1      31.772  23.929  22.708  1.00  0.00     0.260 C 
ATOM     11  C   UNL A   1      31.301  26.149  22.579  1.00  0.00     0.052 A 
ATOM     12  O   UNL A   1      31.817  22.790  22.275  1.00  0.00    -0.269 OA
ATOM     13  C   UNL A   1      31.229  24.369  24.040  1.00  0.00     0.069 C 
ATOM     14  C   UNL A   1      30.629  25.694  23.725  1.00  0.00     0.012 A 
ATOM     15  C   UNL A   1      31.044  27.380  21.996  1.00  0.00     0.027 A 
ATOM     16  C   UNL A   1      29.545  26.421  24.190  1.00  0.00     0.011 A 
ATOM     17  C   UNL A   1      30.001  28.141  22.522  1.00  0.00     0.002 A 
ATOM     18  C   UNL A   1      29.239  27.651  23.592  1.00  0.00     0.001 A 
BRANCH   7  19
ATOM     19  S   UNL A   1      32.391  22.202  25.294  1.00  0.00     0.011 SA
BRANCH  19  20
ATOM     20  C   UNL A   1      34.144  22.486  25.475  1.00  0.00     0.386 C 
ATOM     21  N   UNL A   1      34.949  21.489  25.242  1.00  0.00    -0.235 N 
ATOM     22  N   UNL A   1      34.525  23.805  25.638  1.00  0.00     0.088 NA
ATOM     23  C   UNL A   1      36.295  21.958  24.904  1.00  0.00     0.348 C 
ATOM     24  H   UNL A   1      34.686  20.541  25.286  1.00  0.00     0.308 HD
ATOM     25  N   UNL A   1      35.717  24.140  25.811  1.00  0.00    -0.033 NA
ATOM     26  N   UNL A   1      37.398  21.005  25.183  1.00  0.00    -0.232 NA
ATOM     27  C   UNL A   1      36.655  23.186  25.643  1.00  0.00     0.165 C 
ATOM     28  C   UNL A   1      38.293  21.775  25.740  1.00  0.00     0.072 A 
ATOM     29  C   UNL A   1      37.907  23.158  26.072  1.00  0.00     0.032 A 
ATOM     30  C   UNL A   1      39.677  21.401  26.125  1.00  0.00     0.029 A 
ATOM     31  C   UNL A   1      38.765  24.064  26.766  1.00  0.00     0.012 A 
ATOM     32  C   UNL A   1      40.457  22.308  26.744  1.00  0.00     0.002 A 
ATOM     33  C   UNL A   1      40.003  23.649  27.080  1.00  0.00     0.001 A 
ENDBRANCH  19  20
ENDBRANCH   7  19
ENDBRANCH   4   7
ENDBRANCH   2   3
ENDBRANCH   1   2
BRANCH   1  34
ATOM     34  C   UNL A   1      31.785  28.852  25.991  1.00  0.00     0.023 C 
BRANCH  34  35
ATOM     35  C   UNL A   1      33.045  29.656  26.294  1.00  0.00     0.116 C 
BRANCH  35  36
ATOM     36  N   UNL A   1      32.773  31.037  26.667  1.00  0.00    -0.352 N 
ATOM     37  C   UNL A   1      33.521  31.906  27.426  1.00  0.00     0.251 C 
ATOM     38  H   UNL A   1      31.927  31.403  26.322  1.00  0.00     0.163 HD
ATOM     39  O   UNL A   1      33.073  33.011  27.719  1.00  0.00    -0.269 OA
BRANCH  37  40
ATOM     40  C   UNL A   1      34.847  31.495  27.932  1.00  0.00     0.039 A 
ATOM     41  C   UNL A   1      35.083  30.184  28.351  1.00  0.00     0.014 A 
ATOM     42  C   UNL A   1      35.868  32.449  28.005  1.00  0.00     0.014 A 
ATOM     43  C   UNL A   1      36.275  29.872  28.997  1.00  0.00     0.010 A 
ATOM     44  C   UNL A   1      37.092  32.115  28.591  1.00  0.00     0.010 A 
ATOM     45  C   UNL A   1      37.284  30.838  29.142  1.00  0.00    -0.014 A 
BRANCH  45  46
ATOM     46  C   UNL A   1      38.512  30.501  29.905  1.00  0.00     0.031 A 
ATOM     47  C   UNL A   1      38.644  30.894  31.352  1.00  0.00     0.074 A 
ATOM     48  C   UNL A   1      39.478  29.774  29.314  1.00  0.00     0.049 A 
ATOM     49  N   UNL A   1      39.620  30.642  32.189  1.00  0.00    -0.248 NA
ATOM     50  C   UNL A   1      37.540  31.669  31.936  1.00  0.00     0.031 C 
ATOM     51  C   UNL A   1      39.455  29.322  27.924  1.00  0.00     0.029 A 
ATOM     52  N   UNL A   1      40.646  29.260  29.815  1.00  0.00    -0.354 N 
ATOM     53  C   UNL A   1      39.255  31.240  33.388  1.00  0.00     0.074 A 
ATOM     54  C   UNL A   1      37.982  31.890  33.167  1.00  0.00     0.031 C 
ATOM     55  C   UNL A   1      40.527  28.546  27.698  1.00  0.00     0.029 A 
ATOM     56  C   UNL A   1      41.336  28.489  28.912  1.00  0.00     0.049 A 
ATOM     57  H   UNL A   1      40.960  29.427  30.733  1.00  0.00     0.167 HD
ATOM     58  C   UNL A   1      39.916  31.236  34.570  1.00  0.00     0.037 A 
ATOM     59  C   UNL A   1      42.490  27.811  29.047  1.00  0.00     0.037 A 
ATOM     60  C   UNL A   1      41.170  30.567  34.801  1.00  0.00     0.049 A 
ATOM     61  C   UNL A   1      43.220  27.850  30.359  1.00  0.00     0.074 A 
ATOM     62  C   UNL A   1      41.905  30.491  35.970  1.00  0.00     0.029 A 
ATOM     63  N   UNL A   1      41.872  29.856  33.840  1.00  0.00    -0.354 N 
ATOM     64  N   UNL A   1      42.867  28.424  31.482  1.00  0.00    -0.248 NA
ATOM     65  C   UNL A   1      44.515  27.156  30.416  1.00  0.00     0.031 C 
ATOM     66  C   UNL A   1      43.069  29.760  35.709  1.00  0.00     0.029 A 
ATOM     67  C   UNL A   1      43.042  29.351  34.386  1.00  0.00     0.049 A 
ATOM     68  H   UNL A   1      41.582  29.728  32.907  1.00  0.00     0.167 HD
ATOM     69  C   UNL A   1      43.892  28.165  32.380  1.00  0.00     0.074 A 
ATOM     70  C   UNL A   1      44.871  27.360  31.678  1.00  0.00     0.031 C 
ATOM     71  C   UNL A   1      44.011  28.563  33.670  1.00  0.00     0.037 A 
BRANCH  58  72
ATOM     72  C   UNL A   1      39.299  31.984  35.714  1.00  0.00     0.064 A 
ATOM     73  C   UNL A   1      38.422  31.357  36.611  1.00  0.00     0.173 A 
ATOM     74  C   UNL A   1      39.630  33.327  35.947  1.00  0.00     0.173 A 
ATOM     75  F   UNL A   1      38.066  30.077  36.425  1.00  0.00    -0.203 F 
ATOM     76  C   UNL A   1      37.884  32.054  37.691  1.00  0.00     0.198 A 
ATOM     77  C   UNL A   1      39.108  34.015  37.040  1.00  0.00     0.198 A 
ATOM     78  F   UNL A   1      40.468  33.969  35.121  1.00  0.00    -0.203 F 
ATOM     79  F   UNL A   1      37.022  31.445  38.518  1.00  0.00    -0.200 F 
ATOM     80  C   UNL A   1      38.233  33.379  37.908  1.00  0.00     0.200 A 
ATOM     81  F   UNL A   1      39.454  35.291  37.254  1.00  0.00    -0.200 F 
ATOM     82  F   UNL A   1      37.722  34.045  38.953  1.00  0.00    -0.200 F 
ENDBRANCH  58  72
BRANCH  59  83
ATOM     83  C   UNL A   1      43.008  27.024  27.902  1.00  0.00     0.064 A 
ATOM     84  C   UNL A   1      43.658  27.655  26.835  1.00  0.00     0.173 A 
ATOM     85  C   UNL A   1      42.906  25.625  27.875  1.00  0.00     0.173 A 
ATOM     86  F   UNL A   1      43.760  28.992  26.809  1.00  0.00    -0.203 F 
ATOM     87  C   UNL A   1      44.195  26.916  25.782  1.00  0.00     0.198 A 
ATOM     88  C   UNL A   1      43.463  24.886  26.833  1.00  0.00     0.198 A 
ATOM     89  F   UNL A   1      42.294  24.977  28.875  1.00  0.00    -0.203 F 
ATOM     90  F   UNL A   1      44.798  27.544  24.765  1.00  0.00    -0.200 F 
ATOM     91  C   UNL A   1      44.106  25.532  25.788  1.00  0.00     0.200 A 
ATOM     92  F   UNL A   1      43.386  23.548  26.849  1.00  0.00    -0.200 F 
ATOM     93  F   UNL A   1      44.638  24.821  24.785  1.00  0.00    -0.200 F 
ENDBRANCH  59  83
BRANCH  71  94
ATOM     94  C   UNL A   1      45.246  28.143  34.407  1.00  0.00     0.064 A 
ATOM     95  C   UNL A   1      46.382  28.963  34.446  1.00  0.00     0.173 A 
ATOM     96  C   UNL A   1      45.273  26.940  35.128  1.00  0.00     0.173 A 
ATOM     97  F   UNL A   1      46.405  30.116  33.760  1.00  0.00    -0.203 F 
ATOM     98  C   UNL A   1      47.508  28.589  35.172  1.00  0.00     0.198 A 
ATOM     99  C   UNL A   1      46.393  26.579  35.871  1.00  0.00     0.198 A 
ATOM    100  F   UNL A   1      44.208  26.126  35.125  1.00  0.00    -0.203 F 
ATOM    101  F   UNL A   1      48.594  29.373  35.174  1.00  0.00    -0.200 F 
ATOM    102  C   UNL A   1      47.510  27.401  35.890  1.00  0.00     0.200 A 
ATOM    103  F   UNL A   1      46.392  25.436  36.571  1.00  0.00    -0.200 F 
ATOM    104  F   UNL A   1      48.592  27.047  36.597  1.00  0.00    -0.200 F 
ENDBRANCH  71  94
ENDBRANCH  45  46
ENDBRANCH  37  40
ENDBRANCH  35  36
ENDBRANCH  34  35
ENDBRANCH   1  34
TORSDOF 13
ENDMDL
MODEL 3
REMARK VINA RESULT:     -13.9      4.060      9.190
REMARK SMILES CN1C(=O)/C(=C(\SC2=[NH+][C@@H]3N=c4ccccc4=C3N=N2)C(=O)NCCCCNC(=O)c2ccc(-c3c4nc(c(-c5c(F)c(F)c(F)c(F)c5F)c5ccc([nH]5)c(-c5c(F)c(F)c(F)c(F)c5F)c5nc(c(-c6c(F)c(F)c(F)c(F)c6F)c6ccc3[nH]6)C=C5)C=C4)cc2)c2ccccc21
REMARK SMILES IDX 25 1 24 2 23 3 21 4 22 5 6 7 1 8 2 9 3 10 99 11 4 12 5 13
REMARK SMILES IDX 94 14 98 15 95 16 97 17 96 18 7 19 8 20 9 21 20 22 10 23
REMARK SMILES IDX 19 25 11 26 18 27 12 28 17 29 13 30 16 31 14 32 15 33 26 34
REMARK SMILES IDX 27 35 28 36 29 37 30 39 31 40 32 41 93 42 33 43 92 44 34 45
REMARK SMILES IDX 35 46 36 47 86 48 37 49 91 50 85 51 87 52 38 53 90 54 84 55
REMARK SMILES IDX 83 56 39 58 71 59 51 60 70 61 52 62 55 63 69 64 88 65 53 66
REMARK SMILES IDX 54 67 68 69 89 70 56 71 40 72 41 73 49 74 42 75 43 76 47 77
REMARK SMILES IDX 50 78 44 79 45 80 48 81 46 82 72 83 73 84 81 85 74 86 75 87
REMARK SMILES IDX 79 88 82 89 76 90 77 91 80 92 78 93 57 94 58 95 66 96 59 97
REMARK SMILES IDX 60 98 64 99 67 100 61 101 62 102 65 103 63 104
REMARK H PARENT 23 6 9 24 28 38 87 57 55 68
REMARK Flexibility Score: inf
ROOT
ATOM      1  C   UNL A   1      35.040  22.238  26.627  1.00  0.00     0.023 C 
ENDROOT
BRANCH   1   2
ATOM      2  C   UNL A   1      34.246  23.505  26.288  1.00  0.00     0.116 C 
BRANCH   2   3
ATOM      3  N   UNL A   1      34.654  24.038  24.999  1.00  0.00    -0.352 N 
ATOM      4  C   UNL A   1      34.057  24.541  23.891  1.00  0.00     0.259 C 
ATOM      5  O   UNL A   1      34.860  24.606  22.955  1.00  0.00    -0.269 OA
ATOM      6  H   UNL A   1      35.633  24.032  24.904  1.00  0.00     0.163 HD
BRANCH   4   7
ATOM      7  C   UNL A   1      32.617  25.026  23.738  1.00  0.00     0.098 C 
ATOM      8  C   UNL A   1      30.047  29.050  23.874  1.00  0.00     0.153 C 
ATOM      9  N   UNL A   1      31.034  28.089  24.276  1.00  0.00    -0.311 N 
ATOM     10  C   UNL A   1      30.843  26.715  24.301  1.00  0.00     0.260 C 
ATOM     11  C   UNL A   1      32.254  28.396  24.893  1.00  0.00     0.052 A 
ATOM     12  O   UNL A   1      29.790  26.101  24.342  1.00  0.00    -0.269 OA
ATOM     13  C   UNL A   1      32.228  26.142  24.417  1.00  0.00     0.069 C 
ATOM     14  C   UNL A   1      32.963  27.210  25.146  1.00  0.00     0.012 A 
ATOM     15  C   UNL A   1      32.656  29.631  25.377  1.00  0.00     0.027 A 
ATOM     16  C   UNL A   1      34.003  27.243  26.062  1.00  0.00     0.011 A 
ATOM     17  C   UNL A   1      33.754  29.664  26.236  1.00  0.00     0.002 A 
ATOM     18  C   UNL A   1      34.404  28.475  26.597  1.00  0.00     0.001 A 
BRANCH   7  19
ATOM     19  S   UNL A   1      31.538  24.001  22.819  1.00  0.00     0.011 SA
BRANCH  19  20
ATOM     20  C   UNL A   1      31.911  22.278  23.102  1.00  0.00     0.386 C 
ATOM     21  N   UNL A   1      32.063  21.883  24.333  1.00  0.00    -0.235 N 
ATOM     22  N   UNL A   1      31.797  21.451  22.000  1.00  0.00     0.088 NA
ATOM     23  C   UNL A   1      31.831  20.443  24.463  1.00  0.00     0.348 C 
ATOM     24  H   UNL A   1      32.301  22.477  25.081  1.00  0.00     0.308 HD
ATOM     25  N   UNL A   1      32.062  20.230  22.051  1.00  0.00    -0.033 NA
ATOM     26  N   UNL A   1      32.507  19.782  25.607  1.00  0.00    -0.232 NA
ATOM     27  C   UNL A   1      32.286  19.699  23.270  1.00  0.00     0.165 C 
ATOM     28  C   UNL A   1      32.985  18.699  25.057  1.00  0.00     0.072 A 
ATOM     29  C   UNL A   1      32.896  18.569  23.592  1.00  0.00     0.032 A 
ATOM     30  C   UNL A   1      33.660  17.571  25.747  1.00  0.00     0.029 A 
ATOM     31  C   UNL A   1      33.466  17.479  22.868  1.00  0.00     0.012 A 
ATOM     32  C   UNL A   1      34.147  16.549  25.017  1.00  0.00     0.002 A 
ATOM     33  C   UNL A   1      34.062  16.498  23.566  1.00  0.00     0.001 A 
ENDBRANCH  19  20
ENDBRANCH   7  19
ENDBRANCH   4   7
ENDBRANCH   2   3
ENDBRANCH   1   2
BRANCH   1  34
ATOM     34  C   UNL A   1      35.663  21.490  25.444  1.00  0.00     0.023 C 
BRANCH  34  35
ATOM     35  C   UNL A   1      37.094  21.882  25.087  1.00  0.00     0.116 C 
BRANCH  35  36
ATOM     36  N   UNL A   1      38.070  20.848  25.398  1.00  0.00    -0.352 N 
ATOM     37  C   UNL A   1      39.279  20.948  26.045  1.00  0.00     0.251 C 
ATOM     38  H   UNL A   1      37.827  19.942  25.103  1.00  0.00     0.163 HD
ATOM     39  O   UNL A   1      40.018  19.971  26.126  1.00  0.00    -0.269 OA
BRANCH  37  40
ATOM     40  C   UNL A   1      39.715  22.245  26.605  1.00  0.00     0.039 A 
ATOM     41  C   UNL A   1      39.143  23.443  26.175  1.00  0.00     0.014 A 
ATOM     42  C   UNL A   1      40.732  22.258  27.566  1.00  0.00     0.014 A 
ATOM     43  C   UNL A   1      39.700  24.654  26.575  1.00  0.00     0.010 A 
ATOM     44  C   UNL A   1      41.244  23.477  28.021  1.00  0.00     0.010 A 
ATOM     45  C   UNL A   1      40.768  24.684  27.485  1.00  0.00    -0.014 A 
BRANCH  45  46
ATOM     46  C   UNL A   1      41.394  25.984  27.833  1.00  0.00     0.031 A 
ATOM     47  C   UNL A   1      42.774  26.324  27.339  1.00  0.00     0.074 A 
ATOM     48  C   UNL A   1      40.688  26.891  28.532  1.00  0.00     0.049 A 
ATOM     49  N   UNL A   1      43.460  27.429  27.500  1.00  0.00    -0.248 NA
ATOM     50  C   UNL A   1      43.478  25.292  26.563  1.00  0.00     0.031 C 
ATOM     51  C   UNL A   1      39.336  26.683  29.050  1.00  0.00     0.029 A 
ATOM     52  N   UNL A   1      40.992  28.177  28.897  1.00  0.00    -0.354 N 
ATOM     53  C   UNL A   1      44.676  27.218  26.863  1.00  0.00     0.074 A 
ATOM     54  C   UNL A   1      44.648  25.871  26.334  1.00  0.00     0.031 C 
ATOM     55  C   UNL A   1      38.904  27.822  29.614  1.00  0.00     0.029 A 
ATOM     56  C   UNL A   1      39.965  28.822  29.540  1.00  0.00     0.049 A 
ATOM     57  H   UNL A   1      41.864  28.598  28.715  1.00  0.00     0.167 HD
ATOM     58  C   UNL A   1      45.715  28.074  26.720  1.00  0.00     0.037 A 
ATOM     59  C   UNL A   1      39.886  30.078  30.016  1.00  0.00     0.037 A 
ATOM     60  C   UNL A   1      45.735  29.423  27.223  1.00  0.00     0.049 A 
ATOM     61  C   UNL A   1      41.064  30.997  29.874  1.00  0.00     0.074 A 
ATOM     62  C   UNL A   1      46.735  30.372  27.110  1.00  0.00     0.029 A 
ATOM     63  N   UNL A   1      44.700  30.016  27.931  1.00  0.00    -0.354 N 
ATOM     64  N   UNL A   1      42.209  30.783  29.276  1.00  0.00    -0.248 NA
ATOM     65  C   UNL A   1      40.943  32.327  30.487  1.00  0.00     0.031 C 
ATOM     66  C   UNL A   1      46.320  31.529  27.779  1.00  0.00     0.029 A 
ATOM     67  C   UNL A   1      45.046  31.312  28.278  1.00  0.00     0.049 A 
ATOM     68  H   UNL A   1      43.845  29.579  28.155  1.00  0.00     0.167 HD
ATOM     69  C   UNL A   1      42.947  31.946  29.437  1.00  0.00     0.074 A 
ATOM     70  C   UNL A   1      42.110  32.874  30.170  1.00  0.00     0.031 C 
ATOM     71  C   UNL A   1      44.206  32.217  29.019  1.00  0.00     0.037 A 
BRANCH  58  72
ATOM     72  C   UNL A   1      46.930  27.579  25.994  1.00  0.00     0.064 A 
ATOM     73  C   UNL A   1      47.047  27.693  24.601  1.00  0.00     0.173 A 
ATOM     74  C   UNL A   1      48.009  27.031  26.702  1.00  0.00     0.173 A 
ATOM     75  F   UNL A   1      46.038  28.199  23.877  1.00  0.00    -0.203 F 
ATOM     76  C   UNL A   1      48.197  27.262  23.942  1.00  0.00     0.198 A 
ATOM     77  C   UNL A   1      49.165  26.621  26.044  1.00  0.00     0.198 A 
ATOM     78  F   UNL A   1      47.947  26.905  28.036  1.00  0.00    -0.203 F 
ATOM     79  F   UNL A   1      48.276  27.351  22.607  1.00  0.00    -0.200 F 
ATOM     80  C   UNL A   1      49.256  26.733  24.665  1.00  0.00     0.200 A 
ATOM     81  F   UNL A   1      50.192  26.120  26.743  1.00  0.00    -0.200 F 
ATOM     82  F   UNL A   1      50.365  26.327  24.030  1.00  0.00    -0.200 F 
ENDBRANCH  58  72
BRANCH  59  83
ATOM     83  C   UNL A   1      38.626  30.534  30.654  1.00  0.00     0.064 A 
ATOM     84  C   UNL A   1      38.496  30.553  32.047  1.00  0.00     0.173 A 
ATOM     85  C   UNL A   1      37.551  31.005  29.886  1.00  0.00     0.173 A 
ATOM     86  F   UNL A   1      39.492  30.094  32.819  1.00  0.00    -0.203 F 
ATOM     87  C   UNL A   1      37.336  31.032  32.654  1.00  0.00     0.198 A 
ATOM     88  C   UNL A   1      36.401  31.504  30.494  1.00  0.00     0.198 A 
ATOM     89  F   UNL A   1      37.631  31.007  28.548  1.00  0.00    -0.203 F 
ATOM     90  F   UNL A   1      37.229  31.025  33.989  1.00  0.00    -0.200 F 
ATOM     91  C   UNL A   1      36.294  31.517  31.876  1.00  0.00     0.200 A 
ATOM     92  F   UNL A   1      35.402  31.983  29.740  1.00  0.00    -0.200 F 
ATOM     93  F   UNL A   1      35.187  31.994  32.460  1.00  0.00    -0.200 F 
ENDBRANCH  59  83
BRANCH  71  94
ATOM     94  C   UNL A   1      44.763  33.569  29.348  1.00  0.00     0.064 A 
ATOM     95  C   UNL A   1      45.517  33.779  30.512  1.00  0.00     0.173 A 
ATOM     96  C   UNL A   1      44.594  34.646  28.466  1.00  0.00     0.173 A 
ATOM     97  F   UNL A   1      45.692  32.780  31.390  1.00  0.00    -0.203 F 
ATOM     98  C   UNL A   1      46.072  35.024  30.788  1.00  0.00     0.198 A 
ATOM     99  C   UNL A   1      45.169  35.885  28.734  1.00  0.00     0.198 A 
ATOM    100  F   UNL A   1      43.887  34.492  27.338  1.00  0.00    -0.203 F 
ATOM    101  F   UNL A   1      46.764  35.213  31.919  1.00  0.00    -0.200 F 
ATOM    102  C   UNL A   1      45.904  36.074  29.895  1.00  0.00     0.200 A 
ATOM    103  F   UNL A   1      45.014  36.896  27.869  1.00  0.00    -0.200 F 
ATOM    104  F   UNL A   1      46.447  37.270  30.158  1.00  0.00    -0.200 F 
ENDBRANCH  71  94
ENDBRANCH  45  46
ENDBRANCH  37  40
ENDBRANCH  35  36
ENDBRANCH  34  35
ENDBRANCH   1  34
TORSDOF 13
ENDMDL
