MODEL 1
REMARK VINA RESULT:     -12.7      0.000      0.000
REMARK SMILES O=C(COc1ccc(/C=N/NC(=O)c2cc3cc([N+](=O)[O-])ccc3o2)cc1)NCCCCNC(=O)c1ccc(-c2c3nc(c(-c4c(F)c(F)c(F)c(F)c4F)c4ccc([nH]4)c(-c4c(F)c(F)c(F)c(F)c4F)c4nc(c(-c5c(F)c(F)c(F)c(F)c5F)c5ccc2[nH]5)C=C4)C=C3)cc1
REMARK SMILES IDX 1 1 2 2 28 3 3 5 4 6 5 7 6 8 27 9 7 10 26 11 8 12 9 13 10 14
REMARK SMILES IDX 11 15 12 16 13 18 14 19 15 20 25 21 16 22 24 23 17 24 23 25
REMARK SMILES IDX 18 26 22 27 19 28 20 29 21 30 29 31 30 32 31 33 32 34 33 35
REMARK SMILES IDX 34 36 35 38 36 39 37 40 98 41 38 42 97 43 39 44 40 45 41 46
REMARK SMILES IDX 91 47 42 48 96 49 90 50 92 51 43 52 95 53 89 54 88 55 44 57
REMARK SMILES IDX 76 58 56 59 75 60 57 61 60 62 74 63 93 64 58 65 59 66 73 68
REMARK SMILES IDX 94 69 61 70 45 71 46 72 54 73 47 74 48 75 52 76 55 77 49 78
REMARK SMILES IDX 50 79 53 80 51 81 77 82 78 83 86 84 79 85 80 86 84 87 87 88
REMARK SMILES IDX 81 89 82 90 85 91 83 92 62 93 63 94 71 95 64 96 65 97 69 98
REMARK SMILES IDX 72 99 66 100 67 101 70 102 68 103
REMARK H PARENT 28 4 11 17 33 37 92 56 60 67
REMARK Flexibility Score: inf
ROOT
ATOM      1  O   UNL A   1      39.906  23.428  27.584  1.00  0.00    -0.271 OA
ATOM      2  C   UNL A   1      39.391  22.988  26.561  1.00  0.00     0.257 C 
ATOM      3  N   UNL A   1      39.903  21.919  25.849  1.00  0.00    -0.353 N 
ATOM      4  H   UNL A   1      39.342  21.490  25.162  1.00  0.00     0.163 HD
ENDROOT
BRANCH   2   5
ATOM      5  C   UNL A   1      38.146  23.623  25.931  1.00  0.00     0.329 C 
BRANCH   5   6
ATOM      6  O   UNL A   1      37.013  22.771  25.772  1.00  0.00    -0.484 OA
BRANCH   6   7
ATOM      7  C   UNL A   1      35.795  23.363  25.989  1.00  0.00     0.120 A 
ATOM      8  C   UNL A   1      34.853  22.614  26.695  1.00  0.00     0.047 A 
ATOM      9  C   UNL A   1      35.417  24.585  25.428  1.00  0.00     0.047 A 
ATOM     10  C   UNL A   1      33.542  23.086  26.838  1.00  0.00     0.013 A 
ATOM     11  C   UNL A   1      34.107  25.048  25.541  1.00  0.00     0.013 A 
ATOM     12  C   UNL A   1      33.170  24.295  26.241  1.00  0.00    -0.005 A 
BRANCH  12  13
ATOM     13  C   UNL A   1      31.763  24.746  26.216  1.00  0.00     0.141 C 
ATOM     14  N   UNL A   1      31.160  24.932  25.095  1.00  0.00    -0.180 NA
BRANCH  14  15
ATOM     15  N   UNL A   1      29.944  25.532  25.038  1.00  0.00    -0.240 N 
ATOM     16  C   UNL A   1      29.366  26.471  24.215  1.00  0.00     0.307 C 
ATOM     17  H   UNL A   1      29.335  25.224  25.749  1.00  0.00     0.194 HD
ATOM     18  O   UNL A   1      28.139  26.405  24.083  1.00  0.00    -0.264 OA
BRANCH  16  19
ATOM     19  C   UNL A   1      30.093  27.578  23.626  1.00  0.00     0.194 A 
ATOM     20  C   UNL A   1      30.095  28.003  22.303  1.00  0.00     0.065 A 
ATOM     21  O   UNL A   1      30.225  28.681  24.440  1.00  0.00    -0.451 OA
ATOM     22  C   UNL A   1      29.769  29.392  22.353  1.00  0.00     0.028 A 
ATOM     23  C   UNL A   1      29.866  29.755  23.690  1.00  0.00     0.135 A 
ATOM     24  C   UNL A   1      29.253  30.324  21.433  1.00  0.00     0.097 A 
ATOM     25  C   UNL A   1      29.498  30.997  24.203  1.00  0.00     0.055 A 
ATOM     26  C   UNL A   1      28.749  31.537  21.948  1.00  0.00     0.270 A 
ATOM     27  C   UNL A   1      28.881  31.876  23.306  1.00  0.00     0.089 A 
BRANCH  26  28
ATOM     28  N   UNL A   1      27.973  32.416  21.061  1.00  0.00     0.062 N 
ATOM     29  O   UNL A   1      27.584  31.946  19.983  1.00  0.00    -0.258 OA
ATOM     30  O   UNL A   1      27.735  33.567  21.454  1.00  0.00    -0.258 OA
ENDBRANCH  26  28
ENDBRANCH  16  19
ENDBRANCH  14  15
ENDBRANCH  12  13
ENDBRANCH   6   7
ENDBRANCH   5   6
ENDBRANCH   2   5
BRANCH   3  31
ATOM     31  C   UNL A   1      41.239  21.414  26.085  1.00  0.00     0.116 C 
BRANCH  31  32
ATOM     32  C   UNL A   1      41.259  19.999  26.647  1.00  0.00     0.023 C 
BRANCH  32  33
ATOM     33  C   UNL A   1      41.917  18.961  25.738  1.00  0.00     0.023 C 
BRANCH  33  34
ATOM     34  C   UNL A   1      43.370  18.628  26.064  1.00  0.00     0.116 C 
BRANCH  34  35
ATOM     35  N   UNL A   1      44.210  18.514  24.881  1.00  0.00    -0.352 N 
ATOM     36  C   UNL A   1      44.863  19.495  24.174  1.00  0.00     0.251 C 
ATOM     37  H   UNL A   1      44.327  17.599  24.536  1.00  0.00     0.163 HD
ATOM     38  O   UNL A   1      45.418  19.219  23.111  1.00  0.00    -0.269 OA
BRANCH  36  39
ATOM     39  C   UNL A   1      44.876  20.890  24.664  1.00  0.00     0.039 A 
ATOM     40  C   UNL A   1      45.253  21.137  25.987  1.00  0.00     0.014 A 
ATOM     41  C   UNL A   1      44.519  21.955  23.831  1.00  0.00     0.014 A 
ATOM     42  C   UNL A   1      45.346  22.452  26.450  1.00  0.00     0.010 A 
ATOM     43  C   UNL A   1      44.688  23.267  24.271  1.00  0.00     0.010 A 
ATOM     44  C   UNL A   1      45.106  23.530  25.583  1.00  0.00    -0.014 A 
BRANCH  44  45
ATOM     45  C   UNL A   1      45.302  24.936  26.029  1.00  0.00     0.031 A 
ATOM     46  C   UNL A   1      46.665  25.570  25.970  1.00  0.00     0.074 A 
ATOM     47  C   UNL A   1      44.265  25.622  26.550  1.00  0.00     0.049 A 
ATOM     48  N   UNL A   1      47.046  26.756  26.375  1.00  0.00    -0.248 NA
ATOM     49  C   UNL A   1      47.749  24.753  25.405  1.00  0.00     0.031 C 
ATOM     50  C   UNL A   1      42.903  25.109  26.703  1.00  0.00     0.029 A 
ATOM     51  N   UNL A   1      44.196  26.897  27.056  1.00  0.00    -0.354 N 
ATOM     52  C   UNL A   1      48.410  26.821  26.126  1.00  0.00     0.074 A 
ATOM     53  C   UNL A   1      48.803  25.536  25.587  1.00  0.00     0.031 C 
ATOM     54  C   UNL A   1      42.129  26.065  27.239  1.00  0.00     0.029 A 
ATOM     55  C   UNL A   1      42.947  27.243  27.511  1.00  0.00     0.049 A 
ATOM     56  H   UNL A   1      44.969  27.506  27.090  1.00  0.00     0.167 HD
ATOM     57  C   UNL A   1      49.256  27.863  26.310  1.00  0.00     0.037 A 
ATOM     58  C   UNL A   1      42.511  28.377  28.091  1.00  0.00     0.037 A 
ATOM     59  C   UNL A   1      48.859  29.148  26.828  1.00  0.00     0.049 A 
ATOM     60  C   UNL A   1      43.477  29.513  28.305  1.00  0.00     0.074 A 
ATOM     61  C   UNL A   1      49.629  30.286  26.993  1.00  0.00     0.029 A 
ATOM     62  N   UNL A   1      47.583  29.462  27.274  1.00  0.00    -0.354 N 
ATOM     63  N   UNL A   1      44.749  29.588  27.998  1.00  0.00    -0.248 NA
ATOM     64  C   UNL A   1      42.943  30.725  28.944  1.00  0.00     0.031 C 
ATOM     65  C   UNL A   1      48.836  31.269  27.592  1.00  0.00     0.029 A 
ATOM     66  C   UNL A   1      47.553  30.766  27.742  1.00  0.00     0.049 A 
ATOM     67  H   UNL A   1      46.813  28.849  27.259  1.00  0.00     0.167 HD
ATOM     68  C   UNL A   1      45.157  30.862  28.372  1.00  0.00     0.074 A 
ATOM     69  C   UNL A   1      43.994  31.530  28.916  1.00  0.00     0.031 C 
ATOM     70  C   UNL A   1      46.386  31.426  28.273  1.00  0.00     0.037 A 
BRANCH  57  71
ATOM     71  C   UNL A   1      50.701  27.661  25.954  1.00  0.00     0.064 A 
ATOM     72  C   UNL A   1      51.636  27.195  26.891  1.00  0.00     0.173 A 
ATOM     73  C   UNL A   1      51.150  27.894  24.644  1.00  0.00     0.173 A 
ATOM     74  F   UNL A   1      51.264  26.964  28.160  1.00  0.00    -0.203 F 
ATOM     75  C   UNL A   1      52.970  27.003  26.540  1.00  0.00     0.198 A 
ATOM     76  C   UNL A   1      52.477  27.668  24.288  1.00  0.00     0.198 A 
ATOM     77  F   UNL A   1      50.299  28.333  23.706  1.00  0.00    -0.203 F 
ATOM     78  F   UNL A   1      53.855  26.609  27.467  1.00  0.00    -0.200 F 
ATOM     79  C   UNL A   1      53.388  27.231  25.239  1.00  0.00     0.200 A 
ATOM     80  F   UNL A   1      52.875  27.875  23.026  1.00  0.00    -0.200 F 
ATOM     81  F   UNL A   1      54.670  27.037  24.901  1.00  0.00    -0.200 F 
ENDBRANCH  57  71
BRANCH  58  82
ATOM     82  C   UNL A   1      41.086  28.509  28.496  1.00  0.00     0.064 A 
ATOM     83  C   UNL A   1      40.661  28.117  29.774  1.00  0.00     0.173 A 
ATOM     84  C   UNL A   1      40.118  29.014  27.616  1.00  0.00     0.173 A 
ATOM     85  F   UNL A   1      41.546  27.607  30.645  1.00  0.00    -0.203 F 
ATOM     86  C   UNL A   1      39.322  28.200  30.146  1.00  0.00     0.198 A 
ATOM     87  C   UNL A   1      38.784  29.128  28.001  1.00  0.00     0.198 A 
ATOM     88  F   UNL A   1      40.470  29.408  26.383  1.00  0.00    -0.203 F 
ATOM     89  F   UNL A   1      38.937  27.768  31.355  1.00  0.00    -0.200 F 
ATOM     90  C   UNL A   1      38.385  28.711  29.261  1.00  0.00     0.200 A 
ATOM     91  F   UNL A   1      37.884  29.636  27.148  1.00  0.00    -0.200 F 
ATOM     92  F   UNL A   1      37.096  28.793  29.620  1.00  0.00    -0.200 F 
ENDBRANCH  58  82
BRANCH  70  93
ATOM     93  C   UNL A   1      46.531  32.852  28.722  1.00  0.00     0.064 A 
ATOM     94  C   UNL A   1      46.319  33.930  27.848  1.00  0.00     0.173 A 
ATOM     95  C   UNL A   1      46.849  33.145  30.057  1.00  0.00     0.173 A 
ATOM     96  F   UNL A   1      46.027  33.705  26.558  1.00  0.00    -0.203 F 
ATOM     97  C   UNL A   1      46.449  35.245  28.288  1.00  0.00     0.198 A 
ATOM     98  C   UNL A   1      46.944  34.461  30.501  1.00  0.00     0.198 A 
ATOM     99  F   UNL A   1      47.056  32.153  30.937  1.00  0.00    -0.203 F 
ATOM    100  F   UNL A   1      46.294  36.256  27.423  1.00  0.00    -0.200 F 
ATOM    101  C   UNL A   1      46.753  35.509  29.615  1.00  0.00     0.200 A 
ATOM    102  F   UNL A   1      47.221  34.713  31.788  1.00  0.00    -0.200 F 
ATOM    103  F   UNL A   1      46.868  36.775  30.038  1.00  0.00    -0.200 F 
ENDBRANCH  70  93
ENDBRANCH  44  45
ENDBRANCH  36  39
ENDBRANCH  34  35
ENDBRANCH  33  34
ENDBRANCH  32  33
ENDBRANCH  31  32
ENDBRANCH   3  31
TORSDOF 17
ENDMDL
MODEL 2
REMARK VINA RESULT:     -12.4      6.544     12.166
REMARK SMILES O=C(COc1ccc(/C=N/NC(=O)c2cc3cc([N+](=O)[O-])ccc3o2)cc1)NCCCCNC(=O)c1ccc(-c2c3nc(c(-c4c(F)c(F)c(F)c(F)c4F)c4ccc([nH]4)c(-c4c(F)c(F)c(F)c(F)c4F)c4nc(c(-c5c(F)c(F)c(F)c(F)c5F)c5ccc2[nH]5)C=C4)C=C3)cc1
REMARK SMILES IDX 1 1 2 2 28 3 3 5 4 6 5 7 6 8 27 9 7 10 26 11 8 12 9 13 10 14
REMARK SMILES IDX 11 15 12 16 13 18 14 19 15 20 25 21 16 22 24 23 17 24 23 25
REMARK SMILES IDX 18 26 22 27 19 28 20 29 21 30 29 31 30 32 31 33 32 34 33 35
REMARK SMILES IDX 34 36 35 38 36 39 37 40 98 41 38 42 97 43 39 44 40 45 41 46
REMARK SMILES IDX 91 47 42 48 96 49 90 50 92 51 43 52 95 53 89 54 88 55 44 57
REMARK SMILES IDX 76 58 56 59 75 60 57 61 60 62 74 63 93 64 58 65 59 66 73 68
REMARK SMILES IDX 94 69 61 70 45 71 46 72 54 73 47 74 48 75 52 76 55 77 49 78
REMARK SMILES IDX 50 79 53 80 51 81 77 82 78 83 86 84 79 85 80 86 84 87 87 88
REMARK SMILES IDX 81 89 82 90 85 91 83 92 62 93 63 94 71 95 64 96 65 97 69 98
REMARK SMILES IDX 72 99 66 100 67 101 70 102 68 103
REMARK H PARENT 28 4 11 17 33 37 92 56 60 67
REMARK Flexibility Score: inf
ROOT
ATOM      1  O   UNL A   1      34.221  30.364  27.292  1.00  0.00    -0.271 OA
ATOM      2  C   UNL A   1      33.299  31.174  27.278  1.00  0.00     0.257 C 
ATOM      3  N   UNL A   1      33.436  32.491  27.675  1.00  0.00    -0.353 N 
ATOM      4  H   UNL A   1      32.723  33.134  27.453  1.00  0.00     0.163 HD
ENDROOT
BRANCH   2   5
ATOM      5  C   UNL A   1      31.873  30.786  26.870  1.00  0.00     0.329 C 
BRANCH   5   6
ATOM      6  O   UNL A   1      31.734  30.111  25.621  1.00  0.00    -0.484 OA
BRANCH   6   7
ATOM      7  C   UNL A   1      31.452  28.772  25.702  1.00  0.00     0.120 A 
ATOM      8  C   UNL A   1      31.648  28.166  26.944  1.00  0.00     0.047 A 
ATOM      9  C   UNL A   1      31.125  27.981  24.597  1.00  0.00     0.047 A 
ATOM     10  C   UNL A   1      31.518  26.778  27.077  1.00  0.00     0.013 A 
ATOM     11  C   UNL A   1      31.023  26.596  24.717  1.00  0.00     0.013 A 
ATOM     12  C   UNL A   1      31.225  25.995  25.955  1.00  0.00    -0.005 A 
BRANCH  12  13
ATOM     13  C   UNL A   1      31.251  24.519  26.011  1.00  0.00     0.141 C 
ATOM     14  N   UNL A   1      31.776  23.917  27.020  1.00  0.00    -0.180 NA
BRANCH  14  15
ATOM     15  N   UNL A   1      31.992  22.577  27.009  1.00  0.00    -0.240 N 
ATOM     16  C   UNL A   1      33.006  21.766  26.556  1.00  0.00     0.307 C 
ATOM     17  H   UNL A   1      31.254  22.070  27.419  1.00  0.00     0.194 HD
ATOM     18  O   UNL A   1      33.162  20.696  27.155  1.00  0.00    -0.264 OA
BRANCH  16  19
ATOM     19  C   UNL A   1      33.783  22.041  25.363  1.00  0.00     0.194 A 
ATOM     20  C   UNL A   1      33.452  21.781  24.038  1.00  0.00     0.065 A 
ATOM     21  O   UNL A   1      34.522  23.201  25.411  1.00  0.00    -0.451 OA
ATOM     22  C   UNL A   1      33.606  23.029  23.361  1.00  0.00     0.028 A 
ATOM     23  C   UNL A   1      34.271  23.863  24.251  1.00  0.00     0.135 A 
ATOM     24  C   UNL A   1      33.113  23.574  22.161  1.00  0.00     0.097 A 
ATOM     25  C   UNL A   1      34.506  25.220  24.041  1.00  0.00     0.055 A 
ATOM     26  C   UNL A   1      33.219  24.970  21.987  1.00  0.00     0.270 A 
ATOM     27  C   UNL A   1      33.914  25.779  22.903  1.00  0.00     0.089 A 
BRANCH  26  28
ATOM     28  N   UNL A   1      32.490  25.605  20.879  1.00  0.00     0.062 N 
ATOM     29  O   UNL A   1      32.965  25.491  19.740  1.00  0.00    -0.258 OA
ATOM     30  O   UNL A   1      31.435  26.197  21.146  1.00  0.00    -0.258 OA
ENDBRANCH  26  28
ENDBRANCH  16  19
ENDBRANCH  14  15
ENDBRANCH  12  13
ENDBRANCH   6   7
ENDBRANCH   5   6
ENDBRANCH   2   5
BRANCH   3  31
ATOM     31  C   UNL A   1      34.597  32.951  28.407  1.00  0.00     0.116 C 
BRANCH  31  32
ATOM     32  C   UNL A   1      34.638  34.463  28.586  1.00  0.00     0.023 C 
BRANCH  32  33
ATOM     33  C   UNL A   1      33.278  35.112  28.840  1.00  0.00     0.023 C 
BRANCH  33  34
ATOM     34  C   UNL A   1      33.311  36.426  29.616  1.00  0.00     0.116 C 
BRANCH  34  35
ATOM     35  N   UNL A   1      32.503  36.396  30.826  1.00  0.00    -0.352 N 
ATOM     36  C   UNL A   1      32.697  35.693  31.991  1.00  0.00     0.251 C 
ATOM     37  H   UNL A   1      31.699  36.964  30.808  1.00  0.00     0.163 HD
ATOM     38  O   UNL A   1      31.826  35.691  32.859  1.00  0.00    -0.269 OA
BRANCH  36  39
ATOM     39  C   UNL A   1      33.935  34.909  32.196  1.00  0.00     0.039 A 
ATOM     40  C   UNL A   1      35.156  35.583  32.269  1.00  0.00     0.014 A 
ATOM     41  C   UNL A   1      33.899  33.516  32.314  1.00  0.00     0.014 A 
ATOM     42  C   UNL A   1      36.329  34.872  32.538  1.00  0.00     0.010 A 
ATOM     43  C   UNL A   1      35.056  32.819  32.660  1.00  0.00     0.010 A 
ATOM     44  C   UNL A   1      36.282  33.489  32.778  1.00  0.00    -0.014 A 
BRANCH  44  45
ATOM     45  C   UNL A   1      37.503  32.733  33.169  1.00  0.00     0.031 A 
ATOM     46  C   UNL A   1      38.199  33.031  34.469  1.00  0.00     0.074 A 
ATOM     47  C   UNL A   1      38.024  31.824  32.322  1.00  0.00     0.049 A 
ATOM     48  N   UNL A   1      39.308  32.527  34.950  1.00  0.00    -0.248 NA
ATOM     49  C   UNL A   1      37.579  34.048  35.332  1.00  0.00     0.031 C 
ATOM     50  C   UNL A   1      37.472  31.472  31.014  1.00  0.00     0.029 A 
ATOM     51  N   UNL A   1      39.143  31.034  32.431  1.00  0.00    -0.354 N 
ATOM     52  C   UNL A   1      39.525  33.174  36.159  1.00  0.00     0.074 A 
ATOM     53  C   UNL A   1      38.463  34.146  36.315  1.00  0.00     0.031 C 
ATOM     54  C   UNL A   1      38.235  30.521  30.453  1.00  0.00     0.029 A 
ATOM     55  C   UNL A   1      39.357  30.227  31.340  1.00  0.00     0.049 A 
ATOM     56  H   UNL A   1      39.736  31.044  33.217  1.00  0.00     0.167 HD
ATOM     57  C   UNL A   1      40.507  32.964  37.069  1.00  0.00     0.037 A 
ATOM     58  C   UNL A   1      40.350  29.355  31.078  1.00  0.00     0.037 A 
ATOM     59  C   UNL A   1      41.551  31.982  36.921  1.00  0.00     0.049 A 
ATOM     60  C   UNL A   1      41.442  29.156  32.096  1.00  0.00     0.074 A 
ATOM     61  C   UNL A   1      42.554  31.650  37.815  1.00  0.00     0.029 A 
ATOM     62  N   UNL A   1      41.732  31.180  35.803  1.00  0.00    -0.354 N 
ATOM     63  N   UNL A   1      41.595  29.721  33.268  1.00  0.00    -0.248 NA
ATOM     64  C   UNL A   1      42.498  28.193  31.753  1.00  0.00     0.031 C 
ATOM     65  C   UNL A   1      43.377  30.691  37.215  1.00  0.00     0.029 A 
ATOM     66  C   UNL A   1      42.849  30.377  35.973  1.00  0.00     0.049 A 
ATOM     67  H   UNL A   1      41.152  31.181  35.008  1.00  0.00     0.167 HD
ATOM     68  C   UNL A   1      42.740  29.158  33.816  1.00  0.00     0.074 A 
ATOM     69  C   UNL A   1      43.235  28.197  32.854  1.00  0.00     0.031 C 
ATOM     70  C   UNL A   1      43.327  29.415  35.011  1.00  0.00     0.037 A 
BRANCH  57  71
ATOM     71  C   UNL A   1      40.505  33.813  38.307  1.00  0.00     0.064 A 
ATOM     72  C   UNL A   1      41.288  34.974  38.409  1.00  0.00     0.173 A 
ATOM     73  C   UNL A   1      39.677  33.487  39.393  1.00  0.00     0.173 A 
ATOM     74  F   UNL A   1      42.105  35.329  37.405  1.00  0.00    -0.203 F 
ATOM     75  C   UNL A   1      41.266  35.756  39.561  1.00  0.00     0.198 A 
ATOM     76  C   UNL A   1      39.632  34.290  40.529  1.00  0.00     0.198 A 
ATOM     77  F   UNL A   1      38.903  32.393  39.348  1.00  0.00    -0.203 F 
ATOM     78  F   UNL A   1      42.062  36.830  39.655  1.00  0.00    -0.200 F 
ATOM     79  C   UNL A   1      40.432  35.419  40.616  1.00  0.00     0.200 A 
ATOM     80  F   UNL A   1      38.814  33.970  41.542  1.00  0.00    -0.200 F 
ATOM     81  F   UNL A   1      40.406  36.178  41.721  1.00  0.00    -0.200 F 
ENDBRANCH  57  71
BRANCH  58  82
ATOM     82  C   UNL A   1      40.352  28.587  29.804  1.00  0.00     0.064 A 
ATOM     83  C   UNL A   1      41.052  29.054  28.683  1.00  0.00     0.173 A 
ATOM     84  C   UNL A   1      39.646  27.381  29.676  1.00  0.00     0.173 A 
ATOM     85  F   UNL A   1      41.724  30.214  28.749  1.00  0.00    -0.203 F 
ATOM     86  C   UNL A   1      41.026  28.360  27.476  1.00  0.00     0.198 A 
ATOM     87  C   UNL A   1      39.648  26.671  28.477  1.00  0.00     0.198 A 
ATOM     88  F   UNL A   1      38.963  26.887  30.719  1.00  0.00    -0.203 F 
ATOM     89  F   UNL A   1      41.660  28.857  26.405  1.00  0.00    -0.200 F 
ATOM     90  C   UNL A   1      40.329  27.165  27.375  1.00  0.00     0.200 A 
ATOM     91  F   UNL A   1      38.985  25.509  28.389  1.00  0.00    -0.200 F 
ATOM     92  F   UNL A   1      40.305  26.496  26.214  1.00  0.00    -0.200 F 
ENDBRANCH  58  82
BRANCH  70  93
ATOM     93  C   UNL A   1      44.549  28.616  35.367  1.00  0.00     0.064 A 
ATOM     94  C   UNL A   1      45.843  29.064  35.063  1.00  0.00     0.173 A 
ATOM     95  C   UNL A   1      44.422  27.401  36.059  1.00  0.00     0.173 A 
ATOM     96  F   UNL A   1      46.019  30.212  34.391  1.00  0.00    -0.203 F 
ATOM     97  C   UNL A   1      46.962  28.311  35.411  1.00  0.00     0.198 A 
ATOM     98  C   UNL A   1      45.544  26.668  36.436  1.00  0.00     0.198 A 
ATOM     99  F   UNL A   1      43.208  26.928  36.381  1.00  0.00    -0.203 F 
ATOM    100  F   UNL A   1      48.185  28.734  35.063  1.00  0.00    -0.200 F 
ATOM    101  C   UNL A   1      46.812  27.119  36.104  1.00  0.00     0.200 A 
ATOM    102  F   UNL A   1      45.397  25.525  37.120  1.00  0.00    -0.200 F 
ATOM    103  F   UNL A   1      47.891  26.402  36.447  1.00  0.00    -0.200 F 
ENDBRANCH  70  93
ENDBRANCH  44  45
ENDBRANCH  36  39
ENDBRANCH  34  35
ENDBRANCH  33  34
ENDBRANCH  32  33
ENDBRANCH  31  32
ENDBRANCH   3  31
TORSDOF 17
ENDMDL
MODEL 3
REMARK VINA RESULT:     -12.4      6.425     12.459
REMARK SMILES O=C(COc1ccc(/C=N/NC(=O)c2cc3cc([N+](=O)[O-])ccc3o2)cc1)NCCCCNC(=O)c1ccc(-c2c3nc(c(-c4c(F)c(F)c(F)c(F)c4F)c4ccc([nH]4)c(-c4c(F)c(F)c(F)c(F)c4F)c4nc(c(-c5c(F)c(F)c(F)c(F)c5F)c5ccc2[nH]5)C=C4)C=C3)cc1
REMARK SMILES IDX 1 1 2 2 28 3 3 5 4 6 5 7 6 8 27 9 7 10 26 11 8 12 9 13 10 14
REMARK SMILES IDX 11 15 12 16 13 18 14 19 15 20 25 21 16 22 24 23 17 24 23 25
REMARK SMILES IDX 18 26 22 27 19 28 20 29 21 30 29 31 30 32 31 33 32 34 33 35
REMARK SMILES IDX 34 36 35 38 36 39 37 40 98 41 38 42 97 43 39 44 40 45 41 46
REMARK SMILES IDX 91 47 42 48 96 49 90 50 92 51 43 52 95 53 89 54 88 55 44 57
REMARK SMILES IDX 76 58 56 59 75 60 57 61 60 62 74 63 93 64 58 65 59 66 73 68
REMARK SMILES IDX 94 69 61 70 45 71 46 72 54 73 47 74 48 75 52 76 55 77 49 78
REMARK SMILES IDX 50 79 53 80 51 81 77 82 78 83 86 84 79 85 80 86 84 87 87 88
REMARK SMILES IDX 81 89 82 90 85 91 83 92 62 93 63 94 71 95 64 96 65 97 69 98
REMARK SMILES IDX 72 99 66 100 67 101 70 102 68 103
REMARK H PARENT 28 4 11 17 33 37 92 56 60 67
REMARK Flexibility Score: inf
ROOT
ATOM      1  O   UNL A   1      35.875  30.649  27.786  1.00  0.00    -0.271 OA
ATOM      2  C   UNL A   1      34.682  30.887  27.628  1.00  0.00     0.257 C 
ATOM      3  N   UNL A   1      34.087  32.080  27.996  1.00  0.00    -0.353 N 
ATOM      4  H   UNL A   1      33.183  32.286  27.664  1.00  0.00     0.163 HD
ENDROOT
BRANCH   2   5
ATOM      5  C   UNL A   1      33.708  29.852  27.053  1.00  0.00     0.329 C 
BRANCH   5   6
ATOM      6  O   UNL A   1      33.291  30.056  25.704  1.00  0.00    -0.484 OA
BRANCH   6   7
ATOM      7  C   UNL A   1      33.101  28.917  24.966  1.00  0.00     0.120 A 
ATOM      8  C   UNL A   1      33.072  27.713  25.671  1.00  0.00     0.047 A 
ATOM      9  C   UNL A   1      33.082  28.893  23.569  1.00  0.00     0.047 A 
ATOM     10  C   UNL A   1      33.023  26.495  24.982  1.00  0.00     0.013 A 
ATOM     11  C   UNL A   1      33.063  27.684  22.876  1.00  0.00     0.013 A 
ATOM     12  C   UNL A   1      33.039  26.486  23.583  1.00  0.00    -0.005 A 
BRANCH  12  13
ATOM     13  C   UNL A   1      33.164  25.229  22.817  1.00  0.00     0.141 C 
ATOM     14  N   UNL A   1      32.162  24.428  22.714  1.00  0.00    -0.180 NA
BRANCH  14  15
ATOM     15  N   UNL A   1      32.303  23.183  22.192  1.00  0.00    -0.240 N 
ATOM     16  C   UNL A   1      32.304  21.911  22.715  1.00  0.00     0.307 C 
ATOM     17  H   UNL A   1      32.434  23.194  21.216  1.00  0.00     0.194 HD
ATOM     18  O   UNL A   1      31.916  21.009  21.964  1.00  0.00    -0.264 OA
BRANCH  16  19
ATOM     19  C   UNL A   1      32.849  21.577  24.016  1.00  0.00     0.194 A 
ATOM     20  C   UNL A   1      33.797  20.612  24.333  1.00  0.00     0.065 A 
ATOM     21  O   UNL A   1      33.015  22.649  24.864  1.00  0.00    -0.451 OA
ATOM     22  C   UNL A   1      34.810  21.305  25.063  1.00  0.00     0.028 A 
ATOM     23  C   UNL A   1      34.274  22.550  25.365  1.00  0.00     0.135 A 
ATOM     24  C   UNL A   1      36.166  21.061  25.354  1.00  0.00     0.097 A 
ATOM     25  C   UNL A   1      34.981  23.595  25.955  1.00  0.00     0.055 A 
ATOM     26  C   UNL A   1      36.935  22.145  25.827  1.00  0.00     0.270 A 
ATOM     27  C   UNL A   1      36.353  23.387  26.136  1.00  0.00     0.089 A 
BRANCH  26  28
ATOM     28  N   UNL A   1      38.397  22.002  25.893  1.00  0.00     0.062 N 
ATOM     29  O   UNL A   1      39.046  22.948  26.359  1.00  0.00    -0.258 OA
ATOM     30  O   UNL A   1      38.891  20.936  25.497  1.00  0.00    -0.258 OA
ENDBRANCH  26  28
ENDBRANCH  16  19
ENDBRANCH  14  15
ENDBRANCH  12  13
ENDBRANCH   6   7
ENDBRANCH   5   6
ENDBRANCH   2   5
BRANCH   3  31
ATOM     31  C   UNL A   1      34.757  33.034  28.855  1.00  0.00     0.116 C 
BRANCH  31  32
ATOM     32  C   UNL A   1      34.521  34.482  28.450  1.00  0.00     0.023 C 
BRANCH  32  33
ATOM     33  C   UNL A   1      33.172  35.055  28.883  1.00  0.00     0.023 C 
BRANCH  33  34
ATOM     34  C   UNL A   1      33.228  36.397  29.607  1.00  0.00     0.116 C 
BRANCH  34  35
ATOM     35  N   UNL A   1      32.450  36.417  30.837  1.00  0.00    -0.352 N 
ATOM     36  C   UNL A   1      32.659  35.743  32.016  1.00  0.00     0.251 C 
ATOM     37  H   UNL A   1      31.656  36.999  30.821  1.00  0.00     0.163 HD
ATOM     38  O   UNL A   1      31.809  35.782  32.904  1.00  0.00    -0.269 OA
BRANCH  36  39
ATOM     39  C   UNL A   1      33.886  34.941  32.214  1.00  0.00     0.039 A 
ATOM     40  C   UNL A   1      35.121  35.594  32.241  1.00  0.00     0.014 A 
ATOM     41  C   UNL A   1      33.827  33.553  32.371  1.00  0.00     0.014 A 
ATOM     42  C   UNL A   1      36.286  34.868  32.502  1.00  0.00     0.010 A 
ATOM     43  C   UNL A   1      34.979  32.844  32.709  1.00  0.00     0.010 A 
ATOM     44  C   UNL A   1      36.220  33.493  32.781  1.00  0.00    -0.014 A 
BRANCH  44  45
ATOM     45  C   UNL A   1      37.435  32.724  33.165  1.00  0.00     0.031 A 
ATOM     46  C   UNL A   1      38.153  33.029  34.451  1.00  0.00     0.074 A 
ATOM     47  C   UNL A   1      37.932  31.797  32.322  1.00  0.00     0.049 A 
ATOM     48  N   UNL A   1      39.263  32.516  34.923  1.00  0.00    -0.248 NA
ATOM     49  C   UNL A   1      37.560  34.065  35.310  1.00  0.00     0.031 C 
ATOM     50  C   UNL A   1      37.356  31.437  31.026  1.00  0.00     0.029 A 
ATOM     51  N   UNL A   1      39.040  30.993  32.426  1.00  0.00    -0.354 N 
ATOM     52  C   UNL A   1      39.506  33.174  36.120  1.00  0.00     0.074 A 
ATOM     53  C   UNL A   1      38.460  34.163  36.278  1.00  0.00     0.031 C 
ATOM     54  C   UNL A   1      38.098  30.469  30.467  1.00  0.00     0.029 A 
ATOM     55  C   UNL A   1      39.228  30.169  31.342  1.00  0.00     0.049 A 
ATOM     56  H   UNL A   1      39.645  31.005  33.203  1.00  0.00     0.167 HD
ATOM     57  C   UNL A   1      40.498  32.962  37.019  1.00  0.00     0.037 A 
ATOM     58  C   UNL A   1      40.204  29.281  31.077  1.00  0.00     0.037 A 
ATOM     59  C   UNL A   1      41.525  31.963  36.869  1.00  0.00     0.049 A 
ATOM     60  C   UNL A   1      41.308  29.079  32.082  1.00  0.00     0.074 A 
ATOM     61  C   UNL A   1      42.536  31.628  37.753  1.00  0.00     0.029 A 
ATOM     62  N   UNL A   1      41.679  31.145  35.759  1.00  0.00    -0.354 N 
ATOM     63  N   UNL A   1      41.486  29.656  33.245  1.00  0.00    -0.248 NA
ATOM     64  C   UNL A   1      42.346  28.096  31.737  1.00  0.00     0.031 C 
ATOM     65  C   UNL A   1      43.337  30.651  37.154  1.00  0.00     0.029 A 
ATOM     66  C   UNL A   1      42.787  30.328  35.924  1.00  0.00     0.049 A 
ATOM     67  H   UNL A   1      41.088  31.144  34.972  1.00  0.00     0.167 HD
ATOM     68  C   UNL A   1      42.630  29.084  33.784  1.00  0.00     0.074 A 
ATOM     69  C   UNL A   1      43.098  28.104  32.828  1.00  0.00     0.031 C 
ATOM     70  C   UNL A   1      43.238  29.348  34.968  1.00  0.00     0.037 A 
BRANCH  57  71
ATOM     71  C   UNL A   1      40.525  33.827  38.246  1.00  0.00     0.064 A 
ATOM     72  C   UNL A   1      39.786  33.505  39.395  1.00  0.00     0.173 A 
ATOM     73  C   UNL A   1      41.335  34.973  38.291  1.00  0.00     0.173 A 
ATOM     74  F   UNL A   1      38.988  32.426  39.404  1.00  0.00    -0.203 F 
ATOM     75  C   UNL A   1      39.831  34.313  40.528  1.00  0.00     0.198 A 
ATOM     76  C   UNL A   1      41.405  35.759  39.438  1.00  0.00     0.198 A 
ATOM     77  F   UNL A   1      42.068  35.324  37.224  1.00  0.00    -0.203 F 
ATOM     78  F   UNL A   1      39.075  34.013  41.593  1.00  0.00    -0.200 F 
ATOM     79  C   UNL A   1      40.646  35.434  40.552  1.00  0.00     0.200 A 
ATOM     80  F   UNL A   1      42.205  36.834  39.464  1.00  0.00    -0.200 F 
ATOM     81  F   UNL A   1      40.695  36.205  41.647  1.00  0.00    -0.200 F 
ENDBRANCH  57  71
BRANCH  58  82
ATOM     82  C   UNL A   1      40.178  28.496  29.814  1.00  0.00     0.064 A 
ATOM     83  C   UNL A   1      39.513  27.263  29.746  1.00  0.00     0.173 A 
ATOM     84  C   UNL A   1      40.824  28.952  28.655  1.00  0.00     0.173 A 
ATOM     85  F   UNL A   1      38.898  26.774  30.834  1.00  0.00    -0.203 F 
ATOM     86  C   UNL A   1      39.518  26.505  28.578  1.00  0.00     0.198 A 
ATOM     87  C   UNL A   1      40.800  28.208  27.478  1.00  0.00     0.198 A 
ATOM     88  F   UNL A   1      41.471  30.127  28.664  1.00  0.00    -0.203 F 
ATOM     89  F   UNL A   1      38.920  25.306  28.557  1.00  0.00    -0.200 F 
ATOM     90  C   UNL A   1      40.156  26.981  27.442  1.00  0.00     0.200 A 
ATOM     91  F   UNL A   1      41.405  28.678  26.378  1.00  0.00    -0.200 F 
ATOM     92  F   UNL A   1      40.159  26.252  26.317  1.00  0.00    -0.200 F 
ENDBRANCH  58  82
BRANCH  70  93
ATOM     93  C   UNL A   1      44.453  28.536  35.317  1.00  0.00     0.064 A 
ATOM     94  C   UNL A   1      45.748  28.956  34.980  1.00  0.00     0.173 A 
ATOM     95  C   UNL A   1      44.320  27.337  36.034  1.00  0.00     0.173 A 
ATOM     96  F   UNL A   1      45.930  30.088  34.282  1.00  0.00    -0.203 F 
ATOM     97  C   UNL A   1      46.862  28.193  35.322  1.00  0.00     0.198 A 
ATOM     98  C   UNL A   1      45.437  26.594  36.405  1.00  0.00     0.198 A 
ATOM     99  F   UNL A   1      43.105  26.890  36.389  1.00  0.00    -0.203 F 
ATOM    100  F   UNL A   1      48.084  28.589  34.943  1.00  0.00    -0.200 F 
ATOM    101  C   UNL A   1      46.706  27.017  36.041  1.00  0.00     0.200 A 
ATOM    102  F   UNL A   1      45.285  25.466  37.114  1.00  0.00    -0.200 F 
ATOM    103  F   UNL A   1      47.779  26.289  36.378  1.00  0.00    -0.200 F 
ENDBRANCH  70  93
ENDBRANCH  44  45
ENDBRANCH  36  39
ENDBRANCH  34  35
ENDBRANCH  33  34
ENDBRANCH  32  33
ENDBRANCH  31  32
ENDBRANCH   3  31
TORSDOF 17
ENDMDL
