MODEL 1
REMARK VINA RESULT:      -9.5      0.000      0.000
REMARK SMILES CC(C)[C@H](NC(=O)[C@@H]1CC2=c3ccccc3=N[C@H]2[C@@H]2c3ccccc3C(=O)N12)C(=O)N[C@H](C)C(=O)NCCCCNC(=O)c1ccc(-c2c3nc(c(-c4c(F)c(F)c(F)c(F)c4F)c4ccc([nH]4)c(-c4c(F)c(F)c(F)c(F)c4F)c4nc(c(-c5c(F)c(F)c(F)c(F)c5F)c5ccc2[nH]5)C=C4)C=C3)cc1
REMARK SMILES IDX 37 1 36 2 34 3 35 4 32 6 33 7 31 8 29 9 30 10 4 12 2 13 1 14
REMARK SMILES IDX 3 15 5 16 6 17 7 19 8 20 9 21 28 22 10 23 19 24 26 25 11 26
REMARK SMILES IDX 18 27 20 28 25 29 27 30 12 31 16 32 17 33 21 34 24 35 13 36
REMARK SMILES IDX 15 37 22 38 23 39 14 40 38 41 39 42 40 43 41 44 42 45 43 47
REMARK SMILES IDX 44 48 45 49 106 50 46 51 105 52 47 53 48 54 49 55 99 56
REMARK SMILES IDX 50 57 104 58 98 59 100 60 51 61 103 62 97 63 96 64 52 66
REMARK SMILES IDX 84 67 64 68 83 69 65 70 68 71 82 72 101 73 66 74 67 75 81 77
REMARK SMILES IDX 102 78 69 79 53 80 54 81 62 82 55 83 56 84 60 85 63 86 57 87
REMARK SMILES IDX 58 88 61 89 59 90 85 91 86 92 94 93 87 94 88 95 92 96 95 97
REMARK SMILES IDX 89 98 90 99 93 100 91 101 70 102 71 103 79 104 72 105 73 106
REMARK SMILES IDX 77 107 80 108 74 109 75 110 78 111 76 112
REMARK H PARENT 36 5 31 11 5 18 41 46 100 65 68 76
REMARK Flexibility Score: inf
ROOT
ATOM      1  C   UNL A   1      36.633  32.597  31.617  1.00  0.00     0.116 C 
ENDROOT
BRANCH   1   2
ATOM      2  N   UNL A   1      36.500  33.608  32.647  1.00  0.00    -0.354 N 
ATOM      3  C   UNL A   1      37.278  33.830  33.745  1.00  0.00     0.242 C 
ATOM      4  O   UNL A   1      36.913  34.690  34.548  1.00  0.00    -0.273 OA
ATOM      5  H   UNL A   1      35.741  34.224  32.538  1.00  0.00     0.163 HD
BRANCH   3   6
ATOM      6  C   UNL A   1      38.532  32.975  33.982  1.00  0.00     0.168 C 
ATOM      7  C   UNL A   1      39.718  33.911  34.136  1.00  0.00     0.041 C 
BRANCH   6   8
ATOM      8  N   UNL A   1      38.309  32.039  35.107  1.00  0.00    -0.343 N 
ATOM      9  C   UNL A   1      38.765  30.791  35.419  1.00  0.00     0.243 C 
ATOM     10  O   UNL A   1      38.280  30.269  36.430  1.00  0.00    -0.273 OA
ATOM     11  H   UNL A   1      37.692  32.399  35.784  1.00  0.00     0.164 HD
BRANCH   9  12
ATOM     12  C   UNL A   1      39.932  30.086  34.650  1.00  0.00     0.174 C 
BRANCH  12  13
ATOM     13  C   UNL A   1      39.413  29.742  33.226  1.00  0.00     0.015 C 
ATOM     14  C   UNL A   1      40.204  28.546  32.648  1.00  0.00     0.010 C 
ATOM     15  C   UNL A   1      37.960  29.323  33.134  1.00  0.00     0.010 C 
ENDBRANCH  12  13
BRANCH  12  16
ATOM     16  N   UNL A   1      40.427  29.123  35.645  1.00  0.00    -0.342 N 
ATOM     17  C   UNL A   1      41.552  28.561  36.113  1.00  0.00     0.243 C 
ATOM     18  H   UNL A   1      39.660  28.763  36.146  1.00  0.00     0.164 HD
ATOM     19  O   UNL A   1      41.407  27.385  36.487  1.00  0.00    -0.273 OA
BRANCH  17  20
ATOM     20  C   UNL A   1      42.882  29.257  36.374  1.00  0.00     0.179 C 
ATOM     21  C   UNL A   1      43.978  28.425  37.110  1.00  0.00     0.069 C 
ATOM     22  N   UNL A   1      43.221  30.682  36.379  1.00  0.00    -0.317 N 
ATOM     23  C   UNL A   1      45.151  28.428  36.156  1.00  0.00    -0.031 C 
ATOM     24  C   UNL A   1      44.664  30.987  36.171  1.00  0.00     0.146 C 
ATOM     25  C   UNL A   1      42.692  31.504  37.361  1.00  0.00     0.255 C 
ATOM     26  C   UNL A   1      45.177  27.471  35.218  1.00  0.00     0.001 A 
ATOM     27  C   UNL A   1      45.530  29.790  35.592  1.00  0.00     0.160 C 
ATOM     28  C   UNL A   1      45.006  31.523  37.544  1.00  0.00    -0.010 A 
ATOM     29  C   UNL A   1      43.829  31.966  38.160  1.00  0.00     0.045 A 
ATOM     30  O   UNL A   1      41.536  31.654  37.709  1.00  0.00    -0.269 OA
ATOM     31  C   UNL A   1      44.602  26.154  35.279  1.00  0.00     0.010 A 
ATOM     32  C   UNL A   1      44.990  28.335  34.021  1.00  0.00     0.066 A 
ATOM     33  N   UNL A   1      45.273  29.605  34.121  1.00  0.00    -0.274 NA
ATOM     34  C   UNL A   1      46.179  31.506  38.277  1.00  0.00     0.007 A 
ATOM     35  C   UNL A   1      43.758  32.393  39.476  1.00  0.00     0.014 A 
ATOM     36  C   UNL A   1      43.860  25.707  34.257  1.00  0.00     0.001 A 
ATOM     37  C   UNL A   1      44.230  27.722  32.896  1.00  0.00     0.028 A 
ATOM     38  C   UNL A   1      46.129  31.912  39.623  1.00  0.00     0.000 A 
ATOM     39  C   UNL A   1      44.933  32.357  40.216  1.00  0.00     0.001 A 
ATOM     40  C   UNL A   1      43.659  26.516  33.071  1.00  0.00     0.002 A 
ENDBRANCH  17  20
ENDBRANCH  12  16
ENDBRANCH   9  12
ENDBRANCH   6   8
ENDBRANCH   3   6
ENDBRANCH   1   2
BRANCH   1  41
ATOM     41  C   UNL A   1      36.866  33.203  30.231  1.00  0.00     0.023 C 
BRANCH  41  42
ATOM     42  C   UNL A   1      35.600  33.591  29.473  1.00  0.00     0.023 C 
BRANCH  42  43
ATOM     43  C   UNL A   1      35.484  32.983  28.089  1.00  0.00     0.116 C 
BRANCH  43  44
ATOM     44  N   UNL A   1      34.354  32.079  27.926  1.00  0.00    -0.352 N 
ATOM     45  C   UNL A   1      34.385  30.703  27.954  1.00  0.00     0.251 C 
ATOM     46  H   UNL A   1      33.475  32.496  27.782  1.00  0.00     0.163 HD
ATOM     47  O   UNL A   1      33.376  30.036  27.768  1.00  0.00    -0.269 OA
BRANCH  45  48
ATOM     48  C   UNL A   1      35.697  30.059  28.138  1.00  0.00     0.039 A 
ATOM     49  C   UNL A   1      36.092  29.638  29.408  1.00  0.00     0.014 A 
ATOM     50  C   UNL A   1      36.593  30.049  27.068  1.00  0.00     0.014 A 
ATOM     51  C   UNL A   1      37.437  29.403  29.653  1.00  0.00     0.010 A 
ATOM     52  C   UNL A   1      37.927  29.713  27.298  1.00  0.00     0.010 A 
ATOM     53  C   UNL A   1      38.372  29.454  28.604  1.00  0.00    -0.014 A 
BRANCH  53  54
ATOM     54  C   UNL A   1      39.813  29.272  28.912  1.00  0.00     0.031 A 
ATOM     55  C   UNL A   1      40.552  28.047  28.442  1.00  0.00     0.074 A 
ATOM     56  C   UNL A   1      40.471  30.254  29.554  1.00  0.00     0.049 A 
ATOM     57  N   UNL A   1      41.816  27.736  28.598  1.00  0.00    -0.248 NA
ATOM     58  C   UNL A   1      39.778  27.034  27.709  1.00  0.00     0.031 C 
ATOM     59  C   UNL A   1      39.861  31.492  30.042  1.00  0.00     0.029 A 
ATOM     60  N   UNL A   1      41.797  30.386  29.877  1.00  0.00    -0.354 N 
ATOM     61  C   UNL A   1      41.980  26.491  28.005  1.00  0.00     0.074 A 
ATOM     62  C   UNL A   1      40.682  26.083  27.513  1.00  0.00     0.031 C 
ATOM     63  C   UNL A   1      40.819  32.286  30.540  1.00  0.00     0.029 A 
ATOM     64  C   UNL A   1      42.098  31.586  30.472  1.00  0.00     0.049 A 
ATOM     65  H   UNL A   1      42.469  29.688  29.699  1.00  0.00     0.167 HD
ATOM     66  C   UNL A   1      43.114  25.763  27.870  1.00  0.00     0.037 A 
ATOM     67  C   UNL A   1      43.270  32.066  30.925  1.00  0.00     0.037 A 
ATOM     68  C   UNL A   1      44.411  26.193  28.325  1.00  0.00     0.049 A 
ATOM     69  C   UNL A   1      44.503  31.219  30.802  1.00  0.00     0.074 A 
ATOM     70  C   UNL A   1      45.626  25.545  28.196  1.00  0.00     0.029 A 
ATOM     71  N   UNL A   1      44.659  27.381  28.995  1.00  0.00    -0.354 N 
ATOM     72  N   UNL A   1      44.645  30.048  30.232  1.00  0.00    -0.248 NA
ATOM     73  C   UNL A   1      45.734  31.750  31.402  1.00  0.00     0.031 C 
ATOM     74  C   UNL A   1      46.603  26.319  28.827  1.00  0.00     0.029 A 
ATOM     75  C   UNL A   1      46.005  27.470  29.313  1.00  0.00     0.049 A 
ATOM     76  H   UNL A   1      43.980  28.061  29.211  1.00  0.00     0.167 HD
ATOM     77  C   UNL A   1      45.976  29.699  30.404  1.00  0.00     0.074 A 
ATOM     78  C   UNL A   1      46.608  30.798  31.106  1.00  0.00     0.031 C 
ATOM     79  C   UNL A   1      46.613  28.566  30.024  1.00  0.00     0.037 A 
BRANCH  66  80
ATOM     80  C   UNL A   1      43.014  24.421  27.203  1.00  0.00     0.064 A 
ATOM     81  C   UNL A   1      43.319  24.249  25.846  1.00  0.00     0.173 A 
ATOM     82  C   UNL A   1      42.675  23.282  27.949  1.00  0.00     0.173 A 
ATOM     83  F   UNL A   1      43.639  25.307  25.086  1.00  0.00    -0.203 F 
ATOM     84  C   UNL A   1      43.272  22.989  25.255  1.00  0.00     0.198 A 
ATOM     85  C   UNL A   1      42.654  22.020  27.362  1.00  0.00     0.198 A 
ATOM     86  F   UNL A   1      42.381  23.390  29.254  1.00  0.00    -0.203 F 
ATOM     87  F   UNL A   1      43.535  22.852  23.947  1.00  0.00    -0.200 F 
ATOM     88  C   UNL A   1      42.949  21.874  26.015  1.00  0.00     0.200 A 
ATOM     89  F   UNL A   1      42.355  20.942  28.101  1.00  0.00    -0.200 F 
ATOM     90  F   UNL A   1      42.918  20.660  25.448  1.00  0.00    -0.200 F 
ENDBRANCH  66  80
BRANCH  67  91
ATOM     91  C   UNL A   1      43.317  33.418  31.536  1.00  0.00     0.064 A 
ATOM     92  C   UNL A   1      43.194  33.586  32.921  1.00  0.00     0.173 A 
ATOM     93  C   UNL A   1      43.530  34.564  30.755  1.00  0.00     0.173 A 
ATOM     94  F   UNL A   1      42.971  32.522  33.707  1.00  0.00    -0.203 F 
ATOM     95  C   UNL A   1      43.283  34.849  33.502  1.00  0.00     0.198 A 
ATOM     96  C   UNL A   1      43.647  35.823  31.340  1.00  0.00     0.198 A 
ATOM     97  F   UNL A   1      43.657  34.455  29.424  1.00  0.00    -0.203 F 
ATOM     98  F   UNL A   1      43.137  34.986  34.828  1.00  0.00    -0.200 F 
ATOM     99  C   UNL A   1      43.519  35.964  32.712  1.00  0.00     0.200 A 
ATOM    100  F   UNL A   1      43.894  36.894  30.574  1.00  0.00    -0.200 F 
ATOM    101  F   UNL A   1      43.624  37.176  33.274  1.00  0.00    -0.200 F 
ENDBRANCH  67  91
BRANCH  79 102
ATOM    102  C   UNL A   1      48.067  28.441  30.373  1.00  0.00     0.064 A 
ATOM    103  C   UNL A   1      49.059  28.964  29.531  1.00  0.00     0.173 A 
ATOM    104  C   UNL A   1      48.466  27.865  31.587  1.00  0.00     0.173 A 
ATOM    105  F   UNL A   1      48.726  29.510  28.352  1.00  0.00    -0.203 F 
ATOM    106  C   UNL A   1      50.402  28.910  29.892  1.00  0.00     0.198 A 
ATOM    107  C   UNL A   1      49.808  27.837  31.957  1.00  0.00     0.198 A 
ATOM    108  F   UNL A   1      47.553  27.357  32.428  1.00  0.00    -0.203 F 
ATOM    109  F   UNL A   1      51.337  29.391  29.062  1.00  0.00    -0.200 F 
ATOM    110  C   UNL A   1      50.774  28.356  31.108  1.00  0.00     0.200 A 
ATOM    111  F   UNL A   1      50.165  27.314  33.137  1.00  0.00    -0.200 F 
ATOM    112  F   UNL A   1      52.066  28.322  31.462  1.00  0.00    -0.200 F 
ENDBRANCH  79 102
ENDBRANCH  53  54
ENDBRANCH  45  48
ENDBRANCH  43  44
ENDBRANCH  42  43
ENDBRANCH  41  42
ENDBRANCH   1  41
TORSDOF 16
ENDMDL
MODEL 2
REMARK VINA RESULT:      -9.4      3.148      9.040
REMARK SMILES CC(C)[C@H](NC(=O)[C@@H]1CC2=c3ccccc3=N[C@H]2[C@@H]2c3ccccc3C(=O)N12)C(=O)N[C@H](C)C(=O)NCCCCNC(=O)c1ccc(-c2c3nc(c(-c4c(F)c(F)c(F)c(F)c4F)c4ccc([nH]4)c(-c4c(F)c(F)c(F)c(F)c4F)c4nc(c(-c5c(F)c(F)c(F)c(F)c5F)c5ccc2[nH]5)C=C4)C=C3)cc1
REMARK SMILES IDX 37 1 36 2 34 3 35 4 32 6 33 7 31 8 29 9 30 10 4 12 2 13 1 14
REMARK SMILES IDX 3 15 5 16 6 17 7 19 8 20 9 21 28 22 10 23 19 24 26 25 11 26
REMARK SMILES IDX 18 27 20 28 25 29 27 30 12 31 16 32 17 33 21 34 24 35 13 36
REMARK SMILES IDX 15 37 22 38 23 39 14 40 38 41 39 42 40 43 41 44 42 45 43 47
REMARK SMILES IDX 44 48 45 49 106 50 46 51 105 52 47 53 48 54 49 55 99 56
REMARK SMILES IDX 50 57 104 58 98 59 100 60 51 61 103 62 97 63 96 64 52 66
REMARK SMILES IDX 84 67 64 68 83 69 65 70 68 71 82 72 101 73 66 74 67 75 81 77
REMARK SMILES IDX 102 78 69 79 53 80 54 81 62 82 55 83 56 84 60 85 63 86 57 87
REMARK SMILES IDX 58 88 61 89 59 90 85 91 86 92 94 93 87 94 88 95 92 96 95 97
REMARK SMILES IDX 89 98 90 99 93 100 91 101 70 102 71 103 79 104 72 105 73 106
REMARK SMILES IDX 77 107 80 108 74 109 75 110 78 111 76 112
REMARK H PARENT 36 5 31 11 5 18 41 46 100 65 68 76
REMARK Flexibility Score: inf
ROOT
ATOM      1  C   UNL A   1      37.623  32.225  29.237  1.00  0.00     0.116 C 
ENDROOT
BRANCH   1   2
ATOM      2  N   UNL A   1      37.105  31.182  30.100  1.00  0.00    -0.354 N 
ATOM      3  C   UNL A   1      36.825  29.880  29.808  1.00  0.00     0.242 C 
ATOM      4  O   UNL A   1      36.288  29.195  30.681  1.00  0.00    -0.273 OA
ATOM      5  H   UNL A   1      36.930  31.452  31.030  1.00  0.00     0.163 HD
BRANCH   3   6
ATOM      6  C   UNL A   1      37.122  29.327  28.407  1.00  0.00     0.168 C 
ATOM      7  C   UNL A   1      36.058  29.850  27.458  1.00  0.00     0.041 C 
BRANCH   6   8
ATOM      8  N   UNL A   1      38.520  29.626  28.023  1.00  0.00    -0.343 N 
ATOM      9  C   UNL A   1      39.652  28.880  27.867  1.00  0.00     0.243 C 
ATOM     10  O   UNL A   1      40.688  29.504  27.614  1.00  0.00    -0.273 OA
ATOM     11  H   UNL A   1      38.666  30.582  27.836  1.00  0.00     0.164 HD
BRANCH   9  12
ATOM     12  C   UNL A   1      39.653  27.315  27.864  1.00  0.00     0.174 C 
BRANCH  12  13
ATOM     13  C   UNL A   1      40.119  26.844  29.269  1.00  0.00     0.015 C 
ATOM     14  C   UNL A   1      41.609  27.202  29.481  1.00  0.00     0.010 C 
ATOM     15  C   UNL A   1      39.402  27.468  30.449  1.00  0.00     0.010 C 
ENDBRANCH  12  13
BRANCH  12  16
ATOM     16  N   UNL A   1      40.312  27.005  26.586  1.00  0.00    -0.342 N 
ATOM     17  C   UNL A   1      41.354  26.341  26.060  1.00  0.00     0.243 C 
ATOM     18  H   UNL A   1      39.812  27.439  25.858  1.00  0.00     0.164 HD
ATOM     19  O   UNL A   1      41.844  26.890  25.059  1.00  0.00    -0.273 OA
BRANCH  17  20
ATOM     20  C   UNL A   1      41.852  24.958  26.459  1.00  0.00     0.179 C 
ATOM     21  C   UNL A   1      42.828  24.249  25.468  1.00  0.00     0.069 C 
ATOM     22  N   UNL A   1      41.320  24.003  27.434  1.00  0.00    -0.317 N 
ATOM     23  C   UNL A   1      44.067  23.985  26.291  1.00  0.00    -0.031 C 
ATOM     24  C   UNL A   1      42.300  22.999  27.932  1.00  0.00     0.146 C 
ATOM     25  C   UNL A   1      40.092  23.404  27.201  1.00  0.00     0.255 C 
ATOM     26  C   UNL A   1      44.980  24.964  26.354  1.00  0.00     0.001 A 
ATOM     27  C   UNL A   1      43.823  23.345  27.651  1.00  0.00     0.160 C 
ATOM     28  C   UNL A   1      41.719  21.751  27.303  1.00  0.00    -0.010 A 
ATOM     29  C   UNL A   1      40.365  21.976  27.026  1.00  0.00     0.045 A 
ATOM     30  O   UNL A   1      39.020  23.910  26.929  1.00  0.00    -0.269 OA
ATOM     31  C   UNL A   1      45.252  25.985  25.378  1.00  0.00     0.010 A 
ATOM     32  C   UNL A   1      44.840  25.300  27.796  1.00  0.00     0.066 A 
ATOM     33  N   UNL A   1      44.314  24.410  28.594  1.00  0.00    -0.274 NA
ATOM     34  C   UNL A   1      42.306  20.578  26.864  1.00  0.00     0.007 A 
ATOM     35  C   UNL A   1      39.561  21.091  26.327  1.00  0.00     0.014 A 
ATOM     36  C   UNL A   1      45.352  27.263  25.766  1.00  0.00     0.001 A 
ATOM     37  C   UNL A   1      45.056  26.731  28.149  1.00  0.00     0.028 A 
ATOM     38  C   UNL A   1      41.517  19.673  26.131  1.00  0.00     0.000 A 
ATOM     39  C   UNL A   1      40.157  19.922  25.870  1.00  0.00     0.001 A 
ATOM     40  C   UNL A   1      45.226  27.631  27.163  1.00  0.00     0.002 A 
ENDBRANCH  17  20
ENDBRANCH  12  16
ENDBRANCH   9  12
ENDBRANCH   6   8
ENDBRANCH   3   6
ENDBRANCH   1   2
BRANCH   1  41
ATOM     41  C   UNL A   1      38.288  33.356  30.025  1.00  0.00     0.023 C 
BRANCH  41  42
ATOM     42  C   UNL A   1      37.416  33.996  31.101  1.00  0.00     0.023 C 
BRANCH  42  43
ATOM     43  C   UNL A   1      38.111  34.209  32.432  1.00  0.00     0.116 C 
BRANCH  43  44
ATOM     44  N   UNL A   1      37.315  33.827  33.590  1.00  0.00    -0.352 N 
ATOM     45  C   UNL A   1      37.535  32.759  34.429  1.00  0.00     0.251 C 
ATOM     46  H   UNL A   1      36.538  34.395  33.795  1.00  0.00     0.163 HD
ATOM     47  O   UNL A   1      36.777  32.506  35.357  1.00  0.00    -0.269 OA
BRANCH  45  48
ATOM     48  C   UNL A   1      38.676  31.879  34.121  1.00  0.00     0.039 A 
ATOM     49  C   UNL A   1      39.916  32.117  34.715  1.00  0.00     0.014 A 
ATOM     50  C   UNL A   1      38.537  30.938  33.100  1.00  0.00     0.014 A 
ATOM     51  C   UNL A   1      41.053  31.561  34.147  1.00  0.00     0.010 A 
ATOM     52  C   UNL A   1      39.674  30.303  32.599  1.00  0.00     0.010 A 
ATOM     53  C   UNL A   1      40.946  30.661  33.072  1.00  0.00    -0.014 A 
BRANCH  53  54
ATOM     54  C   UNL A   1      42.185  30.142  32.440  1.00  0.00     0.031 A 
ATOM     55  C   UNL A   1      42.894  30.932  31.372  1.00  0.00     0.074 A 
ATOM     56  C   UNL A   1      42.709  28.986  32.886  1.00  0.00     0.049 A 
ATOM     57  N   UNL A   1      44.000  30.644  30.730  1.00  0.00    -0.248 NA
ATOM     58  C   UNL A   1      42.286  32.208  30.963  1.00  0.00     0.031 C 
ATOM     59  C   UNL A   1      42.117  28.144  33.927  1.00  0.00     0.029 A 
ATOM     60  N   UNL A   1      43.870  28.337  32.552  1.00  0.00    -0.354 N 
ATOM     61  C   UNL A   1      44.205  31.684  29.834  1.00  0.00     0.074 A 
ATOM     62  C   UNL A   1      43.094  32.598  29.987  1.00  0.00     0.031 C 
ATOM     63  C   UNL A   1      42.949  27.127  34.194  1.00  0.00     0.029 A 
ATOM     64  C   UNL A   1      44.097  27.206  33.297  1.00  0.00     0.049 A 
ATOM     65  H   UNL A   1      44.481  28.652  31.847  1.00  0.00     0.167 HD
ATOM     66  C   UNL A   1      45.235  31.867  28.974  1.00  0.00     0.037 A 
ATOM     67  C   UNL A   1      45.109  26.321  33.253  1.00  0.00     0.037 A 
ATOM     68  C   UNL A   1      46.359  30.975  28.855  1.00  0.00     0.049 A 
ATOM     69  C   UNL A   1      46.215  26.525  32.259  1.00  0.00     0.074 A 
ATOM     70  C   UNL A   1      47.473  31.097  28.044  1.00  0.00     0.029 A 
ATOM     71  N   UNL A   1      46.512  29.797  29.572  1.00  0.00    -0.354 N 
ATOM     72  N   UNL A   1      46.400  27.517  31.424  1.00  0.00    -0.248 NA
ATOM     73  C   UNL A   1      47.243  25.478  32.188  1.00  0.00     0.031 C 
ATOM     74  C   UNL A   1      48.278  29.970  28.235  1.00  0.00     0.029 A 
ATOM     75  C   UNL A   1      47.687  29.167  29.197  1.00  0.00     0.049 A 
ATOM     76  H   UNL A   1      45.879  29.460  30.247  1.00  0.00     0.167 HD
ATOM     77  C   UNL A   1      47.560  27.216  30.726  1.00  0.00     0.074 A 
ATOM     78  C   UNL A   1      48.055  25.962  31.258  1.00  0.00     0.031 C 
ATOM     79  C   UNL A   1      48.156  27.912  29.728  1.00  0.00     0.037 A 
BRANCH  66  80
ATOM     80  C   UNL A   1      45.205  33.077  28.085  1.00  0.00     0.064 A 
ATOM     81  C   UNL A   1      44.521  33.074  26.861  1.00  0.00     0.173 A 
ATOM     82  C   UNL A   1      45.811  34.275  28.495  1.00  0.00     0.173 A 
ATOM     83  F   UNL A   1      43.933  31.953  26.419  1.00  0.00    -0.203 F 
ATOM     84  C   UNL A   1      44.458  34.221  26.073  1.00  0.00     0.198 A 
ATOM     85  C   UNL A   1      45.725  35.426  27.716  1.00  0.00     0.198 A 
ATOM     86  F   UNL A   1      46.473  34.334  29.661  1.00  0.00    -0.203 F 
ATOM     87  F   UNL A   1      43.827  34.186  24.891  1.00  0.00    -0.200 F 
ATOM     88  C   UNL A   1      45.053  35.398  26.505  1.00  0.00     0.200 A 
ATOM     89  F   UNL A   1      46.288  36.565  28.142  1.00  0.00    -0.200 F 
ATOM     90  F   UNL A   1      44.979  36.503  25.751  1.00  0.00    -0.200 F 
ENDBRANCH  66  80
BRANCH  67  91
ATOM     91  C   UNL A   1      45.109  25.166  34.186  1.00  0.00     0.064 A 
ATOM     92  C   UNL A   1      44.610  23.920  33.787  1.00  0.00     0.173 A 
ATOM     93  C   UNL A   1      45.648  25.272  35.477  1.00  0.00     0.173 A 
ATOM     94  F   UNL A   1      44.069  23.775  32.569  1.00  0.00    -0.203 F 
ATOM     95  C   UNL A   1      44.650  22.823  34.644  1.00  0.00     0.198 A 
ATOM     96  C   UNL A   1      45.713  24.168  36.323  1.00  0.00     0.198 A 
ATOM     97  F   UNL A   1      46.142  26.445  35.905  1.00  0.00    -0.203 F 
ATOM     98  F   UNL A   1      44.142  21.647  34.248  1.00  0.00    -0.200 F 
ATOM     99  C   UNL A   1      45.210  22.945  35.907  1.00  0.00     0.200 A 
ATOM    100  F   UNL A   1      46.272  24.287  37.535  1.00  0.00    -0.200 F 
ATOM    101  F   UNL A   1      45.265  21.885  36.724  1.00  0.00    -0.200 F 
ENDBRANCH  67  91
BRANCH  79 102
ATOM    102  C   UNL A   1      49.400  27.328  29.126  1.00  0.00     0.064 A 
ATOM    103  C   UNL A   1      50.665  27.625  29.654  1.00  0.00     0.173 A 
ATOM    104  C   UNL A   1      49.323  26.411  28.069  1.00  0.00     0.173 A 
ATOM    105  F   UNL A   1      50.789  28.508  30.654  1.00  0.00    -0.203 F 
ATOM    106  C   UNL A   1      51.811  27.026  29.138  1.00  0.00     0.198 A 
ATOM    107  C   UNL A   1      50.468  25.794  27.574  1.00  0.00     0.198 A 
ATOM    108  F   UNL A   1      48.135  26.091  27.535  1.00  0.00    -0.203 F 
ATOM    109  F   UNL A   1      53.013  27.342  29.638  1.00  0.00    -0.200 F 
ATOM    110  C   UNL A   1      51.711  26.104  28.107  1.00  0.00     0.200 A 
ATOM    111  F   UNL A   1      50.369  24.893  26.587  1.00  0.00    -0.200 F 
ATOM    112  F   UNL A   1      52.813  25.514  27.625  1.00  0.00    -0.200 F 
ENDBRANCH  79 102
ENDBRANCH  53  54
ENDBRANCH  45  48
ENDBRANCH  43  44
ENDBRANCH  42  43
ENDBRANCH  41  42
ENDBRANCH   1  41
TORSDOF 16
ENDMDL
MODEL 3
REMARK VINA RESULT:      -9.4      4.194     10.102
REMARK SMILES CC(C)[C@H](NC(=O)[C@@H]1CC2=c3ccccc3=N[C@H]2[C@@H]2c3ccccc3C(=O)N12)C(=O)N[C@H](C)C(=O)NCCCCNC(=O)c1ccc(-c2c3nc(c(-c4c(F)c(F)c(F)c(F)c4F)c4ccc([nH]4)c(-c4c(F)c(F)c(F)c(F)c4F)c4nc(c(-c5c(F)c(F)c(F)c(F)c5F)c5ccc2[nH]5)C=C4)C=C3)cc1
REMARK SMILES IDX 37 1 36 2 34 3 35 4 32 6 33 7 31 8 29 9 30 10 4 12 2 13 1 14
REMARK SMILES IDX 3 15 5 16 6 17 7 19 8 20 9 21 28 22 10 23 19 24 26 25 11 26
REMARK SMILES IDX 18 27 20 28 25 29 27 30 12 31 16 32 17 33 21 34 24 35 13 36
REMARK SMILES IDX 15 37 22 38 23 39 14 40 38 41 39 42 40 43 41 44 42 45 43 47
REMARK SMILES IDX 44 48 45 49 106 50 46 51 105 52 47 53 48 54 49 55 99 56
REMARK SMILES IDX 50 57 104 58 98 59 100 60 51 61 103 62 97 63 96 64 52 66
REMARK SMILES IDX 84 67 64 68 83 69 65 70 68 71 82 72 101 73 66 74 67 75 81 77
REMARK SMILES IDX 102 78 69 79 53 80 54 81 62 82 55 83 56 84 60 85 63 86 57 87
REMARK SMILES IDX 58 88 61 89 59 90 85 91 86 92 94 93 87 94 88 95 92 96 95 97
REMARK SMILES IDX 89 98 90 99 93 100 91 101 70 102 71 103 79 104 72 105 73 106
REMARK SMILES IDX 77 107 80 108 74 109 75 110 78 111 76 112
REMARK H PARENT 36 5 31 11 5 18 41 46 100 65 68 76
REMARK Flexibility Score: inf
ROOT
ATOM      1  C   UNL A   1      44.077  25.039  25.342  1.00  0.00     0.116 C 
ENDROOT
BRANCH   1   2
ATOM      2  N   UNL A   1      45.416  24.601  25.686  1.00  0.00    -0.354 N 
ATOM      3  C   UNL A   1      46.399  25.273  26.350  1.00  0.00     0.242 C 
ATOM      4  O   UNL A   1      47.506  24.738  26.438  1.00  0.00    -0.273 OA
ATOM      5  H   UNL A   1      45.648  23.689  25.399  1.00  0.00     0.163 HD
BRANCH   3   6
ATOM      6  C   UNL A   1      46.128  26.679  26.906  1.00  0.00     0.168 C 
ATOM      7  C   UNL A   1      46.945  26.849  28.175  1.00  0.00     0.041 C 
BRANCH   6   8
ATOM      8  N   UNL A   1      46.360  27.698  25.858  1.00  0.00    -0.343 N 
ATOM      9  C   UNL A   1      46.209  29.053  25.789  1.00  0.00     0.243 C 
ATOM     10  O   UNL A   1      46.427  29.572  24.689  1.00  0.00    -0.273 OA
ATOM     11  H   UNL A   1      46.701  27.310  25.020  1.00  0.00     0.164 HD
BRANCH   9  12
ATOM     12  C   UNL A   1      45.916  29.948  27.040  1.00  0.00     0.174 C 
BRANCH  12  13
ATOM     13  C   UNL A   1      44.491  30.542  26.866  1.00  0.00     0.015 C 
ATOM     14  C   UNL A   1      43.470  29.408  26.613  1.00  0.00     0.010 C 
ATOM     15  C   UNL A   1      43.938  31.298  28.058  1.00  0.00     0.010 C 
ENDBRANCH  12  13
BRANCH  12  16
ATOM     16  N   UNL A   1      47.163  30.717  27.173  1.00  0.00    -0.342 N 
ATOM     17  C   UNL A   1      47.663  31.958  27.065  1.00  0.00     0.243 C 
ATOM     18  H   UNL A   1      47.887  30.104  27.434  1.00  0.00     0.164 HD
ATOM     19  O   UNL A   1      48.836  31.992  26.656  1.00  0.00    -0.273 OA
BRANCH  17  20
ATOM     20  C   UNL A   1      47.012  33.250  27.542  1.00  0.00     0.179 C 
ATOM     21  C   UNL A   1      46.350  33.226  28.954  1.00  0.00     0.069 C 
ATOM     22  N   UNL A   1      46.578  34.428  26.786  1.00  0.00    -0.317 N 
ATOM     23  C   UNL A   1      47.062  34.317  29.720  1.00  0.00    -0.031 C 
ATOM     24  C   UNL A   1      46.458  35.680  27.584  1.00  0.00     0.146 C 
ATOM     25  C   UNL A   1      45.516  34.315  25.903  1.00  0.00     0.255 C 
ATOM     26  C   UNL A   1      48.201  33.983  30.343  1.00  0.00     0.001 A 
ATOM     27  C   UNL A   1      47.179  35.652  28.997  1.00  0.00     0.160 C 
ATOM     28  C   UNL A   1      44.955  35.855  27.548  1.00  0.00    -0.010 A 
ATOM     29  C   UNL A   1      44.447  35.158  26.444  1.00  0.00     0.045 A 
ATOM     30  O   UNL A   1      45.336  33.520  25.001  1.00  0.00    -0.269 OA
ATOM     31  C   UNL A   1      48.583  32.696  30.860  1.00  0.00     0.010 A 
ATOM     32  C   UNL A   1      49.143  34.790  29.522  1.00  0.00     0.066 A 
ATOM     33  N   UNL A   1      48.669  35.798  28.841  1.00  0.00    -0.274 NA
ATOM     34  C   UNL A   1      44.068  36.424  28.444  1.00  0.00     0.007 A 
ATOM     35  C   UNL A   1      43.096  34.996  26.186  1.00  0.00     0.014 A 
ATOM     36  C   UNL A   1      49.795  32.200  30.575  1.00  0.00     0.001 A 
ATOM     37  C   UNL A   1      50.499  34.203  29.332  1.00  0.00     0.028 A 
ATOM     38  C   UNL A   1      42.691  36.253  28.218  1.00  0.00     0.000 A 
ATOM     39  C   UNL A   1      42.208  35.552  27.098  1.00  0.00     0.001 A 
ATOM     40  C   UNL A   1      50.744  32.958  29.782  1.00  0.00     0.002 A 
ENDBRANCH  17  20
ENDBRANCH  12  16
ENDBRANCH   9  12
ENDBRANCH   6   8
ENDBRANCH   3   6
ENDBRANCH   1   2
BRANCH   1  41
ATOM     41  C   UNL A   1      43.096  23.870  25.221  1.00  0.00     0.023 C 
BRANCH  41  42
ATOM     42  C   UNL A   1      43.177  22.837  26.341  1.00  0.00     0.023 C 
BRANCH  42  43
ATOM     43  C   UNL A   1      41.977  22.817  27.268  1.00  0.00     0.116 C 
BRANCH  43  44
ATOM     44  N   UNL A   1      40.733  22.414  26.628  1.00  0.00    -0.352 N 
ATOM     45  C   UNL A   1      39.589  23.166  26.495  1.00  0.00     0.251 C 
ATOM     46  H   UNL A   1      40.709  21.506  26.249  1.00  0.00     0.163 HD
ATOM     47  O   UNL A   1      38.581  22.713  25.968  1.00  0.00    -0.269 OA
BRANCH  45  48
ATOM     48  C   UNL A   1      39.594  24.517  27.083  1.00  0.00     0.039 A 
ATOM     49  C   UNL A   1      40.209  25.568  26.401  1.00  0.00     0.014 A 
ATOM     50  C   UNL A   1      39.145  24.677  28.395  1.00  0.00     0.014 A 
ATOM     51  C   UNL A   1      40.558  26.713  27.103  1.00  0.00     0.010 A 
ATOM     52  C   UNL A   1      39.408  25.871  29.065  1.00  0.00     0.010 A 
ATOM     53  C   UNL A   1      40.176  26.871  28.447  1.00  0.00    -0.014 A 
BRANCH  53  54
ATOM     54  C   UNL A   1      40.628  28.074  29.189  1.00  0.00     0.031 A 
ATOM     55  C   UNL A   1      39.672  29.197  29.494  1.00  0.00     0.074 A 
ATOM     56  C   UNL A   1      41.891  28.116  29.654  1.00  0.00     0.049 A 
ATOM     57  N   UNL A   1      39.889  30.308  30.154  1.00  0.00    -0.248 NA
ATOM     58  C   UNL A   1      38.296  29.063  28.991  1.00  0.00     0.031 C 
ATOM     59  C   UNL A   1      42.900  27.079  29.433  1.00  0.00     0.029 A 
ATOM     60  N   UNL A   1      42.531  29.045  30.434  1.00  0.00    -0.354 N 
ATOM     61  C   UNL A   1      38.690  31.010  30.125  1.00  0.00     0.074 A 
ATOM     62  C   UNL A   1      37.756  30.218  29.356  1.00  0.00     0.031 C 
ATOM     63  C   UNL A   1      44.009  27.394  30.118  1.00  0.00     0.029 A 
ATOM     64  C   UNL A   1      43.814  28.687  30.766  1.00  0.00     0.049 A 
ATOM     65  H   UNL A   1      42.111  29.886  30.728  1.00  0.00     0.167 HD
ATOM     66  C   UNL A   1      38.394  32.199  30.703  1.00  0.00     0.037 A 
ATOM     67  C   UNL A   1      44.738  29.334  31.500  1.00  0.00     0.037 A 
ATOM     68  C   UNL A   1      39.317  32.963  31.501  1.00  0.00     0.049 A 
ATOM     69  C   UNL A   1      44.397  30.671  32.090  1.00  0.00     0.074 A 
ATOM     70  C   UNL A   1      39.097  34.158  32.164  1.00  0.00     0.029 A 
ATOM     71  N   UNL A   1      40.634  32.604  31.748  1.00  0.00    -0.354 N 
ATOM     72  N   UNL A   1      43.258  31.318  32.062  1.00  0.00    -0.248 NA
ATOM     73  C   UNL A   1      45.473  31.376  32.798  1.00  0.00     0.031 C 
ATOM     74  C   UNL A   1      40.294  34.545  32.773  1.00  0.00     0.029 A 
ATOM     75  C   UNL A   1      41.248  33.572  32.527  1.00  0.00     0.049 A 
ATOM     76  H   UNL A   1      41.067  31.783  31.419  1.00  0.00     0.167 HD
ATOM     77  C   UNL A   1      43.478  32.505  32.744  1.00  0.00     0.074 A 
ATOM     78  C   UNL A   1      44.853  32.476  33.202  1.00  0.00     0.031 C 
ATOM     79  C   UNL A   1      42.621  33.532  32.961  1.00  0.00     0.037 A 
BRANCH  66  80
ATOM     80  C   UNL A   1      37.016  32.758  30.496  1.00  0.00     0.064 A 
ATOM     81  C   UNL A   1      36.013  32.621  31.466  1.00  0.00     0.173 A 
ATOM     82  C   UNL A   1      36.716  33.499  29.343  1.00  0.00     0.173 A 
ATOM     83  F   UNL A   1      36.245  31.914  32.582  1.00  0.00    -0.203 F 
ATOM     84  C   UNL A   1      34.756  33.191  31.283  1.00  0.00     0.198 A 
ATOM     85  C   UNL A   1      35.466  34.089  29.173  1.00  0.00     0.198 A 
ATOM     86  F   UNL A   1      37.642  33.667  28.386  1.00  0.00    -0.203 F 
ATOM     87  F   UNL A   1      33.801  33.019  32.208  1.00  0.00    -0.200 F 
ATOM     88  C   UNL A   1      34.486  33.932  30.141  1.00  0.00     0.200 A 
ATOM     89  F   UNL A   1      35.212  34.816  28.077  1.00  0.00    -0.200 F 
ATOM     90  F   UNL A   1      33.280  34.491  29.972  1.00  0.00    -0.200 F 
ENDBRANCH  66  80
BRANCH  67  91
ATOM     91  C   UNL A   1      46.070  28.713  31.707  1.00  0.00     0.064 A 
ATOM     92  C   UNL A   1      47.177  29.116  30.949  1.00  0.00     0.173 A 
ATOM     93  C   UNL A   1      46.274  27.737  32.694  1.00  0.00     0.173 A 
ATOM     94  F   UNL A   1      47.028  30.032  29.981  1.00  0.00    -0.203 F 
ATOM     95  C   UNL A   1      48.438  28.567  31.171  1.00  0.00     0.198 A 
ATOM     96  C   UNL A   1      47.540  27.210  32.935  1.00  0.00     0.198 A 
ATOM     97  F   UNL A   1      45.245  27.320  33.449  1.00  0.00    -0.203 F 
ATOM     98  F   UNL A   1      49.476  28.951  30.416  1.00  0.00    -0.200 F 
ATOM     99  C   UNL A   1      48.620  27.622  32.171  1.00  0.00     0.200 A 
ATOM    100  F   UNL A   1      47.714  26.312  33.914  1.00  0.00    -0.200 F 
ATOM    101  F   UNL A   1      49.837  27.109  32.397  1.00  0.00    -0.200 F 
ENDBRANCH  67  91
BRANCH  79 102
ATOM    102  C   UNL A   1      43.143  34.721  33.711  1.00  0.00     0.064 A 
ATOM    103  C   UNL A   1      43.580  35.869  33.032  1.00  0.00     0.173 A 
ATOM    104  C   UNL A   1      43.136  34.745  35.113  1.00  0.00     0.173 A 
ATOM    105  F   UNL A   1      43.619  35.886  31.692  1.00  0.00    -0.203 F 
ATOM    106  C   UNL A   1      43.996  36.996  33.733  1.00  0.00     0.198 A 
ATOM    107  C   UNL A   1      43.529  35.884  35.810  1.00  0.00     0.198 A 
ATOM    108  F   UNL A   1      42.722  33.674  35.806  1.00  0.00    -0.203 F 
ATOM    109  F   UNL A   1      44.435  38.073  33.067  1.00  0.00    -0.200 F 
ATOM    110  C   UNL A   1      43.961  37.007  35.120  1.00  0.00     0.200 A 
ATOM    111  F   UNL A   1      43.481  35.898  37.148  1.00  0.00    -0.200 F 
ATOM    112  F   UNL A   1      44.344  38.101  35.792  1.00  0.00    -0.200 F 
ENDBRANCH  79 102
ENDBRANCH  53  54
ENDBRANCH  45  48
ENDBRANCH  43  44
ENDBRANCH  42  43
ENDBRANCH  41  42
ENDBRANCH   1  41
TORSDOF 16
ENDMDL
