MODEL 1
REMARK VINA RESULT:     -14.2      0.000      0.000
REMARK SMILES Cc1cc(C)n(C)c(=O)c1C(=O)N1CCC2(CC1)C[NH2+][C@@H](C(=O)NCCCCNC(=O)c1ccc(-c3c4nc(c(-c5c(F)c(F)c(F)c(F)c5F)c5ccc([nH]5)c(-c5c(F)c(F)c(F)c(F)c5F)c5nc(c(-c6c(F)c(F)c(F)c(F)c6F)c6ccc3[nH]6)C=C5)C=C4)cc1)C2
REMARK SMILES IDX 27 1 26 2 25 3 24 4 22 5 23 6 21 8 11 9 12 10 13 11 14 12
REMARK SMILES IDX 18 13 15 14 17 15 16 16 19 17 95 18 20 19 10 22 1 23 2 24
REMARK SMILES IDX 3 25 4 26 8 27 5 28 6 29 9 30 7 31 28 32 29 33 30 34 31 36
REMARK SMILES IDX 32 37 33 38 94 39 34 40 93 41 35 42 36 43 37 44 87 45 38 46
REMARK SMILES IDX 92 47 86 48 88 49 39 50 91 51 85 52 84 53 40 55 72 56 52 57
REMARK SMILES IDX 71 58 53 59 56 60 70 61 89 62 54 63 55 64 69 66 90 67 57 68
REMARK SMILES IDX 41 69 42 70 50 71 43 72 44 73 48 74 51 75 45 76 46 77 49 78
REMARK SMILES IDX 47 79 73 80 74 81 82 82 75 83 76 84 80 85 83 86 77 87 78 88
REMARK SMILES IDX 81 89 79 90 58 91 59 92 67 93 60 94 61 95 65 96 68 97 62 98
REMARK SMILES IDX 63 99 66 100 64 101
REMARK H PARENT 24 7 20 20 20 21 29 35 88 54 56 65
REMARK Flexibility Score: inf
ROOT
ATOM      1  C   UNL A   1      31.549  32.022  26.728  1.00  0.00     0.023 C 
ENDROOT
BRANCH   1   2
ATOM      2  C   UNL A   1      31.780  30.516  26.642  1.00  0.00     0.023 C 
BRANCH   2   3
ATOM      3  C   UNL A   1      32.481  30.055  25.368  1.00  0.00     0.116 C 
BRANCH   3   4
ATOM      4  N   UNL A   1      31.539  29.687  24.330  1.00  0.00    -0.351 N 
ATOM      5  C   UNL A   1      31.574  28.655  23.437  1.00  0.00     0.278 C 
ATOM      6  O   UNL A   1      30.618  28.540  22.663  1.00  0.00    -0.268 OA
ATOM      7  H   UNL A   1      30.752  30.274  24.256  1.00  0.00     0.163 HD
BRANCH   5   8
ATOM      8  C   UNL A   1      32.756  27.679  23.360  1.00  0.00     0.273 C 
ATOM      9  C   UNL A   1      34.067  21.867  26.272  1.00  0.00     0.259 C 
ATOM     10  O   UNL A   1      34.279  21.981  27.478  1.00  0.00    -0.269 OA
ATOM     11  N   UNL A   1      33.775  23.009  25.540  1.00  0.00    -0.338 N 
ATOM     12  C   UNL A   1      34.635  24.157  25.763  1.00  0.00     0.120 C 
ATOM     13  C   UNL A   1      32.392  23.382  25.303  1.00  0.00     0.120 C 
ATOM     14  C   UNL A   1      34.728  24.944  24.471  1.00  0.00     0.034 C 
ATOM     15  C   UNL A   1      32.266  24.258  24.051  1.00  0.00     0.034 C 
ATOM     16  C   UNL A   1      33.353  25.366  23.898  1.00  0.00     0.029 C 
ATOM     17  C   UNL A   1      33.577  25.729  22.410  1.00  0.00     0.268 C 
ATOM     18  C   UNL A   1      32.845  26.690  24.521  1.00  0.00     0.088 C 
ATOM     19  N   UNL A   1      32.699  26.853  22.141  1.00  0.00    -0.336 N 
ATOM     20  H   UNL A   1      31.746  26.531  21.972  1.00  0.00     0.346 HD
ATOM     21  H   UNL A   1      32.984  27.372  21.311  1.00  0.00     0.346 HD
BRANCH   9  22
ATOM     22  C   UNL A   1      34.255  20.552  25.519  1.00  0.00     0.108 A 
ATOM     23  C   UNL A   1      36.796  20.644  25.135  1.00  0.00     0.045 C 
ATOM     24  C   UNL A   1      35.421  20.056  25.032  1.00  0.00    -0.031 A 
ATOM     25  C   UNL A   1      35.458  18.785  24.331  1.00  0.00     0.026 A 
ATOM     26  C   UNL A   1      34.394  17.982  24.237  1.00  0.00     0.018 A 
ATOM     27  C   UNL A   1      33.017  19.674  25.347  1.00  0.00     0.263 A 
ATOM     28  C   UNL A   1      34.551  16.653  23.549  1.00  0.00     0.064 C 
ATOM     29  N   UNL A   1      33.185  18.403  24.767  1.00  0.00    -0.315 N 
ATOM     30  O   UNL A   1      31.907  20.052  25.721  1.00  0.00    -0.268 OA
ATOM     31  C   UNL A   1      32.017  17.530  24.712  1.00  0.00     0.153 C 
ENDBRANCH   9  22
ENDBRANCH   5   8
ENDBRANCH   3   4
ENDBRANCH   2   3
ENDBRANCH   1   2
BRANCH   1  32
ATOM     32  C   UNL A   1      32.715  32.816  27.301  1.00  0.00     0.116 C 
BRANCH  32  33
ATOM     33  N   UNL A   1      32.366  34.189  27.640  1.00  0.00    -0.352 N 
ATOM     34  C   UNL A   1      32.953  35.008  28.576  1.00  0.00     0.251 C 
ATOM     35  H   UNL A   1      31.615  34.579  27.137  1.00  0.00     0.163 HD
ATOM     36  O   UNL A   1      32.490  36.111  28.828  1.00  0.00    -0.269 OA
BRANCH  34  37
ATOM     37  C   UNL A   1      34.137  34.511  29.305  1.00  0.00     0.039 A 
ATOM     38  C   UNL A   1      33.949  33.846  30.518  1.00  0.00     0.014 A 
ATOM     39  C   UNL A   1      35.413  34.634  28.747  1.00  0.00     0.014 A 
ATOM     40  C   UNL A   1      35.038  33.233  31.137  1.00  0.00     0.010 A 
ATOM     41  C   UNL A   1      36.482  33.961  29.328  1.00  0.00     0.010 A 
ATOM     42  C   UNL A   1      36.302  33.251  30.524  1.00  0.00    -0.014 A 
BRANCH  42  43
ATOM     43  C   UNL A   1      37.448  32.523  31.121  1.00  0.00     0.031 A 
ATOM     44  C   UNL A   1      37.940  32.892  32.490  1.00  0.00     0.074 A 
ATOM     45  C   UNL A   1      38.070  31.562  30.411  1.00  0.00     0.049 A 
ATOM     46  N   UNL A   1      38.941  32.393  33.170  1.00  0.00    -0.248 NA
ATOM     47  C   UNL A   1      37.231  33.983  33.178  1.00  0.00     0.031 C 
ATOM     48  C   UNL A   1      37.710  31.149  29.054  1.00  0.00     0.029 A 
ATOM     49  N   UNL A   1      39.133  30.758  30.733  1.00  0.00    -0.354 N 
ATOM     50  C   UNL A   1      38.980  33.106  34.359  1.00  0.00     0.074 A 
ATOM     51  C   UNL A   1      37.945  34.114  34.286  1.00  0.00     0.031 C 
ATOM     52  C   UNL A   1      38.513  30.142  28.675  1.00  0.00     0.029 A 
ATOM     53  C   UNL A   1      39.462  29.859  29.748  1.00  0.00     0.049 A 
ATOM     54  H   UNL A   1      39.616  30.819  31.589  1.00  0.00     0.167 HD
ATOM     55  C   UNL A   1      39.786  32.916  35.430  1.00  0.00     0.037 A 
ATOM     56  C   UNL A   1      40.416  28.909  29.720  1.00  0.00     0.037 A 
ATOM     57  C   UNL A   1      40.797  31.898  35.509  1.00  0.00     0.049 A 
ATOM     58  C   UNL A   1      41.309  28.728  30.917  1.00  0.00     0.074 A 
ATOM     59  C   UNL A   1      41.635  31.597  36.568  1.00  0.00     0.029 A 
ATOM     60  N   UNL A   1      41.104  31.011  34.489  1.00  0.00    -0.354 N 
ATOM     61  N   UNL A   1      41.300  29.373  32.058  1.00  0.00    -0.248 NA
ATOM     62  C   UNL A   1      42.344  27.687  30.822  1.00  0.00     0.031 C 
ATOM     63  C   UNL A   1      42.472  30.548  36.177  1.00  0.00     0.029 A 
ATOM     64  C   UNL A   1      42.130  30.171  34.888  1.00  0.00     0.049 A 
ATOM     65  H   UNL A   1      40.659  30.982  33.611  1.00  0.00     0.167 HD
ATOM     66  C   UNL A   1      42.307  28.803  32.825  1.00  0.00     0.074 A 
ATOM     67  C   UNL A   1      42.902  27.753  32.024  1.00  0.00     0.031 C 
ATOM     68  C   UNL A   1      42.702  29.124  34.080  1.00  0.00     0.037 A 
BRANCH  55  69
ATOM     69  C   UNL A   1      39.586  33.813  36.614  1.00  0.00     0.064 A 
ATOM     70  C   UNL A   1      38.793  33.417  37.701  1.00  0.00     0.173 A 
ATOM     71  C   UNL A   1      40.228  35.057  36.686  1.00  0.00     0.173 A 
ATOM     72  F   UNL A   1      38.148  32.241  37.672  1.00  0.00    -0.203 F 
ATOM     73  C   UNL A   1      38.634  34.243  38.810  1.00  0.00     0.198 A 
ATOM     74  C   UNL A   1      40.088  35.870  37.807  1.00  0.00     0.198 A 
ATOM     75  F   UNL A   1      41.000  35.481  35.674  1.00  0.00    -0.203 F 
ATOM     76  F   UNL A   1      37.840  33.860  39.820  1.00  0.00    -0.200 F 
ATOM     77  C   UNL A   1      39.288  35.465  38.866  1.00  0.00     0.200 A 
ATOM     78  F   UNL A   1      40.728  37.046  37.867  1.00  0.00    -0.200 F 
ATOM     79  F   UNL A   1      39.142  36.255  39.939  1.00  0.00    -0.200 F 
ENDBRANCH  55  69
BRANCH  56  80
ATOM     80  C   UNL A   1      40.537  28.021  28.536  1.00  0.00     0.064 A 
ATOM     81  C   UNL A   1      41.319  28.404  27.436  1.00  0.00     0.173 A 
ATOM     82  C   UNL A   1      39.900  26.774  28.484  1.00  0.00     0.173 A 
ATOM     83  F   UNL A   1      41.931  29.596  27.433  1.00  0.00    -0.203 F 
ATOM     84  C   UNL A   1      41.452  27.573  26.325  1.00  0.00     0.198 A 
ATOM     85  C   UNL A   1      40.053  25.935  27.381  1.00  0.00     0.198 A 
ATOM     86  F   UNL A   1      39.146  26.362  29.513  1.00  0.00    -0.203 F 
ATOM     87  F   UNL A   1      42.182  27.975  25.275  1.00  0.00    -0.200 F 
ATOM     88  C   UNL A   1      40.824  26.338  26.301  1.00  0.00     0.200 A 
ATOM     89  F   UNL A   1      39.454  24.736  27.366  1.00  0.00    -0.200 F 
ATOM     90  F   UNL A   1      40.961  25.535  25.236  1.00  0.00    -0.200 F 
ENDBRANCH  56  80
BRANCH  68  91
ATOM     91  C   UNL A   1      43.817  28.324  34.684  1.00  0.00     0.064 A 
ATOM     92  C   UNL A   1      45.146  28.760  34.615  1.00  0.00     0.173 A 
ATOM     93  C   UNL A   1      43.539  27.160  35.415  1.00  0.00     0.173 A 
ATOM     94  F   UNL A   1      45.461  29.861  33.917  1.00  0.00    -0.203 F 
ATOM     95  C   UNL A   1      46.163  28.054  35.253  1.00  0.00     0.198 A 
ATOM     96  C   UNL A   1      44.554  26.468  36.070  1.00  0.00     0.198 A 
ATOM     97  F   UNL A   1      42.280  26.708  35.516  1.00  0.00    -0.203 F 
ATOM     98  F   UNL A   1      47.432  28.473  35.155  1.00  0.00    -0.200 F 
ATOM     99  C   UNL A   1      45.864  26.915  35.987  1.00  0.00     0.200 A 
ATOM    100  F   UNL A   1      44.262  25.377  36.791  1.00  0.00    -0.200 F 
ATOM    101  F   UNL A   1      46.841  26.248  36.617  1.00  0.00    -0.200 F 
ENDBRANCH  68  91
ENDBRANCH  42  43
ENDBRANCH  34  37
ENDBRANCH  32  33
ENDBRANCH   1  32
TORSDOF 12
ENDMDL
MODEL 2
REMARK VINA RESULT:     -14.2      5.038     11.383
REMARK SMILES Cc1cc(C)n(C)c(=O)c1C(=O)N1CCC2(CC1)C[NH2+][C@@H](C(=O)NCCCCNC(=O)c1ccc(-c3c4nc(c(-c5c(F)c(F)c(F)c(F)c5F)c5ccc([nH]5)c(-c5c(F)c(F)c(F)c(F)c5F)c5nc(c(-c6c(F)c(F)c(F)c(F)c6F)c6ccc3[nH]6)C=C5)C=C4)cc1)C2
REMARK SMILES IDX 27 1 26 2 25 3 24 4 22 5 23 6 21 8 11 9 12 10 13 11 14 12
REMARK SMILES IDX 18 13 15 14 17 15 16 16 19 17 95 18 20 19 10 22 1 23 2 24
REMARK SMILES IDX 3 25 4 26 8 27 5 28 6 29 9 30 7 31 28 32 29 33 30 34 31 36
REMARK SMILES IDX 32 37 33 38 94 39 34 40 93 41 35 42 36 43 37 44 87 45 38 46
REMARK SMILES IDX 92 47 86 48 88 49 39 50 91 51 85 52 84 53 40 55 72 56 52 57
REMARK SMILES IDX 71 58 53 59 56 60 70 61 89 62 54 63 55 64 69 66 90 67 57 68
REMARK SMILES IDX 41 69 42 70 50 71 43 72 44 73 48 74 51 75 45 76 46 77 49 78
REMARK SMILES IDX 47 79 73 80 74 81 82 82 75 83 76 84 80 85 83 86 77 87 78 88
REMARK SMILES IDX 81 89 79 90 58 91 59 92 67 93 60 94 61 95 65 96 68 97 62 98
REMARK SMILES IDX 63 99 66 100 64 101
REMARK H PARENT 24 7 20 20 20 21 29 35 88 54 56 65
REMARK Flexibility Score: inf
ROOT
ATOM      1  C   UNL A   1      38.028  19.795  24.998  1.00  0.00     0.023 C 
ENDROOT
BRANCH   1   2
ATOM      2  C   UNL A   1      37.095  20.967  24.708  1.00  0.00     0.023 C 
BRANCH   2   3
ATOM      3  C   UNL A   1      36.091  21.266  25.817  1.00  0.00     0.116 C 
BRANCH   3   4
ATOM      4  N   UNL A   1      34.814  20.623  25.583  1.00  0.00    -0.351 N 
ATOM      5  C   UNL A   1      33.545  21.095  25.760  1.00  0.00     0.278 C 
ATOM      6  O   UNL A   1      32.611  20.348  25.453  1.00  0.00    -0.268 OA
ATOM      7  H   UNL A   1      34.869  19.699  25.245  1.00  0.00     0.163 HD
BRANCH   5   8
ATOM      8  C   UNL A   1      33.265  22.488  26.342  1.00  0.00     0.273 C 
ATOM      9  C   UNL A   1      32.555  28.501  23.638  1.00  0.00     0.259 C 
ATOM     10  O   UNL A   1      33.607  28.939  23.178  1.00  0.00    -0.269 OA
ATOM     11  N   UNL A   1      32.562  27.247  24.231  1.00  0.00    -0.338 N 
ATOM     12  C   UNL A   1      33.634  26.982  25.172  1.00  0.00     0.120 C 
ATOM     13  C   UNL A   1      32.198  26.076  23.452  1.00  0.00     0.120 C 
ATOM     14  C   UNL A   1      33.117  26.033  26.234  1.00  0.00     0.034 C 
ATOM     15  C   UNL A   1      31.700  24.945  24.359  1.00  0.00     0.034 C 
ATOM     16  C   UNL A   1      32.527  24.721  25.663  1.00  0.00     0.029 C 
ATOM     17  C   UNL A   1      31.653  24.097  26.779  1.00  0.00     0.268 C 
ATOM     18  C   UNL A   1      33.618  23.651  25.416  1.00  0.00     0.088 C 
ATOM     19  N   UNL A   1      31.839  22.661  26.669  1.00  0.00    -0.336 N 
ATOM     20  H   UNL A   1      31.252  22.280  25.927  1.00  0.00     0.346 HD
ATOM     21  H   UNL A   1      31.579  22.175  27.527  1.00  0.00     0.346 HD
BRANCH   9  22
ATOM     22  C   UNL A   1      31.277  29.333  23.718  1.00  0.00     0.108 A 
ATOM     23  C   UNL A   1      31.755  30.634  25.884  1.00  0.00     0.045 C 
ATOM     24  C   UNL A   1      30.949  30.225  24.688  1.00  0.00    -0.031 A 
ATOM     25  C   UNL A   1      29.694  30.953  24.642  1.00  0.00     0.026 A 
ATOM     26  C   UNL A   1      28.861  30.888  23.598  1.00  0.00     0.018 A 
ATOM     27  C   UNL A   1      30.292  29.196  22.559  1.00  0.00     0.263 A 
ATOM     28  C   UNL A   1      27.617  31.735  23.615  1.00  0.00     0.064 C 
ATOM     29  N   UNL A   1      29.166  30.041  22.545  1.00  0.00    -0.315 N 
ATOM     30  O   UNL A   1      30.481  28.388  21.650  1.00  0.00    -0.268 OA
ATOM     31  C   UNL A   1      28.294  29.980  21.377  1.00  0.00     0.153 C 
ENDBRANCH   9  22
ENDBRANCH   5   8
ENDBRANCH   3   4
ENDBRANCH   2   3
ENDBRANCH   1   2
BRANCH   1  32
ATOM     32  C   UNL A   1      39.305  20.161  25.742  1.00  0.00     0.116 C 
BRANCH  32  33
ATOM     33  N   UNL A   1      40.254  19.061  25.835  1.00  0.00    -0.352 N 
ATOM     34  C   UNL A   1      41.601  19.121  26.103  1.00  0.00     0.251 C 
ATOM     35  H   UNL A   1      39.884  18.161  25.687  1.00  0.00     0.163 HD
ATOM     36  O   UNL A   1      42.301  18.120  26.050  1.00  0.00    -0.269 OA
BRANCH  34  37
ATOM     37  C   UNL A   1      42.200  20.435  26.416  1.00  0.00     0.039 A 
ATOM     38  C   UNL A   1      42.602  21.258  25.363  1.00  0.00     0.014 A 
ATOM     39  C   UNL A   1      42.285  20.873  27.741  1.00  0.00     0.014 A 
ATOM     40  C   UNL A   1      43.019  22.561  25.637  1.00  0.00     0.010 A 
ATOM     41  C   UNL A   1      42.632  22.194  28.003  1.00  0.00     0.010 A 
ATOM     42  C   UNL A   1      42.996  23.049  26.953  1.00  0.00    -0.014 A 
BRANCH  42  43
ATOM     43  C   UNL A   1      43.346  24.460  27.248  1.00  0.00     0.031 A 
ATOM     44  C   UNL A   1      44.737  24.958  26.991  1.00  0.00     0.074 A 
ATOM     45  C   UNL A   1      42.420  25.277  27.788  1.00  0.00     0.049 A 
ATOM     46  N   UNL A   1      45.243  26.146  27.206  1.00  0.00    -0.248 NA
ATOM     47  C   UNL A   1      45.698  23.988  26.440  1.00  0.00     0.031 C 
ATOM     48  C   UNL A   1      41.048  24.893  28.125  1.00  0.00     0.029 A 
ATOM     49  N   UNL A   1      42.493  26.599  28.147  1.00  0.00    -0.354 N 
ATOM     50  C   UNL A   1      46.572  26.064  26.821  1.00  0.00     0.074 A 
ATOM     51  C   UNL A   1      46.816  24.698  26.416  1.00  0.00     0.031 C 
ATOM     52  C   UNL A   1      40.398  25.965  28.604  1.00  0.00     0.029 A 
ATOM     53  C   UNL A   1      41.313  27.103  28.636  1.00  0.00     0.049 A 
ATOM     54  H   UNL A   1      43.313  27.137  28.061  1.00  0.00     0.167 HD
ATOM     55  C   UNL A   1      47.499  27.050  26.777  1.00  0.00     0.037 A 
ATOM     56  C   UNL A   1      41.004  28.345  29.056  1.00  0.00     0.037 A 
ATOM     57  C   UNL A   1      47.248  28.413  27.157  1.00  0.00     0.049 A 
ATOM     58  C   UNL A   1      42.056  29.418  29.012  1.00  0.00     0.074 A 
ATOM     59  C   UNL A   1      48.110  29.494  27.107  1.00  0.00     0.029 A 
ATOM     60  N   UNL A   1      46.042  28.883  27.654  1.00  0.00    -0.354 N 
ATOM     61  N   UNL A   1      43.296  29.342  28.593  1.00  0.00    -0.248 NA
ATOM     62  C   UNL A   1      41.667  30.750  29.498  1.00  0.00     0.031 C 
ATOM     63  C   UNL A   1      47.435  30.613  27.605  1.00  0.00     0.029 A 
ATOM     64  C   UNL A   1      46.141  30.236  27.929  1.00  0.00     0.049 A 
ATOM     65  H   UNL A   1      45.235  28.336  27.791  1.00  0.00     0.167 HD
ATOM     66  C   UNL A   1      43.827  30.616  28.741  1.00  0.00     0.074 A 
ATOM     67  C   UNL A   1      42.773  31.450  29.281  1.00  0.00     0.031 C 
ATOM     68  C   UNL A   1      45.078  31.052  28.456  1.00  0.00     0.037 A 
BRANCH  55  69
ATOM     69  C   UNL A   1      48.866  26.693  26.274  1.00  0.00     0.064 A 
ATOM     70  C   UNL A   1      49.247  26.964  24.952  1.00  0.00     0.173 A 
ATOM     71  C   UNL A   1      49.816  26.120  27.131  1.00  0.00     0.173 A 
ATOM     72  F   UNL A   1      48.368  27.499  24.092  1.00  0.00    -0.203 F 
ATOM     73  C   UNL A   1      50.527  26.655  24.500  1.00  0.00     0.198 A 
ATOM     74  C   UNL A   1      51.103  25.835  26.682  1.00  0.00     0.198 A 
ATOM     75  F   UNL A   1      49.501  25.844  28.405  1.00  0.00    -0.203 F 
ATOM     76  F   UNL A   1      50.857  26.887  23.221  1.00  0.00    -0.200 F 
ATOM     77  C   UNL A   1      51.456  26.099  25.366  1.00  0.00     0.200 A 
ATOM     78  F   UNL A   1      52.004  25.308  27.522  1.00  0.00    -0.200 F 
ATOM     79  F   UNL A   1      52.691  25.812  24.932  1.00  0.00    -0.200 F 
ENDBRANCH  55  69
BRANCH  56  80
ATOM     80  C   UNL A   1      39.620  28.649  29.501  1.00  0.00     0.064 A 
ATOM     81  C   UNL A   1      39.245  28.456  30.839  1.00  0.00     0.173 A 
ATOM     82  C   UNL A   1      38.657  29.155  28.618  1.00  0.00     0.173 A 
ATOM     83  F   UNL A   1      40.127  27.956  31.716  1.00  0.00    -0.203 F 
ATOM     84  C   UNL A   1      37.954  28.752  31.273  1.00  0.00     0.198 A 
ATOM     85  C   UNL A   1      37.374  29.470  29.058  1.00  0.00     0.198 A 
ATOM     86  F   UNL A   1      38.970  29.360  27.330  1.00  0.00    -0.203 F 
ATOM     87  F   UNL A   1      37.613  28.531  32.550  1.00  0.00    -0.200 F 
ATOM     88  C   UNL A   1      37.022  29.264  30.384  1.00  0.00     0.200 A 
ATOM     89  F   UNL A   1      36.478  29.977  28.199  1.00  0.00    -0.200 F 
ATOM     90  F   UNL A   1      35.784  29.557  30.805  1.00  0.00    -0.200 F 
ENDBRANCH  56  80
BRANCH  68  91
ATOM     91  C   UNL A   1      45.380  32.501  28.699  1.00  0.00     0.064 A 
ATOM     92  C   UNL A   1      45.967  32.931  29.896  1.00  0.00     0.173 A 
ATOM     93  C   UNL A   1      45.164  33.449  27.689  1.00  0.00     0.173 A 
ATOM     94  F   UNL A   1      46.181  32.061  30.895  1.00  0.00    -0.203 F 
ATOM     95  C   UNL A   1      46.322  34.265  30.077  1.00  0.00     0.198 A 
ATOM     96  C   UNL A   1      45.541  34.778  27.864  1.00  0.00     0.198 A 
ATOM     97  F   UNL A   1      44.612  33.082  26.522  1.00  0.00    -0.203 F 
ATOM     98  F   UNL A   1      46.861  34.662  31.238  1.00  0.00    -0.200 F 
ATOM     99  C   UNL A   1      46.118  35.184  29.058  1.00  0.00     0.200 A 
ATOM    100  F   UNL A   1      45.357  35.661  26.873  1.00  0.00    -0.200 F 
ATOM    101  F   UNL A   1      46.479  36.463  29.226  1.00  0.00    -0.200 F 
ENDBRANCH  68  91
ENDBRANCH  42  43
ENDBRANCH  34  37
ENDBRANCH  32  33
ENDBRANCH   1  32
TORSDOF 12
ENDMDL
MODEL 3
REMARK VINA RESULT:     -14.1      0.363      7.166
REMARK SMILES Cc1cc(C)n(C)c(=O)c1C(=O)N1CCC2(CC1)C[NH2+][C@@H](C(=O)NCCCCNC(=O)c1ccc(-c3c4nc(c(-c5c(F)c(F)c(F)c(F)c5F)c5ccc([nH]5)c(-c5c(F)c(F)c(F)c(F)c5F)c5nc(c(-c6c(F)c(F)c(F)c(F)c6F)c6ccc3[nH]6)C=C5)C=C4)cc1)C2
REMARK SMILES IDX 27 1 26 2 25 3 24 4 22 5 23 6 21 8 11 9 12 10 13 11 14 12
REMARK SMILES IDX 18 13 15 14 17 15 16 16 19 17 95 18 20 19 10 22 1 23 2 24
REMARK SMILES IDX 3 25 4 26 8 27 5 28 6 29 9 30 7 31 28 32 29 33 30 34 31 36
REMARK SMILES IDX 32 37 33 38 94 39 34 40 93 41 35 42 36 43 37 44 87 45 38 46
REMARK SMILES IDX 92 47 86 48 88 49 39 50 91 51 85 52 84 53 40 55 72 56 52 57
REMARK SMILES IDX 71 58 53 59 56 60 70 61 89 62 54 63 55 64 69 66 90 67 57 68
REMARK SMILES IDX 41 69 42 70 50 71 43 72 44 73 48 74 51 75 45 76 46 77 49 78
REMARK SMILES IDX 47 79 73 80 74 81 82 82 75 83 76 84 80 85 83 86 77 87 78 88
REMARK SMILES IDX 81 89 79 90 58 91 59 92 67 93 60 94 61 95 65 96 68 97 62 98
REMARK SMILES IDX 63 99 66 100 64 101
REMARK H PARENT 24 7 20 20 20 21 29 35 88 54 56 65
REMARK Flexibility Score: inf
ROOT
ATOM      1  C   UNL A   1      31.638  31.929  26.847  1.00  0.00     0.023 C 
ENDROOT
BRANCH   1   2
ATOM      2  C   UNL A   1      31.935  30.443  26.664  1.00  0.00     0.023 C 
BRANCH   2   3
ATOM      3  C   UNL A   1      32.530  30.080  25.307  1.00  0.00     0.116 C 
BRANCH   3   4
ATOM      4  N   UNL A   1      31.517  29.639  24.368  1.00  0.00    -0.351 N 
ATOM      5  C   UNL A   1      31.501  28.558  23.535  1.00  0.00     0.278 C 
ATOM      6  O   UNL A   1      30.491  28.386  22.846  1.00  0.00    -0.268 OA
ATOM      7  H   UNL A   1      30.716  30.210  24.324  1.00  0.00     0.163 HD
BRANCH   5   8
ATOM      8  C   UNL A   1      32.692  27.597  23.420  1.00  0.00     0.273 C 
ATOM      9  C   UNL A   1      34.157  21.793  26.274  1.00  0.00     0.259 C 
ATOM     10  O   UNL A   1      34.404  21.906  27.473  1.00  0.00    -0.269 OA
ATOM     11  N   UNL A   1      33.831  22.933  25.554  1.00  0.00    -0.338 N 
ATOM     12  C   UNL A   1      34.683  24.091  25.754  1.00  0.00     0.120 C 
ATOM     13  C   UNL A   1      32.437  23.291  25.359  1.00  0.00     0.120 C 
ATOM     14  C   UNL A   1      34.728  24.882  24.463  1.00  0.00     0.034 C 
ATOM     15  C   UNL A   1      32.263  24.169  24.115  1.00  0.00     0.034 C 
ATOM     16  C   UNL A   1      33.332  25.290  23.933  1.00  0.00     0.029 C 
ATOM     17  C   UNL A   1      33.508  25.659  22.439  1.00  0.00     0.268 C 
ATOM     18  C   UNL A   1      32.827  26.606  24.575  1.00  0.00     0.088 C 
ATOM     19  N   UNL A   1      32.609  26.774  22.201  1.00  0.00    -0.336 N 
ATOM     20  H   UNL A   1      31.655  26.441  22.058  1.00  0.00     0.346 HD
ATOM     21  H   UNL A   1      32.863  27.299  21.364  1.00  0.00     0.346 HD
BRANCH   9  22
ATOM     22  C   UNL A   1      34.339  20.483  25.511  1.00  0.00     0.108 A 
ATOM     23  C   UNL A   1      36.872  20.589  25.082  1.00  0.00     0.045 C 
ATOM     24  C   UNL A   1      35.497  19.994  25.001  1.00  0.00    -0.031 A 
ATOM     25  C   UNL A   1      35.528  18.727  24.293  1.00  0.00     0.026 A 
ATOM     26  C   UNL A   1      34.467  17.919  24.216  1.00  0.00     0.018 A 
ATOM     27  C   UNL A   1      33.102  19.599  25.358  1.00  0.00     0.263 A 
ATOM     28  C   UNL A   1      34.618  16.593  23.519  1.00  0.00     0.064 C 
ATOM     29  N   UNL A   1      33.266  18.331  24.769  1.00  0.00    -0.315 N 
ATOM     30  O   UNL A   1      31.997  19.969  25.754  1.00  0.00    -0.268 OA
ATOM     31  C   UNL A   1      32.101  17.452  24.731  1.00  0.00     0.153 C 
ENDBRANCH   9  22
ENDBRANCH   5   8
ENDBRANCH   3   4
ENDBRANCH   2   3
ENDBRANCH   1   2
BRANCH   1  32
ATOM     32  C   UNL A   1      32.791  32.747  27.411  1.00  0.00     0.116 C 
BRANCH  32  33
ATOM     33  N   UNL A   1      32.444  34.138  27.662  1.00  0.00    -0.352 N 
ATOM     34  C   UNL A   1      33.001  35.003  28.575  1.00  0.00     0.251 C 
ATOM     35  H   UNL A   1      31.717  34.507  27.108  1.00  0.00     0.163 HD
ATOM     36  O   UNL A   1      32.539  36.121  28.749  1.00  0.00    -0.269 OA
BRANCH  34  37
ATOM     37  C   UNL A   1      34.150  34.536  29.378  1.00  0.00     0.039 A 
ATOM     38  C   UNL A   1      33.910  33.982  30.636  1.00  0.00     0.014 A 
ATOM     39  C   UNL A   1      35.443  34.577  28.848  1.00  0.00     0.014 A 
ATOM     40  C   UNL A   1      34.963  33.393  31.335  1.00  0.00     0.010 A 
ATOM     41  C   UNL A   1      36.476  33.927  29.514  1.00  0.00     0.010 A 
ATOM     42  C   UNL A   1      36.243  33.325  30.760  1.00  0.00    -0.014 A 
BRANCH  42  43
ATOM     43  C   UNL A   1      37.351  32.619  31.448  1.00  0.00     0.031 A 
ATOM     44  C   UNL A   1      38.047  31.475  30.772  1.00  0.00     0.074 A 
ATOM     45  C   UNL A   1      37.696  32.982  32.699  1.00  0.00     0.049 A 
ATOM     46  N   UNL A   1      39.016  30.718  31.218  1.00  0.00    -0.248 NA
ATOM     47  C   UNL A   1      37.577  31.116  29.424  1.00  0.00     0.031 C 
ATOM     48  C   UNL A   1      37.062  34.048  33.475  1.00  0.00     0.029 A 
ATOM     49  N   UNL A   1      38.669  32.495  33.536  1.00  0.00    -0.354 N 
ATOM     50  C   UNL A   1      39.269  29.798  30.211  1.00  0.00     0.074 A 
ATOM     51  C   UNL A   1      38.313  30.049  29.156  1.00  0.00     0.031 C 
ATOM     52  C   UNL A   1      37.686  34.161  34.658  1.00  0.00     0.029 A 
ATOM     53  C   UNL A   1      38.744  33.157  34.736  1.00  0.00     0.049 A 
ATOM     54  H   UNL A   1      39.257  31.742  33.298  1.00  0.00     0.167 HD
ATOM     55  C   UNL A   1      40.234  28.851  30.158  1.00  0.00     0.037 A 
ATOM     56  C   UNL A   1      39.578  32.978  35.778  1.00  0.00     0.037 A 
ATOM     57  C   UNL A   1      41.198  28.620  31.199  1.00  0.00     0.049 A 
ATOM     58  C   UNL A   1      40.632  31.909  35.701  1.00  0.00     0.074 A 
ATOM     59  C   UNL A   1      42.243  27.712  31.220  1.00  0.00     0.029 A 
ATOM     60  N   UNL A   1      41.239  29.307  32.402  1.00  0.00    -0.354 N 
ATOM     61  N   UNL A   1      40.897  31.081  34.720  1.00  0.00    -0.248 NA
ATOM     62  C   UNL A   1      41.503  31.748  36.875  1.00  0.00     0.031 C 
ATOM     63  C   UNL A   1      42.895  27.828  32.451  1.00  0.00     0.029 A 
ATOM     64  C   UNL A   1      42.281  28.833  33.181  1.00  0.00     0.049 A 
ATOM     65  H   UNL A   1      40.618  30.024  32.665  1.00  0.00     0.167 HD
ATOM     66  C   UNL A   1      41.977  30.319  35.144  1.00  0.00     0.074 A 
ATOM     67  C   UNL A   1      42.325  30.788  36.470  1.00  0.00     0.031 C 
ATOM     68  C   UNL A   1      42.619  29.320  34.493  1.00  0.00     0.037 A 
BRANCH  55  69
ATOM     69  C   UNL A   1      40.311  28.009  28.920  1.00  0.00     0.064 A 
ATOM     70  C   UNL A   1      41.080  28.408  27.816  1.00  0.00     0.173 A 
ATOM     71  C   UNL A   1      39.649  26.775  28.851  1.00  0.00     0.173 A 
ATOM     72  F   UNL A   1      41.720  29.586  27.831  1.00  0.00    -0.203 F 
ATOM     73  C   UNL A   1      41.169  27.608  26.681  1.00  0.00     0.198 A 
ATOM     74  C   UNL A   1      39.760  25.967  27.723  1.00  0.00     0.198 A 
ATOM     75  F   UNL A   1      38.903  26.348  29.880  1.00  0.00    -0.203 F 
ATOM     76  F   UNL A   1      41.879  28.027  25.623  1.00  0.00    -0.200 F 
ATOM     77  C   UNL A   1      40.516  26.385  26.637  1.00  0.00     0.200 A 
ATOM     78  F   UNL A   1      39.139  24.780  27.685  1.00  0.00    -0.200 F 
ATOM     79  F   UNL A   1      40.611  25.613  25.547  1.00  0.00    -0.200 F 
ENDBRANCH  55  69
BRANCH  56  80
ATOM     80  C   UNL A   1      39.483  33.873  36.960  1.00  0.00     0.064 A 
ATOM     81  C   UNL A   1      40.135  35.115  36.968  1.00  0.00     0.173 A 
ATOM     82  C   UNL A   1      38.728  33.523  38.088  1.00  0.00     0.173 A 
ATOM     83  F   UNL A   1      40.883  35.483  35.918  1.00  0.00    -0.203 F 
ATOM     84  C   UNL A   1      40.041  35.969  38.064  1.00  0.00     0.198 A 
ATOM     85  C   UNL A   1      38.618  34.388  39.175  1.00  0.00     0.198 A 
ATOM     86  F   UNL A   1      38.084  32.348  38.126  1.00  0.00    -0.203 F 
ATOM     87  F   UNL A   1      40.697  37.138  38.058  1.00  0.00    -0.200 F 
ATOM     88  C   UNL A   1      39.277  35.608  39.164  1.00  0.00     0.200 A 
ATOM     89  F   UNL A   1      37.869  34.041  40.231  1.00  0.00    -0.200 F 
ATOM     90  F   UNL A   1      39.180  36.435  40.214  1.00  0.00    -0.200 F 
ENDBRANCH  56  80
BRANCH  68  91
ATOM     91  C   UNL A   1      43.780  28.672  35.187  1.00  0.00     0.064 A 
ATOM     92  C   UNL A   1      43.604  27.550  36.007  1.00  0.00     0.173 A 
ATOM     93  C   UNL A   1      45.087  29.124  34.954  1.00  0.00     0.173 A 
ATOM     94  F   UNL A   1      42.372  27.090  36.268  1.00  0.00    -0.203 F 
ATOM     95  C   UNL A   1      44.699  26.905  36.577  1.00  0.00     0.198 A 
ATOM     96  C   UNL A   1      46.180  28.463  35.507  1.00  0.00     0.198 A 
ATOM     97  F   UNL A   1      45.305  30.190  34.169  1.00  0.00    -0.203 F 
ATOM     98  F   UNL A   1      44.509  25.848  37.378  1.00  0.00    -0.200 F 
ATOM     99  C   UNL A   1      45.985  27.356  36.319  1.00  0.00     0.200 A 
ATOM    100  F   UNL A   1      47.423  28.892  35.245  1.00  0.00    -0.200 F 
ATOM    101  F   UNL A   1      47.038  26.722  36.852  1.00  0.00    -0.200 F 
ENDBRANCH  68  91
ENDBRANCH  42  43
ENDBRANCH  34  37
ENDBRANCH  32  33
ENDBRANCH   1  32
TORSDOF 12
ENDMDL
