MODEL 1
REMARK VINA RESULT:     -12.8      0.000      0.000
REMARK SMILES Cc1cc(=O)cc(C)n1C[C@H]1CCCC[C@@H]1C(=O)NCCCCNC(=O)c1ccc(-c2c3nc(c(-c4c(F)c(F)c(F)c(F)c4F)c4ccc([nH]4)c(-c4c(F)c(F)c(F)c(F)c4F)c4nc(c(-c5c(F)c(F)c(F)c(F)c5F)c5ccc2[nH]5)C=C4)C=C3)cc1
REMARK SMILES IDX 21 1 20 2 19 3 17 4 18 5 16 7 11 8 12 9 13 10 15 11 14 12
REMARK SMILES IDX 10 13 9 14 1 15 2 16 3 17 4 18 7 19 5 20 6 21 8 22 22 23
REMARK SMILES IDX 23 24 24 25 25 26 26 28 27 29 28 30 89 31 29 32 88 33 30 34
REMARK SMILES IDX 31 35 32 36 82 37 33 38 87 39 81 40 83 41 34 42 86 43 80 44
REMARK SMILES IDX 79 45 35 47 67 48 47 49 66 50 48 51 51 52 65 53 84 54 49 55
REMARK SMILES IDX 50 56 64 58 85 59 52 60 36 61 37 62 45 63 38 64 39 65 43 66
REMARK SMILES IDX 46 67 40 68 41 69 44 70 42 71 68 72 69 73 77 74 70 75 71 76
REMARK SMILES IDX 75 77 78 78 72 79 73 80 76 81 74 82 53 83 54 84 62 85 55 86
REMARK SMILES IDX 56 87 60 88 63 89 57 90 58 91 61 92 59 93
REMARK H PARENT 19 6 24 27 83 46 51 57
REMARK Flexibility Score: inf
ROOT
ATOM      1  C   UNL A   1      31.583  30.761  26.159  1.00  0.00     0.023 C 
ENDROOT
BRANCH   1   2
ATOM      2  C   UNL A   1      32.981  30.186  26.399  1.00  0.00     0.116 C 
BRANCH   2   3
ATOM      3  N   UNL A   1      33.479  29.485  25.235  1.00  0.00    -0.356 N 
ATOM      4  C   UNL A   1      33.579  28.174  24.913  1.00  0.00     0.223 C 
ATOM      5  O   UNL A   1      34.041  27.956  23.787  1.00  0.00    -0.275 OA
ATOM      6  H   UNL A   1      33.813  30.086  24.531  1.00  0.00     0.163 HD
BRANCH   4   7
ATOM      7  C   UNL A   1      33.071  27.021  25.808  1.00  0.00     0.083 C 
ATOM      8  C   UNL A   1      33.302  25.568  25.311  1.00  0.00     0.021 C 
ATOM      9  C   UNL A   1      32.515  25.368  24.004  1.00  0.00     0.006 C 
ATOM     10  C   UNL A   1      31.015  25.593  24.171  1.00  0.00     0.000 C 
ATOM     11  C   UNL A   1      31.552  27.226  26.056  1.00  0.00     0.014 C 
ATOM     12  C   UNL A   1      30.709  26.946  24.804  1.00  0.00     0.001 C 
BRANCH   8  13
ATOM     13  C   UNL A   1      32.941  24.537  26.425  1.00  0.00     0.126 C 
BRANCH  13  14
ATOM     14  N   UNL A   1      33.069  23.123  25.965  1.00  0.00    -0.349 N 
ATOM     15  C   UNL A   1      35.605  23.247  26.179  1.00  0.00     0.064 C 
ATOM     16  C   UNL A   1      34.347  22.556  25.705  1.00  0.00     0.018 A 
ATOM     17  C   UNL A   1      34.497  21.369  25.090  1.00  0.00     0.073 A 
ATOM     18  C   UNL A   1      33.307  20.610  24.673  1.00  0.00     0.182 A 
ATOM     19  C   UNL A   1      31.929  22.302  25.760  1.00  0.00     0.018 A 
ATOM     20  O   UNL A   1      33.402  19.578  24.019  1.00  0.00    -0.290 OA
ATOM     21  C   UNL A   1      32.004  21.114  25.132  1.00  0.00     0.073 A 
ATOM     22  C   UNL A   1      30.579  22.679  26.320  1.00  0.00     0.064 C 
ENDBRANCH  13  14
ENDBRANCH   8  13
ENDBRANCH   4   7
ENDBRANCH   2   3
ENDBRANCH   1   2
BRANCH   1  23
ATOM     23  C   UNL A   1      31.419  32.239  26.534  1.00  0.00     0.023 C 
BRANCH  23  24
ATOM     24  C   UNL A   1      32.602  32.854  27.271  1.00  0.00     0.116 C 
BRANCH  24  25
ATOM     25  N   UNL A   1      32.350  34.217  27.709  1.00  0.00    -0.352 N 
ATOM     26  C   UNL A   1      33.002  34.950  28.671  1.00  0.00     0.251 C 
ATOM     27  H   UNL A   1      31.610  34.679  27.252  1.00  0.00     0.163 HD
ATOM     28  O   UNL A   1      32.591  36.053  28.997  1.00  0.00    -0.269 OA
BRANCH  26  29
ATOM     29  C   UNL A   1      34.188  34.374  29.337  1.00  0.00     0.039 A 
ATOM     30  C   UNL A   1      34.001  33.589  30.476  1.00  0.00     0.014 A 
ATOM     31  C   UNL A   1      35.471  34.587  28.826  1.00  0.00     0.014 A 
ATOM     32  C   UNL A   1      35.097  32.963  31.069  1.00  0.00     0.010 A 
ATOM     33  C   UNL A   1      36.554  33.911  29.376  1.00  0.00     0.010 A 
ATOM     34  C   UNL A   1      36.377  33.094  30.504  1.00  0.00    -0.014 A 
BRANCH  34  35
ATOM     35  C   UNL A   1      37.540  32.387  31.091  1.00  0.00     0.031 A 
ATOM     36  C   UNL A   1      38.030  32.754  32.462  1.00  0.00     0.074 A 
ATOM     37  C   UNL A   1      38.173  31.438  30.374  1.00  0.00     0.049 A 
ATOM     38  N   UNL A   1      39.036  32.262  33.138  1.00  0.00    -0.248 NA
ATOM     39  C   UNL A   1      37.309  33.833  33.156  1.00  0.00     0.031 C 
ATOM     40  C   UNL A   1      37.814  31.027  29.016  1.00  0.00     0.029 A 
ATOM     41  N   UNL A   1      39.249  30.648  30.688  1.00  0.00    -0.354 N 
ATOM     42  C   UNL A   1      39.065  32.967  34.334  1.00  0.00     0.074 A 
ATOM     43  C   UNL A   1      38.021  33.965  34.265  1.00  0.00     0.031 C 
ATOM     44  C   UNL A   1      38.629  30.032  28.629  1.00  0.00     0.029 A 
ATOM     45  C   UNL A   1      39.586  29.758  29.697  1.00  0.00     0.049 A 
ATOM     46  H   UNL A   1      39.733  30.711  31.543  1.00  0.00     0.167 HD
ATOM     47  C   UNL A   1      39.870  32.775  35.404  1.00  0.00     0.037 A 
ATOM     48  C   UNL A   1      40.554  28.822  29.661  1.00  0.00     0.037 A 
ATOM     49  C   UNL A   1      40.889  31.765  35.478  1.00  0.00     0.049 A 
ATOM     50  C   UNL A   1      41.454  28.648  30.854  1.00  0.00     0.074 A 
ATOM     51  C   UNL A   1      41.720  31.456  36.540  1.00  0.00     0.029 A 
ATOM     52  N   UNL A   1      41.215  30.896  34.447  1.00  0.00    -0.354 N 
ATOM     53  N   UNL A   1      41.432  29.278  32.002  1.00  0.00    -0.248 NA
ATOM     54  C   UNL A   1      42.514  27.635  30.745  1.00  0.00     0.031 C 
ATOM     55  C   UNL A   1      42.575  30.425  36.138  1.00  0.00     0.029 A 
ATOM     56  C   UNL A   1      42.252  30.067  34.839  1.00  0.00     0.049 A 
ATOM     57  H   UNL A   1      40.774  30.874  33.566  1.00  0.00     0.167 HD
ATOM     58  C   UNL A   1      42.457  28.728  32.759  1.00  0.00     0.074 A 
ATOM     59  C   UNL A   1      43.074  27.703  31.945  1.00  0.00     0.031 C 
ATOM     60  C   UNL A   1      42.850  29.048  34.016  1.00  0.00     0.037 A 
BRANCH  47  61
ATOM     61  C   UNL A   1      39.662  33.661  36.596  1.00  0.00     0.064 A 
ATOM     62  C   UNL A   1      40.257  34.929  36.672  1.00  0.00     0.173 A 
ATOM     63  C   UNL A   1      38.822  33.264  37.646  1.00  0.00     0.173 A 
ATOM     64  F   UNL A   1      41.078  35.350  35.698  1.00  0.00    -0.203 F 
ATOM     65  C   UNL A   1      40.036  35.759  37.767  1.00  0.00     0.198 A 
ATOM     66  C   UNL A   1      38.582  34.108  38.727  1.00  0.00     0.198 A 
ATOM     67  F   UNL A   1      38.226  32.063  37.618  1.00  0.00    -0.203 F 
ATOM     68  F   UNL A   1      40.646  36.950  37.837  1.00  0.00    -0.200 F 
ATOM     69  C   UNL A   1      39.192  35.352  38.790  1.00  0.00     0.200 A 
ATOM     70  F   UNL A   1      37.757  33.718  39.709  1.00  0.00    -0.200 F 
ATOM     71  F   UNL A   1      38.972  36.156  39.838  1.00  0.00    -0.200 F 
ENDBRANCH  47  61
BRANCH  48  72
ATOM     72  C   UNL A   1      40.687  27.946  28.468  1.00  0.00     0.064 A 
ATOM     73  C   UNL A   1      40.037  26.705  28.418  1.00  0.00     0.173 A 
ATOM     74  C   UNL A   1      41.440  28.335  27.351  1.00  0.00     0.173 A 
ATOM     75  F   UNL A   1      39.321  26.283  29.470  1.00  0.00    -0.203 F 
ATOM     76  C   UNL A   1      40.142  25.882  27.299  1.00  0.00     0.198 A 
ATOM     77  C   UNL A   1      41.526  27.521  26.223  1.00  0.00     0.198 A 
ATOM     78  F   UNL A   1      42.078  29.515  27.349  1.00  0.00    -0.203 F 
ATOM     79  F   UNL A   1      39.534  24.688  27.289  1.00  0.00    -0.200 F 
ATOM     80  C   UNL A   1      40.881  26.294  26.199  1.00  0.00     0.200 A 
ATOM     81  F   UNL A   1      42.230  27.928  25.158  1.00  0.00    -0.200 F 
ATOM     82  F   UNL A   1      40.973  25.507  25.120  1.00  0.00    -0.200 F 
ENDBRANCH  48  72
BRANCH  60  83
ATOM     83  C   UNL A   1      43.998  28.283  34.602  1.00  0.00     0.064 A 
ATOM     84  C   UNL A   1      45.308  28.780  34.542  1.00  0.00     0.173 A 
ATOM     85  C   UNL A   1      43.773  27.097  35.316  1.00  0.00     0.173 A 
ATOM     86  F   UNL A   1      45.573  29.904  33.860  1.00  0.00    -0.203 F 
ATOM     87  C   UNL A   1      46.353  28.113  35.176  1.00  0.00     0.198 A 
ATOM     88  C   UNL A   1      44.816  26.446  35.968  1.00  0.00     0.198 A 
ATOM     89  F   UNL A   1      42.535  26.587  35.407  1.00  0.00    -0.203 F 
ATOM     90  F   UNL A   1      47.601  28.594  35.091  1.00  0.00    -0.200 F 
ATOM     91  C   UNL A   1      46.105  26.954  35.897  1.00  0.00     0.200 A 
ATOM     92  F   UNL A   1      44.573  25.335  36.677  1.00  0.00    -0.200 F 
ATOM     93  F   UNL A   1      47.108  26.328  36.526  1.00  0.00    -0.200 F 
ENDBRANCH  60  83
ENDBRANCH  34  35
ENDBRANCH  26  29
ENDBRANCH  24  25
ENDBRANCH  23  24
ENDBRANCH   1  23
TORSDOF 13
ENDMDL
MODEL 2
REMARK VINA RESULT:     -12.7      0.147      1.136
REMARK SMILES Cc1cc(=O)cc(C)n1C[C@H]1CCCC[C@@H]1C(=O)NCCCCNC(=O)c1ccc(-c2c3nc(c(-c4c(F)c(F)c(F)c(F)c4F)c4ccc([nH]4)c(-c4c(F)c(F)c(F)c(F)c4F)c4nc(c(-c5c(F)c(F)c(F)c(F)c5F)c5ccc2[nH]5)C=C4)C=C3)cc1
REMARK SMILES IDX 21 1 20 2 19 3 17 4 18 5 16 7 11 8 12 9 13 10 15 11 14 12
REMARK SMILES IDX 10 13 9 14 1 15 2 16 3 17 4 18 7 19 5 20 6 21 8 22 22 23
REMARK SMILES IDX 23 24 24 25 25 26 26 28 27 29 28 30 89 31 29 32 88 33 30 34
REMARK SMILES IDX 31 35 32 36 82 37 33 38 87 39 81 40 83 41 34 42 86 43 80 44
REMARK SMILES IDX 79 45 35 47 67 48 47 49 66 50 48 51 51 52 65 53 84 54 49 55
REMARK SMILES IDX 50 56 64 58 85 59 52 60 36 61 37 62 45 63 38 64 39 65 43 66
REMARK SMILES IDX 46 67 40 68 41 69 44 70 42 71 68 72 69 73 77 74 70 75 71 76
REMARK SMILES IDX 75 77 78 78 72 79 73 80 76 81 74 82 53 83 54 84 62 85 55 86
REMARK SMILES IDX 56 87 60 88 63 89 57 90 58 91 61 92 59 93
REMARK H PARENT 19 6 24 27 83 46 51 57
REMARK Flexibility Score: inf
ROOT
ATOM      1  C   UNL A   1      31.625  30.783  26.123  1.00  0.00     0.023 C 
ENDROOT
BRANCH   1   2
ATOM      2  C   UNL A   1      32.998  30.154  26.374  1.00  0.00     0.116 C 
BRANCH   2   3
ATOM      3  N   UNL A   1      33.487  29.451  25.208  1.00  0.00    -0.356 N 
ATOM      4  C   UNL A   1      33.592  28.139  24.891  1.00  0.00     0.223 C 
ATOM      5  O   UNL A   1      34.042  27.919  23.761  1.00  0.00    -0.275 OA
ATOM      6  H   UNL A   1      33.808  30.051  24.497  1.00  0.00     0.163 HD
BRANCH   4   7
ATOM      7  C   UNL A   1      33.102  26.987  25.797  1.00  0.00     0.083 C 
ATOM      8  C   UNL A   1      33.289  25.535  25.279  1.00  0.00     0.021 C 
ATOM      9  C   UNL A   1      32.446  25.359  24.004  1.00  0.00     0.006 C 
ATOM     10  C   UNL A   1      30.958  25.606  24.234  1.00  0.00     0.000 C 
ATOM     11  C   UNL A   1      31.598  27.215  26.108  1.00  0.00     0.014 C 
ATOM     12  C   UNL A   1      30.700  26.959  24.890  1.00  0.00     0.001 C 
BRANCH   8  13
ATOM     13  C   UNL A   1      32.957  24.500  26.399  1.00  0.00     0.126 C 
BRANCH  13  14
ATOM     14  N   UNL A   1      33.109  23.088  25.942  1.00  0.00    -0.349 N 
ATOM     15  C   UNL A   1      35.639  23.241  26.195  1.00  0.00     0.064 C 
ATOM     16  C   UNL A   1      34.396  22.536  25.702  1.00  0.00     0.018 A 
ATOM     17  C   UNL A   1      34.570  21.350  25.090  1.00  0.00     0.073 A 
ATOM     18  C   UNL A   1      33.396  20.578  24.656  1.00  0.00     0.182 A 
ATOM     19  C   UNL A   1      31.981  22.253  25.720  1.00  0.00     0.018 A 
ATOM     20  O   UNL A   1      33.513  19.546  24.003  1.00  0.00    -0.290 OA
ATOM     21  C   UNL A   1      32.080  21.066  25.093  1.00  0.00     0.073 A 
ATOM     22  C   UNL A   1      30.618  22.615  26.258  1.00  0.00     0.064 C 
ENDBRANCH  13  14
ENDBRANCH   8  13
ENDBRANCH   4   7
ENDBRANCH   2   3
ENDBRANCH   1   2
BRANCH   1  23
ATOM     23  C   UNL A   1      31.396  32.133  26.813  1.00  0.00     0.023 C 
BRANCH  23  24
ATOM     24  C   UNL A   1      32.663  32.877  27.214  1.00  0.00     0.116 C 
BRANCH  24  25
ATOM     25  N   UNL A   1      32.404  34.235  27.665  1.00  0.00    -0.352 N 
ATOM     26  C   UNL A   1      33.046  34.958  28.642  1.00  0.00     0.251 C 
ATOM     27  H   UNL A   1      31.668  34.700  27.206  1.00  0.00     0.163 HD
ATOM     28  O   UNL A   1      32.630  36.056  28.976  1.00  0.00    -0.269 OA
BRANCH  26  29
ATOM     29  C   UNL A   1      34.227  34.376  29.313  1.00  0.00     0.039 A 
ATOM     30  C   UNL A   1      34.027  33.554  30.423  1.00  0.00     0.014 A 
ATOM     31  C   UNL A   1      35.516  34.621  28.834  1.00  0.00     0.014 A 
ATOM     32  C   UNL A   1      35.119  32.923  31.018  1.00  0.00     0.010 A 
ATOM     33  C   UNL A   1      36.597  33.941  29.385  1.00  0.00     0.010 A 
ATOM     34  C   UNL A   1      36.408  33.087  30.483  1.00  0.00    -0.014 A 
BRANCH  34  35
ATOM     35  C   UNL A   1      37.569  32.377  31.071  1.00  0.00     0.031 A 
ATOM     36  C   UNL A   1      38.061  32.746  32.441  1.00  0.00     0.074 A 
ATOM     37  C   UNL A   1      38.198  31.425  30.356  1.00  0.00     0.049 A 
ATOM     38  N   UNL A   1      39.065  32.251  33.119  1.00  0.00    -0.248 NA
ATOM     39  C   UNL A   1      37.345  33.829  33.133  1.00  0.00     0.031 C 
ATOM     40  C   UNL A   1      37.837  31.012  28.999  1.00  0.00     0.029 A 
ATOM     41  N   UNL A   1      39.271  30.630  30.672  1.00  0.00    -0.354 N 
ATOM     42  C   UNL A   1      39.098  32.959  34.312  1.00  0.00     0.074 A 
ATOM     43  C   UNL A   1      38.057  33.960  34.242  1.00  0.00     0.031 C 
ATOM     44  C   UNL A   1      38.648  30.013  28.615  1.00  0.00     0.029 A 
ATOM     45  C   UNL A   1      39.604  29.737  29.682  1.00  0.00     0.049 A 
ATOM     46  H   UNL A   1      39.756  30.693  31.526  1.00  0.00     0.167 HD
ATOM     47  C   UNL A   1      39.902  32.766  35.383  1.00  0.00     0.037 A 
ATOM     48  C   UNL A   1      40.568  28.797  29.648  1.00  0.00     0.037 A 
ATOM     49  C   UNL A   1      40.917  31.751  35.458  1.00  0.00     0.049 A 
ATOM     50  C   UNL A   1      41.468  28.622  30.841  1.00  0.00     0.074 A 
ATOM     51  C   UNL A   1      41.748  31.442  36.521  1.00  0.00     0.029 A 
ATOM     52  N   UNL A   1      41.239  30.880  34.429  1.00  0.00    -0.354 N 
ATOM     53  N   UNL A   1      41.449  29.255  31.988  1.00  0.00    -0.248 NA
ATOM     54  C   UNL A   1      42.523  27.605  30.734  1.00  0.00     0.031 C 
ATOM     55  C   UNL A   1      42.599  30.407  36.121  1.00  0.00     0.029 A 
ATOM     56  C   UNL A   1      42.273  30.046  34.823  1.00  0.00     0.049 A 
ATOM     57  H   UNL A   1      40.798  30.857  33.548  1.00  0.00     0.167 HD
ATOM     58  C   UNL A   1      42.471  28.703  32.746  1.00  0.00     0.074 A 
ATOM     59  C   UNL A   1      43.085  27.673  31.933  1.00  0.00     0.031 C 
ATOM     60  C   UNL A   1      42.867  29.024  34.001  1.00  0.00     0.037 A 
BRANCH  47  61
ATOM     61  C   UNL A   1      39.698  33.655  36.573  1.00  0.00     0.064 A 
ATOM     62  C   UNL A   1      40.347  34.894  36.674  1.00  0.00     0.173 A 
ATOM     63  C   UNL A   1      38.809  33.292  37.595  1.00  0.00     0.173 A 
ATOM     64  F   UNL A   1      41.216  35.282  35.727  1.00  0.00    -0.203 F 
ATOM     65  C   UNL A   1      40.131  35.729  37.767  1.00  0.00     0.198 A 
ATOM     66  C   UNL A   1      38.575  34.141  38.673  1.00  0.00     0.198 A 
ATOM     67  F   UNL A   1      38.161  32.120  37.542  1.00  0.00    -0.203 F 
ATOM     68  F   UNL A   1      40.792  36.891  37.862  1.00  0.00    -0.200 F 
ATOM     69  C   UNL A   1      39.239  35.356  38.761  1.00  0.00     0.200 A 
ATOM     70  F   UNL A   1      37.704  33.785  39.627  1.00  0.00    -0.200 F 
ATOM     71  F   UNL A   1      39.023  36.165  39.806  1.00  0.00    -0.200 F 
ENDBRANCH  47  61
BRANCH  48  72
ATOM     72  C   UNL A   1      40.697  27.918  28.457  1.00  0.00     0.064 A 
ATOM     73  C   UNL A   1      40.034  26.684  28.406  1.00  0.00     0.173 A 
ATOM     74  C   UNL A   1      41.460  28.298  27.343  1.00  0.00     0.173 A 
ATOM     75  F   UNL A   1      39.308  26.271  29.455  1.00  0.00    -0.203 F 
ATOM     76  C   UNL A   1      40.135  25.859  27.289  1.00  0.00     0.198 A 
ATOM     77  C   UNL A   1      41.542  27.481  26.217  1.00  0.00     0.198 A 
ATOM     78  F   UNL A   1      42.110  29.470  27.342  1.00  0.00    -0.203 F 
ATOM     79  F   UNL A   1      39.514  24.671  27.277  1.00  0.00    -0.200 F 
ATOM     80  C   UNL A   1      40.883  26.261  26.192  1.00  0.00     0.200 A 
ATOM     81  F   UNL A   1      42.256  27.878  25.154  1.00  0.00    -0.200 F 
ATOM     82  F   UNL A   1      40.972  25.472  25.113  1.00  0.00    -0.200 F 
ENDBRANCH  48  72
BRANCH  60  83
ATOM     83  C   UNL A   1      44.012  28.255  34.588  1.00  0.00     0.064 A 
ATOM     84  C   UNL A   1      43.807  27.031  35.240  1.00  0.00     0.173 A 
ATOM     85  C   UNL A   1      45.332  28.695  34.408  1.00  0.00     0.173 A 
ATOM     86  F   UNL A   1      42.561  26.576  35.446  1.00  0.00    -0.203 F 
ATOM     87  C   UNL A   1      44.884  26.275  35.693  1.00  0.00     0.198 A 
ATOM     88  C   UNL A   1      46.407  27.925  34.841  1.00  0.00     0.198 A 
ATOM     89  F   UNL A   1      45.578  29.857  33.783  1.00  0.00    -0.203 F 
ATOM     90  F   UNL A   1      44.666  25.116  36.330  1.00  0.00    -0.200 F 
ATOM     91  C   UNL A   1      46.182  26.716  35.484  1.00  0.00     0.200 A 
ATOM     92  F   UNL A   1      47.661  28.345  34.625  1.00  0.00    -0.200 F 
ATOM     93  F   UNL A   1      47.218  25.975  35.899  1.00  0.00    -0.200 F 
ENDBRANCH  60  83
ENDBRANCH  34  35
ENDBRANCH  26  29
ENDBRANCH  24  25
ENDBRANCH  23  24
ENDBRANCH   1  23
TORSDOF 13
ENDMDL
MODEL 3
REMARK VINA RESULT:     -12.7      0.519      7.410
REMARK SMILES Cc1cc(=O)cc(C)n1C[C@H]1CCCC[C@@H]1C(=O)NCCCCNC(=O)c1ccc(-c2c3nc(c(-c4c(F)c(F)c(F)c(F)c4F)c4ccc([nH]4)c(-c4c(F)c(F)c(F)c(F)c4F)c4nc(c(-c5c(F)c(F)c(F)c(F)c5F)c5ccc2[nH]5)C=C4)C=C3)cc1
REMARK SMILES IDX 21 1 20 2 19 3 17 4 18 5 16 7 11 8 12 9 13 10 15 11 14 12
REMARK SMILES IDX 10 13 9 14 1 15 2 16 3 17 4 18 7 19 5 20 6 21 8 22 22 23
REMARK SMILES IDX 23 24 24 25 25 26 26 28 27 29 28 30 89 31 29 32 88 33 30 34
REMARK SMILES IDX 31 35 32 36 82 37 33 38 87 39 81 40 83 41 34 42 86 43 80 44
REMARK SMILES IDX 79 45 35 47 67 48 47 49 66 50 48 51 51 52 65 53 84 54 49 55
REMARK SMILES IDX 50 56 64 58 85 59 52 60 36 61 37 62 45 63 38 64 39 65 43 66
REMARK SMILES IDX 46 67 40 68 41 69 44 70 42 71 68 72 69 73 77 74 70 75 71 76
REMARK SMILES IDX 75 77 78 78 72 79 73 80 76 81 74 82 53 83 54 84 62 85 55 86
REMARK SMILES IDX 56 87 60 88 63 89 57 90 58 91 61 92 59 93
REMARK H PARENT 19 6 24 27 83 46 51 57
REMARK Flexibility Score: inf
ROOT
ATOM      1  C   UNL A   1      31.723  30.716  26.141  1.00  0.00     0.023 C 
ENDROOT
BRANCH   1   2
ATOM      2  C   UNL A   1      33.147  30.172  26.285  1.00  0.00     0.116 C 
BRANCH   2   3
ATOM      3  N   UNL A   1      33.581  29.482  25.090  1.00  0.00    -0.356 N 
ATOM      4  C   UNL A   1      33.605  28.177  24.729  1.00  0.00     0.223 C 
ATOM      5  O   UNL A   1      34.029  27.969  23.586  1.00  0.00    -0.275 OA
ATOM      6  H   UNL A   1      33.929  30.085  24.395  1.00  0.00     0.163 HD
BRANCH   4   7
ATOM      7  C   UNL A   1      33.057  27.026  25.602  1.00  0.00     0.083 C 
ATOM      8  C   UNL A   1      33.385  25.573  25.165  1.00  0.00     0.021 C 
ATOM      9  C   UNL A   1      32.730  25.314  23.798  1.00  0.00     0.006 C 
ATOM     10  C   UNL A   1      31.215  25.485  23.820  1.00  0.00     0.000 C 
ATOM     11  C   UNL A   1      31.515  27.179  25.705  1.00  0.00     0.014 C 
ATOM     12  C   UNL A   1      30.803  26.839  24.388  1.00  0.00     0.001 C 
BRANCH   8  13
ATOM     13  C   UNL A   1      32.960  24.553  26.268  1.00  0.00     0.126 C 
BRANCH  13  14
ATOM     14  N   UNL A   1      33.139  23.134  25.842  1.00  0.00    -0.349 N 
ATOM     15  C   UNL A   1      35.663  23.330  26.128  1.00  0.00     0.064 C 
ATOM     16  C   UNL A   1      34.439  22.597  25.631  1.00  0.00     0.018 A 
ATOM     17  C   UNL A   1      34.639  21.403  25.045  1.00  0.00     0.073 A 
ATOM     18  C   UNL A   1      33.482  20.604  24.609  1.00  0.00     0.182 A 
ATOM     19  C   UNL A   1      32.028  22.279  25.619  1.00  0.00     0.018 A 
ATOM     20  O   UNL A   1      33.625  19.562  23.979  1.00  0.00    -0.290 OA
ATOM     21  C   UNL A   1      32.154  21.081  25.018  1.00  0.00     0.073 A 
ATOM     22  C   UNL A   1      30.652  22.631  26.131  1.00  0.00     0.064 C 
ENDBRANCH  13  14
ENDBRANCH   8  13
ENDBRANCH   4   7
ENDBRANCH   2   3
ENDBRANCH   1   2
BRANCH   1  23
ATOM     23  C   UNL A   1      31.457  32.035  26.876  1.00  0.00     0.023 C 
BRANCH  23  24
ATOM     24  C   UNL A   1      32.702  32.828  27.252  1.00  0.00     0.116 C 
BRANCH  24  25
ATOM     25  N   UNL A   1      32.408  34.201  27.626  1.00  0.00    -0.352 N 
ATOM     26  C   UNL A   1      32.979  34.971  28.611  1.00  0.00     0.251 C 
ATOM     27  H   UNL A   1      31.702  34.641  27.100  1.00  0.00     0.163 HD
ATOM     28  O   UNL A   1      32.537  36.079  28.869  1.00  0.00    -0.269 OA
BRANCH  26  29
ATOM     29  C   UNL A   1      34.115  34.426  29.383  1.00  0.00     0.039 A 
ATOM     30  C   UNL A   1      33.850  33.741  30.571  1.00  0.00     0.014 A 
ATOM     31  C   UNL A   1      35.428  34.571  28.926  1.00  0.00     0.014 A 
ATOM     32  C   UNL A   1      34.899  33.144  31.269  1.00  0.00     0.010 A 
ATOM     33  C   UNL A   1      36.464  33.920  29.586  1.00  0.00     0.010 A 
ATOM     34  C   UNL A   1      36.208  33.202  30.765  1.00  0.00    -0.014 A 
BRANCH  34  35
ATOM     35  C   UNL A   1      37.322  32.522  31.468  1.00  0.00     0.031 A 
ATOM     36  C   UNL A   1      38.034  31.372  30.815  1.00  0.00     0.074 A 
ATOM     37  C   UNL A   1      37.669  32.920  32.708  1.00  0.00     0.049 A 
ATOM     38  N   UNL A   1      39.020  30.644  31.273  1.00  0.00    -0.248 NA
ATOM     39  C   UNL A   1      37.561  30.972  29.481  1.00  0.00     0.031 C 
ATOM     40  C   UNL A   1      37.022  33.997  33.459  1.00  0.00     0.029 A 
ATOM     41  N   UNL A   1      38.651  32.469  33.552  1.00  0.00    -0.354 N 
ATOM     42  C   UNL A   1      39.285  29.706  30.285  1.00  0.00     0.074 A 
ATOM     43  C   UNL A   1      38.316  29.913  29.231  1.00  0.00     0.031 C 
ATOM     44  C   UNL A   1      37.650  34.149  34.636  1.00  0.00     0.029 A 
ATOM     45  C   UNL A   1      38.721  33.162  34.735  1.00  0.00     0.049 A 
ATOM     46  H   UNL A   1      39.249  31.719  33.330  1.00  0.00     0.167 HD
ATOM     47  C   UNL A   1      40.269  28.779  30.247  1.00  0.00     0.037 A 
ATOM     48  C   UNL A   1      39.562  33.022  35.777  1.00  0.00     0.037 A 
ATOM     49  C   UNL A   1      41.246  28.596  31.284  1.00  0.00     0.049 A 
ATOM     50  C   UNL A   1      40.631  31.964  35.722  1.00  0.00     0.074 A 
ATOM     51  C   UNL A   1      42.317  27.719  31.314  1.00  0.00     0.029 A 
ATOM     52  N   UNL A   1      41.273  29.303  32.477  1.00  0.00    -0.354 N 
ATOM     53  N   UNL A   1      40.911  31.125  34.756  1.00  0.00    -0.248 NA
ATOM     54  C   UNL A   1      41.499  31.833  36.902  1.00  0.00     0.031 C 
ATOM     55  C   UNL A   1      42.969  27.870  32.541  1.00  0.00     0.029 A 
ATOM     56  C   UNL A   1      42.328  28.866  33.261  1.00  0.00     0.049 A 
ATOM     57  H   UNL A   1      40.635  30.011  32.729  1.00  0.00     0.167 HD
ATOM     58  C   UNL A   1      41.996  30.380  35.199  1.00  0.00     0.074 A 
ATOM     59  C   UNL A   1      42.332  30.876  36.517  1.00  0.00     0.031 C 
ATOM     60  C   UNL A   1      42.650  29.375  34.569  1.00  0.00     0.037 A 
BRANCH  47  61
ATOM     61  C   UNL A   1      40.356  27.909  29.029  1.00  0.00     0.064 A 
ATOM     62  C   UNL A   1      39.638  26.707  28.942  1.00  0.00     0.173 A 
ATOM     63  C   UNL A   1      41.119  28.302  27.920  1.00  0.00     0.173 A 
ATOM     64  F   UNL A   1      38.903  26.282  29.981  1.00  0.00    -0.203 F 
ATOM     65  C   UNL A   1      39.699  25.918  27.797  1.00  0.00     0.198 A 
ATOM     66  C   UNL A   1      41.156  27.523  26.766  1.00  0.00     0.198 A 
ATOM     67  F   UNL A   1      41.819  29.445  27.951  1.00  0.00    -0.203 F 
ATOM     68  F   UNL A   1      39.037  24.754  27.751  1.00  0.00    -0.200 F 
ATOM     69  C   UNL A   1      40.451  26.330  26.707  1.00  0.00     0.200 A 
ATOM     70  F   UNL A   1      41.873  27.929  25.709  1.00  0.00    -0.200 F 
ATOM     71  F   UNL A   1      40.499  25.576  25.601  1.00  0.00    -0.200 F 
ENDBRANCH  47  61
BRANCH  48  72
ATOM     72  C   UNL A   1      39.454  33.940  36.941  1.00  0.00     0.064 A 
ATOM     73  C   UNL A   1      38.723  33.568  38.077  1.00  0.00     0.173 A 
ATOM     74  C   UNL A   1      40.091  35.189  36.952  1.00  0.00     0.173 A 
ATOM     75  F   UNL A   1      38.081  32.391  38.104  1.00  0.00    -0.203 F 
ATOM     76  C   UNL A   1      38.628  34.413  39.180  1.00  0.00     0.198 A 
ATOM     77  C   UNL A   1      40.012  36.025  38.065  1.00  0.00     0.198 A 
ATOM     78  F   UNL A   1      40.805  35.589  35.889  1.00  0.00    -0.203 F 
ATOM     79  F   UNL A   1      37.899  34.046  40.243  1.00  0.00    -0.200 F 
ATOM     80  C   UNL A   1      39.278  35.639  39.175  1.00  0.00     0.200 A 
ATOM     81  F   UNL A   1      40.653  37.202  38.061  1.00  0.00    -0.200 F 
ATOM     82  F   UNL A   1      39.194  36.447  40.240  1.00  0.00    -0.200 F 
ENDBRANCH  48  72
BRANCH  60  83
ATOM     83  C   UNL A   1      43.804  28.739  35.284  1.00  0.00     0.064 A 
ATOM     84  C   UNL A   1      43.617  27.628  36.118  1.00  0.00     0.173 A 
ATOM     85  C   UNL A   1      45.115  29.180  35.054  1.00  0.00     0.173 A 
ATOM     86  F   UNL A   1      42.380  27.179  36.378  1.00  0.00    -0.203 F 
ATOM     87  C   UNL A   1      44.705  26.982  36.699  1.00  0.00     0.198 A 
ATOM     88  C   UNL A   1      46.201  28.518  35.617  1.00  0.00     0.198 A 
ATOM     89  F   UNL A   1      45.343  30.235  34.256  1.00  0.00    -0.203 F 
ATOM     90  F   UNL A   1      44.504  25.933  37.509  1.00  0.00    -0.200 F 
ATOM     91  C   UNL A   1      45.995  27.419  36.439  1.00  0.00     0.200 A 
ATOM     92  F   UNL A   1      47.448  28.931  35.352  1.00  0.00    -0.200 F 
ATOM     93  F   UNL A   1      47.042  26.781  36.979  1.00  0.00    -0.200 F 
ENDBRANCH  60  83
ENDBRANCH  34  35
ENDBRANCH  26  29
ENDBRANCH  24  25
ENDBRANCH  23  24
ENDBRANCH   1  23
TORSDOF 13
ENDMDL
