MODEL 1
REMARK VINA RESULT:     -14.6      0.000      0.000
REMARK SMILES O=C(NCCCCNC(=O)c1ccn(-c2cc(-c3ccncc3)nc(-c3ccccc3F)n2)n1)c1ccc(-c2c3nc(c(-c4c(F)c(F)c(F)c(F)c4F)c4ccc([nH]4)c(-c4c(F)c(F)c(F)c(F)c4F)c4nc(c(-c5c(F)c(F)c(F)c(F)c5F)c5ccc2[nH]5)C=C4)C=C3)cc1
REMARK SMILES IDX 5 1 4 2 3 3 1 4 2 5 35 7 36 8 97 9 37 10 96 11 38 12 39 13
REMARK SMILES IDX 40 14 90 15 41 16 95 17 89 18 91 19 42 20 94 21 88 22 87 23
REMARK SMILES IDX 43 25 75 26 55 27 74 28 56 29 59 30 73 31 92 32 57 33 58 34
REMARK SMILES IDX 72 36 93 37 60 38 44 39 45 40 53 41 46 42 47 43 51 44 54 45
REMARK SMILES IDX 48 46 49 47 52 48 50 49 76 50 77 51 85 52 78 53 79 54 83 55
REMARK SMILES IDX 86 56 80 57 81 58 84 59 82 60 61 61 62 62 70 63 63 64 64 65
REMARK SMILES IDX 68 66 71 67 65 68 66 69 69 70 67 71 6 72 7 73 8 74 9 75
REMARK SMILES IDX 10 77 11 78 12 79 34 80 13 81 14 82 15 83 16 84 33 85 17 86
REMARK SMILES IDX 25 87 24 88 18 89 19 90 23 91 20 92 22 93 21 94 26 95 27 96
REMARK SMILES IDX 31 97 28 98 30 99 32 100 29 101
REMARK H PARENT 3 6 91 24 59 35 8 76
REMARK Flexibility Score: inf
ROOT
ATOM      1  C   UNL A   1      32.762  28.736  27.193  1.00  0.00     0.023 C 
ENDROOT
BRANCH   1   2
ATOM      2  C   UNL A   1      33.540  29.889  26.553  1.00  0.00     0.116 C 
BRANCH   2   3
ATOM      3  N   UNL A   1      33.744  31.022  27.430  1.00  0.00    -0.352 N 
ATOM      4  O   UNL A   1      34.631  32.595  28.698  1.00  0.00    -0.269 OA
ATOM      5  C   UNL A   1      34.807  31.510  28.138  1.00  0.00     0.251 C 
ATOM      6  H   UNL A   1      32.932  31.566  27.542  1.00  0.00     0.163 HD
BRANCH   5   7
ATOM      7  C   UNL A   1      36.116  30.819  28.312  1.00  0.00     0.039 A 
ATOM      8  C   UNL A   1      36.352  29.458  28.116  1.00  0.00     0.014 A 
ATOM      9  C   UNL A   1      37.187  31.623  28.748  1.00  0.00     0.014 A 
ATOM     10  C   UNL A   1      37.590  28.899  28.420  1.00  0.00     0.010 A 
ATOM     11  C   UNL A   1      38.435  31.076  29.029  1.00  0.00     0.010 A 
ATOM     12  C   UNL A   1      38.625  29.703  28.896  1.00  0.00    -0.014 A 
BRANCH  12  13
ATOM     13  C   UNL A   1      39.912  29.064  29.160  1.00  0.00     0.031 A 
ATOM     14  C   UNL A   1      40.291  28.891  30.596  1.00  0.00     0.074 A 
ATOM     15  C   UNL A   1      40.671  28.519  28.190  1.00  0.00     0.049 A 
ATOM     16  N   UNL A   1      41.391  29.225  31.197  1.00  0.00    -0.248 NA
ATOM     17  C   UNL A   1      39.289  28.279  31.483  1.00  0.00     0.031 C 
ATOM     18  C   UNL A   1      40.325  28.308  26.783  1.00  0.00     0.029 A 
ATOM     19  N   UNL A   1      41.898  27.933  28.304  1.00  0.00    -0.354 N 
ATOM     20  C   UNL A   1      41.281  28.745  32.504  1.00  0.00     0.074 A 
ATOM     21  C   UNL A   1      39.939  28.242  32.646  1.00  0.00     0.031 C 
ATOM     22  C   UNL A   1      41.220  27.458  26.231  1.00  0.00     0.029 A 
ATOM     23  C   UNL A   1      42.263  27.177  27.204  1.00  0.00     0.049 A 
ATOM     24  H   UNL A   1      42.471  28.040  29.097  1.00  0.00     0.167 HD
ATOM     25  C   UNL A   1      42.346  28.651  33.348  1.00  0.00     0.037 A 
ATOM     26  C   UNL A   1      43.304  26.314  27.132  1.00  0.00     0.037 A 
ATOM     27  C   UNL A   1      43.416  29.528  32.968  1.00  0.00     0.049 A 
ATOM     28  C   UNL A   1      44.260  26.656  28.214  1.00  0.00     0.074 A 
ATOM     29  C   UNL A   1      43.553  30.897  32.845  1.00  0.00     0.029 A 
ATOM     30  N   UNL A   1      44.534  29.001  32.376  1.00  0.00    -0.354 N 
ATOM     31  N   UNL A   1      44.982  27.740  28.253  1.00  0.00    -0.248 NA
ATOM     32  C   UNL A   1      44.152  25.930  29.470  1.00  0.00     0.031 C 
ATOM     33  C   UNL A   1      44.463  31.085  31.765  1.00  0.00     0.029 A 
ATOM     34  C   UNL A   1      44.828  29.816  31.314  1.00  0.00     0.049 A 
ATOM     35  H   UNL A   1      45.026  28.196  32.655  1.00  0.00     0.167 HD
ATOM     36  C   UNL A   1      45.088  28.046  29.601  1.00  0.00     0.074 A 
ATOM     37  C   UNL A   1      44.658  26.842  30.300  1.00  0.00     0.031 C 
ATOM     38  C   UNL A   1      45.252  29.333  30.022  1.00  0.00     0.037 A 
BRANCH  25  39
ATOM     39  C   UNL A   1      42.519  27.565  34.381  1.00  0.00     0.064 A 
ATOM     40  C   UNL A   1      41.881  27.590  35.640  1.00  0.00     0.173 A 
ATOM     41  C   UNL A   1      43.096  26.332  34.018  1.00  0.00     0.173 A 
ATOM     42  F   UNL A   1      41.198  28.660  36.065  1.00  0.00    -0.203 F 
ATOM     43  C   UNL A   1      41.827  26.471  36.471  1.00  0.00     0.198 A 
ATOM     44  C   UNL A   1      42.993  25.198  34.830  1.00  0.00     0.198 A 
ATOM     45  F   UNL A   1      43.699  26.181  32.828  1.00  0.00    -0.203 F 
ATOM     46  F   UNL A   1      41.188  26.554  37.646  1.00  0.00    -0.200 F 
ATOM     47  C   UNL A   1      42.357  25.268  36.055  1.00  0.00     0.200 A 
ATOM     48  F   UNL A   1      43.458  24.020  34.391  1.00  0.00    -0.200 F 
ATOM     49  F   UNL A   1      42.211  24.172  36.811  1.00  0.00    -0.200 F 
ENDBRANCH  25  39
BRANCH  26  50
ATOM     50  C   UNL A   1      43.366  25.028  26.400  1.00  0.00     0.064 A 
ATOM     51  C   UNL A   1      42.792  23.856  26.930  1.00  0.00     0.173 A 
ATOM     52  C   UNL A   1      44.227  24.863  25.303  1.00  0.00     0.173 A 
ATOM     53  F   UNL A   1      42.028  23.899  28.030  1.00  0.00    -0.203 F 
ATOM     54  C   UNL A   1      43.068  22.595  26.401  1.00  0.00     0.198 A 
ATOM     55  C   UNL A   1      44.513  23.597  24.783  1.00  0.00     0.198 A 
ATOM     56  F   UNL A   1      44.853  25.923  24.770  1.00  0.00    -0.203 F 
ATOM     57  F   UNL A   1      42.535  21.505  26.971  1.00  0.00    -0.200 F 
ATOM     58  C   UNL A   1      43.940  22.464  25.337  1.00  0.00     0.200 A 
ATOM     59  F   UNL A   1      45.390  23.471  23.777  1.00  0.00    -0.200 F 
ATOM     60  F   UNL A   1      44.260  21.247  24.878  1.00  0.00    -0.200 F 
ENDBRANCH  26  50
BRANCH  38  61
ATOM     61  C   UNL A   1      45.598  30.374  28.999  1.00  0.00     0.064 A 
ATOM     62  C   UNL A   1      46.921  30.828  28.924  1.00  0.00     0.173 A 
ATOM     63  C   UNL A   1      44.636  31.049  28.228  1.00  0.00     0.173 A 
ATOM     64  F   UNL A   1      47.871  30.261  29.686  1.00  0.00    -0.203 F 
ATOM     65  C   UNL A   1      47.268  31.908  28.118  1.00  0.00     0.198 A 
ATOM     66  C   UNL A   1      44.992  32.107  27.395  1.00  0.00     0.198 A 
ATOM     67  F   UNL A   1      43.336  30.742  28.327  1.00  0.00    -0.203 F 
ATOM     68  F   UNL A   1      48.531  32.360  28.115  1.00  0.00    -0.200 F 
ATOM     69  C   UNL A   1      46.307  32.542  27.347  1.00  0.00     0.200 A 
ATOM     70  F   UNL A   1      44.055  32.737  26.670  1.00  0.00    -0.200 F 
ATOM     71  F   UNL A   1      46.640  33.594  26.586  1.00  0.00    -0.200 F 
ENDBRANCH  38  61
ENDBRANCH  12  13
ENDBRANCH   5   7
ENDBRANCH   2   3
ENDBRANCH   1   2
BRANCH   1  72
ATOM     72  C   UNL A   1      32.822  27.406  26.434  1.00  0.00     0.023 C 
BRANCH  72  73
ATOM     73  C   UNL A   1      32.402  27.479  24.969  1.00  0.00     0.116 C 
BRANCH  73  74
ATOM     74  N   UNL A   1      31.003  27.141  24.806  1.00  0.00    -0.351 N 
ATOM     75  C   UNL A   1      30.454  26.119  24.068  1.00  0.00     0.271 C 
ATOM     76  H   UNL A   1      30.364  27.717  25.284  1.00  0.00     0.163 HD
ATOM     77  O   UNL A   1      29.240  26.069  23.931  1.00  0.00    -0.267 OA
BRANCH  75  78
ATOM     78  C   UNL A   1      31.355  25.096  23.534  1.00  0.00     0.150 A 
ATOM     79  C   UNL A   1      31.902  25.055  22.228  1.00  0.00     0.056 A 
ATOM     80  N   UNL A   1      31.787  24.061  24.278  1.00  0.00    -0.161 NA
ATOM     81  C   UNL A   1      32.817  24.034  22.261  1.00  0.00     0.118 A 
ATOM     82  N   UNL A   1      32.770  23.500  23.529  1.00  0.00    -0.222 N 
BRANCH  82  83
ATOM     83  C   UNL A   1      33.650  22.511  24.048  1.00  0.00     0.158 A 
ATOM     84  C   UNL A   1      33.195  21.217  24.194  1.00  0.00     0.078 A 
ATOM     85  N   UNL A   1      34.899  22.900  24.387  1.00  0.00    -0.209 NA
ATOM     86  C   UNL A   1      34.113  20.306  24.677  1.00  0.00     0.077 A 
ATOM     87  C   UNL A   1      35.687  21.958  24.927  1.00  0.00     0.165 A 
ATOM     88  N   UNL A   1      35.348  20.669  25.086  1.00  0.00    -0.228 NA
BRANCH  86  89
ATOM     89  C   UNL A   1      33.825  18.870  24.731  1.00  0.00     0.003 A 
ATOM     90  C   UNL A   1      32.584  18.406  25.186  1.00  0.00     0.030 A 
ATOM     91  C   UNL A   1      34.761  17.925  24.304  1.00  0.00     0.030 A 
ATOM     92  C   UNL A   1      32.342  17.042  25.202  1.00  0.00     0.111 A 
ATOM     93  C   UNL A   1      34.431  16.581  24.368  1.00  0.00     0.111 A 
ATOM     94  N   UNL A   1      33.243  16.119  24.811  1.00  0.00    -0.265 NA
ENDBRANCH  86  89
BRANCH  87  95
ATOM     95  C   UNL A   1      36.949  22.410  25.497  1.00  0.00     0.055 A 
ATOM     96  C   UNL A   1      37.069  23.708  26.032  1.00  0.00     0.015 A 
ATOM     97  C   UNL A   1      38.074  21.584  25.528  1.00  0.00     0.134 A 
ATOM     98  C   UNL A   1      38.274  24.152  26.584  1.00  0.00     0.001 A 
ATOM     99  C   UNL A   1      39.283  22.023  26.069  1.00  0.00     0.040 A 
ATOM    100  F   UNL A   1      38.024  20.349  25.004  1.00  0.00    -0.206 F 
ATOM    101  C   UNL A   1      39.382  23.308  26.602  1.00  0.00     0.003 A 
ENDBRANCH  87  95
ENDBRANCH  82  83
ENDBRANCH  75  78
ENDBRANCH  73  74
ENDBRANCH  72  73
ENDBRANCH   1  72
TORSDOF 14
ENDMDL
MODEL 2
REMARK VINA RESULT:     -14.6      3.537      9.349
REMARK SMILES O=C(NCCCCNC(=O)c1ccn(-c2cc(-c3ccncc3)nc(-c3ccccc3F)n2)n1)c1ccc(-c2c3nc(c(-c4c(F)c(F)c(F)c(F)c4F)c4ccc([nH]4)c(-c4c(F)c(F)c(F)c(F)c4F)c4nc(c(-c5c(F)c(F)c(F)c(F)c5F)c5ccc2[nH]5)C=C4)C=C3)cc1
REMARK SMILES IDX 5 1 4 2 3 3 1 4 2 5 35 7 36 8 97 9 37 10 96 11 38 12 39 13
REMARK SMILES IDX 40 14 90 15 41 16 95 17 89 18 91 19 42 20 94 21 88 22 87 23
REMARK SMILES IDX 43 25 75 26 55 27 74 28 56 29 59 30 73 31 92 32 57 33 58 34
REMARK SMILES IDX 72 36 93 37 60 38 44 39 45 40 53 41 46 42 47 43 51 44 54 45
REMARK SMILES IDX 48 46 49 47 52 48 50 49 76 50 77 51 85 52 78 53 79 54 83 55
REMARK SMILES IDX 86 56 80 57 81 58 84 59 82 60 61 61 62 62 70 63 63 64 64 65
REMARK SMILES IDX 68 66 71 67 65 68 66 69 69 70 67 71 6 72 7 73 8 74 9 75
REMARK SMILES IDX 10 77 11 78 12 79 34 80 13 81 14 82 15 83 16 84 33 85 17 86
REMARK SMILES IDX 25 87 24 88 18 89 19 90 23 91 20 92 22 93 21 94 26 95 27 96
REMARK SMILES IDX 31 97 28 98 30 99 32 100 29 101
REMARK H PARENT 3 6 91 24 59 35 8 76
REMARK Flexibility Score: inf
ROOT
ATOM      1  C   UNL A   1      37.028  22.325  24.349  1.00  0.00     0.023 C 
ENDROOT
BRANCH   1   2
ATOM      2  C   UNL A   1      37.656  22.519  25.731  1.00  0.00     0.116 C 
BRANCH   2   3
ATOM      3  N   UNL A   1      39.059  22.172  25.797  1.00  0.00    -0.352 N 
ATOM      4  O   UNL A   1      41.202  22.072  26.314  1.00  0.00    -0.269 OA
ATOM      5  C   UNL A   1      40.162  22.734  26.377  1.00  0.00     0.251 C 
ATOM      6  H   UNL A   1      39.267  21.340  25.313  1.00  0.00     0.163 HD
BRANCH   5   7
ATOM      7  C   UNL A   1      40.206  24.075  27.024  1.00  0.00     0.039 A 
ATOM      8  C   UNL A   1      39.282  25.103  26.834  1.00  0.00     0.014 A 
ATOM      9  C   UNL A   1      41.304  24.317  27.872  1.00  0.00     0.014 A 
ATOM     10  C   UNL A   1      39.484  26.357  27.403  1.00  0.00     0.010 A 
ATOM     11  C   UNL A   1      41.500  25.561  28.465  1.00  0.00     0.010 A 
ATOM     12  C   UNL A   1      40.604  26.593  28.200  1.00  0.00    -0.014 A 
BRANCH  12  13
ATOM     13  C   UNL A   1      40.740  27.918  28.800  1.00  0.00     0.031 A 
ATOM     14  C   UNL A   1      41.860  28.770  28.294  1.00  0.00     0.074 A 
ATOM     15  C   UNL A   1      39.836  28.429  29.658  1.00  0.00     0.049 A 
ATOM     16  N   UNL A   1      42.775  29.399  28.963  1.00  0.00    -0.248 NA
ATOM     17  C   UNL A   1      41.982  28.916  26.835  1.00  0.00     0.031 C 
ATOM     18  C   UNL A   1      38.528  27.885  30.024  1.00  0.00     0.029 A 
ATOM     19  N   UNL A   1      39.871  29.628  30.309  1.00  0.00    -0.354 N 
ATOM     20  C   UNL A   1      43.507  30.132  28.027  1.00  0.00     0.074 A 
ATOM     21  C   UNL A   1      43.026  29.737  26.728  1.00  0.00     0.031 C 
ATOM     22  C   UNL A   1      37.812  28.842  30.654  1.00  0.00     0.029 A 
ATOM     23  C   UNL A   1      38.655  30.010  30.849  1.00  0.00     0.049 A 
ATOM     24  H   UNL A   1      40.689  30.171  30.388  1.00  0.00     0.167 HD
ATOM     25  C   UNL A   1      44.361  31.134  28.377  1.00  0.00     0.037 A 
ATOM     26  C   UNL A   1      38.343  31.231  31.342  1.00  0.00     0.037 A 
ATOM     27  C   UNL A   1      44.807  31.014  29.736  1.00  0.00     0.049 A 
ATOM     28  C   UNL A   1      39.610  31.935  31.660  1.00  0.00     0.074 A 
ATOM     29  C   UNL A   1      45.523  30.068  30.443  1.00  0.00     0.029 A 
ATOM     30  N   UNL A   1      44.293  31.859  30.684  1.00  0.00    -0.354 N 
ATOM     31  N   UNL A   1      40.424  31.603  32.621  1.00  0.00    -0.248 NA
ATOM     32  C   UNL A   1      40.161  32.830  30.653  1.00  0.00     0.031 C 
ATOM     33  C   UNL A   1      44.986  30.105  31.763  1.00  0.00     0.029 A 
ATOM     34  C   UNL A   1      43.989  31.080  31.770  1.00  0.00     0.049 A 
ATOM     35  H   UNL A   1      44.166  32.832  30.602  1.00  0.00     0.167 HD
ATOM     36  C   UNL A   1      41.686  31.915  32.139  1.00  0.00     0.074 A 
ATOM     37  C   UNL A   1      41.452  32.766  30.980  1.00  0.00     0.031 C 
ATOM     38  C   UNL A   1      42.791  31.234  32.559  1.00  0.00     0.037 A 
BRANCH  25  39
ATOM     39  C   UNL A   1      44.595  32.378  27.557  1.00  0.00     0.064 A 
ATOM     40  C   UNL A   1      43.808  33.544  27.681  1.00  0.00     0.173 A 
ATOM     41  C   UNL A   1      45.797  32.532  26.836  1.00  0.00     0.173 A 
ATOM     42  F   UNL A   1      42.698  33.569  28.430  1.00  0.00    -0.203 F 
ATOM     43  C   UNL A   1      44.190  34.765  27.128  1.00  0.00     0.198 A 
ATOM     44  C   UNL A   1      46.203  33.771  26.329  1.00  0.00     0.198 A 
ATOM     45  F   UNL A   1      46.642  31.501  26.683  1.00  0.00    -0.203 F 
ATOM     46  F   UNL A   1      43.408  35.840  27.299  1.00  0.00    -0.200 F 
ATOM     47  C   UNL A   1      45.400  34.886  26.476  1.00  0.00     0.200 A 
ATOM     48  F   UNL A   1      47.405  33.892  25.751  1.00  0.00    -0.200 F 
ATOM     49  F   UNL A   1      45.809  36.084  26.037  1.00  0.00    -0.200 F 
ENDBRANCH  25  39
BRANCH  26  50
ATOM     50  C   UNL A   1      37.046  31.940  31.253  1.00  0.00     0.064 A 
ATOM     51  C   UNL A   1      36.712  32.717  30.126  1.00  0.00     0.173 A 
ATOM     52  C   UNL A   1      36.229  32.094  32.384  1.00  0.00     0.173 A 
ATOM     53  F   UNL A   1      37.482  32.707  29.030  1.00  0.00    -0.203 F 
ATOM     54  C   UNL A   1      35.633  33.600  30.134  1.00  0.00     0.198 A 
ATOM     55  C   UNL A   1      35.156  32.990  32.394  1.00  0.00     0.198 A 
ATOM     56  F   UNL A   1      36.507  31.427  33.515  1.00  0.00    -0.203 F 
ATOM     57  F   UNL A   1      35.385  34.354  29.053  1.00  0.00    -0.200 F 
ATOM     58  C   UNL A   1      34.864  33.749  31.272  1.00  0.00     0.200 A 
ATOM     59  F   UNL A   1      34.438  33.160  33.513  1.00  0.00    -0.200 F 
ATOM     60  F   UNL A   1      33.874  34.651  31.301  1.00  0.00    -0.200 F 
ENDBRANCH  26  50
BRANCH  38  61
ATOM     61  C   UNL A   1      42.657  30.338  33.755  1.00  0.00     0.064 A 
ATOM     62  C   UNL A   1      42.205  29.026  33.564  1.00  0.00     0.173 A 
ATOM     63  C   UNL A   1      42.792  30.791  35.078  1.00  0.00     0.173 A 
ATOM     64  F   UNL A   1      41.999  28.559  32.321  1.00  0.00    -0.203 F 
ATOM     65  C   UNL A   1      41.900  28.204  34.645  1.00  0.00     0.198 A 
ATOM     66  C   UNL A   1      42.519  29.955  36.159  1.00  0.00     0.198 A 
ATOM     67  F   UNL A   1      43.117  32.064  35.340  1.00  0.00    -0.203 F 
ATOM     68  F   UNL A   1      41.409  26.974  34.431  1.00  0.00    -0.200 F 
ATOM     69  C   UNL A   1      42.064  28.665  35.942  1.00  0.00     0.200 A 
ATOM     70  F   UNL A   1      42.654  30.413  37.413  1.00  0.00    -0.200 F 
ATOM     71  F   UNL A   1      41.751  27.878  36.981  1.00  0.00    -0.200 F 
ENDBRANCH  38  61
ENDBRANCH  12  13
ENDBRANCH   5   7
ENDBRANCH   2   3
ENDBRANCH   1   2
BRANCH   1  72
ATOM     72  C   UNL A   1      35.872  23.275  24.016  1.00  0.00     0.023 C 
BRANCH  72  73
ATOM     73  C   UNL A   1      34.508  22.843  24.546  1.00  0.00     0.116 C 
BRANCH  73  74
ATOM     74  N   UNL A   1      33.694  22.268  23.494  1.00  0.00    -0.351 N 
ATOM     75  C   UNL A   1      32.353  22.459  23.255  1.00  0.00     0.271 C 
ATOM     76  H   UNL A   1      34.159  21.664  22.873  1.00  0.00     0.163 HD
ATOM     77  O   UNL A   1      31.799  21.780  22.403  1.00  0.00    -0.267 OA
BRANCH  75  78
ATOM     78  C   UNL A   1      31.668  23.522  23.992  1.00  0.00     0.150 A 
ATOM     79  C   UNL A   1      30.955  23.377  25.208  1.00  0.00     0.056 A 
ATOM     80  N   UNL A   1      31.672  24.801  23.577  1.00  0.00    -0.161 NA
ATOM     81  C   UNL A   1      30.660  24.658  25.598  1.00  0.00     0.118 A 
ATOM     82  N   UNL A   1      31.164  25.495  24.627  1.00  0.00    -0.222 N 
BRANCH  82  83
ATOM     83  C   UNL A   1      31.207  26.914  24.693  1.00  0.00     0.158 A 
ATOM     84  C   UNL A   1      30.405  27.651  23.847  1.00  0.00     0.078 A 
ATOM     85  N   UNL A   1      32.053  27.474  25.586  1.00  0.00    -0.209 NA
ATOM     86  C   UNL A   1      30.480  29.022  23.988  1.00  0.00     0.077 A 
ATOM     87  C   UNL A   1      32.115  28.814  25.586  1.00  0.00     0.165 A 
ATOM     88  N   UNL A   1      31.358  29.618  24.823  1.00  0.00    -0.228 NA
BRANCH  86  89
ATOM     89  C   UNL A   1      29.571  29.925  23.275  1.00  0.00     0.003 A 
ATOM     90  C   UNL A   1      29.071  29.585  22.011  1.00  0.00     0.030 A 
ATOM     91  C   UNL A   1      29.152  31.131  23.843  1.00  0.00     0.030 A 
ATOM     92  C   UNL A   1      28.198  30.455  21.378  1.00  0.00     0.111 A 
ATOM     93  C   UNL A   1      28.284  31.940  23.127  1.00  0.00     0.111 A 
ATOM     94  N   UNL A   1      27.801  31.630  21.905  1.00  0.00    -0.265 NA
ENDBRANCH  86  89
BRANCH  87  95
ATOM     95  C   UNL A   1      33.175  29.421  26.379  1.00  0.00     0.055 A 
ATOM     96  C   UNL A   1      34.403  28.755  26.561  1.00  0.00     0.015 A 
ATOM     97  C   UNL A   1      33.010  30.666  26.987  1.00  0.00     0.134 A 
ATOM     98  C   UNL A   1      35.428  29.328  27.319  1.00  0.00     0.001 A 
ATOM     99  C   UNL A   1      34.026  31.241  27.752  1.00  0.00     0.040 A 
ATOM    100  F   UNL A   1      31.849  31.330  26.872  1.00  0.00    -0.206 F 
ATOM    101  C   UNL A   1      35.239  30.573  27.915  1.00  0.00     0.003 A 
ENDBRANCH  87  95
ENDBRANCH  82  83
ENDBRANCH  75  78
ENDBRANCH  73  74
ENDBRANCH  72  73
ENDBRANCH   1  72
TORSDOF 14
ENDMDL
MODEL 3
REMARK VINA RESULT:     -14.1      1.235      2.290
REMARK SMILES O=C(NCCCCNC(=O)c1ccn(-c2cc(-c3ccncc3)nc(-c3ccccc3F)n2)n1)c1ccc(-c2c3nc(c(-c4c(F)c(F)c(F)c(F)c4F)c4ccc([nH]4)c(-c4c(F)c(F)c(F)c(F)c4F)c4nc(c(-c5c(F)c(F)c(F)c(F)c5F)c5ccc2[nH]5)C=C4)C=C3)cc1
REMARK SMILES IDX 5 1 4 2 3 3 1 4 2 5 35 7 36 8 97 9 37 10 96 11 38 12 39 13
REMARK SMILES IDX 40 14 90 15 41 16 95 17 89 18 91 19 42 20 94 21 88 22 87 23
REMARK SMILES IDX 43 25 75 26 55 27 74 28 56 29 59 30 73 31 92 32 57 33 58 34
REMARK SMILES IDX 72 36 93 37 60 38 44 39 45 40 53 41 46 42 47 43 51 44 54 45
REMARK SMILES IDX 48 46 49 47 52 48 50 49 76 50 77 51 85 52 78 53 79 54 83 55
REMARK SMILES IDX 86 56 80 57 81 58 84 59 82 60 61 61 62 62 70 63 63 64 64 65
REMARK SMILES IDX 68 66 71 67 65 68 66 69 69 70 67 71 6 72 7 73 8 74 9 75
REMARK SMILES IDX 10 77 11 78 12 79 34 80 13 81 14 82 15 83 16 84 33 85 17 86
REMARK SMILES IDX 25 87 24 88 18 89 19 90 23 91 20 92 22 93 21 94 26 95 27 96
REMARK SMILES IDX 31 97 28 98 30 99 32 100 29 101
REMARK H PARENT 3 6 91 24 59 35 8 76
REMARK Flexibility Score: inf
ROOT
ATOM      1  C   UNL A   1      34.027  28.570  27.231  1.00  0.00     0.023 C 
ENDROOT
BRANCH   1   2
ATOM      2  C   UNL A   1      34.795  29.865  26.952  1.00  0.00     0.116 C 
BRANCH   2   3
ATOM      3  N   UNL A   1      34.729  30.834  28.025  1.00  0.00    -0.352 N 
ATOM      4  O   UNL A   1      35.215  32.197  29.690  1.00  0.00    -0.269 OA
ATOM      5  C   UNL A   1      35.586  31.236  29.011  1.00  0.00     0.251 C 
ATOM      6  H   UNL A   1      33.870  31.314  28.049  1.00  0.00     0.163 HD
BRANCH   5   7
ATOM      7  C   UNL A   1      36.883  30.584  29.343  1.00  0.00     0.039 A 
ATOM      8  C   UNL A   1      38.138  31.189  29.289  1.00  0.00     0.014 A 
ATOM      9  C   UNL A   1      36.817  29.225  29.708  1.00  0.00     0.014 A 
ATOM     10  C   UNL A   1      39.296  30.451  29.510  1.00  0.00     0.010 A 
ATOM     11  C   UNL A   1      37.968  28.485  29.955  1.00  0.00     0.010 A 
ATOM     12  C   UNL A   1      39.213  29.094  29.823  1.00  0.00    -0.014 A 
BRANCH  12  13
ATOM     13  C   UNL A   1      40.463  28.382  30.082  1.00  0.00     0.031 A 
ATOM     14  C   UNL A   1      40.898  28.293  31.510  1.00  0.00     0.074 A 
ATOM     15  C   UNL A   1      41.133  27.707  29.128  1.00  0.00     0.049 A 
ATOM     16  N   UNL A   1      42.047  28.589  32.034  1.00  0.00    -0.248 NA
ATOM     17  C   UNL A   1      39.899  27.830  32.486  1.00  0.00     0.031 C 
ATOM     18  C   UNL A   1      40.705  27.415  27.758  1.00  0.00     0.029 A 
ATOM     19  N   UNL A   1      42.319  27.042  29.236  1.00  0.00    -0.354 N 
ATOM     20  C   UNL A   1      41.966  28.222  33.380  1.00  0.00     0.074 A 
ATOM     21  C   UNL A   1      40.600  27.834  33.619  1.00  0.00     0.031 C 
ATOM     22  C   UNL A   1      41.509  26.459  27.240  1.00  0.00     0.029 A 
ATOM     23  C   UNL A   1      42.575  26.177  28.187  1.00  0.00     0.049 A 
ATOM     24  H   UNL A   1      42.936  27.166  29.993  1.00  0.00     0.167 HD
ATOM     25  C   UNL A   1      43.062  28.114  34.182  1.00  0.00     0.037 A 
ATOM     26  C   UNL A   1      43.547  25.235  28.140  1.00  0.00     0.037 A 
ATOM     27  C   UNL A   1      44.172  28.876  33.687  1.00  0.00     0.049 A 
ATOM     28  C   UNL A   1      44.576  25.587  29.150  1.00  0.00     0.074 A 
ATOM     29  C   UNL A   1      44.401  30.217  33.448  1.00  0.00     0.029 A 
ATOM     30  N   UNL A   1      45.219  28.221  33.092  1.00  0.00    -0.354 N 
ATOM     31  N   UNL A   1      45.375  26.614  29.070  1.00  0.00    -0.248 NA
ATOM     32  C   UNL A   1      44.477  24.972  30.464  1.00  0.00     0.031 C 
ATOM     33  C   UNL A   1      45.269  30.251  32.318  1.00  0.00     0.029 A 
ATOM     34  C   UNL A   1      45.519  28.927  31.956  1.00  0.00     0.049 A 
ATOM     35  H   UNL A   1      45.666  27.406  33.415  1.00  0.00     0.167 HD
ATOM     36  C   UNL A   1      45.568  27.014  30.382  1.00  0.00     0.074 A 
ATOM     37  C   UNL A   1      45.087  25.904  31.195  1.00  0.00     0.031 C 
ATOM     38  C   UNL A   1      45.844  28.314  30.691  1.00  0.00     0.037 A 
BRANCH  25  39
ATOM     39  C   UNL A   1      43.206  27.101  35.291  1.00  0.00     0.064 A 
ATOM     40  C   UNL A   1      43.332  25.715  35.059  1.00  0.00     0.173 A 
ATOM     41  C   UNL A   1      43.516  27.528  36.599  1.00  0.00     0.173 A 
ATOM     42  F   UNL A   1      43.176  25.187  33.838  1.00  0.00    -0.203 F 
ATOM     43  C   UNL A   1      43.733  24.825  36.054  1.00  0.00     0.198 A 
ATOM     44  C   UNL A   1      43.969  26.639  37.579  1.00  0.00     0.198 A 
ATOM     45  F   UNL A   1      43.464  28.828  36.926  1.00  0.00    -0.203 F 
ATOM     46  F   UNL A   1      43.854  23.521  35.763  1.00  0.00    -0.200 F 
ATOM     47  C   UNL A   1      44.079  25.289  37.306  1.00  0.00     0.200 A 
ATOM     48  F   UNL A   1      44.359  27.108  38.773  1.00  0.00    -0.200 F 
ATOM     49  F   UNL A   1      44.562  24.444  38.226  1.00  0.00    -0.200 F 
ENDBRANCH  25  39
BRANCH  26  50
ATOM     50  C   UNL A   1      43.481  23.895  27.513  1.00  0.00     0.064 A 
ATOM     51  C   UNL A   1      43.889  23.691  26.181  1.00  0.00     0.173 A 
ATOM     52  C   UNL A   1      42.761  22.851  28.115  1.00  0.00     0.173 A 
ATOM     53  F   UNL A   1      44.504  24.661  25.491  1.00  0.00    -0.203 F 
ATOM     54  C   UNL A   1      43.589  22.517  25.490  1.00  0.00     0.198 A 
ATOM     55  C   UNL A   1      42.449  21.681  27.416  1.00  0.00     0.198 A 
ATOM     56  F   UNL A   1      42.294  22.986  29.365  1.00  0.00    -0.203 F 
ATOM     57  F   UNL A   1      43.957  22.390  24.207  1.00  0.00    -0.200 F 
ATOM     58  C   UNL A   1      42.855  21.519  26.102  1.00  0.00     0.200 A 
ATOM     59  F   UNL A   1      41.704  20.733  28.000  1.00  0.00    -0.200 F 
ATOM     60  F   UNL A   1      42.505  20.424  25.413  1.00  0.00    -0.200 F 
ENDBRANCH  26  50
BRANCH  38  61
ATOM     61  C   UNL A   1      46.214  29.243  29.573  1.00  0.00     0.064 A 
ATOM     62  C   UNL A   1      45.189  29.865  28.848  1.00  0.00     0.173 A 
ATOM     63  C   UNL A   1      47.528  29.392  29.096  1.00  0.00     0.173 A 
ATOM     64  F   UNL A   1      43.909  29.706  29.222  1.00  0.00    -0.203 F 
ATOM     65  C   UNL A   1      45.463  30.599  27.698  1.00  0.00     0.198 A 
ATOM     66  C   UNL A   1      47.803  30.156  27.964  1.00  0.00     0.198 A 
ATOM     67  F   UNL A   1      48.548  28.742  29.673  1.00  0.00    -0.203 F 
ATOM     68  F   UNL A   1      44.455  31.129  26.989  1.00  0.00    -0.200 F 
ATOM     69  C   UNL A   1      46.769  30.752  27.261  1.00  0.00     0.200 A 
ATOM     70  F   UNL A   1      49.065  30.281  27.528  1.00  0.00    -0.200 F 
ATOM     71  F   UNL A   1      47.027  31.443  26.142  1.00  0.00    -0.200 F 
ENDBRANCH  38  61
ENDBRANCH  12  13
ENDBRANCH   5   7
ENDBRANCH   2   3
ENDBRANCH   1   2
BRANCH   1  72
ATOM     72  C   UNL A   1      32.606  28.517  26.661  1.00  0.00     0.023 C 
BRANCH  72  73
ATOM     73  C   UNL A   1      32.390  27.482  25.561  1.00  0.00     0.116 C 
BRANCH  73  74
ATOM     74  N   UNL A   1      30.983  27.180  25.392  1.00  0.00    -0.351 N 
ATOM     75  C   UNL A   1      30.408  26.228  24.584  1.00  0.00     0.271 C 
ATOM     76  H   UNL A   1      30.360  27.726  25.923  1.00  0.00     0.163 HD
ATOM     77  O   UNL A   1      29.191  26.207  24.461  1.00  0.00    -0.267 OA
BRANCH  75  78
ATOM     78  C   UNL A   1      31.285  25.236  23.958  1.00  0.00     0.150 A 
ATOM     79  C   UNL A   1      31.782  25.271  22.632  1.00  0.00     0.056 A 
ATOM     80  N   UNL A   1      31.741  24.160  24.624  1.00  0.00    -0.161 NA
ATOM     81  C   UNL A   1      32.694  24.248  22.571  1.00  0.00     0.118 A 
ATOM     82  N   UNL A   1      32.693  23.641  23.808  1.00  0.00    -0.222 N 
BRANCH  82  83
ATOM     83  C   UNL A   1      33.588  22.623  24.235  1.00  0.00     0.158 A 
ATOM     84  C   UNL A   1      33.138  21.322  24.314  1.00  0.00     0.078 A 
ATOM     85  N   UNL A   1      34.848  22.991  24.557  1.00  0.00    -0.209 NA
ATOM     86  C   UNL A   1      34.070  20.384  24.709  1.00  0.00     0.077 A 
ATOM     87  C   UNL A   1      35.653  22.019  25.011  1.00  0.00     0.165 A 
ATOM     88  N   UNL A   1      35.318  20.722  25.099  1.00  0.00    -0.228 NA
BRANCH  86  89
ATOM     89  C   UNL A   1      33.783  18.947  24.682  1.00  0.00     0.003 A 
ATOM     90  C   UNL A   1      32.524  18.461  25.059  1.00  0.00     0.030 A 
ATOM     91  C   UNL A   1      34.739  18.023  24.251  1.00  0.00     0.030 A 
ATOM     92  C   UNL A   1      32.284  17.098  24.999  1.00  0.00     0.111 A 
ATOM     93  C   UNL A   1      34.408  16.677  24.237  1.00  0.00     0.111 A 
ATOM     94  N   UNL A   1      33.203  16.194  24.605  1.00  0.00    -0.265 NA
ENDBRANCH  86  89
BRANCH  87  95
ATOM     95  C   UNL A   1      36.933  22.435  25.568  1.00  0.00     0.055 A 
ATOM     96  C   UNL A   1      37.090  23.724  26.114  1.00  0.00     0.015 A 
ATOM     97  C   UNL A   1      38.039  21.584  25.573  1.00  0.00     0.134 A 
ATOM     98  C   UNL A   1      38.313  24.135  26.653  1.00  0.00     0.001 A 
ATOM     99  C   UNL A   1      39.264  21.989  26.101  1.00  0.00     0.040 A 
ATOM    100  F   UNL A   1      37.953  20.356  25.037  1.00  0.00    -0.206 F 
ATOM    101  C   UNL A   1      39.401  23.265  26.646  1.00  0.00     0.003 A 
ENDBRANCH  87  95
ENDBRANCH  82  83
ENDBRANCH  75  78
ENDBRANCH  73  74
ENDBRANCH  72  73
ENDBRANCH   1  72
TORSDOF 14
ENDMDL
