MODEL 1
REMARK VINA RESULT:     -13.6      0.000      0.000
REMARK SMILES O=C(NCCCCNC(=O)[C@@H]1[C@@H](C(=O)Nc2cccc(C(F)(F)F)c2)[C@@H]2C=C[C@H]1O2)c1ccc(-c2c3nc(c(-c4c(F)c(F)c(F)c(F)c4F)c4ccc([nH]4)c(-c4c(F)c(F)c(F)c(F)c4F)c4nc(c(-c5c(F)c(F)c(F)c(F)c5F)c5ccc2[nH]5)C=C4)C=C3)cc1
REMARK SMILES IDX 6 1 5 2 4 3 3 4 1 5 2 6 31 8 32 9 93 10 33 11 92 12 34 13
REMARK SMILES IDX 35 14 36 15 86 16 37 17 91 18 85 19 87 20 38 21 90 22 84 23
REMARK SMILES IDX 83 24 39 26 71 27 51 28 70 29 52 30 55 31 69 32 88 33 53 34
REMARK SMILES IDX 54 35 68 37 89 38 56 39 40 40 41 41 49 42 42 43 43 44 47 45
REMARK SMILES IDX 50 46 44 47 45 48 48 49 46 50 72 51 73 52 81 53 74 54 75 55
REMARK SMILES IDX 79 56 82 57 76 58 77 59 80 60 78 61 57 62 58 63 66 64 59 65
REMARK SMILES IDX 60 66 64 67 67 68 61 69 62 70 65 71 63 72 7 73 8 74 9 75
REMARK SMILES IDX 10 77 11 78 12 79 29 80 26 81 28 82 30 83 27 84 13 85 14 86
REMARK SMILES IDX 15 87 16 89 17 90 25 91 18 92 20 93 19 94 21 95 22 96 23 97
REMARK SMILES IDX 24 98
REMARK H PARENT 3 7 87 25 55 36 8 76 15 88
REMARK Flexibility Score: inf
ROOT
ATOM      1  C   UNL A   1      32.084  30.475  26.194  1.00  0.00     0.023 C 
ENDROOT
BRANCH   1   2
ATOM      2  C   UNL A   1      31.653  31.855  26.677  1.00  0.00     0.023 C 
BRANCH   2   3
ATOM      3  C   UNL A   1      32.751  32.676  27.337  1.00  0.00     0.116 C 
BRANCH   3   4
ATOM      4  N   UNL A   1      32.366  34.050  27.628  1.00  0.00    -0.352 N 
ATOM      5  O   UNL A   1      32.462  36.034  28.714  1.00  0.00    -0.269 OA
ATOM      6  C   UNL A   1      32.941  34.922  28.521  1.00  0.00     0.251 C 
ATOM      7  H   UNL A   1      31.598  34.398  27.120  1.00  0.00     0.163 HD
BRANCH   6   8
ATOM      8  C   UNL A   1      34.121  34.475  29.284  1.00  0.00     0.039 A 
ATOM      9  C   UNL A   1      35.404  34.649  28.759  1.00  0.00     0.014 A 
ATOM     10  C   UNL A   1      33.928  33.799  30.491  1.00  0.00     0.014 A 
ATOM     11  C   UNL A   1      36.480  34.012  29.361  1.00  0.00     0.010 A 
ATOM     12  C   UNL A   1      35.023  33.229  31.138  1.00  0.00     0.010 A 
ATOM     13  C   UNL A   1      36.300  33.298  30.556  1.00  0.00    -0.014 A 
BRANCH  13  14
ATOM     14  C   UNL A   1      37.461  32.651  31.208  1.00  0.00     0.031 A 
ATOM     15  C   UNL A   1      38.210  31.545  30.523  1.00  0.00     0.074 A 
ATOM     16  C   UNL A   1      37.831  33.070  32.431  1.00  0.00     0.049 A 
ATOM     17  N   UNL A   1      39.188  30.806  30.979  1.00  0.00    -0.248 NA
ATOM     18  C   UNL A   1      37.804  31.222  29.147  1.00  0.00     0.031 C 
ATOM     19  C   UNL A   1      37.179  34.144  33.183  1.00  0.00     0.029 A 
ATOM     20  N   UNL A   1      38.840  32.649  33.256  1.00  0.00    -0.354 N 
ATOM     21  C   UNL A   1      39.490  29.907  29.965  1.00  0.00     0.074 A 
ATOM     22  C   UNL A   1      38.587  30.189  28.869  1.00  0.00     0.031 C 
ATOM     23  C   UNL A   1      37.817  34.313  34.349  1.00  0.00     0.029 A 
ATOM     24  C   UNL A   1      38.876  33.316  34.454  1.00  0.00     0.049 A 
ATOM     25  H   UNL A   1      39.476  31.938  33.012  1.00  0.00     0.167 HD
ATOM     26  C   UNL A   1      40.435  28.936  29.957  1.00  0.00     0.037 A 
ATOM     27  C   UNL A   1      39.653  33.124  35.534  1.00  0.00     0.037 A 
ATOM     28  C   UNL A   1      41.345  28.684  31.045  1.00  0.00     0.049 A 
ATOM     29  C   UNL A   1      40.683  32.034  35.505  1.00  0.00     0.074 A 
ATOM     30  C   UNL A   1      42.360  27.746  31.125  1.00  0.00     0.029 A 
ATOM     31  N   UNL A   1      41.348  29.379  32.247  1.00  0.00    -0.354 N 
ATOM     32  N   UNL A   1      40.960  31.189  34.542  1.00  0.00    -0.248 NA
ATOM     33  C   UNL A   1      41.502  31.866  36.711  1.00  0.00     0.031 C 
ATOM     34  C   UNL A   1      42.953  27.850  32.388  1.00  0.00     0.029 A 
ATOM     35  C   UNL A   1      42.335  28.879  33.081  1.00  0.00     0.049 A 
ATOM     36  H   UNL A   1      40.738  30.117  32.474  1.00  0.00     0.167 HD
ATOM     37  C   UNL A   1      41.992  30.395  35.018  1.00  0.00     0.074 A 
ATOM     38  C   UNL A   1      42.300  30.869  36.353  1.00  0.00     0.031 C 
ATOM     39  C   UNL A   1      42.625  29.367  34.404  1.00  0.00     0.037 A 
BRANCH  26  40
ATOM     40  C   UNL A   1      40.514  28.052  28.747  1.00  0.00     0.064 A 
ATOM     41  C   UNL A   1      39.809  26.842  28.666  1.00  0.00     0.173 A 
ATOM     42  C   UNL A   1      41.284  28.438  27.638  1.00  0.00     0.173 A 
ATOM     43  F   UNL A   1      39.071  26.421  29.703  1.00  0.00    -0.203 F 
ATOM     44  C   UNL A   1      39.890  26.041  27.528  1.00  0.00     0.198 A 
ATOM     45  C   UNL A   1      41.342  27.647  26.494  1.00  0.00     0.198 A 
ATOM     46  F   UNL A   1      41.974  29.588  27.663  1.00  0.00    -0.203 F 
ATOM     47  F   UNL A   1      39.241  24.869  27.490  1.00  0.00    -0.200 F 
ATOM     48  C   UNL A   1      40.652  26.447  26.443  1.00  0.00     0.200 A 
ATOM     49  F   UNL A   1      42.071  28.045  25.442  1.00  0.00    -0.200 F 
ATOM     50  F   UNL A   1      40.725  25.675  25.349  1.00  0.00    -0.200 F 
ENDBRANCH  26  40
BRANCH  27  51
ATOM     51  C   UNL A   1      39.458  33.985  36.724  1.00  0.00     0.064 A 
ATOM     52  C   UNL A   1      38.686  33.551  37.809  1.00  0.00     0.173 A 
ATOM     53  C   UNL A   1      40.101  35.228  36.831  1.00  0.00     0.173 A 
ATOM     54  F   UNL A   1      38.043  32.376  37.744  1.00  0.00    -0.203 F 
ATOM     55  C   UNL A   1      38.566  34.327  38.959  1.00  0.00     0.198 A 
ATOM     56  C   UNL A   1      40.001  35.991  37.991  1.00  0.00     0.198 A 
ATOM     57  F   UNL A   1      40.861  35.679  35.823  1.00  0.00    -0.203 F 
ATOM     58  F   UNL A   1      37.809  33.898  39.978  1.00  0.00    -0.200 F 
ATOM     59  C   UNL A   1      39.232  35.540  39.054  1.00  0.00     0.200 A 
ATOM     60  F   UNL A   1      40.663  37.152  38.086  1.00  0.00    -0.200 F 
ATOM     61  F   UNL A   1      39.135  36.275  40.170  1.00  0.00    -0.200 F 
ENDBRANCH  27  51
BRANCH  39  62
ATOM     62  C   UNL A   1      43.735  28.704  35.162  1.00  0.00     0.064 A 
ATOM     63  C   UNL A   1      43.495  27.602  35.994  1.00  0.00     0.173 A 
ATOM     64  C   UNL A   1      45.057  29.151  35.019  1.00  0.00     0.173 A 
ATOM     65  F   UNL A   1      42.245  27.151  36.174  1.00  0.00    -0.203 F 
ATOM     66  C   UNL A   1      44.540  26.980  36.671  1.00  0.00     0.198 A 
ATOM     67  C   UNL A   1      46.101  28.513  35.680  1.00  0.00     0.198 A 
ATOM     68  F   UNL A   1      45.333  30.201  34.230  1.00  0.00    -0.203 F 
ATOM     69  F   UNL A   1      44.287  25.950  37.490  1.00  0.00    -0.200 F 
ATOM     70  C   UNL A   1      45.842  27.431  36.508  1.00  0.00     0.200 A 
ATOM     71  F   UNL A   1      47.359  28.946  35.516  1.00  0.00    -0.200 F 
ATOM     72  F   UNL A   1      46.848  26.827  37.157  1.00  0.00    -0.200 F 
ENDBRANCH  39  62
ENDBRANCH  13  14
ENDBRANCH   6   8
ENDBRANCH   3   4
ENDBRANCH   2   3
ENDBRANCH   1   2
BRANCH   1  73
ATOM     73  C   UNL A   1      32.496  29.500  27.297  1.00  0.00     0.116 C 
BRANCH  73  74
ATOM     74  N   UNL A   1      31.663  28.321  27.278  1.00  0.00    -0.356 N 
ATOM     75  C   UNL A   1      31.647  27.218  26.495  1.00  0.00     0.227 C 
ATOM     76  H   UNL A   1      30.967  28.319  27.973  1.00  0.00     0.163 HD
ATOM     77  O   UNL A   1      30.637  26.512  26.612  1.00  0.00    -0.275 OA
BRANCH  75  78
ATOM     78  C   UNL A   1      32.707  26.820  25.487  1.00  0.00     0.127 C 
ATOM     79  C   UNL A   1      32.350  26.437  24.006  1.00  0.00     0.127 C 
ATOM     80  C   UNL A   1      33.665  25.705  25.915  1.00  0.00     0.155 C 
ATOM     81  C   UNL A   1      33.286  25.223  23.825  1.00  0.00     0.155 C 
ATOM     82  C   UNL A   1      33.066  24.336  25.902  1.00  0.00     0.004 C 
ATOM     83  O   UNL A   1      34.414  25.600  24.669  1.00  0.00    -0.365 OA
ATOM     84  C   UNL A   1      32.796  24.050  24.622  1.00  0.00     0.004 C 
BRANCH  79  85
ATOM     85  C   UNL A   1      32.685  27.632  23.117  1.00  0.00     0.231 C 
ATOM     86  O   UNL A   1      33.865  27.931  22.899  1.00  0.00    -0.274 OA
ATOM     87  N   UNL A   1      31.750  28.413  22.518  1.00  0.00    -0.326 N 
ATOM     88  H   UNL A   1      32.075  28.847  21.697  1.00  0.00     0.169 HD
BRANCH  87  89
ATOM     89  C   UNL A   1      30.423  28.732  22.822  1.00  0.00     0.041 A 
ATOM     90  C   UNL A   1      29.524  27.664  22.915  1.00  0.00     0.026 A 
ATOM     91  C   UNL A   1      29.954  30.042  22.941  1.00  0.00     0.039 A 
ATOM     92  C   UNL A   1      28.174  27.892  23.176  1.00  0.00     0.003 A 
ATOM     93  C   UNL A   1      28.584  30.285  23.167  1.00  0.00     0.058 A 
ATOM     94  C   UNL A   1      27.705  29.197  23.298  1.00  0.00     0.013 A 
BRANCH  93  95
ATOM     95  C   UNL A   1      28.036  31.689  23.226  1.00  0.00     0.416 C 
ATOM     96  F   UNL A   1      28.934  32.574  23.739  1.00  0.00    -0.166 F 
ATOM     97  F   UNL A   1      27.695  32.169  21.999  1.00  0.00    -0.166 F 
ATOM     98  F   UNL A   1      26.917  31.800  23.996  1.00  0.00    -0.166 F 
ENDBRANCH  93  95
ENDBRANCH  87  89
ENDBRANCH  79  85
ENDBRANCH  75  78
ENDBRANCH  73  74
ENDBRANCH   1  73
TORSDOF 14
ENDMDL
MODEL 2
REMARK VINA RESULT:     -13.6      0.518      7.257
REMARK SMILES O=C(NCCCCNC(=O)[C@@H]1[C@@H](C(=O)Nc2cccc(C(F)(F)F)c2)[C@@H]2C=C[C@H]1O2)c1ccc(-c2c3nc(c(-c4c(F)c(F)c(F)c(F)c4F)c4ccc([nH]4)c(-c4c(F)c(F)c(F)c(F)c4F)c4nc(c(-c5c(F)c(F)c(F)c(F)c5F)c5ccc2[nH]5)C=C4)C=C3)cc1
REMARK SMILES IDX 6 1 5 2 4 3 3 4 1 5 2 6 31 8 32 9 93 10 33 11 92 12 34 13
REMARK SMILES IDX 35 14 36 15 86 16 37 17 91 18 85 19 87 20 38 21 90 22 84 23
REMARK SMILES IDX 83 24 39 26 71 27 51 28 70 29 52 30 55 31 69 32 88 33 53 34
REMARK SMILES IDX 54 35 68 37 89 38 56 39 40 40 41 41 49 42 42 43 43 44 47 45
REMARK SMILES IDX 50 46 44 47 45 48 48 49 46 50 72 51 73 52 81 53 74 54 75 55
REMARK SMILES IDX 79 56 82 57 76 58 77 59 80 60 78 61 57 62 58 63 66 64 59 65
REMARK SMILES IDX 60 66 64 67 67 68 61 69 62 70 65 71 63 72 7 73 8 74 9 75
REMARK SMILES IDX 10 77 11 78 12 79 29 80 26 81 28 82 30 83 27 84 13 85 14 86
REMARK SMILES IDX 15 87 16 89 17 90 25 91 18 92 20 93 19 94 21 95 22 96 23 97
REMARK SMILES IDX 24 98
REMARK H PARENT 3 7 87 25 55 36 8 76 15 88
REMARK Flexibility Score: inf
ROOT
ATOM      1  C   UNL A   1      31.810  30.544  26.141  1.00  0.00     0.023 C 
ENDROOT
BRANCH   1   2
ATOM      2  C   UNL A   1      31.479  31.947  26.636  1.00  0.00     0.023 C 
BRANCH   2   3
ATOM      3  C   UNL A   1      32.643  32.700  27.261  1.00  0.00     0.116 C 
BRANCH   3   4
ATOM      4  N   UNL A   1      32.340  34.085  27.594  1.00  0.00    -0.352 N 
ATOM      5  O   UNL A   1      32.547  36.023  28.744  1.00  0.00    -0.269 OA
ATOM      6  C   UNL A   1      32.960  34.892  28.519  1.00  0.00     0.251 C 
ATOM      7  H   UNL A   1      31.599  34.495  27.093  1.00  0.00     0.163 HD
BRANCH   6   8
ATOM      8  C   UNL A   1      34.104  34.349  29.273  1.00  0.00     0.039 A 
ATOM      9  C   UNL A   1      35.409  34.570  28.826  1.00  0.00     0.014 A 
ATOM     10  C   UNL A   1      33.857  33.542  30.386  1.00  0.00     0.014 A 
ATOM     11  C   UNL A   1      36.456  33.858  29.395  1.00  0.00     0.010 A 
ATOM     12  C   UNL A   1      34.922  32.892  31.009  1.00  0.00     0.010 A 
ATOM     13  C   UNL A   1      36.222  33.014  30.492  1.00  0.00    -0.014 A 
BRANCH  13  14
ATOM     14  C   UNL A   1      37.351  32.286  31.114  1.00  0.00     0.031 A 
ATOM     15  C   UNL A   1      37.832  32.643  32.490  1.00  0.00     0.074 A 
ATOM     16  C   UNL A   1      37.943  31.298  30.419  1.00  0.00     0.049 A 
ATOM     17  N   UNL A   1      38.861  32.177  33.151  1.00  0.00    -0.248 NA
ATOM     18  C   UNL A   1      37.063  33.663  33.218  1.00  0.00     0.031 C 
ATOM     19  C   UNL A   1      37.549  30.863  29.078  1.00  0.00     0.029 A 
ATOM     20  N   UNL A   1      38.997  30.484  30.738  1.00  0.00    -0.354 N 
ATOM     21  C   UNL A   1      38.885  32.869  34.354  1.00  0.00     0.074 A 
ATOM     22  C   UNL A   1      37.771  33.793  34.332  1.00  0.00     0.031 C 
ATOM     23  C   UNL A   1      38.334  29.847  28.698  1.00  0.00     0.029 A 
ATOM     24  C   UNL A   1      39.328  29.607  29.738  1.00  0.00     0.049 A 
ATOM     25  H   UNL A   1      39.468  30.524  31.602  1.00  0.00     0.167 HD
ATOM     26  C   UNL A   1      39.762  32.741  35.379  1.00  0.00     0.037 A 
ATOM     27  C   UNL A   1      40.343  28.728  29.651  1.00  0.00     0.037 A 
ATOM     28  C   UNL A   1      40.851  31.798  35.399  1.00  0.00     0.049 A 
ATOM     29  C   UNL A   1      41.308  28.615  30.793  1.00  0.00     0.074 A 
ATOM     30  C   UNL A   1      41.777  31.567  36.402  1.00  0.00     0.029 A 
ATOM     31  N   UNL A   1      41.159  30.928  34.362  1.00  0.00    -0.354 N 
ATOM     32  N   UNL A   1      41.322  29.275  31.926  1.00  0.00    -0.248 NA
ATOM     33  C   UNL A   1      42.397  27.644  30.645  1.00  0.00     0.031 C 
ATOM     34  C   UNL A   1      42.666  30.581  35.957  1.00  0.00     0.029 A 
ATOM     35  C   UNL A   1      42.271  30.170  34.694  1.00  0.00     0.049 A 
ATOM     36  H   UNL A   1      40.661  30.860  33.515  1.00  0.00     0.167 HD
ATOM     37  C   UNL A   1      42.414  28.793  32.632  1.00  0.00     0.074 A 
ATOM     38  C   UNL A   1      43.030  27.775  31.803  1.00  0.00     0.031 C 
ATOM     39  C   UNL A   1      42.864  29.161  33.855  1.00  0.00     0.037 A 
BRANCH  26  40
ATOM     40  C   UNL A   1      39.601  33.663  36.552  1.00  0.00     0.064 A 
ATOM     41  C   UNL A   1      40.202  34.930  36.587  1.00  0.00     0.173 A 
ATOM     42  C   UNL A   1      38.805  33.284  37.645  1.00  0.00     0.173 A 
ATOM     43  F   UNL A   1      40.983  35.335  35.574  1.00  0.00    -0.203 F 
ATOM     44  C   UNL A   1      40.031  35.774  37.683  1.00  0.00     0.198 A 
ATOM     45  C   UNL A   1      38.617  34.140  38.726  1.00  0.00     0.198 A 
ATOM     46  F   UNL A   1      38.205  32.085  37.659  1.00  0.00    -0.203 F 
ATOM     47  F   UNL A   1      40.649  36.963  37.712  1.00  0.00    -0.200 F 
ATOM     48  C   UNL A   1      39.235  35.381  38.748  1.00  0.00     0.200 A 
ATOM     49  F   UNL A   1      37.840  33.763  39.751  1.00  0.00    -0.200 F 
ATOM     50  F   UNL A   1      39.070  36.195  39.799  1.00  0.00    -0.200 F 
ENDBRANCH  26  40
BRANCH  27  51
ATOM     51  C   UNL A   1      40.484  27.911  28.422  1.00  0.00     0.064 A 
ATOM     52  C   UNL A   1      41.239  28.369  27.335  1.00  0.00     0.173 A 
ATOM     53  C   UNL A   1      39.929  26.625  28.342  1.00  0.00     0.173 A 
ATOM     54  F   UNL A   1      41.776  29.597  27.364  1.00  0.00    -0.203 F 
ATOM     55  C   UNL A   1      41.436  27.568  26.212  1.00  0.00     0.198 A 
ATOM     56  C   UNL A   1      40.148  25.817  27.230  1.00  0.00     0.198 A 
ATOM     57  F   UNL A   1      39.209  26.139  29.364  1.00  0.00    -0.203 F 
ATOM     58  F   UNL A   1      42.149  28.034  25.178  1.00  0.00    -0.200 F 
ATOM     59  C   UNL A   1      40.900  26.290  26.165  1.00  0.00     0.200 A 
ATOM     60  F   UNL A   1      39.646  24.574  27.197  1.00  0.00    -0.200 F 
ATOM     61  F   UNL A   1      41.110  25.512  25.095  1.00  0.00    -0.200 F 
ENDBRANCH  27  51
BRANCH  39  62
ATOM     62  C   UNL A   1      44.066  28.438  34.382  1.00  0.00     0.064 A 
ATOM     63  C   UNL A   1      43.943  27.235  35.091  1.00  0.00     0.173 A 
ATOM     64  C   UNL A   1      45.355  28.933  34.136  1.00  0.00     0.173 A 
ATOM     65  F   UNL A   1      42.730  26.733  35.364  1.00  0.00    -0.203 F 
ATOM     66  C   UNL A   1      45.071  26.561  35.551  1.00  0.00     0.198 A 
ATOM     67  C   UNL A   1      46.479  28.246  34.578  1.00  0.00     0.198 A 
ATOM     68  F   UNL A   1      45.520  30.080  33.458  1.00  0.00    -0.203 F 
ATOM     69  F   UNL A   1      44.932  25.432  36.259  1.00  0.00    -0.200 F 
ATOM     70  C   UNL A   1      46.337  27.063  35.289  1.00  0.00     0.200 A 
ATOM     71  F   UNL A   1      47.703  28.728  34.318  1.00  0.00    -0.200 F 
ATOM     72  F   UNL A   1      47.422  26.410  35.728  1.00  0.00    -0.200 F 
ENDBRANCH  39  62
ENDBRANCH  13  14
ENDBRANCH   6   8
ENDBRANCH   3   4
ENDBRANCH   2   3
ENDBRANCH   1   2
BRANCH   1  73
ATOM     73  C   UNL A   1      32.316  29.580  27.214  1.00  0.00     0.116 C 
BRANCH  73  74
ATOM     74  N   UNL A   1      31.539  28.363  27.218  1.00  0.00    -0.356 N 
ATOM     75  C   UNL A   1      31.586  27.239  26.467  1.00  0.00     0.227 C 
ATOM     76  H   UNL A   1      30.835  28.348  27.905  1.00  0.00     0.163 HD
ATOM     77  O   UNL A   1      30.608  26.490  26.592  1.00  0.00    -0.275 OA
BRANCH  75  78
ATOM     78  C   UNL A   1      32.676  26.864  25.484  1.00  0.00     0.127 C 
ATOM     79  C   UNL A   1      32.362  26.473  23.995  1.00  0.00     0.127 C 
ATOM     80  C   UNL A   1      33.647  25.769  25.935  1.00  0.00     0.155 C 
ATOM     81  C   UNL A   1      33.327  25.279  23.836  1.00  0.00     0.155 C 
ATOM     82  C   UNL A   1      33.078  24.388  25.909  1.00  0.00     0.004 C 
ATOM     83  O   UNL A   1      34.427  25.679  24.705  1.00  0.00    -0.365 OA
ATOM     84  C   UNL A   1      32.844  24.096  24.623  1.00  0.00     0.004 C 
BRANCH  79  85
ATOM     85  C   UNL A   1      32.691  27.674  23.113  1.00  0.00     0.231 C 
ATOM     86  O   UNL A   1      33.869  27.981  22.898  1.00  0.00    -0.274 OA
ATOM     87  N   UNL A   1      31.753  28.454  22.518  1.00  0.00    -0.326 N 
ATOM     88  H   UNL A   1      32.076  28.894  21.699  1.00  0.00     0.169 HD
BRANCH  87  89
ATOM     89  C   UNL A   1      30.424  28.765  22.821  1.00  0.00     0.041 A 
ATOM     90  C   UNL A   1      29.531  27.691  22.916  1.00  0.00     0.026 A 
ATOM     91  C   UNL A   1      29.946  30.071  22.941  1.00  0.00     0.039 A 
ATOM     92  C   UNL A   1      28.181  27.910  23.176  1.00  0.00     0.003 A 
ATOM     93  C   UNL A   1      28.575  30.305  23.167  1.00  0.00     0.058 A 
ATOM     94  C   UNL A   1      27.703  29.212  23.298  1.00  0.00     0.013 A 
BRANCH  93  95
ATOM     95  C   UNL A   1      28.018  31.706  23.227  1.00  0.00     0.416 C 
ATOM     96  F   UNL A   1      28.913  32.598  23.732  1.00  0.00    -0.166 F 
ATOM     97  F   UNL A   1      27.666  32.181  22.000  1.00  0.00    -0.166 F 
ATOM     98  F   UNL A   1      26.903  31.811  24.003  1.00  0.00    -0.166 F 
ENDBRANCH  93  95
ENDBRANCH  87  89
ENDBRANCH  79  85
ENDBRANCH  75  78
ENDBRANCH  73  74
ENDBRANCH   1  73
TORSDOF 14
ENDMDL
MODEL 3
REMARK VINA RESULT:     -13.4      5.916     10.391
REMARK SMILES O=C(NCCCCNC(=O)[C@@H]1[C@@H](C(=O)Nc2cccc(C(F)(F)F)c2)[C@@H]2C=C[C@H]1O2)c1ccc(-c2c3nc(c(-c4c(F)c(F)c(F)c(F)c4F)c4ccc([nH]4)c(-c4c(F)c(F)c(F)c(F)c4F)c4nc(c(-c5c(F)c(F)c(F)c(F)c5F)c5ccc2[nH]5)C=C4)C=C3)cc1
REMARK SMILES IDX 6 1 5 2 4 3 3 4 1 5 2 6 31 8 32 9 93 10 33 11 92 12 34 13
REMARK SMILES IDX 35 14 36 15 86 16 37 17 91 18 85 19 87 20 38 21 90 22 84 23
REMARK SMILES IDX 83 24 39 26 71 27 51 28 70 29 52 30 55 31 69 32 88 33 53 34
REMARK SMILES IDX 54 35 68 37 89 38 56 39 40 40 41 41 49 42 42 43 43 44 47 45
REMARK SMILES IDX 50 46 44 47 45 48 48 49 46 50 72 51 73 52 81 53 74 54 75 55
REMARK SMILES IDX 79 56 82 57 76 58 77 59 80 60 78 61 57 62 58 63 66 64 59 65
REMARK SMILES IDX 60 66 64 67 67 68 61 69 62 70 65 71 63 72 7 73 8 74 9 75
REMARK SMILES IDX 10 77 11 78 12 79 29 80 26 81 28 82 30 83 27 84 13 85 14 86
REMARK SMILES IDX 15 87 16 89 17 90 25 91 18 92 20 93 19 94 21 95 22 96 23 97
REMARK SMILES IDX 24 98
REMARK H PARENT 3 7 87 25 55 36 8 76 15 88
REMARK Flexibility Score: inf
ROOT
ATOM      1  C   UNL A   1      36.890  20.777  25.030  1.00  0.00     0.023 C 
ENDROOT
BRANCH   1   2
ATOM      2  C   UNL A   1      38.084  19.842  24.882  1.00  0.00     0.023 C 
BRANCH   2   3
ATOM      3  C   UNL A   1      39.269  20.166  25.779  1.00  0.00     0.116 C 
BRANCH   3   4
ATOM      4  N   UNL A   1      40.245  19.090  25.879  1.00  0.00    -0.352 N 
ATOM      5  O   UNL A   1      42.307  18.191  26.130  1.00  0.00    -0.269 OA
ATOM      6  C   UNL A   1      41.590  19.185  26.148  1.00  0.00     0.251 C 
ATOM      7  H   UNL A   1      39.898  18.180  25.737  1.00  0.00     0.163 HD
BRANCH   6   8
ATOM      8  C   UNL A   1      42.164  20.517  26.411  1.00  0.00     0.039 A 
ATOM      9  C   UNL A   1      42.305  20.975  27.723  1.00  0.00     0.014 A 
ATOM     10  C   UNL A   1      42.480  21.341  25.328  1.00  0.00     0.014 A 
ATOM     11  C   UNL A   1      42.612  22.310  27.951  1.00  0.00     0.010 A 
ATOM     12  C   UNL A   1      42.868  22.659  25.563  1.00  0.00     0.010 A 
ATOM     13  C   UNL A   1      42.898  23.163  26.873  1.00  0.00    -0.014 A 
BRANCH  13  14
ATOM     14  C   UNL A   1      43.258  24.575  27.130  1.00  0.00     0.031 A 
ATOM     15  C   UNL A   1      44.642  25.080  26.845  1.00  0.00     0.074 A 
ATOM     16  C   UNL A   1      42.320  25.400  27.629  1.00  0.00     0.049 A 
ATOM     17  N   UNL A   1      45.158  26.257  27.093  1.00  0.00    -0.248 NA
ATOM     18  C   UNL A   1      45.573  24.139  26.204  1.00  0.00     0.031 C 
ATOM     19  C   UNL A   1      40.940  25.016  27.933  1.00  0.00     0.029 A 
ATOM     20  N   UNL A   1      42.380  26.726  27.967  1.00  0.00    -0.354 N 
ATOM     21  C   UNL A   1      46.480  26.187  26.674  1.00  0.00     0.074 A 
ATOM     22  C   UNL A   1      46.690  24.851  26.160  1.00  0.00     0.031 C 
ATOM     23  C   UNL A   1      40.278  26.086  28.392  1.00  0.00     0.029 A 
ATOM     24  C   UNL A   1      41.203  27.210  28.478  1.00  0.00     0.049 A 
ATOM     25  H   UNL A   1      43.189  27.276  27.854  1.00  0.00     0.167 HD
ATOM     26  C   UNL A   1      47.427  27.156  26.719  1.00  0.00     0.037 A 
ATOM     27  C   UNL A   1      40.908  28.417  28.994  1.00  0.00     0.037 A 
ATOM     28  C   UNL A   1      47.196  28.491  27.208  1.00  0.00     0.049 A 
ATOM     29  C   UNL A   1      41.978  29.467  29.044  1.00  0.00     0.074 A 
ATOM     30  C   UNL A   1      48.078  29.556  27.267  1.00  0.00     0.029 A 
ATOM     31  N   UNL A   1      45.989  28.944  27.724  1.00  0.00    -0.354 N 
ATOM     32  N   UNL A   1      43.224  29.392  28.647  1.00  0.00    -0.248 NA
ATOM     33  C   UNL A   1      41.603  30.765  29.619  1.00  0.00     0.031 C 
ATOM     34  C   UNL A   1      47.416  30.642  27.851  1.00  0.00     0.029 A 
ATOM     35  C   UNL A   1      46.109  30.267  28.119  1.00  0.00     0.049 A 
ATOM     36  H   UNL A   1      45.169  28.404  27.799  1.00  0.00     0.167 HD
ATOM     37  C   UNL A   1      43.783  30.632  28.911  1.00  0.00     0.074 A 
ATOM     38  C   UNL A   1      42.734  31.447  29.492  1.00  0.00     0.031 C 
ATOM     39  C   UNL A   1      45.050  31.057  28.692  1.00  0.00     0.037 A 
BRANCH  26  40
ATOM     40  C   UNL A   1      48.809  26.800  26.255  1.00  0.00     0.064 A 
ATOM     41  C   UNL A   1      49.747  26.205  27.111  1.00  0.00     0.173 A 
ATOM     42  C   UNL A   1      49.189  27.030  24.923  1.00  0.00     0.173 A 
ATOM     43  F   UNL A   1      49.439  25.976  28.396  1.00  0.00    -0.203 F 
ATOM     44  C   UNL A   1      51.022  25.874  26.657  1.00  0.00     0.198 A 
ATOM     45  C   UNL A   1      50.455  26.675  24.468  1.00  0.00     0.198 A 
ATOM     46  F   UNL A   1      48.328  27.593  24.063  1.00  0.00    -0.203 F 
ATOM     47  F   UNL A   1      51.916  25.344  27.504  1.00  0.00    -0.200 F 
ATOM     48  C   UNL A   1      51.373  26.104  25.335  1.00  0.00     0.200 A 
ATOM     49  F   UNL A   1      50.790  26.890  23.187  1.00  0.00    -0.200 F 
ATOM     50  F   UNL A   1      52.599  25.782  24.900  1.00  0.00    -0.200 F 
ENDBRANCH  26  40
BRANCH  27  51
ATOM     51  C   UNL A   1      39.541  28.665  29.509  1.00  0.00     0.064 A 
ATOM     52  C   UNL A   1      39.217  28.406  30.846  1.00  0.00     0.173 A 
ATOM     53  C   UNL A   1      38.554  29.238  28.693  1.00  0.00     0.173 A 
ATOM     54  F   UNL A   1      40.125  27.846  31.658  1.00  0.00    -0.203 F 
ATOM     55  C   UNL A   1      37.954  28.712  31.350  1.00  0.00     0.198 A 
ATOM     56  C   UNL A   1      37.302  29.567  29.203  1.00  0.00     0.198 A 
ATOM     57  F   UNL A   1      38.823  29.516  27.408  1.00  0.00    -0.203 F 
ATOM     58  F   UNL A   1      37.662  28.440  32.629  1.00  0.00    -0.200 F 
ATOM     59  C   UNL A   1      37.003  29.302  30.532  1.00  0.00     0.200 A 
ATOM     60  F   UNL A   1      36.391  30.156  28.415  1.00  0.00    -0.200 F 
ATOM     61  F   UNL A   1      35.797  29.618  31.023  1.00  0.00    -0.200 F 
ENDBRANCH  27  51
BRANCH  39  62
ATOM     62  C   UNL A   1      45.363  32.476  29.058  1.00  0.00     0.064 A 
ATOM     63  C   UNL A   1      45.897  32.807  30.311  1.00  0.00     0.173 A 
ATOM     64  C   UNL A   1      45.166  33.508  28.129  1.00  0.00     0.173 A 
ATOM     65  F   UNL A   1      46.086  31.856  31.238  1.00  0.00    -0.203 F 
ATOM     66  C   UNL A   1      46.207  34.127  30.627  1.00  0.00     0.198 A 
ATOM     67  C   UNL A   1      45.498  34.821  28.440  1.00  0.00     0.198 A 
ATOM     68  F   UNL A   1      44.660  33.236  26.915  1.00  0.00    -0.203 F 
ATOM     69  F   UNL A   1      46.683  34.430  31.843  1.00  0.00    -0.200 F 
ATOM     70  C   UNL A   1      46.013  35.132  29.690  1.00  0.00     0.200 A 
ATOM     71  F   UNL A   1      45.317  35.790  27.530  1.00  0.00    -0.200 F 
ATOM     72  F   UNL A   1      46.318  36.401  29.993  1.00  0.00    -0.200 F 
ENDBRANCH  39  62
ENDBRANCH  13  14
ENDBRANCH   6   8
ENDBRANCH   3   4
ENDBRANCH   2   3
ENDBRANCH   1   2
BRANCH   1  73
ATOM     73  C   UNL A   1      37.140  22.223  24.600  1.00  0.00     0.116 C 
BRANCH  73  74
ATOM     74  N   UNL A   1      36.218  22.617  23.561  1.00  0.00    -0.356 N 
ATOM     75  C   UNL A   1      34.985  23.169  23.586  1.00  0.00     0.227 C 
ATOM     76  H   UNL A   1      36.556  22.449  22.652  1.00  0.00     0.163 HD
ATOM     77  O   UNL A   1      34.386  23.153  22.503  1.00  0.00    -0.275 OA
BRANCH  75  78
ATOM     78  C   UNL A   1      34.283  23.740  24.803  1.00  0.00     0.127 C 
ATOM     79  C   UNL A   1      32.782  23.416  25.131  1.00  0.00     0.127 C 
ATOM     80  C   UNL A   1      34.359  25.259  24.978  1.00  0.00     0.155 C 
ATOM     81  C   UNL A   1      32.307  24.820  25.561  1.00  0.00     0.155 C 
ATOM     82  C   UNL A   1      33.484  26.034  24.047  1.00  0.00     0.004 C 
ATOM     83  O   UNL A   1      33.518  25.363  26.165  1.00  0.00    -0.365 OA
ATOM     84  C   UNL A   1      32.220  25.738  24.377  1.00  0.00     0.004 C 
BRANCH  79  85
ATOM     85  C   UNL A   1      32.758  22.372  26.245  1.00  0.00     0.231 C 
ATOM     86  O   UNL A   1      32.965  22.710  27.416  1.00  0.00    -0.274 OA
ATOM     87  N   UNL A   1      32.510  21.054  26.039  1.00  0.00    -0.326 N 
ATOM     88  H   UNL A   1      32.130  20.602  26.827  1.00  0.00     0.169 HD
BRANCH  87  89
ATOM     89  C   UNL A   1      32.679  20.200  24.944  1.00  0.00     0.041 A 
ATOM     90  C   UNL A   1      32.132  20.622  23.727  1.00  0.00     0.026 A 
ATOM     91  C   UNL A   1      33.273  18.940  25.034  1.00  0.00     0.039 A 
ATOM     92  C   UNL A   1      32.219  19.817  22.593  1.00  0.00     0.003 A 
ATOM     93  C   UNL A   1      33.333  18.104  23.902  1.00  0.00     0.058 A 
ATOM     94  C   UNL A   1      32.814  18.562  22.680  1.00  0.00     0.013 A 
BRANCH  93  95
ATOM     95  C   UNL A   1      33.902  16.709  23.986  1.00  0.00     0.416 C 
ATOM     96  F   UNL A   1      33.009  15.816  24.496  1.00  0.00    -0.166 F 
ATOM     97  F   UNL A   1      34.269  16.220  22.770  1.00  0.00    -0.166 F 
ATOM     98  F   UNL A   1      35.010  16.624  24.774  1.00  0.00    -0.166 F 
ENDBRANCH  93  95
ENDBRANCH  87  89
ENDBRANCH  79  85
ENDBRANCH  75  78
ENDBRANCH  73  74
ENDBRANCH   1  73
TORSDOF 14
ENDMDL
