MODEL 1
REMARK VINA RESULT:     -10.9      0.000      0.000
REMARK SMILES Cc1nnc(SCCC(=O)NCCCCNC(=O)c2ccc(-c3c4nc(c(-c5c(F)c(F)c(F)c(F)c5F)c5ccc([nH]5)c(-c5c(F)c(F)c(F)c(F)c5F)c5nc(c(-c6c(F)c(F)c(F)c(F)c6F)c6ccc3[nH]6)C=C5)C=C4)cc2)s1
REMARK SMILES IDX 13 1 12 2 11 3 9 4 10 5 8 7 7 8 6 9 5 10 1 11 2 12 3 13
REMARK SMILES IDX 82 14 4 15 14 16 15 17 16 18 17 19 18 21 19 22 20 23 81 24
REMARK SMILES IDX 21 25 80 26 22 27 23 28 24 29 74 30 25 31 79 32 73 33 75 34
REMARK SMILES IDX 26 35 78 36 72 37 71 38 27 40 59 41 39 42 58 43 40 44 43 45
REMARK SMILES IDX 57 46 76 47 41 48 42 49 56 51 77 52 44 53 28 54 29 55 37 56
REMARK SMILES IDX 30 57 31 58 35 59 38 60 32 61 33 62 36 63 34 64 60 65 61 66
REMARK SMILES IDX 69 67 62 68 63 69 67 70 70 71 64 72 65 73 68 74 66 75 45 76
REMARK SMILES IDX 46 77 54 78 47 79 48 80 52 81 55 82 49 83 50 84 53 85 51 86
REMARK H PARENT 11 6 16 20 75 39 43 50
REMARK Flexibility Score: inf
ROOT
ATOM      1  C   UNL A   1      31.309  30.952  25.760  1.00  0.00     0.023 C 
ENDROOT
BRANCH   1   2
ATOM      2  C   UNL A   1      32.522  30.124  26.183  1.00  0.00     0.116 C 
BRANCH   2   3
ATOM      3  N   UNL A   1      33.385  29.742  25.081  1.00  0.00    -0.356 N 
ATOM      4  C   UNL A   1      33.260  28.732  24.176  1.00  0.00     0.220 C 
ATOM      5  O   UNL A   1      33.995  28.733  23.188  1.00  0.00    -0.275 OA
ATOM      6  H   UNL A   1      34.189  30.301  24.972  1.00  0.00     0.163 HD
BRANCH   4   7
ATOM      7  C   UNL A   1      32.207  27.666  24.365  1.00  0.00     0.111 C 
BRANCH   7   8
ATOM      8  C   UNL A   1      31.351  27.470  23.115  1.00  0.00     0.087 C 
BRANCH   8   9
ATOM      9  S   UNL A   1      29.585  27.162  23.466  1.00  0.00    -0.093 SA
BRANCH   9  10
ATOM     10  C   UNL A   1      28.831  28.653  22.954  1.00  0.00     0.174 A 
ATOM     11  C   UNL A   1      28.261  32.317  21.992  1.00  0.00     0.081 C 
ATOM     12  C   UNL A   1      28.271  30.869  22.319  1.00  0.00     0.115 A 
ATOM     13  N   UNL A   1      27.237  30.216  22.802  1.00  0.00    -0.143 NA
ATOM     14  S   UNL A   1      29.697  29.918  22.179  1.00  0.00    -0.091 S 
ATOM     15  N   UNL A   1      27.562  28.922  23.154  1.00  0.00    -0.132 NA
ENDBRANCH   9  10
ENDBRANCH   8   9
ENDBRANCH   7   8
ENDBRANCH   4   7
ENDBRANCH   2   3
ENDBRANCH   1   2
BRANCH   1  16
ATOM     16  C   UNL A   1      31.180  32.298  26.474  1.00  0.00     0.023 C 
BRANCH  16  17
ATOM     17  C   UNL A   1      32.437  32.786  27.181  1.00  0.00     0.116 C 
BRANCH  17  18
ATOM     18  N   UNL A   1      32.331  34.177  27.585  1.00  0.00    -0.352 N 
ATOM     19  C   UNL A   1      32.972  34.877  28.579  1.00  0.00     0.251 C 
ATOM     20  H   UNL A   1      31.692  34.709  27.058  1.00  0.00     0.163 HD
ATOM     21  O   UNL A   1      32.563  35.998  28.874  1.00  0.00    -0.269 OA
BRANCH  19  22
ATOM     22  C   UNL A   1      34.135  34.315  29.312  1.00  0.00     0.039 A 
ATOM     23  C   UNL A   1      35.420  34.549  28.805  1.00  0.00     0.014 A 
ATOM     24  C   UNL A   1      33.987  33.496  30.432  1.00  0.00     0.014 A 
ATOM     25  C   UNL A   1      36.542  33.995  29.434  1.00  0.00     0.010 A 
ATOM     26  C   UNL A   1      35.108  33.022  31.114  1.00  0.00     0.010 A 
ATOM     27  C   UNL A   1      36.397  33.240  30.607  1.00  0.00    -0.014 A 
BRANCH  27  28
ATOM     28  C   UNL A   1      37.566  32.613  31.281  1.00  0.00     0.031 A 
ATOM     29  C   UNL A   1      38.321  31.502  30.599  1.00  0.00     0.074 A 
ATOM     30  C   UNL A   1      37.922  32.997  32.523  1.00  0.00     0.049 A 
ATOM     31  N   UNL A   1      39.298  30.758  31.053  1.00  0.00    -0.248 NA
ATOM     32  C   UNL A   1      37.896  31.158  29.232  1.00  0.00     0.031 C 
ATOM     33  C   UNL A   1      37.256  34.033  33.312  1.00  0.00     0.029 A 
ATOM     34  N   UNL A   1      38.928  32.548  33.344  1.00  0.00    -0.354 N 
ATOM     35  C   UNL A   1      39.574  29.838  30.049  1.00  0.00     0.074 A 
ATOM     36  C   UNL A   1      38.632  30.088  28.979  1.00  0.00     0.031 C 
ATOM     37  C   UNL A   1      37.888  34.161  34.490  1.00  0.00     0.029 A 
ATOM     38  C   UNL A   1      38.977  33.191  34.556  1.00  0.00     0.049 A 
ATOM     39  H   UNL A   1      39.555  31.834  33.086  1.00  0.00     0.167 HD
ATOM     40  C   UNL A   1      40.538  28.887  30.009  1.00  0.00     0.037 A 
ATOM     41  C   UNL A   1      39.805  33.015  35.604  1.00  0.00     0.037 A 
ATOM     42  C   UNL A   1      41.514  28.679  31.045  1.00  0.00     0.049 A 
ATOM     43  C   UNL A   1      40.887  31.973  35.525  1.00  0.00     0.074 A 
ATOM     44  C   UNL A   1      42.581  27.797  31.062  1.00  0.00     0.029 A 
ATOM     45  N   UNL A   1      41.546  29.370  32.247  1.00  0.00    -0.354 N 
ATOM     46  N   UNL A   1      41.169  31.146  34.549  1.00  0.00    -0.248 NA
ATOM     47  C   UNL A   1      41.768  31.844  36.694  1.00  0.00     0.031 C 
ATOM     48  C   UNL A   1      43.239  27.931  32.289  1.00  0.00     0.029 A 
ATOM     49  C   UNL A   1      42.605  28.924  33.020  1.00  0.00     0.049 A 
ATOM     50  H   UNL A   1      40.910  30.073  32.511  1.00  0.00     0.167 HD
ATOM     51  C   UNL A   1      42.272  30.417  34.972  1.00  0.00     0.074 A 
ATOM     52  C   UNL A   1      42.615  30.907  36.291  1.00  0.00     0.031 C 
ATOM     53  C   UNL A   1      42.938  29.428  34.327  1.00  0.00     0.037 A 
BRANCH  40  54
ATOM     54  C   UNL A   1      40.586  27.999  28.798  1.00  0.00     0.064 A 
ATOM     55  C   UNL A   1      39.868  26.795  28.735  1.00  0.00     0.173 A 
ATOM     56  C   UNL A   1      41.347  28.368  27.678  1.00  0.00     0.173 A 
ATOM     57  F   UNL A   1      39.136  26.392  29.784  1.00  0.00    -0.203 F 
ATOM     58  C   UNL A   1      39.939  25.976  27.612  1.00  0.00     0.198 A 
ATOM     59  C   UNL A   1      41.391  27.561  26.544  1.00  0.00     0.198 A 
ATOM     60  F   UNL A   1      42.047  29.512  27.682  1.00  0.00    -0.203 F 
ATOM     61  F   UNL A   1      39.290  24.804  27.598  1.00  0.00    -0.200 F 
ATOM     62  C   UNL A   1      40.695  26.361  26.516  1.00  0.00     0.200 A 
ATOM     63  F   UNL A   1      42.113  27.940  25.480  1.00  0.00    -0.200 F 
ATOM     64  F   UNL A   1      40.762  25.572  25.435  1.00  0.00    -0.200 F 
ENDBRANCH  40  54
BRANCH  41  65
ATOM     65  C   UNL A   1      39.663  33.875  36.806  1.00  0.00     0.064 A 
ATOM     66  C   UNL A   1      40.317  35.113  36.880  1.00  0.00     0.173 A 
ATOM     67  C   UNL A   1      38.867  33.490  37.894  1.00  0.00     0.173 A 
ATOM     68  F   UNL A   1      41.107  35.513  35.872  1.00  0.00    -0.203 F 
ATOM     69  C   UNL A   1      40.190  35.928  38.002  1.00  0.00     0.198 A 
ATOM     70  C   UNL A   1      38.720  34.317  39.006  1.00  0.00     0.198 A 
ATOM     71  F   UNL A   1      38.216  32.317  37.868  1.00  0.00    -0.203 F 
ATOM     72  F   UNL A   1      40.851  37.091  38.062  1.00  0.00    -0.200 F 
ATOM     73  C   UNL A   1      39.385  35.533  39.061  1.00  0.00     0.200 A 
ATOM     74  F   UNL A   1      37.932  33.938  40.021  1.00  0.00    -0.200 F 
ATOM     75  F   UNL A   1      39.255  36.322  40.136  1.00  0.00    -0.200 F 
ENDBRANCH  41  65
BRANCH  53  76
ATOM     76  C   UNL A   1      44.125  28.831  35.024  1.00  0.00     0.064 A 
ATOM     77  C   UNL A   1      44.002  27.699  35.841  1.00  0.00     0.173 A 
ATOM     78  C   UNL A   1      45.404  29.374  34.836  1.00  0.00     0.173 A 
ATOM     79  F   UNL A   1      42.796  27.154  36.063  1.00  0.00    -0.203 F 
ATOM     80  C   UNL A   1      45.116  27.143  36.462  1.00  0.00     0.198 A 
ATOM     81  C   UNL A   1      46.520  28.800  35.439  1.00  0.00     0.198 A 
ATOM     82  F   UNL A   1      45.574  30.454  34.058  1.00  0.00    -0.203 F 
ATOM     83  F   UNL A   1      44.972  26.084  37.273  1.00  0.00    -0.200 F 
ATOM     84  C   UNL A   1      46.374  27.689  36.256  1.00  0.00     0.200 A 
ATOM     85  F   UNL A   1      47.736  29.322  35.229  1.00  0.00    -0.200 F 
ATOM     86  F   UNL A   1      47.448  27.148  36.850  1.00  0.00    -0.200 F 
ENDBRANCH  53  76
ENDBRANCH  27  28
ENDBRANCH  19  22
ENDBRANCH  17  18
ENDBRANCH  16  17
ENDBRANCH   1  16
TORSDOF 14
ENDMDL
MODEL 2
REMARK VINA RESULT:     -10.9      1.685      2.757
REMARK SMILES Cc1nnc(SCCC(=O)NCCCCNC(=O)c2ccc(-c3c4nc(c(-c5c(F)c(F)c(F)c(F)c5F)c5ccc([nH]5)c(-c5c(F)c(F)c(F)c(F)c5F)c5nc(c(-c6c(F)c(F)c(F)c(F)c6F)c6ccc3[nH]6)C=C5)C=C4)cc2)s1
REMARK SMILES IDX 13 1 12 2 11 3 9 4 10 5 8 7 7 8 6 9 5 10 1 11 2 12 3 13
REMARK SMILES IDX 82 14 4 15 14 16 15 17 16 18 17 19 18 21 19 22 20 23 81 24
REMARK SMILES IDX 21 25 80 26 22 27 23 28 24 29 74 30 25 31 79 32 73 33 75 34
REMARK SMILES IDX 26 35 78 36 72 37 71 38 27 40 59 41 39 42 58 43 40 44 43 45
REMARK SMILES IDX 57 46 76 47 41 48 42 49 56 51 77 52 44 53 28 54 29 55 37 56
REMARK SMILES IDX 30 57 31 58 35 59 38 60 32 61 33 62 36 63 34 64 60 65 61 66
REMARK SMILES IDX 69 67 62 68 63 69 67 70 70 71 64 72 65 73 68 74 66 75 45 76
REMARK SMILES IDX 46 77 54 78 47 79 48 80 52 81 55 82 49 83 50 84 53 85 51 86
REMARK H PARENT 11 6 16 20 75 39 43 50
REMARK Flexibility Score: inf
ROOT
ATOM      1  C   UNL A   1      31.475  30.847  26.067  1.00  0.00     0.023 C 
ENDROOT
BRANCH   1   2
ATOM      2  C   UNL A   1      31.695  29.756  27.115  1.00  0.00     0.116 C 
BRANCH   2   3
ATOM      3  N   UNL A   1      33.080  29.601  27.519  1.00  0.00    -0.356 N 
ATOM      4  C   UNL A   1      34.076  28.851  26.970  1.00  0.00     0.220 C 
ATOM      5  O   UNL A   1      35.233  29.046  27.344  1.00  0.00    -0.275 OA
ATOM      6  H   UNL A   1      33.340  30.118  28.315  1.00  0.00     0.163 HD
BRANCH   4   7
ATOM      7  C   UNL A   1      33.763  27.839  25.894  1.00  0.00     0.111 C 
BRANCH   7   8
ATOM      8  C   UNL A   1      34.046  28.379  24.492  1.00  0.00     0.087 C 
BRANCH   8   9
ATOM      9  S   UNL A   1      32.597  28.350  23.380  1.00  0.00    -0.093 SA
BRANCH   9  10
ATOM     10  C   UNL A   1      32.724  26.775  22.634  1.00  0.00     0.174 A 
ATOM     11  C   UNL A   1      33.075  22.995  22.114  1.00  0.00     0.081 C 
ATOM     12  C   UNL A   1      32.926  24.472  22.099  1.00  0.00     0.115 A 
ATOM     13  N   UNL A   1      33.366  25.247  21.132  1.00  0.00    -0.143 NA
ATOM     14  S   UNL A   1      32.234  25.328  23.420  1.00  0.00    -0.091 S 
ATOM     15  N   UNL A   1      33.231  26.585  21.439  1.00  0.00    -0.132 NA
ENDBRANCH   9  10
ENDBRANCH   8   9
ENDBRANCH   7   8
ENDBRANCH   4   7
ENDBRANCH   2   3
ENDBRANCH   1   2
BRANCH   1  16
ATOM     16  C   UNL A   1      31.364  32.261  26.638  1.00  0.00     0.023 C 
BRANCH  16  17
ATOM     17  C   UNL A   1      32.675  32.887  27.094  1.00  0.00     0.116 C 
BRANCH  17  18
ATOM     18  N   UNL A   1      32.493  34.241  27.585  1.00  0.00    -0.352 N 
ATOM     19  C   UNL A   1      33.046  34.891  28.662  1.00  0.00     0.251 C 
ATOM     20  H   UNL A   1      31.866  34.787  27.056  1.00  0.00     0.163 HD
ATOM     21  O   UNL A   1      32.578  35.974  29.007  1.00  0.00    -0.269 OA
BRANCH  19  22
ATOM     22  C   UNL A   1      34.184  34.319  29.426  1.00  0.00     0.039 A 
ATOM     23  C   UNL A   1      35.486  34.557  28.963  1.00  0.00     0.014 A 
ATOM     24  C   UNL A   1      33.999  33.486  30.530  1.00  0.00     0.014 A 
ATOM     25  C   UNL A   1      36.585  33.993  29.621  1.00  0.00     0.010 A 
ATOM     26  C   UNL A   1      35.096  33.003  31.243  1.00  0.00     0.010 A 
ATOM     27  C   UNL A   1      36.402  33.224  30.781  1.00  0.00    -0.014 A 
BRANCH  27  28
ATOM     28  C   UNL A   1      37.548  32.588  31.485  1.00  0.00     0.031 A 
ATOM     29  C   UNL A   1      38.263  31.421  30.855  1.00  0.00     0.074 A 
ATOM     30  C   UNL A   1      37.916  33.015  32.708  1.00  0.00     0.049 A 
ATOM     31  N   UNL A   1      39.213  30.664  31.345  1.00  0.00    -0.248 NA
ATOM     32  C   UNL A   1      37.826  31.030  29.505  1.00  0.00     0.031 C 
ATOM     33  C   UNL A   1      37.288  34.109  33.448  1.00  0.00     0.029 A 
ATOM     34  N   UNL A   1      38.905  32.569  33.551  1.00  0.00    -0.354 N 
ATOM     35  C   UNL A   1      39.456  29.690  30.384  1.00  0.00     0.074 A 
ATOM     36  C   UNL A   1      38.524  29.924  29.302  1.00  0.00     0.031 C 
ATOM     37  C   UNL A   1      37.923  34.269  34.621  1.00  0.00     0.029 A 
ATOM     38  C   UNL A   1      38.977  33.264  34.733  1.00  0.00     0.049 A 
ATOM     39  H   UNL A   1      39.506  31.822  33.327  1.00  0.00     0.167 HD
ATOM     40  C   UNL A   1      40.385  28.705  30.389  1.00  0.00     0.037 A 
ATOM     41  C   UNL A   1      39.798  33.107  35.789  1.00  0.00     0.037 A 
ATOM     42  C   UNL A   1      41.353  28.510  31.436  1.00  0.00     0.049 A 
ATOM     43  C   UNL A   1      40.842  32.024  35.759  1.00  0.00     0.074 A 
ATOM     44  C   UNL A   1      42.388  27.593  31.495  1.00  0.00     0.029 A 
ATOM     45  N   UNL A   1      41.409  29.253  32.605  1.00  0.00    -0.354 N 
ATOM     46  N   UNL A   1      41.095  31.145  34.823  1.00  0.00    -0.248 NA
ATOM     47  C   UNL A   1      41.718  31.918  36.935  1.00  0.00     0.031 C 
ATOM     48  C   UNL A   1      43.050  27.759  32.716  1.00  0.00     0.029 A 
ATOM     49  C   UNL A   1      42.452  28.806  33.400  1.00  0.00     0.049 A 
ATOM     50  H   UNL A   1      40.798  29.990  32.836  1.00  0.00     0.167 HD
ATOM     51  C   UNL A   1      42.171  30.397  35.281  1.00  0.00     0.074 A 
ATOM     52  C   UNL A   1      42.531  30.934  36.577  1.00  0.00     0.031 C 
ATOM     53  C   UNL A   1      42.801  29.357  34.683  1.00  0.00     0.037 A 
BRANCH  40  54
ATOM     54  C   UNL A   1      40.403  27.762  29.220  1.00  0.00     0.064 A 
ATOM     55  C   UNL A   1      41.245  27.969  28.117  1.00  0.00     0.173 A 
ATOM     56  C   UNL A   1      39.578  26.626  29.212  1.00  0.00     0.173 A 
ATOM     57  F   UNL A   1      42.043  29.046  28.070  1.00  0.00    -0.203 F 
ATOM     58  C   UNL A   1      41.235  27.095  27.033  1.00  0.00     0.198 A 
ATOM     59  C   UNL A   1      39.594  25.737  28.139  1.00  0.00     0.198 A 
ATOM     60  F   UNL A   1      38.759  26.377  30.243  1.00  0.00    -0.203 F 
ATOM     61  F   UNL A   1      42.006  27.344  25.966  1.00  0.00    -0.200 F 
ATOM     62  C   UNL A   1      40.414  25.978  27.048  1.00  0.00     0.200 A 
ATOM     63  F   UNL A   1      38.808  24.652  28.160  1.00  0.00    -0.200 F 
ATOM     64  F   UNL A   1      40.405  25.136  26.004  1.00  0.00    -0.200 F 
ENDBRANCH  40  54
BRANCH  41  65
ATOM     65  C   UNL A   1      39.686  34.026  36.950  1.00  0.00     0.064 A 
ATOM     66  C   UNL A   1      40.357  35.256  36.954  1.00  0.00     0.173 A 
ATOM     67  C   UNL A   1      38.903  33.704  38.067  1.00  0.00     0.173 A 
ATOM     68  F   UNL A   1      41.136  35.598  35.917  1.00  0.00    -0.203 F 
ATOM     69  C   UNL A   1      40.258  36.126  38.038  1.00  0.00     0.198 A 
ATOM     70  C   UNL A   1      38.784  34.585  39.140  1.00  0.00     0.198 A 
ATOM     71  F   UNL A   1      38.237  32.540  38.108  1.00  0.00    -0.203 F 
ATOM     72  F   UNL A   1      40.935  37.282  38.031  1.00  0.00    -0.200 F 
ATOM     73  C   UNL A   1      39.466  35.794  39.127  1.00  0.00     0.200 A 
ATOM     74  F   UNL A   1      38.007  34.266  40.185  1.00  0.00    -0.200 F 
ATOM     75  F   UNL A   1      39.363  36.634  40.164  1.00  0.00    -0.200 F 
ENDBRANCH  41  65
BRANCH  53  76
ATOM     76  C   UNL A   1      43.966  28.751  35.409  1.00  0.00     0.064 A 
ATOM     77  C   UNL A   1      45.275  29.207  35.202  1.00  0.00     0.173 A 
ATOM     78  C   UNL A   1      43.763  27.733  36.352  1.00  0.00     0.173 A 
ATOM     79  F   UNL A   1      45.521  30.169  34.300  1.00  0.00    -0.203 F 
ATOM     80  C   UNL A   1      46.344  28.651  35.900  1.00  0.00     0.198 A 
ATOM     81  C   UNL A   1      44.831  27.196  37.066  1.00  0.00     0.198 A 
ATOM     82  F   UNL A   1      42.528  27.266  36.589  1.00  0.00    -0.203 F 
ATOM     83  F   UNL A   1      47.593  29.074  35.659  1.00  0.00    -0.200 F 
ATOM     84  C   UNL A   1      46.120  27.651  36.835  1.00  0.00     0.200 A 
ATOM     85  F   UNL A   1      44.612  26.239  37.977  1.00  0.00    -0.200 F 
ATOM     86  F   UNL A   1      47.150  27.121  37.511  1.00  0.00    -0.200 F 
ENDBRANCH  53  76
ENDBRANCH  27  28
ENDBRANCH  19  22
ENDBRANCH  17  18
ENDBRANCH  16  17
ENDBRANCH   1  16
TORSDOF 14
ENDMDL
MODEL 3
REMARK VINA RESULT:     -10.7      6.652     11.736
REMARK SMILES Cc1nnc(SCCC(=O)NCCCCNC(=O)c2ccc(-c3c4nc(c(-c5c(F)c(F)c(F)c(F)c5F)c5ccc([nH]5)c(-c5c(F)c(F)c(F)c(F)c5F)c5nc(c(-c6c(F)c(F)c(F)c(F)c6F)c6ccc3[nH]6)C=C5)C=C4)cc2)s1
REMARK SMILES IDX 13 1 12 2 11 3 9 4 10 5 8 7 7 8 6 9 5 10 1 11 2 12 3 13
REMARK SMILES IDX 82 14 4 15 14 16 15 17 16 18 17 19 18 21 19 22 20 23 81 24
REMARK SMILES IDX 21 25 80 26 22 27 23 28 24 29 74 30 25 31 79 32 73 33 75 34
REMARK SMILES IDX 26 35 78 36 72 37 71 38 27 40 59 41 39 42 58 43 40 44 43 45
REMARK SMILES IDX 57 46 76 47 41 48 42 49 56 51 77 52 44 53 28 54 29 55 37 56
REMARK SMILES IDX 30 57 31 58 35 59 38 60 32 61 33 62 36 63 34 64 60 65 61 66
REMARK SMILES IDX 69 67 62 68 63 69 67 70 70 71 64 72 65 73 68 74 66 75 45 76
REMARK SMILES IDX 46 77 54 78 47 79 48 80 52 81 55 82 49 83 50 84 53 85 51 86
REMARK H PARENT 11 6 16 20 75 39 43 50
REMARK Flexibility Score: inf
ROOT
ATOM      1  C   UNL A   1      36.505  20.356  24.991  1.00  0.00     0.023 C 
ENDROOT
BRANCH   1   2
ATOM      2  C   UNL A   1      36.673  21.803  24.530  1.00  0.00     0.116 C 
BRANCH   2   3
ATOM      3  N   UNL A   1      35.935  22.763  25.329  1.00  0.00    -0.356 N 
ATOM      4  C   UNL A   1      34.641  23.175  25.234  1.00  0.00     0.220 C 
ATOM      5  O   UNL A   1      34.162  23.831  26.159  1.00  0.00    -0.275 OA
ATOM      6  H   UNL A   1      36.453  23.185  26.053  1.00  0.00     0.163 HD
BRANCH   4   7
ATOM      7  C   UNL A   1      33.805  22.788  24.037  1.00  0.00     0.111 C 
BRANCH   7   8
ATOM      8  C   UNL A   1      32.697  21.799  24.400  1.00  0.00     0.087 C 
BRANCH   8   9
ATOM      9  S   UNL A   1      32.462  20.466  23.174  1.00  0.00    -0.093 SA
BRANCH   9  10
ATOM     10  C   UNL A   1      32.637  19.024  24.145  1.00  0.00     0.174 A 
ATOM     11  C   UNL A   1      32.774  15.359  25.253  1.00  0.00     0.081 C 
ATOM     12  C   UNL A   1      32.772  16.827  25.030  1.00  0.00     0.115 A 
ATOM     13  N   UNL A   1      32.446  17.711  25.947  1.00  0.00    -0.143 NA
ATOM     14  S   UNL A   1      33.114  17.510  23.489  1.00  0.00    -0.091 S 
ATOM     15  N   UNL A   1      32.386  18.990  25.433  1.00  0.00    -0.132 NA
ENDBRANCH   9  10
ENDBRANCH   8   9
ENDBRANCH   7   8
ENDBRANCH   4   7
ENDBRANCH   2   3
ENDBRANCH   1   2
BRANCH   1  16
ATOM     16  C   UNL A   1      37.790  19.527  24.960  1.00  0.00     0.023 C 
BRANCH  16  17
ATOM     17  C   UNL A   1      38.976  20.132  25.699  1.00  0.00     0.116 C 
BRANCH  17  18
ATOM     18  N   UNL A   1      40.057  19.178  25.872  1.00  0.00    -0.352 N 
ATOM     19  C   UNL A   1      41.405  19.368  26.059  1.00  0.00     0.251 C 
ATOM     20  H   UNL A   1      39.776  18.234  25.853  1.00  0.00     0.163 HD
ATOM     21  O   UNL A   1      42.159  18.402  25.968  1.00  0.00    -0.269 OA
BRANCH  19  22
ATOM     22  C   UNL A   1      41.976  20.706  26.357  1.00  0.00     0.039 A 
ATOM     23  C   UNL A   1      42.274  21.023  27.690  1.00  0.00     0.014 A 
ATOM     24  C   UNL A   1      42.145  21.682  25.374  1.00  0.00     0.014 A 
ATOM     25  C   UNL A   1      42.764  22.291  28.023  1.00  0.00     0.010 A 
ATOM     26  C   UNL A   1      42.722  22.912  25.691  1.00  0.00     0.010 A 
ATOM     27  C   UNL A   1      43.011  23.243  27.022  1.00  0.00    -0.014 A 
BRANCH  27  28
ATOM     28  C   UNL A   1      43.504  24.609  27.349  1.00  0.00     0.031 A 
ATOM     29  C   UNL A   1      42.562  25.628  27.936  1.00  0.00     0.074 A 
ATOM     30  C   UNL A   1      44.775  24.957  27.072  1.00  0.00     0.049 A 
ATOM     31  N   UNL A   1      42.763  26.896  28.195  1.00  0.00    -0.248 NA
ATOM     32  C   UNL A   1      41.198  25.167  28.240  1.00  0.00     0.031 C 
ATOM     33  C   UNL A   1      45.781  24.082  26.471  1.00  0.00     0.029 A 
ATOM     34  N   UNL A   1      45.435  26.149  27.251  1.00  0.00    -0.354 N 
ATOM     35  C   UNL A   1      41.547  27.388  28.652  1.00  0.00     0.074 A 
ATOM     36  C   UNL A   1      40.601  26.295  28.592  1.00  0.00     0.031 C 
ATOM     37  C   UNL A   1      46.938  24.755  26.357  1.00  0.00     0.029 A 
ATOM     38  C   UNL A   1      46.745  26.120  26.839  1.00  0.00     0.049 A 
ATOM     39  H   UNL A   1      45.010  26.947  27.639  1.00  0.00     0.167 HD
ATOM     40  C   UNL A   1      41.248  28.630  29.102  1.00  0.00     0.037 A 
ATOM     41  C   UNL A   1      47.684  27.086  26.848  1.00  0.00     0.037 A 
ATOM     42  C   UNL A   1      42.202  29.700  29.220  1.00  0.00     0.049 A 
ATOM     43  C   UNL A   1      47.337  28.450  27.381  1.00  0.00     0.074 A 
ATOM     44  C   UNL A   1      42.018  30.969  29.742  1.00  0.00     0.029 A 
ATOM     45  N   UNL A   1      43.526  29.622  28.817  1.00  0.00    -0.354 N 
ATOM     46  N   UNL A   1      46.198  28.886  27.858  1.00  0.00    -0.248 NA
ATOM     47  C   UNL A   1      48.411  29.453  27.379  1.00  0.00     0.031 C 
ATOM     48  C   UNL A   1      43.222  31.670  29.623  1.00  0.00     0.029 A 
ATOM     49  C   UNL A   1      44.168  30.825  29.064  1.00  0.00     0.049 A 
ATOM     50  H   UNL A   1      43.949  28.829  28.415  1.00  0.00     0.167 HD
ATOM     51  C   UNL A   1      46.421  30.203  28.235  1.00  0.00     0.074 A 
ATOM     52  C   UNL A   1      47.809  30.492  27.942  1.00  0.00     0.031 C 
ATOM     53  C   UNL A   1      45.552  31.093  28.773  1.00  0.00     0.037 A 
BRANCH  40  54
ATOM     54  C   UNL A   1      39.826  28.897  29.507  1.00  0.00     0.064 A 
ATOM     55  C   UNL A   1      39.389  28.718  30.828  1.00  0.00     0.173 A 
ATOM     56  C   UNL A   1      38.894  29.356  28.564  1.00  0.00     0.173 A 
ATOM     57  F   UNL A   1      40.237  28.269  31.765  1.00  0.00    -0.203 F 
ATOM     58  C   UNL A   1      38.063  28.953  31.183  1.00  0.00     0.198 A 
ATOM     59  C   UNL A   1      37.576  29.619  28.929  1.00  0.00     0.198 A 
ATOM     60  F   UNL A   1      39.261  29.550  27.289  1.00  0.00    -0.203 F 
ATOM     61  F   UNL A   1      37.656  28.720  32.438  1.00  0.00    -0.200 F 
ATOM     62  C   UNL A   1      37.159  29.408  30.235  1.00  0.00     0.200 A 
ATOM     63  F   UNL A   1      36.707  30.071  28.015  1.00  0.00    -0.200 F 
ATOM     64  F   UNL A   1      35.884  29.635  30.577  1.00  0.00    -0.200 F 
ENDBRANCH  40  54
BRANCH  41  65
ATOM     65  C   UNL A   1      49.056  26.783  26.367  1.00  0.00     0.064 A 
ATOM     66  C   UNL A   1      49.403  26.986  25.024  1.00  0.00     0.173 A 
ATOM     67  C   UNL A   1      50.047  26.300  27.233  1.00  0.00     0.173 A 
ATOM     68  F   UNL A   1      48.481  27.427  24.154  1.00  0.00    -0.203 F 
ATOM     69  C   UNL A   1      50.687  26.707  24.563  1.00  0.00     0.198 A 
ATOM     70  C   UNL A   1      51.338  26.044  26.776  1.00  0.00     0.198 A 
ATOM     71  F   UNL A   1      49.765  26.095  28.528  1.00  0.00    -0.203 F 
ATOM     72  F   UNL A   1      50.984  26.879  23.268  1.00  0.00    -0.200 F 
ATOM     73  C   UNL A   1      51.656  26.243  25.441  1.00  0.00     0.200 A 
ATOM     74  F   UNL A   1      52.274  25.608  27.630  1.00  0.00    -0.200 F 
ATOM     75  F   UNL A   1      52.893  25.983  24.999  1.00  0.00    -0.200 F 
ENDBRANCH  41  65
BRANCH  53  76
ATOM     76  C   UNL A   1      46.085  32.454  29.111  1.00  0.00     0.064 A 
ATOM     77  C   UNL A   1      46.684  32.719  30.350  1.00  0.00     0.173 A 
ATOM     78  C   UNL A   1      46.033  33.491  28.168  1.00  0.00     0.173 A 
ATOM     79  F   UNL A   1      46.745  31.764  31.289  1.00  0.00    -0.203 F 
ATOM     80  C   UNL A   1      47.196  33.982  30.640  1.00  0.00     0.198 A 
ATOM     81  C   UNL A   1      46.567  34.745  28.452  1.00  0.00     0.198 A 
ATOM     82  F   UNL A   1      45.474  33.285  26.966  1.00  0.00    -0.203 F 
ATOM     83  F   UNL A   1      47.729  34.226  31.846  1.00  0.00    -0.200 F 
ATOM     84  C   UNL A   1      47.142  34.990  29.690  1.00  0.00     0.200 A 
ATOM     85  F   UNL A   1      46.525  35.714  27.529  1.00  0.00    -0.200 F 
ATOM     86  F   UNL A   1      47.641  36.203  29.969  1.00  0.00    -0.200 F 
ENDBRANCH  53  76
ENDBRANCH  27  28
ENDBRANCH  19  22
ENDBRANCH  17  18
ENDBRANCH  16  17
ENDBRANCH   1  16
TORSDOF 14
ENDMDL
