MODEL 1
REMARK VINA RESULT:     -12.0      0.000      0.000
REMARK SMILES Cc1ccc(N2C(=O)S/C(=C/c3cccc(O[C@H](C)C(=O)NCCCCNC(=O)c4ccc(-c5c6nc(c(-c7c(F)c(F)c(F)c(F)c7F)c7ccc([nH]7)c(-c7c(F)c(F)c(F)c(F)c7F)c7nc(c(-c8c(F)c(F)c(F)c(F)c8F)c8ccc5[nH]8)C=C7)C=C6)cc4)c3)C2=O)c(C)c1
REMARK SMILES IDX 23 1 22 2 20 3 21 4 18 6 19 7 17 8 16 9 12 10 13 11 93 12
REMARK SMILES IDX 14 13 15 14 11 15 6 16 7 17 94 18 8 19 9 20 10 21 95 22 5 23
REMARK SMILES IDX 1 24 2 25 3 26 98 27 4 28 96 29 97 30 24 31 25 32 26 33
REMARK SMILES IDX 27 34 28 35 29 37 30 38 31 39 92 40 32 41 91 42 33 43 34 44
REMARK SMILES IDX 35 45 85 46 36 47 90 48 84 49 86 50 37 51 89 52 83 53 82 54
REMARK SMILES IDX 38 56 70 57 50 58 69 59 51 60 54 61 68 62 87 63 52 64 53 65
REMARK SMILES IDX 67 67 88 68 55 69 39 70 40 71 48 72 41 73 42 74 46 75 49 76
REMARK SMILES IDX 43 77 44 78 47 79 45 80 71 81 72 82 80 83 73 84 74 85 78 86
REMARK SMILES IDX 81 87 75 88 76 89 79 90 77 91 56 92 57 93 65 94 58 95 59 96
REMARK SMILES IDX 63 97 66 98 60 99 61 100 64 101 62 102
REMARK H PARENT 22 5 27 36 86 55 54 66
REMARK Flexibility Score: inf
ROOT
ATOM      1  C   UNL A   1      40.326  25.034  26.806  1.00  0.00     0.116 C 
ENDROOT
BRANCH   1   2
ATOM      2  N   UNL A   1      40.679  23.820  27.516  1.00  0.00    -0.353 N 
ATOM      3  C   UNL A   1      40.206  22.558  27.341  1.00  0.00     0.260 C 
ATOM      4  O   UNL A   1      40.624  21.677  28.099  1.00  0.00    -0.271 OA
ATOM      5  H   UNL A   1      41.356  23.925  28.224  1.00  0.00     0.163 HD
BRANCH   3   6
ATOM      6  C   UNL A   1      39.190  22.233  26.225  1.00  0.00     0.258 C 
ATOM      7  C   UNL A   1      39.337  20.745  25.860  1.00  0.00     0.064 C 
BRANCH   6   8
ATOM      8  O   UNL A   1      37.799  22.482  26.368  1.00  0.00    -0.481 OA
BRANCH   8   9
ATOM      9  C   UNL A   1      36.953  22.540  25.301  1.00  0.00     0.121 A 
ATOM     10  C   UNL A   1      34.587  22.526  24.698  1.00  0.00    -0.021 A 
ATOM     11  C   UNL A   1      34.923  22.839  23.381  1.00  0.00     0.008 A 
ATOM     12  C   UNL A   1      35.608  22.369  25.645  1.00  0.00     0.054 A 
ATOM     13  C   UNL A   1      36.265  22.953  23.018  1.00  0.00     0.004 A 
ATOM     14  C   UNL A   1      37.276  22.774  23.968  1.00  0.00     0.046 A 
BRANCH  10  15
ATOM     15  C   UNL A   1      33.183  22.335  25.073  1.00  0.00     0.029 C 
ATOM     16  N   UNL A   1      31.439  25.438  25.895  1.00  0.00    -0.236 N 
ATOM     17  C   UNL A   1      30.384  24.658  26.312  1.00  0.00     0.298 C 
ATOM     18  C   UNL A   1      32.573  24.774  25.455  1.00  0.00     0.272 C 
ATOM     19  O   UNL A   1      29.331  25.000  26.825  1.00  0.00    -0.260 OA
ATOM     20  S   UNL A   1      30.722  22.967  25.967  1.00  0.00    -0.022 SA
ATOM     21  C   UNL A   1      32.324  23.301  25.429  1.00  0.00     0.083 C 
ATOM     22  O   UNL A   1      33.649  25.282  25.168  1.00  0.00    -0.268 OA
BRANCH  16  23
ATOM     23  C   UNL A   1      31.427  26.854  26.011  1.00  0.00     0.056 A 
ATOM     24  C   UNL A   1      31.819  31.141  26.354  1.00  0.00     0.044 C 
ATOM     25  C   UNL A   1      31.670  29.653  26.257  1.00  0.00    -0.051 A 
ATOM     26  C   UNL A   1      31.920  28.826  27.352  1.00  0.00     0.005 A 
ATOM     27  C   UNL A   1      31.249  29.077  25.053  1.00  0.00     0.009 A 
ATOM     28  C   UNL A   1      31.793  27.440  27.234  1.00  0.00     0.027 A 
ATOM     29  C   UNL A   1      31.104  27.685  24.919  1.00  0.00    -0.026 A 
ATOM     30  C   UNL A   1      30.568  27.174  23.608  1.00  0.00     0.046 C 
ENDBRANCH  16  23
ENDBRANCH  10  15
ENDBRANCH   8   9
ENDBRANCH   6   8
ENDBRANCH   3   6
ENDBRANCH   1   2
BRANCH   1  31
ATOM     31  C   UNL A   1      41.525  25.548  26.014  1.00  0.00     0.023 C 
BRANCH  31  32
ATOM     32  C   UNL A   1      42.364  24.443  25.365  1.00  0.00     0.023 C 
BRANCH  32  33
ATOM     33  C   UNL A   1      43.741  24.892  24.893  1.00  0.00     0.116 C 
BRANCH  33  34
ATOM     34  N   UNL A   1      44.800  24.015  25.367  1.00  0.00    -0.352 N 
ATOM     35  C   UNL A   1      45.444  24.021  26.579  1.00  0.00     0.251 C 
ATOM     36  H   UNL A   1      45.095  23.323  24.732  1.00  0.00     0.163 HD
ATOM     37  O   UNL A   1      46.435  23.325  26.766  1.00  0.00    -0.269 OA
BRANCH  35  38
ATOM     38  C   UNL A   1      44.941  24.892  27.660  1.00  0.00     0.039 A 
ATOM     39  C   UNL A   1      45.347  26.227  27.698  1.00  0.00     0.014 A 
ATOM     40  C   UNL A   1      44.057  24.392  28.621  1.00  0.00     0.014 A 
ATOM     41  C   UNL A   1      44.818  27.079  28.670  1.00  0.00     0.010 A 
ATOM     42  C   UNL A   1      43.472  25.259  29.535  1.00  0.00     0.010 A 
ATOM     43  C   UNL A   1      43.851  26.610  29.574  1.00  0.00    -0.014 A 
BRANCH  43  44
ATOM     44  C   UNL A   1      43.235  27.514  30.578  1.00  0.00     0.031 A 
ATOM     45  C   UNL A   1      43.849  27.652  31.943  1.00  0.00     0.074 A 
ATOM     46  C   UNL A   1      42.092  28.162  30.283  1.00  0.00     0.049 A 
ATOM     47  N   UNL A   1      43.428  28.336  32.977  1.00  0.00    -0.248 NA
ATOM     48  C   UNL A   1      45.086  26.894  32.189  1.00  0.00     0.031 C 
ATOM     49  C   UNL A   1      41.375  28.075  29.010  1.00  0.00     0.029 A 
ATOM     50  N   UNL A   1      41.326  29.015  31.038  1.00  0.00    -0.354 N 
ATOM     51  C   UNL A   1      44.339  28.081  33.994  1.00  0.00     0.074 A 
ATOM     52  C   UNL A   1      45.299  27.132  33.475  1.00  0.00     0.031 C 
ATOM     53  C   UNL A   1      40.289  28.863  29.062  1.00  0.00     0.029 A 
ATOM     54  C   UNL A   1      40.211  29.479  30.384  1.00  0.00     0.049 A 
ATOM     55  H   UNL A   1      41.556  29.272  31.961  1.00  0.00     0.167 HD
ATOM     56  C   UNL A   1      44.386  28.612  35.239  1.00  0.00     0.037 A 
ATOM     57  C   UNL A   1      39.233  30.302  30.806  1.00  0.00     0.037 A 
ATOM     58  C   UNL A   1      43.439  29.571  35.744  1.00  0.00     0.049 A 
ATOM     59  C   UNL A   1      39.298  30.865  32.201  1.00  0.00     0.074 A 
ATOM     60  C   UNL A   1      43.430  30.210  36.972  1.00  0.00     0.029 A 
ATOM     61  N   UNL A   1      42.328  30.026  35.048  1.00  0.00    -0.354 N 
ATOM     62  N   UNL A   1      40.201  30.672  33.131  1.00  0.00    -0.248 NA
ATOM     63  C   UNL A   1      38.210  31.767  32.601  1.00  0.00     0.031 C 
ATOM     64  C   UNL A   1      42.284  31.009  37.040  1.00  0.00     0.029 A 
ATOM     65  C   UNL A   1      41.613  30.918  35.832  1.00  0.00     0.049 A 
ATOM     66  H   UNL A   1      42.085  29.754  34.135  1.00  0.00     0.167 HD
ATOM     67  C   UNL A   1      39.811  31.452  34.211  1.00  0.00     0.074 A 
ATOM     68  C   UNL A   1      38.595  32.131  33.817  1.00  0.00     0.031 C 
ATOM     69  C   UNL A   1      40.407  31.594  35.421  1.00  0.00     0.037 A 
BRANCH  56  70
ATOM     70  C   UNL A   1      45.500  28.162  36.143  1.00  0.00     0.064 A 
ATOM     71  C   UNL A   1      45.356  27.056  36.996  1.00  0.00     0.173 A 
ATOM     72  C   UNL A   1      46.734  28.828  36.139  1.00  0.00     0.173 A 
ATOM     73  F   UNL A   1      44.192  26.390  37.048  1.00  0.00    -0.203 F 
ATOM     74  C   UNL A   1      46.391  26.660  37.839  1.00  0.00     0.198 A 
ATOM     75  C   UNL A   1      47.780  28.407  36.957  1.00  0.00     0.198 A 
ATOM     76  F   UNL A   1      46.929  29.887  35.339  1.00  0.00    -0.203 F 
ATOM     77  F   UNL A   1      46.209  25.640  38.688  1.00  0.00    -0.200 F 
ATOM     78  C   UNL A   1      47.604  27.331  37.813  1.00  0.00     0.200 A 
ATOM     79  F   UNL A   1      48.956  29.049  36.921  1.00  0.00    -0.200 F 
ATOM     80  F   UNL A   1      48.601  26.946  38.621  1.00  0.00    -0.200 F 
ENDBRANCH  56  70
BRANCH  57  81
ATOM     81  C   UNL A   1      38.122  30.667  29.888  1.00  0.00     0.064 A 
ATOM     82  C   UNL A   1      37.089  29.760  29.612  1.00  0.00     0.173 A 
ATOM     83  C   UNL A   1      38.070  31.924  29.267  1.00  0.00     0.173 A 
ATOM     84  F   UNL A   1      37.106  28.540  30.166  1.00  0.00    -0.203 F 
ATOM     85  C   UNL A   1      36.058  30.088  28.734  1.00  0.00     0.198 A 
ATOM     86  C   UNL A   1      37.022  32.262  28.412  1.00  0.00     0.198 A 
ATOM     87  F   UNL A   1      39.030  32.830  29.501  1.00  0.00    -0.203 F 
ATOM     88  F   UNL A   1      35.109  29.185  28.452  1.00  0.00    -0.200 F 
ATOM     89  C   UNL A   1      36.022  31.341  28.140  1.00  0.00     0.200 A 
ATOM     90  F   UNL A   1      36.982  33.478  27.853  1.00  0.00    -0.200 F 
ATOM     91  F   UNL A   1      35.027  31.658  27.300  1.00  0.00    -0.200 F 
ENDBRANCH  57  81
BRANCH  69  92
ATOM     92  C   UNL A   1      39.781  32.554  36.391  1.00  0.00     0.064 A 
ATOM     93  C   UNL A   1      38.660  32.203  37.161  1.00  0.00     0.173 A 
ATOM     94  C   UNL A   1      40.335  33.829  36.583  1.00  0.00     0.173 A 
ATOM     95  F   UNL A   1      38.084  31.002  37.004  1.00  0.00    -0.203 F 
ATOM     96  C   UNL A   1      38.104  33.104  38.064  1.00  0.00     0.198 A 
ATOM     97  C   UNL A   1      39.796  34.714  37.513  1.00  0.00     0.198 A 
ATOM     98  F   UNL A   1      41.411  34.212  35.879  1.00  0.00    -0.203 F 
ATOM     99  F   UNL A   1      37.003  32.766  38.751  1.00  0.00    -0.200 F 
ATOM    100  C   UNL A   1      38.675  34.354  38.246  1.00  0.00     0.200 A 
ATOM    101  F   UNL A   1      40.361  35.915  37.698  1.00  0.00    -0.200 F 
ATOM    102  F   UNL A   1      38.143  35.215  39.123  1.00  0.00    -0.200 F 
ENDBRANCH  69  92
ENDBRANCH  43  44
ENDBRANCH  35  38
ENDBRANCH  33  34
ENDBRANCH  32  33
ENDBRANCH  31  32
ENDBRANCH   1  31
TORSDOF 15
ENDMDL
MODEL 2
REMARK VINA RESULT:     -11.8      5.313     10.309
REMARK SMILES Cc1ccc(N2C(=O)S/C(=C/c3cccc(O[C@H](C)C(=O)NCCCCNC(=O)c4ccc(-c5c6nc(c(-c7c(F)c(F)c(F)c(F)c7F)c7ccc([nH]7)c(-c7c(F)c(F)c(F)c(F)c7F)c7nc(c(-c8c(F)c(F)c(F)c(F)c8F)c8ccc5[nH]8)C=C7)C=C6)cc4)c3)C2=O)c(C)c1
REMARK SMILES IDX 23 1 22 2 20 3 21 4 18 6 19 7 17 8 16 9 12 10 13 11 93 12
REMARK SMILES IDX 14 13 15 14 11 15 6 16 7 17 94 18 8 19 9 20 10 21 95 22 5 23
REMARK SMILES IDX 1 24 2 25 3 26 98 27 4 28 96 29 97 30 24 31 25 32 26 33
REMARK SMILES IDX 27 34 28 35 29 37 30 38 31 39 92 40 32 41 91 42 33 43 34 44
REMARK SMILES IDX 35 45 85 46 36 47 90 48 84 49 86 50 37 51 89 52 83 53 82 54
REMARK SMILES IDX 38 56 70 57 50 58 69 59 51 60 54 61 68 62 87 63 52 64 53 65
REMARK SMILES IDX 67 67 88 68 55 69 39 70 40 71 48 72 41 73 42 74 46 75 49 76
REMARK SMILES IDX 43 77 44 78 47 79 45 80 71 81 72 82 80 83 73 84 74 85 78 86
REMARK SMILES IDX 81 87 75 88 76 89 79 90 77 91 56 92 57 93 65 94 58 95 59 96
REMARK SMILES IDX 63 97 66 98 60 99 61 100 64 101 62 102
REMARK H PARENT 22 5 27 36 86 55 54 66
REMARK Flexibility Score: inf
ROOT
ATOM      1  C   UNL A   1      36.652  29.292  30.586  1.00  0.00     0.116 C 
ENDROOT
BRANCH   1   2
ATOM      2  N   UNL A   1      37.450  29.475  29.389  1.00  0.00    -0.353 N 
ATOM      3  C   UNL A   1      37.049  29.812  28.135  1.00  0.00     0.260 C 
ATOM      4  O   UNL A   1      37.909  29.869  27.251  1.00  0.00    -0.271 OA
ATOM      5  H   UNL A   1      38.419  29.335  29.501  1.00  0.00     0.163 HD
BRANCH   3   6
ATOM      6  C   UNL A   1      35.569  30.125  27.827  1.00  0.00     0.258 C 
ATOM      7  C   UNL A   1      35.369  31.647  27.933  1.00  0.00     0.064 C 
BRANCH   6   8
ATOM      8  O   UNL A   1      34.940  29.713  26.623  1.00  0.00    -0.481 OA
BRANCH   8   9
ATOM      9  C   UNL A   1      33.724  29.096  26.607  1.00  0.00     0.121 A 
ATOM     10  C   UNL A   1      32.264  27.721  25.213  1.00  0.00    -0.021 A 
ATOM     11  C   UNL A   1      31.405  27.541  26.296  1.00  0.00     0.008 A 
ATOM     12  C   UNL A   1      33.413  28.508  25.376  1.00  0.00     0.054 A 
ATOM     13  C   UNL A   1      31.678  28.172  27.509  1.00  0.00     0.004 A 
ATOM     14  C   UNL A   1      32.817  28.972  27.654  1.00  0.00     0.046 A 
BRANCH  10  15
ATOM     15  C   UNL A   1      31.949  27.119  23.915  1.00  0.00     0.029 C 
ATOM     16  N   UNL A   1      33.793  24.041  23.228  1.00  0.00    -0.236 N 
ATOM     17  C   UNL A   1      33.278  24.094  21.953  1.00  0.00     0.298 C 
ATOM     18  C   UNL A   1      33.463  25.083  24.080  1.00  0.00     0.272 C 
ATOM     19  O   UNL A   1      33.497  23.359  21.003  1.00  0.00    -0.260 OA
ATOM     20  S   UNL A   1      32.140  25.430  21.826  1.00  0.00    -0.022 SA
ATOM     21  C   UNL A   1      32.489  25.998  23.414  1.00  0.00     0.083 C 
ATOM     22  O   UNL A   1      33.920  25.281  25.198  1.00  0.00    -0.268 OA
BRANCH  16  23
ATOM     23  C   UNL A   1      34.711  23.036  23.633  1.00  0.00     0.056 A 
ATOM     24  C   UNL A   1      37.610  20.238  25.190  1.00  0.00     0.044 C 
ATOM     25  C   UNL A   1      36.617  21.209  24.627  1.00  0.00    -0.051 A 
ATOM     26  C   UNL A   1      37.028  22.343  23.926  1.00  0.00     0.005 A 
ATOM     27  C   UNL A   1      35.247  20.967  24.784  1.00  0.00     0.009 A 
ATOM     28  C   UNL A   1      36.085  23.244  23.427  1.00  0.00     0.027 A 
ATOM     29  C   UNL A   1      34.284  21.857  24.279  1.00  0.00    -0.026 A 
ATOM     30  C   UNL A   1      32.838  21.463  24.431  1.00  0.00     0.046 C 
ENDBRANCH  16  23
ENDBRANCH  10  15
ENDBRANCH   8   9
ENDBRANCH   6   8
ENDBRANCH   3   6
ENDBRANCH   1   2
BRANCH   1  31
ATOM     31  C   UNL A   1      37.119  30.249  31.680  1.00  0.00     0.023 C 
BRANCH  31  32
ATOM     32  C   UNL A   1      36.012  31.149  32.237  1.00  0.00     0.023 C 
BRANCH  32  33
ATOM     33  C   UNL A   1      35.852  32.476  31.507  1.00  0.00     0.116 C 
BRANCH  33  34
ATOM     34  N   UNL A   1      36.195  33.612  32.349  1.00  0.00    -0.352 N 
ATOM     35  C   UNL A   1      37.437  34.087  32.687  1.00  0.00     0.251 C 
ATOM     36  H   UNL A   1      35.434  34.107  32.726  1.00  0.00     0.163 HD
ATOM     37  O   UNL A   1      37.566  34.953  33.545  1.00  0.00    -0.269 OA
BRANCH  35  38
ATOM     38  C   UNL A   1      38.631  33.531  32.018  1.00  0.00     0.039 A 
ATOM     39  C   UNL A   1      39.549  32.796  32.770  1.00  0.00     0.014 A 
ATOM     40  C   UNL A   1      38.830  33.723  30.648  1.00  0.00     0.014 A 
ATOM     41  C   UNL A   1      40.640  32.201  32.134  1.00  0.00     0.010 A 
ATOM     42  C   UNL A   1      39.870  33.064  30.004  1.00  0.00     0.010 A 
ATOM     43  C   UNL A   1      40.790  32.302  30.741  1.00  0.00    -0.014 A 
BRANCH  43  44
ATOM     44  C   UNL A   1      41.912  31.629  30.038  1.00  0.00     0.031 A 
ATOM     45  C   UNL A   1      43.179  32.385  29.748  1.00  0.00     0.074 A 
ATOM     46  C   UNL A   1      41.768  30.361  29.609  1.00  0.00     0.049 A 
ATOM     47  N   UNL A   1      44.243  31.998  29.091  1.00  0.00    -0.248 NA
ATOM     48  C   UNL A   1      43.245  33.772  30.235  1.00  0.00     0.031 C 
ATOM     49  C   UNL A   1      40.571  29.538  29.789  1.00  0.00     0.029 A 
ATOM     50  N   UNL A   1      42.632  29.545  28.922  1.00  0.00    -0.354 N 
ATOM     51  C   UNL A   1      45.095  33.094  29.076  1.00  0.00     0.074 A 
ATOM     52  C   UNL A   1      44.401  34.179  29.733  1.00  0.00     0.031 C 
ATOM     53  C   UNL A   1      40.787  28.326  29.252  1.00  0.00     0.029 A 
ATOM     54  C   UNL A   1      42.118  28.300  28.654  1.00  0.00     0.049 A 
ATOM     55  H   UNL A   1      43.536  29.825  28.650  1.00  0.00     0.167 HD
ATOM     56  C   UNL A   1      46.354  33.179  28.583  1.00  0.00     0.037 A 
ATOM     57  C   UNL A   1      42.658  27.258  27.993  1.00  0.00     0.037 A 
ATOM     58  C   UNL A   1      47.048  32.090  27.947  1.00  0.00     0.049 A 
ATOM     59  C   UNL A   1      44.052  27.384  27.439  1.00  0.00     0.074 A 
ATOM     60  C   UNL A   1      48.344  32.059  27.462  1.00  0.00     0.029 A 
ATOM     61  N   UNL A   1      46.498  30.840  27.702  1.00  0.00    -0.354 N 
ATOM     62  N   UNL A   1      44.876  28.402  27.491  1.00  0.00    -0.248 NA
ATOM     63  C   UNL A   1      44.594  26.211  26.740  1.00  0.00     0.031 C 
ATOM     64  C   UNL A   1      48.560  30.807  26.876  1.00  0.00     0.029 A 
ATOM     65  C   UNL A   1      47.422  30.037  27.051  1.00  0.00     0.049 A 
ATOM     66  H   UNL A   1      45.588  30.565  27.954  1.00  0.00     0.167 HD
ATOM     67  C   UNL A   1      46.043  27.984  26.865  1.00  0.00     0.074 A 
ATOM     68  C   UNL A   1      45.824  26.613  26.450  1.00  0.00     0.031 C 
ATOM     69  C   UNL A   1      47.192  28.671  26.652  1.00  0.00     0.037 A 
BRANCH  56  70
ATOM     70  C   UNL A   1      47.060  34.500  28.712  1.00  0.00     0.064 A 
ATOM     71  C   UNL A   1      47.879  34.794  29.814  1.00  0.00     0.173 A 
ATOM     72  C   UNL A   1      46.937  35.475  27.711  1.00  0.00     0.173 A 
ATOM     73  F   UNL A   1      48.022  33.902  30.807  1.00  0.00    -0.203 F 
ATOM     74  C   UNL A   1      48.514  36.029  29.927  1.00  0.00     0.198 A 
ATOM     75  C   UNL A   1      47.603  36.694  27.810  1.00  0.00     0.198 A 
ATOM     76  F   UNL A   1      46.173  35.245  26.633  1.00  0.00    -0.203 F 
ATOM     77  F   UNL A   1      49.240  36.309  31.018  1.00  0.00    -0.200 F 
ATOM     78  C   UNL A   1      48.381  36.974  28.922  1.00  0.00     0.200 A 
ATOM     79  F   UNL A   1      47.484  37.602  26.830  1.00  0.00    -0.200 F 
ATOM     80  F   UNL A   1      48.997  38.159  29.030  1.00  0.00    -0.200 F 
ENDBRANCH  56  70
BRANCH  57  81
ATOM     81  C   UNL A   1      41.890  25.994  27.845  1.00  0.00     0.064 A 
ATOM     82  C   UNL A   1      42.229  24.855  28.588  1.00  0.00     0.173 A 
ATOM     83  C   UNL A   1      40.807  25.896  26.958  1.00  0.00     0.173 A 
ATOM     84  F   UNL A   1      43.269  24.893  29.434  1.00  0.00    -0.203 F 
ATOM     85  C   UNL A   1      41.528  23.661  28.436  1.00  0.00     0.198 A 
ATOM     86  C   UNL A   1      40.088  24.710  26.829  1.00  0.00     0.198 A 
ATOM     87  F   UNL A   1      40.438  26.958  26.227  1.00  0.00    -0.203 F 
ATOM     88  F   UNL A   1      41.903  22.574  29.124  1.00  0.00    -0.200 F 
ATOM     89  C   UNL A   1      40.454  23.591  27.561  1.00  0.00     0.200 A 
ATOM     90  F   UNL A   1      39.041  24.651  25.994  1.00  0.00    -0.200 F 
ATOM     91  F   UNL A   1      39.776  22.444  27.419  1.00  0.00    -0.200 F 
ENDBRANCH  57  81
BRANCH  69  92
ATOM     92  C   UNL A   1      48.320  27.941  25.982  1.00  0.00     0.064 A 
ATOM     93  C   UNL A   1      48.362  27.761  24.590  1.00  0.00     0.173 A 
ATOM     94  C   UNL A   1      49.394  27.450  26.739  1.00  0.00     0.173 A 
ATOM     95  F   UNL A   1      47.353  28.199  23.822  1.00  0.00    -0.203 F 
ATOM     96  C   UNL A   1      49.425  27.093  23.988  1.00  0.00     0.198 A 
ATOM     97  C   UNL A   1      50.471  26.813  26.129  1.00  0.00     0.198 A 
ATOM     98  F   UNL A   1      49.408  27.602  28.072  1.00  0.00    -0.203 F 
ATOM     99  F   UNL A   1      49.419  26.888  22.663  1.00  0.00    -0.200 F 
ATOM    100  C   UNL A   1      50.481  26.627  24.755  1.00  0.00     0.200 A 
ATOM    101  F   UNL A   1      51.498  26.378  26.871  1.00  0.00    -0.200 F 
ATOM    102  F   UNL A   1      51.506  25.993  24.172  1.00  0.00    -0.200 F 
ENDBRANCH  69  92
ENDBRANCH  43  44
ENDBRANCH  35  38
ENDBRANCH  33  34
ENDBRANCH  32  33
ENDBRANCH  31  32
ENDBRANCH   1  31
TORSDOF 15
ENDMDL
MODEL 3
REMARK VINA RESULT:     -11.6      0.573      6.904
REMARK SMILES Cc1ccc(N2C(=O)S/C(=C/c3cccc(O[C@H](C)C(=O)NCCCCNC(=O)c4ccc(-c5c6nc(c(-c7c(F)c(F)c(F)c(F)c7F)c7ccc([nH]7)c(-c7c(F)c(F)c(F)c(F)c7F)c7nc(c(-c8c(F)c(F)c(F)c(F)c8F)c8ccc5[nH]8)C=C7)C=C6)cc4)c3)C2=O)c(C)c1
REMARK SMILES IDX 23 1 22 2 20 3 21 4 18 6 19 7 17 8 16 9 12 10 13 11 93 12
REMARK SMILES IDX 14 13 15 14 11 15 6 16 7 17 94 18 8 19 9 20 10 21 95 22 5 23
REMARK SMILES IDX 1 24 2 25 3 26 98 27 4 28 96 29 97 30 24 31 25 32 26 33
REMARK SMILES IDX 27 34 28 35 29 37 30 38 31 39 92 40 32 41 91 42 33 43 34 44
REMARK SMILES IDX 35 45 85 46 36 47 90 48 84 49 86 50 37 51 89 52 83 53 82 54
REMARK SMILES IDX 38 56 70 57 50 58 69 59 51 60 54 61 68 62 87 63 52 64 53 65
REMARK SMILES IDX 67 67 88 68 55 69 39 70 40 71 48 72 41 73 42 74 46 75 49 76
REMARK SMILES IDX 43 77 44 78 47 79 45 80 71 81 72 82 80 83 73 84 74 85 78 86
REMARK SMILES IDX 81 87 75 88 76 89 79 90 77 91 56 92 57 93 65 94 58 95 59 96
REMARK SMILES IDX 63 97 66 98 60 99 61 100 64 101 62 102
REMARK H PARENT 22 5 27 36 86 55 54 66
REMARK Flexibility Score: inf
ROOT
ATOM      1  C   UNL A   1      40.229  24.671  26.630  1.00  0.00     0.116 C 
ENDROOT
BRANCH   1   2
ATOM      2  N   UNL A   1      40.646  23.463  27.316  1.00  0.00    -0.353 N 
ATOM      3  C   UNL A   1      40.196  22.190  27.157  1.00  0.00     0.260 C 
ATOM      4  O   UNL A   1      40.671  21.317  27.889  1.00  0.00    -0.271 OA
ATOM      5  H   UNL A   1      41.353  23.582  27.991  1.00  0.00     0.163 HD
BRANCH   3   6
ATOM      6  C   UNL A   1      39.136  21.845  26.089  1.00  0.00     0.258 C 
ATOM      7  C   UNL A   1      39.279  20.354  25.735  1.00  0.00     0.064 C 
BRANCH   6   8
ATOM      8  O   UNL A   1      37.751  22.087  26.288  1.00  0.00    -0.481 OA
BRANCH   8   9
ATOM      9  C   UNL A   1      36.891  22.305  25.253  1.00  0.00     0.121 A 
ATOM     10  C   UNL A   1      34.517  22.463  24.703  1.00  0.00    -0.021 A 
ATOM     11  C   UNL A   1      34.846  22.913  23.425  1.00  0.00     0.008 A 
ATOM     12  C   UNL A   1      35.546  22.152  25.604  1.00  0.00     0.054 A 
ATOM     13  C   UNL A   1      36.185  23.012  23.049  1.00  0.00     0.004 A 
ATOM     14  C   UNL A   1      37.203  22.680  23.950  1.00  0.00     0.046 A 
BRANCH  10  15
ATOM     15  C   UNL A   1      33.112  22.288  25.084  1.00  0.00     0.029 C 
ATOM     16  N   UNL A   1      31.405  25.414  25.897  1.00  0.00    -0.236 N 
ATOM     17  C   UNL A   1      30.343  24.647  26.321  1.00  0.00     0.298 C 
ATOM     18  C   UNL A   1      32.530  24.735  25.456  1.00  0.00     0.272 C 
ATOM     19  O   UNL A   1      29.295  25.003  26.836  1.00  0.00    -0.260 OA
ATOM     20  S   UNL A   1      30.662  22.951  25.983  1.00  0.00    -0.022 SA
ATOM     21  C   UNL A   1      32.265  23.266  25.438  1.00  0.00     0.083 C 
ATOM     22  O   UNL A   1      33.610  25.231  25.164  1.00  0.00    -0.268 OA
BRANCH  16  23
ATOM     23  C   UNL A   1      31.409  26.830  26.007  1.00  0.00     0.056 A 
ATOM     24  C   UNL A   1      31.848  31.115  26.321  1.00  0.00     0.044 C 
ATOM     25  C   UNL A   1      31.683  29.628  26.235  1.00  0.00    -0.051 A 
ATOM     26  C   UNL A   1      31.947  28.804  27.329  1.00  0.00     0.005 A 
ATOM     27  C   UNL A   1      31.233  29.051  25.042  1.00  0.00     0.009 A 
ATOM     28  C   UNL A   1      31.804  27.419  27.220  1.00  0.00     0.027 A 
ATOM     29  C   UNL A   1      31.072  27.660  24.917  1.00  0.00    -0.026 A 
ATOM     30  C   UNL A   1      30.505  27.148  23.620  1.00  0.00     0.046 C 
ENDBRANCH  16  23
ENDBRANCH  10  15
ENDBRANCH   8   9
ENDBRANCH   6   8
ENDBRANCH   3   6
ENDBRANCH   1   2
BRANCH   1  31
ATOM     31  C   UNL A   1      41.444  25.536  26.305  1.00  0.00     0.023 C 
BRANCH  31  32
ATOM     32  C   UNL A   1      42.285  25.017  25.134  1.00  0.00     0.023 C 
BRANCH  32  33
ATOM     33  C   UNL A   1      43.707  25.563  25.089  1.00  0.00     0.116 C 
BRANCH  33  34
ATOM     34  N   UNL A   1      44.686  24.586  25.541  1.00  0.00    -0.352 N 
ATOM     35  C   UNL A   1      45.282  24.472  26.771  1.00  0.00     0.251 C 
ATOM     36  H   UNL A   1      44.957  23.915  24.874  1.00  0.00     0.163 HD
ATOM     37  O   UNL A   1      46.217  23.698  26.947  1.00  0.00    -0.269 OA
BRANCH  35  38
ATOM     38  C   UNL A   1      44.800  25.308  27.889  1.00  0.00     0.039 A 
ATOM     39  C   UNL A   1      45.182  26.649  27.947  1.00  0.00     0.014 A 
ATOM     40  C   UNL A   1      43.958  24.768  28.866  1.00  0.00     0.014 A 
ATOM     41  C   UNL A   1      44.671  27.468  28.955  1.00  0.00     0.010 A 
ATOM     42  C   UNL A   1      43.387  25.603  29.820  1.00  0.00     0.010 A 
ATOM     43  C   UNL A   1      43.743  26.959  29.879  1.00  0.00    -0.014 A 
BRANCH  43  44
ATOM     44  C   UNL A   1      43.143  27.828  30.924  1.00  0.00     0.031 A 
ATOM     45  C   UNL A   1      41.848  28.543  30.655  1.00  0.00     0.074 A 
ATOM     46  C   UNL A   1      43.792  28.020  32.087  1.00  0.00     0.049 A 
ATOM     47  N   UNL A   1      41.198  29.393  31.409  1.00  0.00    -0.248 NA
ATOM     48  C   UNL A   1      41.215  28.292  29.350  1.00  0.00     0.031 C 
ATOM     49  C   UNL A   1      45.077  27.419  32.449  1.00  0.00     0.029 A 
ATOM     50  N   UNL A   1      43.465  28.786  33.179  1.00  0.00    -0.354 N 
ATOM     51  C   UNL A   1      40.092  29.785  30.667  1.00  0.00     0.074 A 
ATOM     52  C   UNL A   1      40.191  29.130  29.381  1.00  0.00     0.031 C 
ATOM     53  C   UNL A   1      45.415  27.816  33.686  1.00  0.00     0.029 A 
ATOM     54  C   UNL A   1      44.394  28.731  34.188  1.00  0.00     0.049 A 
ATOM     55  H   UNL A   1      42.640  29.321  33.234  1.00  0.00     0.167 HD
ATOM     56  C   UNL A   1      39.072  30.596  31.035  1.00  0.00     0.037 A 
ATOM     57  C   UNL A   1      44.422  29.354  35.382  1.00  0.00     0.037 A 
ATOM     58  C   UNL A   1      38.968  31.230  32.323  1.00  0.00     0.049 A 
ATOM     59  C   UNL A   1      43.285  30.266  35.761  1.00  0.00     0.074 A 
ATOM     60  C   UNL A   1      37.948  32.026  32.813  1.00  0.00     0.029 A 
ATOM     61  N   UNL A   1      39.925  31.143  33.325  1.00  0.00    -0.354 N 
ATOM     62  N   UNL A   1      42.209  30.575  35.079  1.00  0.00    -0.248 NA
ATOM     63  C   UNL A   1      43.364  30.908  37.079  1.00  0.00     0.031 C 
ATOM     64  C   UNL A   1      38.313  32.465  34.091  1.00  0.00     0.029 A 
ATOM     65  C   UNL A   1      39.529  31.892  34.422  1.00  0.00     0.049 A 
ATOM     66  H   UNL A   1      40.759  30.626  33.264  1.00  0.00     0.167 HD
ATOM     67  C   UNL A   1      41.468  31.418  35.896  1.00  0.00     0.074 A 
ATOM     68  C   UNL A   1      42.212  31.563  37.130  1.00  0.00     0.031 C 
ATOM     69  C   UNL A   1      40.278  32.018  35.648  1.00  0.00     0.037 A 
BRANCH  56  70
ATOM     70  C   UNL A   1      37.986  30.845  30.026  1.00  0.00     0.064 A 
ATOM     71  C   UNL A   1      37.029  29.866  29.715  1.00  0.00     0.173 A 
ATOM     72  C   UNL A   1      37.886  32.085  29.378  1.00  0.00     0.173 A 
ATOM     73  F   UNL A   1      37.085  28.657  30.297  1.00  0.00    -0.203 F 
ATOM     74  C   UNL A   1      36.038  30.105  28.766  1.00  0.00     0.198 A 
ATOM     75  C   UNL A   1      36.872  32.333  28.455  1.00  0.00     0.198 A 
ATOM     76  F   UNL A   1      38.769  33.059  29.640  1.00  0.00    -0.203 F 
ATOM     77  F   UNL A   1      35.174  29.133  28.442  1.00  0.00    -0.200 F 
ATOM     78  C   UNL A   1      35.956  31.341  28.143  1.00  0.00     0.200 A 
ATOM     79  F   UNL A   1      36.786  33.533  27.864  1.00  0.00    -0.200 F 
ATOM     80  F   UNL A   1      35.000  31.572  27.234  1.00  0.00    -0.200 F 
ENDBRANCH  56  70
BRANCH  57  81
ATOM     81  C   UNL A   1      45.553  29.116  36.318  1.00  0.00     0.064 A 
ATOM     82  C   UNL A   1      45.485  28.104  37.285  1.00  0.00     0.173 A 
ATOM     83  C   UNL A   1      46.719  29.894  36.269  1.00  0.00     0.173 A 
ATOM     84  F   UNL A   1      44.382  27.347  37.384  1.00  0.00    -0.203 F 
ATOM     85  C   UNL A   1      46.531  27.892  38.180  1.00  0.00     0.198 A 
ATOM     86  C   UNL A   1      47.777  29.661  37.145  1.00  0.00     0.198 A 
ATOM     87  F   UNL A   1      46.837  30.873  35.359  1.00  0.00    -0.203 F 
ATOM     88  F   UNL A   1      46.420  26.947  39.125  1.00  0.00    -0.200 F 
ATOM     89  C   UNL A   1      47.678  28.666  38.106  1.00  0.00     0.200 A 
ATOM     90  F   UNL A   1      48.890  30.402  37.060  1.00  0.00    -0.200 F 
ATOM     91  F   UNL A   1      48.687  28.458  38.964  1.00  0.00    -0.200 F 
ENDBRANCH  57  81
BRANCH  69  92
ATOM     92  C   UNL A   1      39.680  32.850  36.746  1.00  0.00     0.064 A 
ATOM     93  C   UNL A   1      38.654  32.361  37.570  1.00  0.00     0.173 A 
ATOM     94  C   UNL A   1      40.170  34.140  37.004  1.00  0.00     0.173 A 
ATOM     95  F   UNL A   1      38.140  31.141  37.356  1.00  0.00    -0.203 F 
ATOM     96  C   UNL A   1      38.124  33.145  38.592  1.00  0.00     0.198 A 
ATOM     97  C   UNL A   1      39.661  34.906  38.049  1.00  0.00     0.198 A 
ATOM     98  F   UNL A   1      41.155  34.652  36.252  1.00  0.00    -0.203 F 
ATOM     99  F   UNL A   1      37.110  32.677  39.333  1.00  0.00    -0.200 F 
ATOM    100  C   UNL A   1      38.632  34.411  38.836  1.00  0.00     0.200 A 
ATOM    101  F   UNL A   1      40.165  36.123  38.292  1.00  0.00    -0.200 F 
ATOM    102  F   UNL A   1      38.126  35.159  39.826  1.00  0.00    -0.200 F 
ENDBRANCH  69  92
ENDBRANCH  43  44
ENDBRANCH  35  38
ENDBRANCH  33  34
ENDBRANCH  32  33
ENDBRANCH  31  32
ENDBRANCH   1  31
TORSDOF 15
ENDMDL
