MODEL 1
REMARK VINA RESULT:     -12.6      0.000      0.000
REMARK SMILES Cc1cc(C)c(C(=O)NC[C@H]2CC[C@@H](C(=O)NCCCCNC(=O)c3ccc(-c4c5nc(c(-c6c(F)c(F)c(F)c(F)c6F)c6ccc([nH]6)c(-c6c(F)c(F)c(F)c(F)c6F)c6nc(c(-c7c(F)c(F)c(F)c(F)c7F)c7ccc4[nH]7)C=C6)C=C5)cc3)O2)c(C)c1
REMARK SMILES IDX 19 1 18 2 17 3 15 4 16 5 14 7 11 8 12 9 88 10 13 11 10 12
REMARK SMILES IDX 9 13 7 14 8 15 6 17 1 18 2 19 3 20 91 21 4 22 89 23 5 24
REMARK SMILES IDX 90 25 20 26 21 27 22 28 23 29 24 31 25 32 26 33 87 34 27 35
REMARK SMILES IDX 86 36 28 37 29 38 30 39 80 40 31 41 85 42 79 43 81 44 32 45
REMARK SMILES IDX 84 46 78 47 77 48 33 50 65 51 45 52 64 53 46 54 49 55 63 56
REMARK SMILES IDX 82 57 47 58 48 59 62 61 83 62 50 63 34 64 35 65 43 66 36 67
REMARK SMILES IDX 37 68 41 69 44 70 38 71 39 72 42 73 40 74 66 75 67 76 75 77
REMARK SMILES IDX 68 78 69 79 73 80 76 81 70 82 71 83 74 84 72 85 51 86 52 87
REMARK SMILES IDX 60 88 53 89 54 90 58 91 61 92 55 93 56 94 59 95 57 96
REMARK H PARENT 17 6 9 16 22 30 81 49 49 60
REMARK Flexibility Score: inf
ROOT
ATOM      1  C   UNL A   1      31.765  30.469  26.573  1.00  0.00     0.023 C 
ENDROOT
BRANCH   1   2
ATOM      2  C   UNL A   1      33.216  30.002  26.516  1.00  0.00     0.116 C 
BRANCH   2   3
ATOM      3  N   UNL A   1      33.569  29.460  25.215  1.00  0.00    -0.354 N 
ATOM      4  C   UNL A   1      33.552  28.154  24.805  1.00  0.00     0.249 C 
ATOM      5  O   UNL A   1      33.870  27.904  23.642  1.00  0.00    -0.272 OA
ATOM      6  H   UNL A   1      33.856  30.117  24.541  1.00  0.00     0.163 HD
BRANCH   4   7
ATOM      7  C   UNL A   1      33.179  27.064  25.823  1.00  0.00     0.207 C 
ATOM      8  C   UNL A   1      31.764  25.230  25.453  1.00  0.00     0.138 C 
ATOM      9  C   UNL A   1      33.058  24.709  26.048  1.00  0.00     0.037 C 
ATOM     10  O   UNL A   1      31.813  26.652  25.630  1.00  0.00    -0.363 OA
ATOM     11  C   UNL A   1      34.035  25.809  25.717  1.00  0.00     0.045 C 
BRANCH   8  12
ATOM     12  C   UNL A   1      31.572  24.912  23.952  1.00  0.00     0.148 C 
BRANCH  12  13
ATOM     13  N   UNL A   1      31.365  23.494  23.740  1.00  0.00    -0.349 N 
ATOM     14  C   UNL A   1      32.135  22.406  23.426  1.00  0.00     0.251 C 
ATOM     15  O   UNL A   1      31.497  21.590  22.747  1.00  0.00    -0.269 OA
ATOM     16  H   UNL A   1      30.419  23.247  23.851  1.00  0.00     0.163 HD
BRANCH  14  17
ATOM     17  C   UNL A   1      33.563  22.056  23.817  1.00  0.00     0.045 A 
ATOM     18  C   UNL A   1      37.752  21.839  25.090  1.00  0.00     0.044 C 
ATOM     19  C   UNL A   1      36.333  21.882  24.613  1.00  0.00    -0.051 A 
ATOM     20  C   UNL A   1      35.922  22.834  23.696  1.00  0.00     0.007 A 
ATOM     21  C   UNL A   1      35.382  20.992  25.091  1.00  0.00     0.007 A 
ATOM     22  C   UNL A   1      34.579  22.913  23.263  1.00  0.00    -0.038 A 
ATOM     23  C   UNL A   1      34.010  21.062  24.727  1.00  0.00    -0.038 A 
ATOM     24  C   UNL A   1      34.338  23.996  22.230  1.00  0.00     0.045 C 
ATOM     25  C   UNL A   1      33.187  20.012  25.402  1.00  0.00     0.045 C 
ENDBRANCH  14  17
ENDBRANCH  12  13
ENDBRANCH   8  12
ENDBRANCH   4   7
ENDBRANCH   2   3
ENDBRANCH   1   2
BRANCH   1  26
ATOM     26  C   UNL A   1      31.573  31.980  26.701  1.00  0.00     0.023 C 
BRANCH  26  27
ATOM     27  C   UNL A   1      32.763  32.741  27.274  1.00  0.00     0.116 C 
BRANCH  27  28
ATOM     28  N   UNL A   1      32.441  34.116  27.625  1.00  0.00    -0.352 N 
ATOM     29  C   UNL A   1      32.994  34.930  28.586  1.00  0.00     0.251 C 
ATOM     30  H   UNL A   1      31.719  34.524  27.096  1.00  0.00     0.163 HD
ATOM     31  O   UNL A   1      32.491  36.019  28.833  1.00  0.00    -0.269 OA
BRANCH  29  32
ATOM     32  C   UNL A   1      34.180  34.478  29.348  1.00  0.00     0.039 A 
ATOM     33  C   UNL A   1      33.992  33.899  30.605  1.00  0.00     0.014 A 
ATOM     34  C   UNL A   1      35.468  34.614  28.827  1.00  0.00     0.014 A 
ATOM     35  C   UNL A   1      35.087  33.381  31.302  1.00  0.00     0.010 A 
ATOM     36  C   UNL A   1      36.547  34.029  29.485  1.00  0.00     0.010 A 
ATOM     37  C   UNL A   1      36.368  33.398  30.725  1.00  0.00    -0.014 A 
BRANCH  37  38
ATOM     38  C   UNL A   1      37.527  32.749  31.393  1.00  0.00     0.031 A 
ATOM     39  C   UNL A   1      38.215  31.579  30.749  1.00  0.00     0.074 A 
ATOM     40  C   UNL A   1      37.913  33.171  32.614  1.00  0.00     0.049 A 
ATOM     41  N   UNL A   1      39.177  30.823  31.217  1.00  0.00    -0.248 NA
ATOM     42  C   UNL A   1      37.746  31.192  29.410  1.00  0.00     0.031 C 
ATOM     43  C   UNL A   1      37.307  34.273  33.361  1.00  0.00     0.029 A 
ATOM     44  N   UNL A   1      38.903  32.711  33.449  1.00  0.00    -0.354 N 
ATOM     45  C   UNL A   1      39.422  29.872  30.236  1.00  0.00     0.074 A 
ATOM     46  C   UNL A   1      38.469  30.107  29.172  1.00  0.00     0.031 C 
ATOM     47  C   UNL A   1      37.948  34.419  34.531  1.00  0.00     0.029 A 
ATOM     48  C   UNL A   1      38.977  33.391  34.641  1.00  0.00     0.049 A 
ATOM     49  H   UNL A   1      39.502  31.965  33.216  1.00  0.00     0.167 HD
ATOM     50  C   UNL A   1      40.370  28.904  30.213  1.00  0.00     0.037 A 
ATOM     51  C   UNL A   1      39.775  33.196  35.709  1.00  0.00     0.037 A 
ATOM     52  C   UNL A   1      41.323  28.678  31.268  1.00  0.00     0.049 A 
ATOM     53  C   UNL A   1      40.787  32.081  35.676  1.00  0.00     0.074 A 
ATOM     54  C   UNL A   1      42.347  27.748  31.320  1.00  0.00     0.029 A 
ATOM     55  N   UNL A   1      41.365  29.384  32.461  1.00  0.00    -0.354 N 
ATOM     56  N   UNL A   1      41.049  31.226  34.717  1.00  0.00    -0.248 NA
ATOM     57  C   UNL A   1      41.617  31.905  36.877  1.00  0.00     0.031 C 
ATOM     58  C   UNL A   1      42.974  27.855  32.566  1.00  0.00     0.029 A 
ATOM     59  C   UNL A   1      42.381  28.892  33.266  1.00  0.00     0.049 A 
ATOM     60  H   UNL A   1      40.763  30.125  32.700  1.00  0.00     0.167 HD
ATOM     61  C   UNL A   1      42.091  30.436  35.184  1.00  0.00     0.074 A 
ATOM     62  C   UNL A   1      42.427  30.926  36.504  1.00  0.00     0.031 C 
ATOM     63  C   UNL A   1      42.713  29.396  34.575  1.00  0.00     0.037 A 
BRANCH  50  64
ATOM     64  C   UNL A   1      40.429  28.016  29.003  1.00  0.00     0.064 A 
ATOM     65  C   UNL A   1      39.693  26.821  28.931  1.00  0.00     0.173 A 
ATOM     66  C   UNL A   1      41.190  28.383  27.883  1.00  0.00     0.173 A 
ATOM     67  F   UNL A   1      38.957  26.418  29.978  1.00  0.00    -0.203 F 
ATOM     68  C   UNL A   1      39.740  26.018  27.795  1.00  0.00     0.198 A 
ATOM     69  C   UNL A   1      41.208  27.592  26.736  1.00  0.00     0.198 A 
ATOM     70  F   UNL A   1      41.906  29.517  27.894  1.00  0.00    -0.203 F 
ATOM     71  F   UNL A   1      39.067  24.858  27.769  1.00  0.00    -0.200 F 
ATOM     72  C   UNL A   1      40.489  26.407  26.696  1.00  0.00     0.200 A 
ATOM     73  F   UNL A   1      41.920  27.979  25.668  1.00  0.00    -0.200 F 
ATOM     74  F   UNL A   1      40.524  25.637  25.600  1.00  0.00    -0.200 F 
ENDBRANCH  50  64
BRANCH  51  75
ATOM     75  C   UNL A   1      39.661  34.077  36.903  1.00  0.00     0.064 A 
ATOM     76  C   UNL A   1      40.373  35.282  36.979  1.00  0.00     0.173 A 
ATOM     77  C   UNL A   1      38.866  33.721  38.003  1.00  0.00     0.173 A 
ATOM     78  F   UNL A   1      41.164  35.657  35.962  1.00  0.00    -0.203 F 
ATOM     79  C   UNL A   1      40.320  36.081  38.119  1.00  0.00     0.198 A 
ATOM     80  C   UNL A   1      38.787  34.539  39.129  1.00  0.00     0.198 A 
ATOM     81  F   UNL A   1      38.162  32.580  37.983  1.00  0.00    -0.203 F 
ATOM     82  F   UNL A   1      41.059  37.197  38.187  1.00  0.00    -0.200 F 
ATOM     83  C   UNL A   1      39.523  35.711  39.191  1.00  0.00     0.200 A 
ATOM     84  F   UNL A   1      38.003  34.184  40.156  1.00  0.00    -0.200 F 
ATOM     85  F   UNL A   1      39.473  36.479  40.288  1.00  0.00    -0.200 F 
ENDBRANCH  51  75
BRANCH  63  86
ATOM     86  C   UNL A   1      43.847  28.743  35.312  1.00  0.00     0.064 A 
ATOM     87  C   UNL A   1      45.176  29.159  35.141  1.00  0.00     0.173 A 
ATOM     88  C   UNL A   1      43.597  27.710  36.228  1.00  0.00     0.173 A 
ATOM     89  F   UNL A   1      45.471  30.131  34.266  1.00  0.00    -0.203 F 
ATOM     90  C   UNL A   1      46.214  28.544  35.838  1.00  0.00     0.198 A 
ATOM     91  C   UNL A   1      44.632  27.122  36.949  1.00  0.00     0.198 A 
ATOM     92  F   UNL A   1      42.343  27.278  36.436  1.00  0.00    -0.203 F 
ATOM     93  F   UNL A   1      47.481  28.920  35.616  1.00  0.00    -0.200 F 
ATOM     94  C   UNL A   1      45.940  27.532  36.746  1.00  0.00     0.200 A 
ATOM     95  F   UNL A   1      44.364  26.156  37.839  1.00  0.00    -0.200 F 
ATOM     96  F   UNL A   1      46.940  26.949  37.421  1.00  0.00    -0.200 F 
ENDBRANCH  63  86
ENDBRANCH  37  38
ENDBRANCH  29  32
ENDBRANCH  27  28
ENDBRANCH  26  27
ENDBRANCH   1  26
TORSDOF 14
ENDMDL
MODEL 2
REMARK VINA RESULT:     -12.5      5.645     11.194
REMARK SMILES Cc1cc(C)c(C(=O)NC[C@H]2CC[C@@H](C(=O)NCCCCNC(=O)c3ccc(-c4c5nc(c(-c6c(F)c(F)c(F)c(F)c6F)c6ccc([nH]6)c(-c6c(F)c(F)c(F)c(F)c6F)c6nc(c(-c7c(F)c(F)c(F)c(F)c7F)c7ccc4[nH]7)C=C6)C=C5)cc3)O2)c(C)c1
REMARK SMILES IDX 19 1 18 2 17 3 15 4 16 5 14 7 11 8 12 9 88 10 13 11 10 12
REMARK SMILES IDX 9 13 7 14 8 15 6 17 1 18 2 19 3 20 91 21 4 22 89 23 5 24
REMARK SMILES IDX 90 25 20 26 21 27 22 28 23 29 24 31 25 32 26 33 87 34 27 35
REMARK SMILES IDX 86 36 28 37 29 38 30 39 80 40 31 41 85 42 79 43 81 44 32 45
REMARK SMILES IDX 84 46 78 47 77 48 33 50 65 51 45 52 64 53 46 54 49 55 63 56
REMARK SMILES IDX 82 57 47 58 48 59 62 61 83 62 50 63 34 64 35 65 43 66 36 67
REMARK SMILES IDX 37 68 41 69 44 70 38 71 39 72 42 73 40 74 66 75 67 76 75 77
REMARK SMILES IDX 68 78 69 79 73 80 76 81 70 82 71 83 74 84 72 85 51 86 52 87
REMARK SMILES IDX 60 88 53 89 54 90 58 91 61 92 55 93 56 94 59 95 57 96
REMARK H PARENT 17 6 9 16 22 30 81 49 49 60
REMARK Flexibility Score: inf
ROOT
ATOM      1  C   UNL A   1      36.831  20.563  25.004  1.00  0.00     0.023 C 
ENDROOT
BRANCH   1   2
ATOM      2  C   UNL A   1      36.974  22.007  25.477  1.00  0.00     0.116 C 
BRANCH   2   3
ATOM      3  N   UNL A   1      35.883  22.410  26.348  1.00  0.00    -0.354 N 
ATOM      4  C   UNL A   1      34.884  23.312  26.098  1.00  0.00     0.249 C 
ATOM      5  O   UNL A   1      34.034  23.497  26.971  1.00  0.00    -0.272 OA
ATOM      6  H   UNL A   1      35.859  21.978  27.233  1.00  0.00     0.163 HD
BRANCH   4   7
ATOM      7  C   UNL A   1      34.894  24.076  24.765  1.00  0.00     0.207 C 
ATOM      8  C   UNL A   1      33.135  24.218  23.220  1.00  0.00     0.138 C 
ATOM      9  C   UNL A   1      33.613  25.627  23.513  1.00  0.00     0.037 C 
ATOM     10  O   UNL A   1      34.137  23.356  23.775  1.00  0.00    -0.363 OA
ATOM     11  C   UNL A   1      34.287  25.470  24.853  1.00  0.00     0.045 C 
BRANCH   8  12
ATOM     12  C   UNL A   1      31.762  23.863  23.838  1.00  0.00     0.148 C 
BRANCH  12  13
ATOM     13  N   UNL A   1      30.735  24.781  23.391  1.00  0.00    -0.349 N 
ATOM     14  C   UNL A   1      30.133  25.917  23.863  1.00  0.00     0.251 C 
ATOM     15  O   UNL A   1      28.949  25.977  23.501  1.00  0.00    -0.269 OA
ATOM     16  H   UNL A   1      30.372  24.518  22.514  1.00  0.00     0.163 HD
BRANCH  14  17
ATOM     17  C   UNL A   1      30.695  27.072  24.678  1.00  0.00     0.045 A 
ATOM     18  C   UNL A   1      32.880  29.868  27.252  1.00  0.00     0.044 C 
ATOM     19  C   UNL A   1      32.088  28.930  26.394  1.00  0.00    -0.051 A 
ATOM     20  C   UNL A   1      31.751  27.666  26.850  1.00  0.00     0.007 A 
ATOM     21  C   UNL A   1      31.690  29.282  25.113  1.00  0.00     0.007 A 
ATOM     22  C   UNL A   1      31.035  26.754  26.040  1.00  0.00    -0.038 A 
ATOM     23  C   UNL A   1      31.016  28.384  24.241  1.00  0.00    -0.038 A 
ATOM     24  C   UNL A   1      30.730  25.441  26.732  1.00  0.00     0.045 C 
ATOM     25  C   UNL A   1      30.728  28.995  22.907  1.00  0.00     0.045 C 
ENDBRANCH  14  17
ENDBRANCH  12  13
ENDBRANCH   8  12
ENDBRANCH   4   7
ENDBRANCH   2   3
ENDBRANCH   1   2
BRANCH   1  26
ATOM     26  C   UNL A   1      38.148  19.827  24.757  1.00  0.00     0.023 C 
BRANCH  26  27
ATOM     27  C   UNL A   1      39.273  20.162  25.729  1.00  0.00     0.116 C 
BRANCH  27  28
ATOM     28  N   UNL A   1      40.241  19.085  25.870  1.00  0.00    -0.352 N 
ATOM     29  C   UNL A   1      41.591  19.143  26.123  1.00  0.00     0.251 C 
ATOM     30  H   UNL A   1      39.873  18.178  25.767  1.00  0.00     0.163 HD
ATOM     31  O   UNL A   1      42.273  18.128  26.064  1.00  0.00    -0.269 OA
BRANCH  29  32
ATOM     32  C   UNL A   1      42.231  20.442  26.437  1.00  0.00     0.039 A 
ATOM     33  C   UNL A   1      42.815  21.172  25.399  1.00  0.00     0.014 A 
ATOM     34  C   UNL A   1      42.248  20.942  27.740  1.00  0.00     0.014 A 
ATOM     35  C   UNL A   1      43.342  22.440  25.654  1.00  0.00     0.010 A 
ATOM     36  C   UNL A   1      42.702  22.237  27.979  1.00  0.00     0.010 A 
ATOM     37  C   UNL A   1      43.246  23.004  26.938  1.00  0.00    -0.014 A 
BRANCH  37  38
ATOM     38  C   UNL A   1      43.693  24.396  27.208  1.00  0.00     0.031 A 
ATOM     39  C   UNL A   1      42.708  25.430  27.677  1.00  0.00     0.074 A 
ATOM     40  C   UNL A   1      44.971  24.745  26.961  1.00  0.00     0.049 A 
ATOM     41  N   UNL A   1      42.884  26.713  27.874  1.00  0.00    -0.248 NA
ATOM     42  C   UNL A   1      41.337  24.966  27.940  1.00  0.00     0.031 C 
ATOM     43  C   UNL A   1      46.016  23.846  26.472  1.00  0.00     0.029 A 
ATOM     44  N   UNL A   1      45.607  25.958  27.076  1.00  0.00    -0.354 N 
ATOM     45  C   UNL A   1      41.650  27.207  28.275  1.00  0.00     0.074 A 
ATOM     46  C   UNL A   1      40.719  26.099  28.238  1.00  0.00     0.031 C 
ATOM     47  C   UNL A   1      47.164  24.528  26.349  1.00  0.00     0.029 A 
ATOM     48  C   UNL A   1      46.929  25.924  26.702  1.00  0.00     0.049 A 
ATOM     49  H   UNL A   1      45.158  26.774  27.397  1.00  0.00     0.167 HD
ATOM     50  C   UNL A   1      41.327  28.464  28.663  1.00  0.00     0.037 A 
ATOM     51  C   UNL A   1      47.843  26.912  26.635  1.00  0.00     0.037 A 
ATOM     52  C   UNL A   1      42.257  29.563  28.708  1.00  0.00     0.049 A 
ATOM     53  C   UNL A   1      47.443  28.311  27.024  1.00  0.00     0.074 A 
ATOM     54  C   UNL A   1      42.035  30.864  29.124  1.00  0.00     0.029 A 
ATOM     55  N   UNL A   1      43.586  29.490  28.318  1.00  0.00    -0.354 N 
ATOM     56  N   UNL A   1      46.288  28.752  27.460  1.00  0.00    -0.248 NA
ATOM     57  C   UNL A   1      48.477  29.349  26.914  1.00  0.00     0.031 C 
ATOM     58  C   UNL A   1      43.213  31.592  28.935  1.00  0.00     0.029 A 
ATOM     59  C   UNL A   1      44.188  30.732  28.459  1.00  0.00     0.049 A 
ATOM     60  H   UNL A   1      44.035  28.679  27.991  1.00  0.00     0.167 HD
ATOM     61  C   UNL A   1      46.465  30.108  27.706  1.00  0.00     0.074 A 
ATOM     62  C   UNL A   1      47.844  30.411  27.389  1.00  0.00     0.031 C 
ATOM     63  C   UNL A   1      45.566  31.019  28.150  1.00  0.00     0.037 A 
BRANCH  50  64
ATOM     64  C   UNL A   1      39.905  28.722  29.075  1.00  0.00     0.064 A 
ATOM     65  C   UNL A   1      38.937  29.146  28.149  1.00  0.00     0.173 A 
ATOM     66  C   UNL A   1      39.493  28.498  30.397  1.00  0.00     0.173 A 
ATOM     67  F   UNL A   1      39.280  29.385  26.875  1.00  0.00    -0.203 F 
ATOM     68  C   UNL A   1      37.618  29.361  28.540  1.00  0.00     0.198 A 
ATOM     69  C   UNL A   1      38.165  28.683  30.775  1.00  0.00     0.198 A 
ATOM     70  F   UNL A   1      40.374  28.086  31.320  1.00  0.00    -0.203 F 
ATOM     71  F   UNL A   1      36.723  29.813  27.650  1.00  0.00    -0.200 F 
ATOM     72  C   UNL A   1      37.231  29.122  29.849  1.00  0.00     0.200 A 
ATOM     73  F   UNL A   1      37.789  28.436  32.038  1.00  0.00    -0.200 F 
ATOM     74  F   UNL A   1      35.959  29.319  30.220  1.00  0.00    -0.200 F 
ENDBRANCH  50  64
BRANCH  51  75
ATOM     75  C   UNL A   1      49.232  26.620  26.188  1.00  0.00     0.064 A 
ATOM     76  C   UNL A   1      50.202  26.173  27.096  1.00  0.00     0.173 A 
ATOM     77  C   UNL A   1      49.628  26.812  24.855  1.00  0.00     0.173 A 
ATOM     78  F   UNL A   1      49.878  25.994  28.385  1.00  0.00    -0.203 F 
ATOM     79  C   UNL A   1      51.519  25.958  26.698  1.00  0.00     0.198 A 
ATOM     80  C   UNL A   1      50.939  26.564  24.451  1.00  0.00     0.198 A 
ATOM     81  F   UNL A   1      48.741  27.236  23.944  1.00  0.00    -0.203 F 
ATOM     82  F   UNL A   1      52.438  25.589  27.600  1.00  0.00    -0.200 F 
ATOM     83  C   UNL A   1      51.886  26.149  25.374  1.00  0.00     0.200 A 
ATOM     84  F   UNL A   1      51.284  26.735  23.168  1.00  0.00    -0.200 F 
ATOM     85  F   UNL A   1      53.154  25.944  24.992  1.00  0.00    -0.200 F 
ENDBRANCH  51  75
BRANCH  63  86
ATOM     86  C   UNL A   1      46.054  32.424  28.362  1.00  0.00     0.064 A 
ATOM     87  C   UNL A   1      45.963  33.397  27.355  1.00  0.00     0.173 A 
ATOM     88  C   UNL A   1      46.588  32.811  29.601  1.00  0.00     0.173 A 
ATOM     89  F   UNL A   1      45.475  33.076  26.148  1.00  0.00    -0.203 F 
ATOM     90  C   UNL A   1      46.416  34.697  27.573  1.00  0.00     0.198 A 
ATOM     91  C   UNL A   1      47.007  34.119  29.826  1.00  0.00     0.198 A 
ATOM     92  F   UNL A   1      46.691  31.922  30.600  1.00  0.00    -0.203 F 
ATOM     93  F   UNL A   1      46.371  35.594  26.578  1.00  0.00    -0.200 F 
ATOM     94  C   UNL A   1      46.930  35.058  28.810  1.00  0.00     0.200 A 
ATOM     95  F   UNL A   1      47.488  34.470  31.027  1.00  0.00    -0.200 F 
ATOM     96  F   UNL A   1      47.357  36.310  29.019  1.00  0.00    -0.200 F 
ENDBRANCH  63  86
ENDBRANCH  37  38
ENDBRANCH  29  32
ENDBRANCH  27  28
ENDBRANCH  26  27
ENDBRANCH   1  26
TORSDOF 14
ENDMDL
MODEL 3
REMARK VINA RESULT:     -12.5      0.484      1.898
REMARK SMILES Cc1cc(C)c(C(=O)NC[C@H]2CC[C@@H](C(=O)NCCCCNC(=O)c3ccc(-c4c5nc(c(-c6c(F)c(F)c(F)c(F)c6F)c6ccc([nH]6)c(-c6c(F)c(F)c(F)c(F)c6F)c6nc(c(-c7c(F)c(F)c(F)c(F)c7F)c7ccc4[nH]7)C=C6)C=C5)cc3)O2)c(C)c1
REMARK SMILES IDX 19 1 18 2 17 3 15 4 16 5 14 7 11 8 12 9 88 10 13 11 10 12
REMARK SMILES IDX 9 13 7 14 8 15 6 17 1 18 2 19 3 20 91 21 4 22 89 23 5 24
REMARK SMILES IDX 90 25 20 26 21 27 22 28 23 29 24 31 25 32 26 33 87 34 27 35
REMARK SMILES IDX 86 36 28 37 29 38 30 39 80 40 31 41 85 42 79 43 81 44 32 45
REMARK SMILES IDX 84 46 78 47 77 48 33 50 65 51 45 52 64 53 46 54 49 55 63 56
REMARK SMILES IDX 82 57 47 58 48 59 62 61 83 62 50 63 34 64 35 65 43 66 36 67
REMARK SMILES IDX 37 68 41 69 44 70 38 71 39 72 42 73 40 74 66 75 67 76 75 77
REMARK SMILES IDX 68 78 69 79 73 80 76 81 70 82 71 83 74 84 72 85 51 86 52 87
REMARK SMILES IDX 60 88 53 89 54 90 58 91 61 92 55 93 56 94 59 95 57 96
REMARK H PARENT 17 6 9 16 22 30 81 49 49 60
REMARK Flexibility Score: inf
ROOT
ATOM      1  C   UNL A   1      31.848  30.494  26.456  1.00  0.00     0.023 C 
ENDROOT
BRANCH   1   2
ATOM      2  C   UNL A   1      31.288  30.028  25.116  1.00  0.00     0.116 C 
BRANCH   2   3
ATOM      3  N   UNL A   1      32.294  29.372  24.298  1.00  0.00    -0.354 N 
ATOM      4  C   UNL A   1      32.593  28.038  24.226  1.00  0.00     0.249 C 
ATOM      5  O   UNL A   1      33.475  27.680  23.444  1.00  0.00    -0.272 OA
ATOM      6  H   UNL A   1      32.828  29.963  23.720  1.00  0.00     0.163 HD
BRANCH   4   7
ATOM      7  C   UNL A   1      31.847  27.062  25.149  1.00  0.00     0.207 C 
ATOM      8  C   UNL A   1      30.661  25.147  24.493  1.00  0.00     0.138 C 
ATOM      9  C   UNL A   1      31.622  24.746  25.596  1.00  0.00     0.037 C 
ATOM     10  O   UNL A   1      30.654  26.581  24.501  1.00  0.00    -0.363 OA
ATOM     11  C   UNL A   1      32.664  25.834  25.531  1.00  0.00     0.045 C 
BRANCH   8  12
ATOM     12  C   UNL A   1      31.054  24.648  23.084  1.00  0.00     0.148 C 
BRANCH  12  13
ATOM     13  N   UNL A   1      31.081  23.202  23.029  1.00  0.00    -0.349 N 
ATOM     14  C   UNL A   1      32.034  22.219  22.983  1.00  0.00     0.251 C 
ATOM     15  O   UNL A   1      31.640  21.247  22.325  1.00  0.00    -0.269 OA
ATOM     16  H   UNL A   1      30.172  22.823  23.022  1.00  0.00     0.163 HD
BRANCH  14  17
ATOM     17  C   UNL A   1      33.408  22.139  23.634  1.00  0.00     0.045 A 
ATOM     18  C   UNL A   1      37.368  21.147  25.229  1.00  0.00     0.044 C 
ATOM     19  C   UNL A   1      36.002  21.508  24.732  1.00  0.00    -0.051 A 
ATOM     20  C   UNL A   1      34.929  20.657  24.928  1.00  0.00     0.007 A 
ATOM     21  C   UNL A   1      35.774  22.687  24.038  1.00  0.00     0.007 A 
ATOM     22  C   UNL A   1      33.640  20.964  24.432  1.00  0.00    -0.038 A 
ATOM     23  C   UNL A   1      34.511  23.018  23.475  1.00  0.00    -0.038 A 
ATOM     24  C   UNL A   1      32.593  19.926  24.783  1.00  0.00     0.045 C 
ATOM     25  C   UNL A   1      34.535  24.326  22.750  1.00  0.00     0.045 C 
ENDBRANCH  14  17
ENDBRANCH  12  13
ENDBRANCH   8  12
ENDBRANCH   4   7
ENDBRANCH   2   3
ENDBRANCH   1   2
BRANCH   1  26
ATOM     26  C   UNL A   1      31.579  31.959  26.800  1.00  0.00     0.023 C 
BRANCH  26  27
ATOM     27  C   UNL A   1      32.794  32.751  27.268  1.00  0.00     0.116 C 
BRANCH  27  28
ATOM     28  N   UNL A   1      32.472  34.123  27.629  1.00  0.00    -0.352 N 
ATOM     29  C   UNL A   1      33.026  34.932  28.593  1.00  0.00     0.251 C 
ATOM     30  H   UNL A   1      31.748  34.534  27.104  1.00  0.00     0.163 HD
ATOM     31  O   UNL A   1      32.522  36.018  28.849  1.00  0.00    -0.269 OA
BRANCH  29  32
ATOM     32  C   UNL A   1      34.215  34.477  29.349  1.00  0.00     0.039 A 
ATOM     33  C   UNL A   1      34.031  33.883  30.600  1.00  0.00     0.014 A 
ATOM     34  C   UNL A   1      35.502  34.624  28.827  1.00  0.00     0.014 A 
ATOM     35  C   UNL A   1      35.129  33.362  31.289  1.00  0.00     0.010 A 
ATOM     36  C   UNL A   1      36.584  34.036  29.477  1.00  0.00     0.010 A 
ATOM     37  C   UNL A   1      36.409  33.391  30.712  1.00  0.00    -0.014 A 
BRANCH  37  38
ATOM     38  C   UNL A   1      37.572  32.740  31.371  1.00  0.00     0.031 A 
ATOM     39  C   UNL A   1      38.273  31.589  30.706  1.00  0.00     0.074 A 
ATOM     40  C   UNL A   1      37.949  33.141  32.601  1.00  0.00     0.049 A 
ATOM     41  N   UNL A   1      39.241  30.833  31.163  1.00  0.00    -0.248 NA
ATOM     42  C   UNL A   1      37.813  31.224  29.358  1.00  0.00     0.031 C 
ATOM     43  C   UNL A   1      37.330  34.222  33.368  1.00  0.00     0.029 A 
ATOM     44  N   UNL A   1      38.940  32.674  33.431  1.00  0.00    -0.354 N 
ATOM     45  C   UNL A   1      39.498  29.904  30.164  1.00  0.00     0.074 A 
ATOM     46  C   UNL A   1      38.547  30.152  29.101  1.00  0.00     0.031 C 
ATOM     47  C   UNL A   1      37.965  34.350  34.543  1.00  0.00     0.029 A 
ATOM     48  C   UNL A   1      39.004  33.331  34.637  1.00  0.00     0.049 A 
ATOM     49  H   UNL A   1      39.548  31.939  33.185  1.00  0.00     0.167 HD
ATOM     50  C   UNL A   1      40.455  28.946  30.125  1.00  0.00     0.037 A 
ATOM     51  C   UNL A   1      39.800  33.122  35.704  1.00  0.00     0.037 A 
ATOM     52  C   UNL A   1      41.407  28.707  31.180  1.00  0.00     0.049 A 
ATOM     53  C   UNL A   1      40.823  32.017  35.652  1.00  0.00     0.074 A 
ATOM     54  C   UNL A   1      42.439  27.787  31.217  1.00  0.00     0.029 A 
ATOM     55  N   UNL A   1      41.437  29.391  32.387  1.00  0.00    -0.354 N 
ATOM     56  N   UNL A   1      41.096  31.184  34.678  1.00  0.00    -0.248 NA
ATOM     57  C   UNL A   1      41.650  31.826  36.852  1.00  0.00     0.031 C 
ATOM     58  C   UNL A   1      43.060  27.875  32.467  1.00  0.00     0.029 A 
ATOM     59  C   UNL A   1      42.455  28.892  33.186  1.00  0.00     0.049 A 
ATOM     60  H   UNL A   1      40.828  30.121  32.638  1.00  0.00     0.167 HD
ATOM     61  C   UNL A   1      42.144  30.394  35.132  1.00  0.00     0.074 A 
ATOM     62  C   UNL A   1      42.470  30.861  36.463  1.00  0.00     0.031 C 
ATOM     63  C   UNL A   1      42.777  29.373  34.506  1.00  0.00     0.037 A 
BRANCH  50  64
ATOM     64  C   UNL A   1      40.527  28.082  28.898  1.00  0.00     0.064 A 
ATOM     65  C   UNL A   1      39.805  26.881  28.801  1.00  0.00     0.173 A 
ATOM     66  C   UNL A   1      41.286  28.481  27.787  1.00  0.00     0.173 A 
ATOM     67  F   UNL A   1      39.072  26.449  29.838  1.00  0.00    -0.203 F 
ATOM     68  C   UNL A   1      39.864  26.101  27.650  1.00  0.00     0.198 A 
ATOM     69  C   UNL A   1      41.315  27.713  26.626  1.00  0.00     0.198 A 
ATOM     70  F   UNL A   1      41.989  29.623  27.823  1.00  0.00    -0.203 F 
ATOM     71  F   UNL A   1      39.205  24.934  27.600  1.00  0.00    -0.200 F 
ATOM     72  C   UNL A   1      40.611  26.521  26.561  1.00  0.00     0.200 A 
ATOM     73  F   UNL A   1      42.025  28.129  25.567  1.00  0.00    -0.200 F 
ATOM     74  F   UNL A   1      40.657  25.773  25.449  1.00  0.00    -0.200 F 
ENDBRANCH  50  64
BRANCH  51  75
ATOM     75  C   UNL A   1      39.673  33.978  36.914  1.00  0.00     0.064 A 
ATOM     76  C   UNL A   1      38.875  33.580  37.996  1.00  0.00     0.173 A 
ATOM     77  C   UNL A   1      40.315  35.222  37.002  1.00  0.00     0.173 A 
ATOM     78  F   UNL A   1      38.223  32.409  37.951  1.00  0.00    -0.203 F 
ATOM     79  C   UNL A   1      38.701  34.404  39.106  1.00  0.00     0.198 A 
ATOM     80  C   UNL A   1      40.167  36.030  38.128  1.00  0.00     0.198 A 
ATOM     81  F   UNL A   1      41.091  35.652  35.997  1.00  0.00    -0.203 F 
ATOM     82  F   UNL A   1      37.885  34.024  40.098  1.00  0.00    -0.200 F 
ATOM     83  C   UNL A   1      39.350  35.627  39.173  1.00  0.00     0.200 A 
ATOM     84  F   UNL A   1      40.809  37.205  38.194  1.00  0.00    -0.200 F 
ATOM     85  F   UNL A   1      39.181  36.421  40.239  1.00  0.00    -0.200 F 
ENDBRANCH  51  75
BRANCH  63  86
ATOM     86  C   UNL A   1      43.915  28.716  35.234  1.00  0.00     0.064 A 
ATOM     87  C   UNL A   1      43.712  27.620  36.086  1.00  0.00     0.173 A 
ATOM     88  C   UNL A   1      45.231  29.167  35.048  1.00  0.00     0.173 A 
ATOM     89  F   UNL A   1      42.473  27.159  36.310  1.00  0.00    -0.203 F 
ATOM     90  C   UNL A   1      44.782  27.020  36.748  1.00  0.00     0.198 A 
ATOM     91  C   UNL A   1      46.301  28.543  35.683  1.00  0.00     0.198 A 
ATOM     92  F   UNL A   1      45.482  30.206  34.238  1.00  0.00    -0.203 F 
ATOM     93  F   UNL A   1      44.557  26.011  37.601  1.00  0.00    -0.200 F 
ATOM     94  C   UNL A   1      46.075  27.477  36.540  1.00  0.00     0.200 A 
ATOM     95  F   UNL A   1      47.551  28.975  35.468  1.00  0.00    -0.200 F 
ATOM     96  F   UNL A   1      47.102  26.893  37.171  1.00  0.00    -0.200 F 
ENDBRANCH  63  86
ENDBRANCH  37  38
ENDBRANCH  29  32
ENDBRANCH  27  28
ENDBRANCH  26  27
ENDBRANCH   1  26
TORSDOF 14
ENDMDL
