MODEL 1
REMARK VINA RESULT:     -12.7      0.000      0.000
REMARK SMILES O=C(NCCCCNC(=O)c1cccc(S(=O)(=O)NC[C@@H]2COc3ccccc3O2)c1)c1ccc(-c2c3nc(c(-c4c(F)c(F)c(F)c(F)c4F)c4ccc([nH]4)c(-c4c(F)c(F)c(F)c(F)c4F)c4nc(c(-c5c(F)c(F)c(F)c(F)c5F)c5ccc2[nH]5)C=C4)C=C3)cc1
REMARK SMILES IDX 6 1 5 2 4 3 3 4 1 5 2 6 32 8 33 9 94 10 34 11 93 12 35 13
REMARK SMILES IDX 36 14 37 15 87 16 38 17 92 18 86 19 88 20 39 21 91 22 85 23
REMARK SMILES IDX 84 24 40 26 72 27 52 28 71 29 53 30 56 31 70 32 89 33 54 34
REMARK SMILES IDX 55 35 69 37 90 38 57 39 41 40 42 41 50 42 43 43 44 44 48 45
REMARK SMILES IDX 51 46 45 47 46 48 49 49 47 50 73 51 74 52 82 53 75 54 76 55
REMARK SMILES IDX 80 56 83 57 77 58 78 59 81 60 79 61 58 62 59 63 67 64 60 65
REMARK SMILES IDX 61 66 65 67 68 68 62 69 63 70 66 71 64 72 7 73 8 74 9 75
REMARK SMILES IDX 10 77 11 78 12 79 31 80 13 81 15 82 14 83 16 84 17 85 18 86
REMARK SMILES IDX 19 87 20 89 21 90 22 91 30 92 23 93 29 94 24 95 28 96 25 97
REMARK SMILES IDX 27 98 26 99
REMARK H PARENT 3 7 88 25 56 36 8 76 19 88
REMARK Flexibility Score: inf
ROOT
ATOM      1  C   UNL A   1      35.262  21.365  26.126  1.00  0.00     0.023 C 
ENDROOT
BRANCH   1   2
ATOM      2  C   UNL A   1      35.262  22.841  25.727  1.00  0.00     0.023 C 
BRANCH   2   3
ATOM      3  C   UNL A   1      36.623  23.529  25.765  1.00  0.00     0.116 C 
BRANCH   3   4
ATOM      4  N   UNL A   1      37.718  22.599  25.990  1.00  0.00    -0.352 N 
ATOM      5  O   UNL A   1      39.820  21.922  26.435  1.00  0.00    -0.269 OA
ATOM      6  C   UNL A   1      38.989  22.825  26.461  1.00  0.00     0.251 C 
ATOM      7  H   UNL A   1      37.518  21.660  25.770  1.00  0.00     0.163 HD
BRANCH   6   8
ATOM      8  C   UNL A   1      39.369  24.157  26.978  1.00  0.00     0.039 A 
ATOM      9  C   UNL A   1      39.977  25.105  26.152  1.00  0.00     0.014 A 
ATOM     10  C   UNL A   1      39.089  24.469  28.313  1.00  0.00     0.014 A 
ATOM     11  C   UNL A   1      40.440  26.300  26.693  1.00  0.00     0.010 A 
ATOM     12  C   UNL A   1      39.484  25.704  28.836  1.00  0.00     0.010 A 
ATOM     13  C   UNL A   1      40.194  26.614  28.040  1.00  0.00    -0.014 A 
BRANCH  13  14
ATOM     14  C   UNL A   1      40.654  27.917  28.583  1.00  0.00     0.031 A 
ATOM     15  C   UNL A   1      42.110  28.172  28.852  1.00  0.00     0.074 A 
ATOM     16  C   UNL A   1      39.745  28.882  28.816  1.00  0.00     0.049 A 
ATOM     17  N   UNL A   1      42.686  29.250  29.325  1.00  0.00    -0.248 NA
ATOM     18  C   UNL A   1      43.044  27.075  28.557  1.00  0.00     0.031 C 
ATOM     19  C   UNL A   1      38.303  28.746  28.604  1.00  0.00     0.029 A 
ATOM     20  N   UNL A   1      39.895  30.167  29.269  1.00  0.00    -0.354 N 
ATOM     21  C   UNL A   1      44.040  28.955  29.406  1.00  0.00     0.074 A 
ATOM     22  C   UNL A   1      44.201  27.589  28.952  1.00  0.00     0.031 C 
ATOM     23  C   UNL A   1      37.705  29.912  28.890  1.00  0.00     0.029 A 
ATOM     24  C   UNL A   1      38.712  30.858  29.357  1.00  0.00     0.049 A 
ATOM     25  H   UNL A   1      40.767  30.557  29.508  1.00  0.00     0.167 HD
ATOM     26  C   UNL A   1      45.055  29.755  29.811  1.00  0.00     0.037 A 
ATOM     27  C   UNL A   1      38.463  32.111  29.781  1.00  0.00     0.037 A 
ATOM     28  C   UNL A   1      44.893  31.121  30.241  1.00  0.00     0.049 A 
ATOM     29  C   UNL A   1      39.604  32.970  30.239  1.00  0.00     0.074 A 
ATOM     30  C   UNL A   1      45.866  32.024  30.634  1.00  0.00     0.029 A 
ATOM     31  N   UNL A   1      43.676  31.779  30.336  1.00  0.00    -0.354 N 
ATOM     32  N   UNL A   1      40.884  32.689  30.282  1.00  0.00    -0.248 NA
ATOM     33  C   UNL A   1      39.269  34.320  30.710  1.00  0.00     0.031 C 
ATOM     34  C   UNL A   1      45.233  33.216  31.005  1.00  0.00     0.029 A 
ATOM     35  C   UNL A   1      43.871  33.071  30.801  1.00  0.00     0.049 A 
ATOM     36  H   UNL A   1      42.802  31.388  30.107  1.00  0.00     0.167 HD
ATOM     37  C   UNL A   1      41.508  33.826  30.771  1.00  0.00     0.074 A 
ATOM     38  C   UNL A   1      40.467  34.810  30.993  1.00  0.00     0.031 C 
ATOM     39  C   UNL A   1      42.824  34.036  31.018  1.00  0.00     0.037 A 
BRANCH  26  40
ATOM     40  C   UNL A   1      46.438  29.171  29.827  1.00  0.00     0.064 A 
ATOM     41  C   UNL A   1      46.957  28.536  30.965  1.00  0.00     0.173 A 
ATOM     42  C   UNL A   1      47.237  29.207  28.674  1.00  0.00     0.173 A 
ATOM     43  F   UNL A   1      46.237  28.485  32.096  1.00  0.00    -0.203 F 
ATOM     44  C   UNL A   1      48.233  27.978  30.956  1.00  0.00     0.198 A 
ATOM     45  C   UNL A   1      48.503  28.627  28.660  1.00  0.00     0.198 A 
ATOM     46  F   UNL A   1      46.786  29.798  27.557  1.00  0.00    -0.203 F 
ATOM     47  F   UNL A   1      48.724  27.411  32.066  1.00  0.00    -0.200 F 
ATOM     48  C   UNL A   1      49.001  28.018  29.801  1.00  0.00     0.200 A 
ATOM     49  F   UNL A   1      49.240  28.657  27.541  1.00  0.00    -0.200 F 
ATOM     50  F   UNL A   1      50.227  27.475  29.792  1.00  0.00    -0.200 F 
ENDBRANCH  26  40
BRANCH  27  51
ATOM     51  C   UNL A   1      37.067  32.615  29.786  1.00  0.00     0.064 A 
ATOM     52  C   UNL A   1      36.248  32.454  30.910  1.00  0.00     0.173 A 
ATOM     53  C   UNL A   1      36.537  33.294  28.680  1.00  0.00     0.173 A 
ATOM     54  F   UNL A   1      36.706  31.794  31.985  1.00  0.00    -0.203 F 
ATOM     55  C   UNL A   1      34.945  32.948  30.925  1.00  0.00     0.198 A 
ATOM     56  C   UNL A   1      35.245  33.812  28.706  1.00  0.00     0.198 A 
ATOM     57  F   UNL A   1      37.287  33.479  27.583  1.00  0.00    -0.203 F 
ATOM     58  F   UNL A   1      34.170  32.755  32.001  1.00  0.00    -0.200 F 
ATOM     59  C   UNL A   1      34.448  33.633  29.826  1.00  0.00     0.200 A 
ATOM     60  F   UNL A   1      34.775  34.487  27.649  1.00  0.00    -0.200 F 
ATOM     61  F   UNL A   1      33.200  34.120  29.847  1.00  0.00    -0.200 F 
ENDBRANCH  27  51
BRANCH  39  62
ATOM     62  C   UNL A   1      43.213  35.388  31.535  1.00  0.00     0.064 A 
ATOM     63  C   UNL A   1      43.161  35.690  32.904  1.00  0.00     0.173 A 
ATOM     64  C   UNL A   1      43.668  36.382  30.657  1.00  0.00     0.173 A 
ATOM     65  F   UNL A   1      42.715  34.778  33.780  1.00  0.00    -0.203 F 
ATOM     66  C   UNL A   1      43.531  36.948  33.372  1.00  0.00     0.198 A 
ATOM     67  C   UNL A   1      44.061  37.629  31.131  1.00  0.00     0.198 A 
ATOM     68  F   UNL A   1      43.738  36.139  29.339  1.00  0.00    -0.203 F 
ATOM     69  F   UNL A   1      43.433  37.230  34.678  1.00  0.00    -0.200 F 
ATOM     70  C   UNL A   1      43.986  37.914  32.486  1.00  0.00     0.200 A 
ATOM     71  F   UNL A   1      44.509  38.559  30.276  1.00  0.00    -0.200 F 
ATOM     72  F   UNL A   1      44.345  39.123  32.939  1.00  0.00    -0.200 F 
ENDBRANCH  39  62
ENDBRANCH  13  14
ENDBRANCH   6   8
ENDBRANCH   3   4
ENDBRANCH   2   3
ENDBRANCH   1   2
BRANCH   1  73
ATOM     73  C   UNL A   1      35.336  20.373  24.969  1.00  0.00     0.116 C 
BRANCH  73  74
ATOM     74  N   UNL A   1      34.306  19.351  25.056  1.00  0.00    -0.352 N 
ATOM     75  C   UNL A   1      32.940  19.471  25.062  1.00  0.00     0.251 C 
ATOM     76  H   UNL A   1      34.642  18.428  25.118  1.00  0.00     0.163 HD
ATOM     77  O   UNL A   1      32.252  18.490  25.333  1.00  0.00    -0.269 OA
BRANCH  75  78
ATOM     78  C   UNL A   1      32.274  20.740  24.686  1.00  0.00     0.041 A 
ATOM     79  C   UNL A   1      32.364  21.203  23.371  1.00  0.00     0.014 A 
ATOM     80  C   UNL A   1      31.695  21.549  25.660  1.00  0.00     0.035 A 
ATOM     81  C   UNL A   1      31.855  22.464  23.036  1.00  0.00     0.002 A 
ATOM     82  C   UNL A   1      31.242  22.826  25.341  1.00  0.00     0.083 A 
ATOM     83  C   UNL A   1      31.301  23.285  24.024  1.00  0.00     0.022 A 
BRANCH  82  84
ATOM     84  S   UNL A   1      30.641  23.897  26.624  1.00  0.00     0.240 S 
ATOM     85  O   UNL A   1      29.546  23.233  27.287  1.00  0.00    -0.207 OA
ATOM     86  O   UNL A   1      31.804  24.388  27.325  1.00  0.00    -0.207 OA
BRANCH  84  87
ATOM     87  N   UNL A   1      30.031  25.235  25.773  1.00  0.00    -0.207 NA
ATOM     88  H   UNL A   1      29.017  25.218  25.886  1.00  0.00     0.141 HD
BRANCH  87  89
ATOM     89  C   UNL A   1      30.477  26.613  26.125  1.00  0.00     0.147 C 
BRANCH  89  90
ATOM     90  C   UNL A   1      31.281  27.362  25.043  1.00  0.00     0.226 C 
ATOM     91  C   UNL A   1      32.731  26.896  24.880  1.00  0.00     0.276 C 
ATOM     92  O   UNL A   1      31.242  28.777  25.330  1.00  0.00    -0.482 OA
ATOM     93  O   UNL A   1      33.499  27.118  26.064  1.00  0.00    -0.486 OA
ATOM     94  C   UNL A   1      32.295  29.224  26.082  1.00  0.00     0.161 A 
ATOM     95  C   UNL A   1      33.384  28.428  26.446  1.00  0.00     0.161 A 
ATOM     96  C   UNL A   1      32.255  30.559  26.475  1.00  0.00     0.050 A 
ATOM     97  C   UNL A   1      34.415  28.950  27.221  1.00  0.00     0.050 A 
ATOM     98  C   UNL A   1      33.299  31.094  27.234  1.00  0.00     0.004 A 
ATOM     99  C   UNL A   1      34.377  30.289  27.608  1.00  0.00     0.004 A 
ENDBRANCH  89  90
ENDBRANCH  87  89
ENDBRANCH  84  87
ENDBRANCH  82  84
ENDBRANCH  75  78
ENDBRANCH  73  74
ENDBRANCH   1  73
TORSDOF 15
ENDMDL
MODEL 2
REMARK VINA RESULT:     -12.5      2.961      4.523
REMARK SMILES O=C(NCCCCNC(=O)c1cccc(S(=O)(=O)NC[C@@H]2COc3ccccc3O2)c1)c1ccc(-c2c3nc(c(-c4c(F)c(F)c(F)c(F)c4F)c4ccc([nH]4)c(-c4c(F)c(F)c(F)c(F)c4F)c4nc(c(-c5c(F)c(F)c(F)c(F)c5F)c5ccc2[nH]5)C=C4)C=C3)cc1
REMARK SMILES IDX 6 1 5 2 4 3 3 4 1 5 2 6 32 8 33 9 94 10 34 11 93 12 35 13
REMARK SMILES IDX 36 14 37 15 87 16 38 17 92 18 86 19 88 20 39 21 91 22 85 23
REMARK SMILES IDX 84 24 40 26 72 27 52 28 71 29 53 30 56 31 70 32 89 33 54 34
REMARK SMILES IDX 55 35 69 37 90 38 57 39 41 40 42 41 50 42 43 43 44 44 48 45
REMARK SMILES IDX 51 46 45 47 46 48 49 49 47 50 73 51 74 52 82 53 75 54 76 55
REMARK SMILES IDX 80 56 83 57 77 58 78 59 81 60 79 61 58 62 59 63 67 64 60 65
REMARK SMILES IDX 61 66 65 67 68 68 62 69 63 70 66 71 64 72 7 73 8 74 9 75
REMARK SMILES IDX 10 77 11 78 12 79 31 80 13 81 15 82 14 83 16 84 17 85 18 86
REMARK SMILES IDX 19 87 20 89 21 90 22 91 30 92 23 93 29 94 24 95 28 96 25 97
REMARK SMILES IDX 27 98 26 99
REMARK H PARENT 3 7 88 25 56 36 8 76 19 88
REMARK Flexibility Score: inf
ROOT
ATOM      1  C   UNL A   1      36.662  20.144  25.012  1.00  0.00     0.023 C 
ENDROOT
BRANCH   1   2
ATOM      2  C   UNL A   1      38.118  19.764  24.744  1.00  0.00     0.023 C 
BRANCH   2   3
ATOM      3  C   UNL A   1      39.098  20.094  25.865  1.00  0.00     0.116 C 
BRANCH   3   4
ATOM      4  N   UNL A   1      40.206  19.155  25.941  1.00  0.00    -0.352 N 
ATOM      5  O   UNL A   1      42.346  18.456  26.009  1.00  0.00    -0.269 OA
ATOM      6  C   UNL A   1      41.548  19.381  26.128  1.00  0.00     0.251 C 
ATOM      7  H   UNL A   1      39.954  18.208  25.844  1.00  0.00     0.163 HD
BRANCH   6   8
ATOM      8  C   UNL A   1      42.039  20.738  26.446  1.00  0.00     0.039 A 
ATOM      9  C   UNL A   1      42.315  21.116  27.762  1.00  0.00     0.014 A 
ATOM     10  C   UNL A   1      42.250  21.644  25.400  1.00  0.00     0.014 A 
ATOM     11  C   UNL A   1      42.653  22.435  28.048  1.00  0.00     0.010 A 
ATOM     12  C   UNL A   1      42.667  22.948  25.682  1.00  0.00     0.010 A 
ATOM     13  C   UNL A   1      42.837  23.364  27.011  1.00  0.00    -0.014 A 
BRANCH  13  14
ATOM     14  C   UNL A   1      43.246  24.753  27.336  1.00  0.00     0.031 A 
ATOM     15  C   UNL A   1      44.643  25.233  27.056  1.00  0.00     0.074 A 
ATOM     16  C   UNL A   1      42.338  25.591  27.870  1.00  0.00     0.049 A 
ATOM     17  N   UNL A   1      45.169  26.413  27.277  1.00  0.00    -0.248 NA
ATOM     18  C   UNL A   1      45.572  24.265  26.457  1.00  0.00     0.031 C 
ATOM     19  C   UNL A   1      40.956  25.234  28.196  1.00  0.00     0.029 A 
ATOM     20  N   UNL A   1      42.433  26.912  28.223  1.00  0.00    -0.354 N 
ATOM     21  C   UNL A   1      46.492  26.323  26.865  1.00  0.00     0.074 A 
ATOM     22  C   UNL A   1      46.697  24.966  26.400  1.00  0.00     0.031 C 
ATOM     23  C   UNL A   1      40.321  26.318  28.665  1.00  0.00     0.029 A 
ATOM     24  C   UNL A   1      41.265  27.429  28.725  1.00  0.00     0.049 A 
ATOM     25  H   UNL A   1      43.259  27.439  28.125  1.00  0.00     0.167 HD
ATOM     26  C   UNL A   1      47.444  27.286  26.866  1.00  0.00     0.037 A 
ATOM     27  C   UNL A   1      40.986  28.659  29.196  1.00  0.00     0.037 A 
ATOM     28  C   UNL A   1      47.230  28.641  27.310  1.00  0.00     0.049 A 
ATOM     29  C   UNL A   1      42.064  29.703  29.199  1.00  0.00     0.074 A 
ATOM     30  C   UNL A   1      48.122  29.700  27.313  1.00  0.00     0.029 A 
ATOM     31  N   UNL A   1      46.038  29.122  27.831  1.00  0.00    -0.354 N 
ATOM     32  N   UNL A   1      43.302  29.614  28.779  1.00  0.00    -0.248 NA
ATOM     33  C   UNL A   1      41.707  31.020  29.744  1.00  0.00     0.031 C 
ATOM     34  C   UNL A   1      47.481  30.811  27.873  1.00  0.00     0.029 A 
ATOM     35  C   UNL A   1      46.177  30.457  28.178  1.00  0.00     0.049 A 
ATOM     36  H   UNL A   1      45.214  28.594  27.938  1.00  0.00     0.167 HD
ATOM     37  C   UNL A   1      43.869  30.860  28.996  1.00  0.00     0.074 A 
ATOM     38  C   UNL A   1      42.834  31.697  29.568  1.00  0.00     0.031 C 
ATOM     39  C   UNL A   1      45.136  31.273  28.748  1.00  0.00     0.037 A 
BRANCH  26  40
ATOM     40  C   UNL A   1      48.816  26.911  26.388  1.00  0.00     0.064 A 
ATOM     41  C   UNL A   1      49.773  26.360  27.253  1.00  0.00     0.173 A 
ATOM     42  C   UNL A   1      49.163  27.062  25.037  1.00  0.00     0.173 A 
ATOM     43  F   UNL A   1      49.495  26.205  28.556  1.00  0.00    -0.203 F 
ATOM     44  C   UNL A   1      51.034  25.994  26.787  1.00  0.00     0.198 A 
ATOM     45  C   UNL A   1      50.415  26.673  24.569  1.00  0.00     0.198 A 
ATOM     46  F   UNL A   1      48.282  27.579  24.167  1.00  0.00    -0.203 F 
ATOM     47  F   UNL A   1      51.945  25.506  27.639  1.00  0.00    -0.200 F 
ATOM     48  C   UNL A   1      51.351  26.144  25.445  1.00  0.00     0.200 A 
ATOM     49  F   UNL A   1      50.717  26.809  23.270  1.00  0.00    -0.200 F 
ATOM     50  F   UNL A   1      52.563  25.786  24.998  1.00  0.00    -0.200 F 
ENDBRANCH  26  40
BRANCH  27  51
ATOM     51  C   UNL A   1      39.622  28.957  29.699  1.00  0.00     0.064 A 
ATOM     52  C   UNL A   1      38.648  29.505  28.856  1.00  0.00     0.173 A 
ATOM     53  C   UNL A   1      39.259  28.670  31.023  1.00  0.00     0.173 A 
ATOM     54  F   UNL A   1      38.956  29.813  27.587  1.00  0.00    -0.203 F 
ATOM     55  C   UNL A   1      37.360  29.763  29.320  1.00  0.00     0.198 A 
ATOM     56  C   UNL A   1      37.964  28.903  31.478  1.00  0.00     0.198 A 
ATOM     57  F   UNL A   1      40.156  28.138  31.866  1.00  0.00    -0.203 F 
ATOM     58  F   UNL A   1      36.453  30.315  28.503  1.00  0.00    -0.200 F 
ATOM     59  C   UNL A   1      37.017  29.453  30.629  1.00  0.00     0.200 A 
ATOM     60  F   UNL A   1      37.632  28.587  32.738  1.00  0.00    -0.200 F 
ATOM     61  F   UNL A   1      35.774  29.688  31.070  1.00  0.00    -0.200 F 
ENDBRANCH  27  51
BRANCH  39  62
ATOM     62  C   UNL A   1      45.463  32.699  29.073  1.00  0.00     0.064 A 
ATOM     63  C   UNL A   1      45.265  33.727  28.139  1.00  0.00     0.173 A 
ATOM     64  C   UNL A   1      45.954  33.045  30.340  1.00  0.00     0.173 A 
ATOM     65  F   UNL A   1      44.814  33.443  26.908  1.00  0.00    -0.203 F 
ATOM     66  C   UNL A   1      45.567  35.049  28.457  1.00  0.00     0.198 A 
ATOM     67  C   UNL A   1      46.231  34.370  30.663  1.00  0.00     0.198 A 
ATOM     68  F   UNL A   1      46.157  32.098  31.269  1.00  0.00    -0.203 F 
ATOM     69  F   UNL A   1      45.411  36.009  27.536  1.00  0.00    -0.200 F 
ATOM     70  C   UNL A   1      46.044  35.369  29.720  1.00  0.00     0.200 A 
ATOM     71  F   UNL A   1      46.684  34.681  31.885  1.00  0.00    -0.200 F 
ATOM     72  F   UNL A   1      46.331  36.643  30.024  1.00  0.00    -0.200 F 
ENDBRANCH  39  62
ENDBRANCH  13  14
ENDBRANCH   6   8
ENDBRANCH   3   4
ENDBRANCH   2   3
ENDBRANCH   1   2
BRANCH   1  73
ATOM     73  C   UNL A   1      36.449  21.513  25.653  1.00  0.00     0.116 C 
BRANCH  73  74
ATOM     74  N   UNL A   1      35.424  21.483  26.683  1.00  0.00    -0.352 N 
ATOM     75  C   UNL A   1      34.070  21.676  26.588  1.00  0.00     0.251 C 
ATOM     76  H   UNL A   1      35.753  21.293  27.590  1.00  0.00     0.163 HD
ATOM     77  O   UNL A   1      33.406  21.794  27.615  1.00  0.00    -0.269 OA
BRANCH  75  78
ATOM     78  C   UNL A   1      33.380  21.680  25.277  1.00  0.00     0.041 A 
ATOM     79  C   UNL A   1      32.818  20.497  24.789  1.00  0.00     0.014 A 
ATOM     80  C   UNL A   1      33.422  22.806  24.459  1.00  0.00     0.035 A 
ATOM     81  C   UNL A   1      32.284  20.456  23.496  1.00  0.00     0.002 A 
ATOM     82  C   UNL A   1      32.945  22.750  23.153  1.00  0.00     0.083 A 
ATOM     83  C   UNL A   1      32.356  21.582  22.668  1.00  0.00     0.022 A 
BRANCH  82  84
ATOM     84  S   UNL A   1      33.139  24.153  22.081  1.00  0.00     0.240 S 
ATOM     85  O   UNL A   1      34.056  25.074  22.706  1.00  0.00    -0.207 OA
ATOM     86  O   UNL A   1      33.339  23.626  20.750  1.00  0.00    -0.207 OA
BRANCH  84  87
ATOM     87  N   UNL A   1      31.592  24.854  22.057  1.00  0.00    -0.207 NA
ATOM     88  H   UNL A   1      31.032  24.309  21.401  1.00  0.00     0.141 HD
BRANCH  87  89
ATOM     89  C   UNL A   1      30.798  24.959  23.314  1.00  0.00     0.147 C 
BRANCH  89  90
ATOM     90  C   UNL A   1      30.214  26.350  23.633  1.00  0.00     0.226 C 
ATOM     91  C   UNL A   1      30.795  27.498  22.800  1.00  0.00     0.276 C 
ATOM     92  O   UNL A   1      30.391  26.617  25.041  1.00  0.00    -0.482 OA
ATOM     93  O   UNL A   1      32.192  27.673  23.035  1.00  0.00    -0.486 OA
ATOM     94  C   UNL A   1      31.542  27.295  25.341  1.00  0.00     0.161 A 
ATOM     95  C   UNL A   1      32.419  27.801  24.378  1.00  0.00     0.161 A 
ATOM     96  C   UNL A   1      31.814  27.490  26.693  1.00  0.00     0.050 A 
ATOM     97  C   UNL A   1      33.577  28.473  24.760  1.00  0.00     0.050 A 
ATOM     98  C   UNL A   1      32.963  28.183  27.079  1.00  0.00     0.004 A 
ATOM     99  C   UNL A   1      33.845  28.673  26.113  1.00  0.00     0.004 A 
ENDBRANCH  89  90
ENDBRANCH  87  89
ENDBRANCH  84  87
ENDBRANCH  82  84
ENDBRANCH  75  78
ENDBRANCH  73  74
ENDBRANCH   1  73
TORSDOF 15
ENDMDL
MODEL 3
REMARK VINA RESULT:     -12.4      3.974      9.184
REMARK SMILES O=C(NCCCCNC(=O)c1cccc(S(=O)(=O)NC[C@@H]2COc3ccccc3O2)c1)c1ccc(-c2c3nc(c(-c4c(F)c(F)c(F)c(F)c4F)c4ccc([nH]4)c(-c4c(F)c(F)c(F)c(F)c4F)c4nc(c(-c5c(F)c(F)c(F)c(F)c5F)c5ccc2[nH]5)C=C4)C=C3)cc1
REMARK SMILES IDX 6 1 5 2 4 3 3 4 1 5 2 6 32 8 33 9 94 10 34 11 93 12 35 13
REMARK SMILES IDX 36 14 37 15 87 16 38 17 92 18 86 19 88 20 39 21 91 22 85 23
REMARK SMILES IDX 84 24 40 26 72 27 52 28 71 29 53 30 56 31 70 32 89 33 54 34
REMARK SMILES IDX 55 35 69 37 90 38 57 39 41 40 42 41 50 42 43 43 44 44 48 45
REMARK SMILES IDX 51 46 45 47 46 48 49 49 47 50 73 51 74 52 82 53 75 54 76 55
REMARK SMILES IDX 80 56 83 57 77 58 78 59 81 60 79 61 58 62 59 63 67 64 60 65
REMARK SMILES IDX 61 66 65 67 68 68 62 69 63 70 66 71 64 72 7 73 8 74 9 75
REMARK SMILES IDX 10 77 11 78 12 79 31 80 13 81 15 82 14 83 16 84 17 85 18 86
REMARK SMILES IDX 19 87 20 89 21 90 22 91 30 92 23 93 29 94 24 95 28 96 25 97
REMARK SMILES IDX 27 98 26 99
REMARK H PARENT 3 7 88 25 56 36 8 76 19 88
REMARK Flexibility Score: inf
ROOT
ATOM      1  C   UNL A   1      31.370  30.961  25.727  1.00  0.00     0.023 C 
ENDROOT
BRANCH   1   2
ATOM      2  C   UNL A   1      31.266  32.107  26.734  1.00  0.00     0.023 C 
BRANCH   2   3
ATOM      3  C   UNL A   1      32.590  32.744  27.139  1.00  0.00     0.116 C 
BRANCH   3   4
ATOM      4  N   UNL A   1      32.435  34.106  27.626  1.00  0.00    -0.352 N 
ATOM      5  O   UNL A   1      32.711  35.876  28.991  1.00  0.00    -0.269 OA
ATOM      6  C   UNL A   1      33.098  34.768  28.631  1.00  0.00     0.251 C 
ATOM      7  H   UNL A   1      31.748  34.636  27.162  1.00  0.00     0.163 HD
BRANCH   6   8
ATOM      8  C   UNL A   1      34.259  34.143  29.299  1.00  0.00     0.039 A 
ATOM      9  C   UNL A   1      35.565  34.504  28.963  1.00  0.00     0.014 A 
ATOM     10  C   UNL A   1      34.032  33.190  30.298  1.00  0.00     0.014 A 
ATOM     11  C   UNL A   1      36.639  33.811  29.514  1.00  0.00     0.010 A 
ATOM     12  C   UNL A   1      35.114  32.550  30.909  1.00  0.00     0.010 A 
ATOM     13  C   UNL A   1      36.425  32.830  30.495  1.00  0.00    -0.014 A 
BRANCH  13  14
ATOM     14  C   UNL A   1      37.588  32.138  31.105  1.00  0.00     0.031 A 
ATOM     15  C   UNL A   1      38.031  32.457  32.505  1.00  0.00     0.074 A 
ATOM     16  C   UNL A   1      38.235  31.199  30.389  1.00  0.00     0.049 A 
ATOM     17  N   UNL A   1      39.025  31.949  33.192  1.00  0.00    -0.248 NA
ATOM     18  C   UNL A   1      37.265  33.482  33.228  1.00  0.00     0.031 C 
ATOM     19  C   UNL A   1      37.903  30.812  29.017  1.00  0.00     0.029 A 
ATOM     20  N   UNL A   1      39.294  30.392  30.716  1.00  0.00    -0.354 N 
ATOM     21  C   UNL A   1      39.016  32.606  34.416  1.00  0.00     0.074 A 
ATOM     22  C   UNL A   1      37.932  33.565  34.372  1.00  0.00     0.031 C 
ATOM     23  C   UNL A   1      38.717  29.818  28.632  1.00  0.00     0.029 A 
ATOM     24  C   UNL A   1      39.660  29.536  29.708  1.00  0.00     0.049 A 
ATOM     25  H   UNL A   1      39.748  30.424  31.589  1.00  0.00     0.167 HD
ATOM     26  C   UNL A   1      39.833  32.417  35.480  1.00  0.00     0.037 A 
ATOM     27  C   UNL A   1      40.657  28.632  29.649  1.00  0.00     0.037 A 
ATOM     28  C   UNL A   1      40.897  31.446  35.527  1.00  0.00     0.049 A 
ATOM     29  C   UNL A   1      41.555  28.454  30.837  1.00  0.00     0.074 A 
ATOM     30  C   UNL A   1      41.753  31.154  36.575  1.00  0.00     0.029 A 
ATOM     31  N   UNL A   1      41.250  30.611  34.478  1.00  0.00    -0.354 N 
ATOM     32  N   UNL A   1      41.518  29.061  31.999  1.00  0.00    -0.248 NA
ATOM     33  C   UNL A   1      42.636  27.469  30.707  1.00  0.00     0.031 C 
ATOM     34  C   UNL A   1      42.651  30.169  36.146  1.00  0.00     0.029 A 
ATOM     35  C   UNL A   1      42.326  29.816  34.847  1.00  0.00     0.049 A 
ATOM     36  H   UNL A   1      40.803  30.585  33.602  1.00  0.00     0.167 HD
ATOM     37  C   UNL A   1      42.558  28.524  32.742  1.00  0.00     0.074 A 
ATOM     38  C   UNL A   1      43.199  27.529  31.906  1.00  0.00     0.031 C 
ATOM     39  C   UNL A   1      42.951  28.832  34.002  1.00  0.00     0.037 A 
BRANCH  26  40
ATOM     40  C   UNL A   1      39.622  33.290  36.683  1.00  0.00     0.064 A 
ATOM     41  C   UNL A   1      38.751  32.921  37.719  1.00  0.00     0.173 A 
ATOM     42  C   UNL A   1      40.337  34.490  36.823  1.00  0.00     0.173 A 
ATOM     43  F   UNL A   1      38.036  31.789  37.627  1.00  0.00    -0.203 F 
ATOM     44  C   UNL A   1      38.586  33.731  38.840  1.00  0.00     0.198 A 
ATOM     45  C   UNL A   1      40.188  35.285  37.956  1.00  0.00     0.198 A 
ATOM     46  F   UNL A   1      41.187  34.886  35.864  1.00  0.00    -0.203 F 
ATOM     47  F   UNL A   1      37.719  33.378  39.798  1.00  0.00    -0.200 F 
ATOM     48  C   UNL A   1      39.310  34.908  38.960  1.00  0.00     0.200 A 
ATOM     49  F   UNL A   1      40.896  36.417  38.076  1.00  0.00    -0.200 F 
ATOM     50  F   UNL A   1      39.154  35.684  40.042  1.00  0.00    -0.200 F 
ENDBRANCH  26  40
BRANCH  27  51
ATOM     51  C   UNL A   1      40.843  27.831  28.413  1.00  0.00     0.064 A 
ATOM     52  C   UNL A   1      41.661  28.293  27.374  1.00  0.00     0.173 A 
ATOM     53  C   UNL A   1      40.234  26.578  28.261  1.00  0.00     0.173 A 
ATOM     54  F   UNL A   1      42.249  29.494  27.467  1.00  0.00    -0.203 F 
ATOM     55  C   UNL A   1      41.856  27.532  26.223  1.00  0.00     0.198 A 
ATOM     56  C   UNL A   1      40.451  25.806  27.124  1.00  0.00     0.198 A 
ATOM     57  F   UNL A   1      39.447  26.092  29.234  1.00  0.00    -0.203 F 
ATOM     58  F   UNL A   1      42.619  28.007  25.229  1.00  0.00    -0.200 F 
ATOM     59  C   UNL A   1      41.258  26.285  26.103  1.00  0.00     0.200 A 
ATOM     60  F   UNL A   1      39.885  24.596  27.019  1.00  0.00    -0.200 F 
ATOM     61  F   UNL A   1      41.458  25.548  25.003  1.00  0.00    -0.200 F 
ENDBRANCH  27  51
BRANCH  39  62
ATOM     62  C   UNL A   1      44.113  28.067  34.559  1.00  0.00     0.064 A 
ATOM     63  C   UNL A   1      45.426  28.550  34.451  1.00  0.00     0.173 A 
ATOM     64  C   UNL A   1      43.910  26.853  35.231  1.00  0.00     0.173 A 
ATOM     65  F   UNL A   1      45.672  29.697  33.802  1.00  0.00    -0.203 F 
ATOM     66  C   UNL A   1      46.496  27.831  34.979  1.00  0.00     0.198 A 
ATOM     67  C   UNL A   1      44.978  26.151  35.779  1.00  0.00     0.198 A 
ATOM     68  F   UNL A   1      42.672  26.352  35.362  1.00  0.00    -0.203 F 
ATOM     69  F   UNL A   1      47.746  28.289  34.827  1.00  0.00    -0.200 F 
ATOM     70  C   UNL A   1      46.270  26.637  35.647  1.00  0.00     0.200 A 
ATOM     71  F   UNL A   1      44.759  25.001  36.431  1.00  0.00    -0.200 F 
ATOM     72  F   UNL A   1      47.302  25.948  36.157  1.00  0.00    -0.200 F 
ENDBRANCH  39  62
ENDBRANCH  13  14
ENDBRANCH   6   8
ENDBRANCH   3   4
ENDBRANCH   2   3
ENDBRANCH   1   2
BRANCH   1  73
ATOM     73  C   UNL A   1      32.563  30.029  25.914  1.00  0.00     0.116 C 
BRANCH  73  74
ATOM     74  N   UNL A   1      33.212  29.708  24.654  1.00  0.00    -0.352 N 
ATOM     75  C   UNL A   1      33.001  28.661  23.793  1.00  0.00     0.251 C 
ATOM     76  H   UNL A   1      33.911  30.340  24.373  1.00  0.00     0.163 HD
ATOM     77  O   UNL A   1      33.791  28.472  22.871  1.00  0.00    -0.269 OA
BRANCH  75  78
ATOM     78  C   UNL A   1      31.806  27.793  23.911  1.00  0.00     0.041 A 
ATOM     79  C   UNL A   1      30.614  28.170  23.286  1.00  0.00     0.014 A 
ATOM     80  C   UNL A   1      31.814  26.692  24.763  1.00  0.00     0.035 A 
ATOM     81  C   UNL A   1      29.446  27.429  23.501  1.00  0.00     0.002 A 
ATOM     82  C   UNL A   1      30.640  25.990  25.024  1.00  0.00     0.083 A 
ATOM     83  C   UNL A   1      29.453  26.341  24.381  1.00  0.00     0.022 A 
BRANCH  82  84
ATOM     84  S   UNL A   1      30.642  24.680  26.224  1.00  0.00     0.240 S 
ATOM     85  O   UNL A   1      31.886  24.737  26.950  1.00  0.00    -0.207 OA
ATOM     86  O   UNL A   1      29.350  24.717  26.871  1.00  0.00    -0.207 OA
BRANCH  84  87
ATOM     87  N   UNL A   1      30.628  23.271  25.275  1.00  0.00    -0.207 NA
ATOM     88  H   UNL A   1      30.732  23.569  24.305  1.00  0.00     0.141 HD
BRANCH  87  89
ATOM     89  C   UNL A   1      31.641  22.202  25.506  1.00  0.00     0.147 C 
BRANCH  89  90
ATOM     90  C   UNL A   1      32.152  21.470  24.249  1.00  0.00     0.226 C 
ATOM     91  C   UNL A   1      32.824  20.119  24.520  1.00  0.00     0.276 C 
ATOM     92  O   UNL A   1      33.057  22.342  23.538  1.00  0.00    -0.482 OA
ATOM     93  O   UNL A   1      34.002  20.259  25.313  1.00  0.00    -0.486 OA
ATOM     94  C   UNL A   1      34.373  22.178  23.876  1.00  0.00     0.161 A 
ATOM     95  C   UNL A   1      34.836  21.180  24.738  1.00  0.00     0.161 A 
ATOM     96  C   UNL A   1      35.279  23.063  23.297  1.00  0.00     0.050 A 
ATOM     97  C   UNL A   1      36.190  21.081  25.043  1.00  0.00     0.050 A 
ATOM     98  C   UNL A   1      36.641  22.953  23.583  1.00  0.00     0.004 A 
ATOM     99  C   UNL A   1      37.096  21.963  24.457  1.00  0.00     0.004 A 
ENDBRANCH  89  90
ENDBRANCH  87  89
ENDBRANCH  84  87
ENDBRANCH  82  84
ENDBRANCH  75  78
ENDBRANCH  73  74
ENDBRANCH   1  73
TORSDOF 15
ENDMDL
