MODEL 1
REMARK VINA RESULT:     -12.5      0.000      0.000
REMARK SMILES Cc1ccc(NC(=O)C[C@@H](C(=O)NCCCCNC(=O)c2ccc(-c3c4nc(c(-c5c(F)c(F)c(F)c(F)c5F)c5ccc([nH]5)c(-c5c(F)c(F)c(F)c(F)c5F)c5nc(c(-c6c(F)c(F)c(F)c(F)c6F)c6ccc3[nH]6)C=C5)C=C4)cc2)[C@@H](C)c2ccccc2)cc1Br
REMARK SMILES IDX 15 1 14 2 13 3 11 4 12 5 10 7 9 8 7 9 6 10 8 12 5 13 1 14
REMARK SMILES IDX 2 15 3 16 93 17 4 18 92 19 94 20 84 21 85 22 86 23 87 24
REMARK SMILES IDX 91 25 88 26 90 27 89 28 16 29 17 30 18 31 19 32 20 34 21 35
REMARK SMILES IDX 22 36 83 37 23 38 82 39 24 40 25 41 26 42 76 43 27 44 81 45
REMARK SMILES IDX 75 46 77 47 28 48 80 49 74 50 73 51 29 53 61 54 41 55 60 56
REMARK SMILES IDX 42 57 45 58 59 59 78 60 43 61 44 62 58 64 79 65 46 66 30 67
REMARK SMILES IDX 31 68 39 69 32 70 33 71 37 72 40 73 34 74 35 75 38 76 36 77
REMARK SMILES IDX 62 78 63 79 71 80 64 81 65 82 69 83 72 84 66 85 67 86 70 87
REMARK SMILES IDX 68 88 47 89 48 90 56 91 49 92 50 93 54 94 57 95 51 96 52 97
REMARK SMILES IDX 55 98 53 99
REMARK H PARENT 13 6 6 11 18 33 77 52 45 63
REMARK Flexibility Score: inf
ROOT
ATOM      1  C   UNL A   1      31.217  30.665  25.632  1.00  0.00     0.023 C 
ENDROOT
BRANCH   1   2
ATOM      2  C   UNL A   1      32.585  29.966  25.595  1.00  0.00     0.116 C 
BRANCH   2   3
ATOM      3  N   UNL A   1      33.042  29.703  24.244  1.00  0.00    -0.356 N 
ATOM      4  C   UNL A   1      33.157  28.572  23.500  1.00  0.00     0.224 C 
ATOM      5  O   UNL A   1      33.592  28.750  22.363  1.00  0.00    -0.275 OA
ATOM      6  H   UNL A   1      33.329  30.514  23.766  1.00  0.00     0.163 HD
BRANCH   4   7
ATOM      7  C   UNL A   1      32.776  27.195  24.045  1.00  0.00     0.095 C 
BRANCH   7   8
ATOM      8  C   UNL A   1      31.387  27.135  24.742  1.00  0.00     0.114 C 
BRANCH   8   9
ATOM      9  C   UNL A   1      30.178  26.464  24.137  1.00  0.00     0.225 C 
ATOM     10  N   UNL A   1      29.915  25.132  24.228  1.00  0.00    -0.326 N 
ATOM     11  H   UNL A   1      29.088  24.857  23.771  1.00  0.00     0.169 HD
ATOM     12  O   UNL A   1      29.362  27.162  23.520  1.00  0.00    -0.275 OA
BRANCH  10  13
ATOM     13  C   UNL A   1      30.597  24.079  24.849  1.00  0.00     0.042 A 
ATOM     14  C   UNL A   1      33.332  21.441  26.882  1.00  0.00     0.045 C 
ATOM     15  C   UNL A   1      32.291  22.273  26.189  1.00  0.00    -0.037 A 
ATOM     16  C   UNL A   1      31.704  23.343  26.876  1.00  0.00     0.007 A 
ATOM     17  C   UNL A   1      31.913  22.051  24.857  1.00  0.00     0.022 A 
ATOM     18  C   UNL A   1      30.836  24.216  26.219  1.00  0.00     0.026 A 
ATOM     19  C   UNL A   1      31.075  22.953  24.188  1.00  0.00     0.042 A 
ATOM     20  Br  UNL A   1      32.528  20.540  23.880  1.00  0.00    -0.050 Br
ENDBRANCH  10  13
ENDBRANCH   8   9
ENDBRANCH   7   8
BRANCH   7  21
ATOM     21  C   UNL A   1      33.827  26.565  25.050  1.00  0.00     0.029 C 
ATOM     22  C   UNL A   1      33.278  26.615  26.500  1.00  0.00     0.013 C 
BRANCH  21  23
ATOM     23  C   UNL A   1      34.399  25.173  24.767  1.00  0.00    -0.044 A 
ATOM     24  C   UNL A   1      35.242  24.488  25.654  1.00  0.00     0.004 A 
ATOM     25  C   UNL A   1      34.198  24.600  23.497  1.00  0.00     0.004 A 
ATOM     26  C   UNL A   1      35.879  23.300  25.270  1.00  0.00     0.000 A 
ATOM     27  C   UNL A   1      34.804  23.400  23.124  1.00  0.00     0.000 A 
ATOM     28  C   UNL A   1      35.658  22.755  24.008  1.00  0.00     0.000 A 
ENDBRANCH  21  23
ENDBRANCH   7  21
ENDBRANCH   4   7
ENDBRANCH   2   3
ENDBRANCH   1   2
BRANCH   1  29
ATOM     29  C   UNL A   1      31.131  31.931  26.487  1.00  0.00     0.023 C 
BRANCH  29  30
ATOM     30  C   UNL A   1      32.475  32.454  26.961  1.00  0.00     0.116 C 
BRANCH  30  31
ATOM     31  N   UNL A   1      32.391  33.846  27.372  1.00  0.00    -0.352 N 
ATOM     32  C   UNL A   1      33.027  34.506  28.390  1.00  0.00     0.251 C 
ATOM     33  H   UNL A   1      31.781  34.402  26.833  1.00  0.00     0.163 HD
ATOM     34  O   UNL A   1      32.621  35.616  28.744  1.00  0.00    -0.269 OA
BRANCH  32  35
ATOM     35  C   UNL A   1      34.189  33.902  29.074  1.00  0.00     0.039 A 
ATOM     36  C   UNL A   1      35.471  34.395  28.809  1.00  0.00     0.014 A 
ATOM     37  C   UNL A   1      34.028  32.817  29.937  1.00  0.00     0.014 A 
ATOM     38  C   UNL A   1      36.578  33.829  29.445  1.00  0.00     0.010 A 
ATOM     39  C   UNL A   1      35.115  32.325  30.649  1.00  0.00     0.010 A 
ATOM     40  C   UNL A   1      36.406  32.806  30.390  1.00  0.00    -0.014 A 
BRANCH  40  41
ATOM     41  C   UNL A   1      37.561  32.175  31.079  1.00  0.00     0.031 A 
ATOM     42  C   UNL A   1      38.362  31.116  30.369  1.00  0.00     0.074 A 
ATOM     43  C   UNL A   1      37.840  32.494  32.357  1.00  0.00     0.049 A 
ATOM     44  N   UNL A   1      39.328  30.358  30.825  1.00  0.00    -0.248 NA
ATOM     45  C   UNL A   1      38.001  30.842  28.969  1.00  0.00     0.031 C 
ATOM     46  C   UNL A   1      37.102  33.464  33.169  1.00  0.00     0.029 A 
ATOM     47  N   UNL A   1      38.813  32.025  33.203  1.00  0.00    -0.354 N 
ATOM     48  C   UNL A   1      39.659  29.502  29.782  1.00  0.00     0.074 A 
ATOM     49  C   UNL A   1      38.754  29.790  28.692  1.00  0.00     0.031 C 
ATOM     50  C   UNL A   1      37.666  33.538  34.385  1.00  0.00     0.029 A 
ATOM     51  C   UNL A   1      38.778  32.595  34.453  1.00  0.00     0.049 A 
ATOM     52  H   UNL A   1      39.474  31.345  32.940  1.00  0.00     0.167 HD
ATOM     53  C   UNL A   1      40.648  28.578  29.727  1.00  0.00     0.037 A 
ATOM     54  C   UNL A   1      39.556  32.376  35.530  1.00  0.00     0.037 A 
ATOM     55  C   UNL A   1      41.580  28.338  30.795  1.00  0.00     0.049 A 
ATOM     56  C   UNL A   1      40.672  31.371  35.433  1.00  0.00     0.074 A 
ATOM     57  C   UNL A   1      42.664  27.479  30.819  1.00  0.00     0.029 A 
ATOM     58  N   UNL A   1      41.542  28.971  32.030  1.00  0.00    -0.354 N 
ATOM     59  N   UNL A   1      41.014  30.610  34.421  1.00  0.00    -0.248 NA
ATOM     60  C   UNL A   1      41.515  31.200  36.623  1.00  0.00     0.031 C 
ATOM     61  C   UNL A   1      43.261  27.567  32.081  1.00  0.00     0.029 A 
ATOM     62  C   UNL A   1      42.577  28.513  32.827  1.00  0.00     0.049 A 
ATOM     63  H   UNL A   1      40.877  29.645  32.299  1.00  0.00     0.167 HD
ATOM     64  C   UNL A   1      42.127  29.895  34.840  1.00  0.00     0.074 A 
ATOM     65  C   UNL A   1      42.411  30.322  36.194  1.00  0.00     0.031 C 
ATOM     66  C   UNL A   1      42.849  28.966  34.166  1.00  0.00     0.037 A 
BRANCH  53  67
ATOM     67  C   UNL A   1      40.778  27.772  28.467  1.00  0.00     0.064 A 
ATOM     68  C   UNL A   1      41.584  28.198  27.399  1.00  0.00     0.173 A 
ATOM     69  C   UNL A   1      40.111  26.545  28.333  1.00  0.00     0.173 A 
ATOM     70  F   UNL A   1      42.234  29.370  27.470  1.00  0.00    -0.203 F 
ATOM     71  C   UNL A   1      41.687  27.445  26.233  1.00  0.00     0.198 A 
ATOM     72  C   UNL A   1      40.243  25.778  27.178  1.00  0.00     0.198 A 
ATOM     73  F   UNL A   1      39.333  26.087  29.325  1.00  0.00    -0.203 F 
ATOM     74  F   UNL A   1      42.416  27.902  25.205  1.00  0.00    -0.200 F 
ATOM     75  C   UNL A   1      41.022  26.234  26.126  1.00  0.00     0.200 A 
ATOM     76  F   UNL A   1      39.610  24.600  27.081  1.00  0.00    -0.200 F 
ATOM     77  F   UNL A   1      41.128  25.507  25.004  1.00  0.00    -0.200 F 
ENDBRANCH  53  67
BRANCH  54  78
ATOM     78  C   UNL A   1      39.331  33.150  36.778  1.00  0.00     0.064 A 
ATOM     79  C   UNL A   1      40.001  34.362  37.001  1.00  0.00     0.173 A 
ATOM     80  C   UNL A   1      38.446  32.704  37.769  1.00  0.00     0.173 A 
ATOM     81  F   UNL A   1      40.872  34.821  36.089  1.00  0.00    -0.203 F 
ATOM     82  C   UNL A   1      39.812  35.085  38.176  1.00  0.00     0.198 A 
ATOM     83  C   UNL A   1      38.236  33.443  38.933  1.00  0.00     0.198 A 
ATOM     84  F   UNL A   1      37.774  31.556  37.602  1.00  0.00    -0.203 F 
ATOM     85  F   UNL A   1      40.499  36.218  38.381  1.00  0.00    -0.200 F 
ATOM     86  C   UNL A   1      38.925  34.629  39.139  1.00  0.00     0.200 A 
ATOM     87  F   UNL A   1      37.367  33.005  39.854  1.00  0.00    -0.200 F 
ATOM     88  F   UNL A   1      38.740  35.326  40.267  1.00  0.00    -0.200 F 
ENDBRANCH  54  78
BRANCH  66  89
ATOM     89  C   UNL A   1      44.039  28.381  34.866  1.00  0.00     0.064 A 
ATOM     90  C   UNL A   1      43.946  27.195  35.608  1.00  0.00     0.173 A 
ATOM     91  C   UNL A   1      45.298  28.990  34.750  1.00  0.00     0.173 A 
ATOM     92  F   UNL A   1      42.761  26.584  35.759  1.00  0.00    -0.203 F 
ATOM     93  C   UNL A   1      45.068  26.650  36.227  1.00  0.00     0.198 A 
ATOM     94  C   UNL A   1      46.423  28.428  35.346  1.00  0.00     0.198 A 
ATOM     95  F   UNL A   1      45.439  30.122  34.045  1.00  0.00    -0.203 F 
ATOM     96  F   UNL A   1      44.949  25.539  36.967  1.00  0.00    -0.200 F 
ATOM     97  C   UNL A   1      46.306  27.262  36.089  1.00  0.00     0.200 A 
ATOM     98  F   UNL A   1      47.620  29.011  35.201  1.00  0.00    -0.200 F 
ATOM     99  F   UNL A   1      47.385  26.731  36.678  1.00  0.00    -0.200 F 
ENDBRANCH  66  89
ENDBRANCH  40  41
ENDBRANCH  32  35
ENDBRANCH  30  31
ENDBRANCH  29  30
ENDBRANCH   1  29
TORSDOF 16
ENDMDL
MODEL 2
REMARK VINA RESULT:     -12.4      5.418     10.585
REMARK SMILES Cc1ccc(NC(=O)C[C@@H](C(=O)NCCCCNC(=O)c2ccc(-c3c4nc(c(-c5c(F)c(F)c(F)c(F)c5F)c5ccc([nH]5)c(-c5c(F)c(F)c(F)c(F)c5F)c5nc(c(-c6c(F)c(F)c(F)c(F)c6F)c6ccc3[nH]6)C=C5)C=C4)cc2)[C@@H](C)c2ccccc2)cc1Br
REMARK SMILES IDX 15 1 14 2 13 3 11 4 12 5 10 7 9 8 7 9 6 10 8 12 5 13 1 14
REMARK SMILES IDX 2 15 3 16 93 17 4 18 92 19 94 20 84 21 85 22 86 23 87 24
REMARK SMILES IDX 91 25 88 26 90 27 89 28 16 29 17 30 18 31 19 32 20 34 21 35
REMARK SMILES IDX 22 36 83 37 23 38 82 39 24 40 25 41 26 42 76 43 27 44 81 45
REMARK SMILES IDX 75 46 77 47 28 48 80 49 74 50 73 51 29 53 61 54 41 55 60 56
REMARK SMILES IDX 42 57 45 58 59 59 78 60 43 61 44 62 58 64 79 65 46 66 30 67
REMARK SMILES IDX 31 68 39 69 32 70 33 71 37 72 40 73 34 74 35 75 38 76 36 77
REMARK SMILES IDX 62 78 63 79 71 80 64 81 65 82 69 83 72 84 66 85 67 86 70 87
REMARK SMILES IDX 68 88 47 89 48 90 56 91 49 92 50 93 54 94 57 95 51 96 52 97
REMARK SMILES IDX 55 98 53 99
REMARK H PARENT 13 6 6 11 18 33 77 52 45 63
REMARK Flexibility Score: inf
ROOT
ATOM      1  C   UNL A   1      36.791  20.421  24.629  1.00  0.00     0.023 C 
ENDROOT
BRANCH   1   2
ATOM      2  C   UNL A   1      36.578  21.587  25.608  1.00  0.00     0.116 C 
BRANCH   2   3
ATOM      3  N   UNL A   1      35.498  21.340  26.544  1.00  0.00    -0.356 N 
ATOM      4  C   UNL A   1      34.237  21.829  26.665  1.00  0.00     0.224 C 
ATOM      5  O   UNL A   1      33.596  21.366  27.608  1.00  0.00    -0.275 OA
ATOM      6  H   UNL A   1      35.727  20.680  27.237  1.00  0.00     0.163 HD
BRANCH   4   7
ATOM      7  C   UNL A   1      33.671  22.874  25.701  1.00  0.00     0.095 C 
BRANCH   7   8
ATOM      8  C   UNL A   1      33.762  22.485  24.198  1.00  0.00     0.114 C 
BRANCH   8   9
ATOM      9  C   UNL A   1      32.560  22.138  23.351  1.00  0.00     0.225 C 
ATOM     10  N   UNL A   1      31.822  23.048  22.661  1.00  0.00    -0.326 N 
ATOM     11  H   UNL A   1      31.068  22.656  22.166  1.00  0.00     0.169 HD
ATOM     12  O   UNL A   1      32.220  20.950  23.268  1.00  0.00    -0.275 OA
BRANCH  10  13
ATOM     13  C   UNL A   1      31.930  24.437  22.521  1.00  0.00     0.042 A 
ATOM     14  C   UNL A   1      32.855  28.640  22.748  1.00  0.00     0.045 C 
ATOM     15  C   UNL A   1      32.475  27.199  22.561  1.00  0.00    -0.037 A 
ATOM     16  C   UNL A   1      33.447  26.287  22.131  1.00  0.00     0.007 A 
ATOM     17  C   UNL A   1      31.190  26.716  22.847  1.00  0.00     0.022 A 
ATOM     18  C   UNL A   1      33.164  24.922  22.077  1.00  0.00     0.026 A 
ATOM     19  C   UNL A   1      30.920  25.341  22.833  1.00  0.00     0.042 A 
ATOM     20  Br  UNL A   1      29.756  27.883  23.289  1.00  0.00    -0.050 Br
ENDBRANCH  10  13
ENDBRANCH   8   9
ENDBRANCH   7   8
BRANCH   7  21
ATOM     21  C   UNL A   1      34.301  24.320  25.845  1.00  0.00     0.029 C 
ATOM     22  C   UNL A   1      35.332  24.570  24.713  1.00  0.00     0.013 C 
BRANCH  21  23
ATOM     23  C   UNL A   1      33.378  25.534  25.975  1.00  0.00    -0.044 A 
ATOM     24  C   UNL A   1      33.840  26.859  25.996  1.00  0.00     0.004 A 
ATOM     25  C   UNL A   1      32.010  25.325  26.233  1.00  0.00     0.004 A 
ATOM     26  C   UNL A   1      32.973  27.919  26.297  1.00  0.00     0.000 A 
ATOM     27  C   UNL A   1      31.138  26.381  26.498  1.00  0.00     0.000 A 
ATOM     28  C   UNL A   1      31.624  27.682  26.544  1.00  0.00     0.000 A 
ENDBRANCH  21  23
ENDBRANCH   7  21
ENDBRANCH   4   7
ENDBRANCH   2   3
ENDBRANCH   1   2
BRANCH   1  29
ATOM     29  C   UNL A   1      37.906  19.437  24.987  1.00  0.00     0.023 C 
BRANCH  29  30
ATOM     30  C   UNL A   1      39.061  20.057  25.753  1.00  0.00     0.116 C 
BRANCH  30  31
ATOM     31  N   UNL A   1      40.163  19.120  25.907  1.00  0.00    -0.352 N 
ATOM     32  C   UNL A   1      41.505  19.353  26.058  1.00  0.00     0.251 C 
ATOM     33  H   UNL A   1      39.903  18.170  25.902  1.00  0.00     0.163 HD
ATOM     34  O   UNL A   1      42.305  18.428  25.904  1.00  0.00    -0.269 OA
BRANCH  32  35
ATOM     35  C   UNL A   1      42.005  20.701  26.399  1.00  0.00     0.039 A 
ATOM     36  C   UNL A   1      42.248  21.022  27.739  1.00  0.00     0.014 A 
ATOM     37  C   UNL A   1      42.189  21.668  25.410  1.00  0.00     0.014 A 
ATOM     38  C   UNL A   1      42.716  22.295  28.074  1.00  0.00     0.010 A 
ATOM     39  C   UNL A   1      42.754  22.895  25.731  1.00  0.00     0.010 A 
ATOM     40  C   UNL A   1      42.998  23.234  27.070  1.00  0.00    -0.014 A 
BRANCH  40  41
ATOM     41  C   UNL A   1      43.488  24.599  27.390  1.00  0.00     0.031 A 
ATOM     42  C   UNL A   1      42.533  25.619  27.950  1.00  0.00     0.074 A 
ATOM     43  C   UNL A   1      44.760  24.940  27.110  1.00  0.00     0.049 A 
ATOM     44  N   UNL A   1      42.722  26.893  28.186  1.00  0.00    -0.248 NA
ATOM     45  C   UNL A   1      41.167  25.156  28.243  1.00  0.00     0.031 C 
ATOM     46  C   UNL A   1      45.764  24.056  26.516  1.00  0.00     0.029 A 
ATOM     47  N   UNL A   1      45.422  26.131  27.274  1.00  0.00    -0.354 N 
ATOM     48  C   UNL A   1      41.496  27.383  28.619  1.00  0.00     0.074 A 
ATOM     49  C   UNL A   1      40.555  26.287  28.556  1.00  0.00     0.031 C 
ATOM     50  C   UNL A   1      46.922  24.727  26.392  1.00  0.00     0.029 A 
ATOM     51  C   UNL A   1      46.732  26.096  26.860  1.00  0.00     0.049 A 
ATOM     52  H   UNL A   1      44.999  26.935  27.654  1.00  0.00     0.167 HD
ATOM     53  C   UNL A   1      41.188  28.626  29.058  1.00  0.00     0.037 A 
ATOM     54  C   UNL A   1      47.669  27.063  26.858  1.00  0.00     0.037 A 
ATOM     55  C   UNL A   1      42.143  29.695  29.172  1.00  0.00     0.049 A 
ATOM     56  C   UNL A   1      47.313  28.426  27.385  1.00  0.00     0.074 A 
ATOM     57  C   UNL A   1      41.956  30.971  29.672  1.00  0.00     0.029 A 
ATOM     58  N   UNL A   1      43.473  29.605  28.788  1.00  0.00    -0.354 N 
ATOM     59  N   UNL A   1      46.165  28.860  27.849  1.00  0.00    -0.248 NA
ATOM     60  C   UNL A   1      48.383  29.432  27.397  1.00  0.00     0.031 C 
ATOM     61  C   UNL A   1      43.166  31.665  29.558  1.00  0.00     0.029 A 
ATOM     62  C   UNL A   1      44.117  30.807  29.029  1.00  0.00     0.049 A 
ATOM     63  H   UNL A   1      43.897  28.805  28.400  1.00  0.00     0.167 HD
ATOM     64  C   UNL A   1      46.383  30.176  28.235  1.00  0.00     0.074 A 
ATOM     65  C   UNL A   1      47.775  30.465  27.964  1.00  0.00     0.031 C 
ATOM     66  C   UNL A   1      45.508  31.066  28.765  1.00  0.00     0.037 A 
BRANCH  53  67
ATOM     67  C   UNL A   1      39.765  28.890  29.460  1.00  0.00     0.064 A 
ATOM     68  C   UNL A   1      38.819  29.374  28.543  1.00  0.00     0.173 A 
ATOM     69  C   UNL A   1      39.334  28.632  30.770  1.00  0.00     0.173 A 
ATOM     70  F   UNL A   1      39.181  29.649  27.280  1.00  0.00    -0.203 F 
ATOM     71  C   UNL A   1      37.506  29.624  28.932  1.00  0.00     0.198 A 
ATOM     72  C   UNL A   1      38.011  28.852  31.146  1.00  0.00     0.198 A 
ATOM     73  F   UNL A   1      40.195  28.162  31.685  1.00  0.00    -0.203 F 
ATOM     74  F   UNL A   1      36.636  30.142  28.052  1.00  0.00    -0.200 F 
ATOM     75  C   UNL A   1      37.102  29.357  30.230  1.00  0.00     0.200 A 
ATOM     76  F   UNL A   1      37.619  28.580  32.399  1.00  0.00    -0.200 F 
ATOM     77  F   UNL A   1      35.835  29.593  30.601  1.00  0.00    -0.200 F 
ENDBRANCH  53  67
BRANCH  54  78
ATOM     78  C   UNL A   1      49.042  26.764  26.375  1.00  0.00     0.064 A 
ATOM     79  C   UNL A   1      49.396  26.984  25.037  1.00  0.00     0.173 A 
ATOM     80  C   UNL A   1      50.028  26.258  27.235  1.00  0.00     0.173 A 
ATOM     81  F   UNL A   1      48.482  27.450  24.172  1.00  0.00    -0.203 F 
ATOM     82  C   UNL A   1      50.675  26.689  24.571  1.00  0.00     0.198 A 
ATOM     83  C   UNL A   1      51.316  25.989  26.774  1.00  0.00     0.198 A 
ATOM     84  F   UNL A   1      49.744  26.037  28.527  1.00  0.00    -0.203 F 
ATOM     85  F   UNL A   1      50.972  26.868  23.276  1.00  0.00    -0.200 F 
ATOM     86  C   UNL A   1      51.636  26.197  25.440  1.00  0.00     0.200 A 
ATOM     87  F   UNL A   1      52.246  25.528  27.622  1.00  0.00    -0.200 F 
ATOM     88  F   UNL A   1      52.867  25.918  24.994  1.00  0.00    -0.200 F 
ENDBRANCH  54  78
BRANCH  66  89
ATOM     89  C   UNL A   1      46.041  32.420  29.125  1.00  0.00     0.064 A 
ATOM     90  C   UNL A   1      46.603  32.678  30.384  1.00  0.00     0.173 A 
ATOM     91  C   UNL A   1      46.034  33.458  28.180  1.00  0.00     0.173 A 
ATOM     92  F   UNL A   1      46.620  31.722  31.324  1.00  0.00    -0.203 F 
ATOM     93  C   UNL A   1      47.120  33.934  30.691  1.00  0.00     0.198 A 
ATOM     94  C   UNL A   1      46.577  34.703  28.481  1.00  0.00     0.198 A 
ATOM     95  F   UNL A   1      45.513  33.258  26.960  1.00  0.00    -0.203 F 
ATOM     96  F   UNL A   1      47.614  34.172  31.913  1.00  0.00    -0.200 F 
ATOM     97  C   UNL A   1      47.113  34.942  29.737  1.00  0.00     0.200 A 
ATOM     98  F   UNL A   1      46.583  35.672  27.555  1.00  0.00    -0.200 F 
ATOM     99  F   UNL A   1      47.620  36.147  30.032  1.00  0.00    -0.200 F 
ENDBRANCH  66  89
ENDBRANCH  40  41
ENDBRANCH  32  35
ENDBRANCH  30  31
ENDBRANCH  29  30
ENDBRANCH   1  29
TORSDOF 16
ENDMDL
MODEL 3
REMARK VINA RESULT:     -12.4      5.401     10.639
REMARK SMILES Cc1ccc(NC(=O)C[C@@H](C(=O)NCCCCNC(=O)c2ccc(-c3c4nc(c(-c5c(F)c(F)c(F)c(F)c5F)c5ccc([nH]5)c(-c5c(F)c(F)c(F)c(F)c5F)c5nc(c(-c6c(F)c(F)c(F)c(F)c6F)c6ccc3[nH]6)C=C5)C=C4)cc2)[C@@H](C)c2ccccc2)cc1Br
REMARK SMILES IDX 15 1 14 2 13 3 11 4 12 5 10 7 9 8 7 9 6 10 8 12 5 13 1 14
REMARK SMILES IDX 2 15 3 16 93 17 4 18 92 19 94 20 84 21 85 22 86 23 87 24
REMARK SMILES IDX 91 25 88 26 90 27 89 28 16 29 17 30 18 31 19 32 20 34 21 35
REMARK SMILES IDX 22 36 83 37 23 38 82 39 24 40 25 41 26 42 76 43 27 44 81 45
REMARK SMILES IDX 75 46 77 47 28 48 80 49 74 50 73 51 29 53 61 54 41 55 60 56
REMARK SMILES IDX 42 57 45 58 59 59 78 60 43 61 44 62 58 64 79 65 46 66 30 67
REMARK SMILES IDX 31 68 39 69 32 70 33 71 37 72 40 73 34 74 35 75 38 76 36 77
REMARK SMILES IDX 62 78 63 79 71 80 64 81 65 82 69 83 72 84 66 85 67 86 70 87
REMARK SMILES IDX 68 88 47 89 48 90 56 91 49 92 50 93 54 94 57 95 51 96 52 97
REMARK SMILES IDX 55 98 53 99
REMARK H PARENT 13 6 6 11 18 33 77 52 45 63
REMARK Flexibility Score: inf
ROOT
ATOM      1  C   UNL A   1      36.762  20.426  24.658  1.00  0.00     0.023 C 
ENDROOT
BRANCH   1   2
ATOM      2  C   UNL A   1      36.573  21.579  25.657  1.00  0.00     0.116 C 
BRANCH   2   3
ATOM      3  N   UNL A   1      35.475  21.347  26.577  1.00  0.00    -0.356 N 
ATOM      4  C   UNL A   1      34.215  21.845  26.672  1.00  0.00     0.224 C 
ATOM      5  O   UNL A   1      33.556  21.394  27.608  1.00  0.00    -0.275 OA
ATOM      6  H   UNL A   1      35.687  20.689  27.278  1.00  0.00     0.163 HD
BRANCH   4   7
ATOM      7  C   UNL A   1      33.674  22.887  25.691  1.00  0.00     0.095 C 
BRANCH   7   8
ATOM      8  C   UNL A   1      33.777  22.481  24.193  1.00  0.00     0.114 C 
BRANCH   8   9
ATOM      9  C   UNL A   1      32.581  22.132  23.340  1.00  0.00     0.225 C 
ATOM     10  N   UNL A   1      31.843  23.040  22.646  1.00  0.00    -0.326 N 
ATOM     11  H   UNL A   1      31.094  22.645  22.146  1.00  0.00     0.169 HD
ATOM     12  O   UNL A   1      32.245  20.943  23.254  1.00  0.00    -0.275 OA
BRANCH  10  13
ATOM     13  C   UNL A   1      31.949  24.429  22.507  1.00  0.00     0.042 A 
ATOM     14  C   UNL A   1      32.872  28.633  22.731  1.00  0.00     0.045 C 
ATOM     15  C   UNL A   1      32.491  27.192  22.546  1.00  0.00    -0.037 A 
ATOM     16  C   UNL A   1      33.458  26.282  22.100  1.00  0.00     0.007 A 
ATOM     17  C   UNL A   1      31.211  26.706  22.848  1.00  0.00     0.022 A 
ATOM     18  C   UNL A   1      33.175  24.916  22.047  1.00  0.00     0.026 A 
ATOM     19  C   UNL A   1      30.942  25.331  22.835  1.00  0.00     0.042 A 
ATOM     20  Br  UNL A   1      29.782  27.871  23.312  1.00  0.00    -0.050 Br
ENDBRANCH  10  13
ENDBRANCH   8   9
ENDBRANCH   7   8
BRANCH   7  21
ATOM     21  C   UNL A   1      34.321  24.327  25.828  1.00  0.00     0.029 C 
ATOM     22  C   UNL A   1      35.344  24.565  24.686  1.00  0.00     0.013 C 
BRANCH  21  23
ATOM     23  C   UNL A   1      33.412  25.551  25.964  1.00  0.00    -0.044 A 
ATOM     24  C   UNL A   1      33.887  26.871  25.968  1.00  0.00     0.004 A 
ATOM     25  C   UNL A   1      32.046  25.357  26.247  1.00  0.00     0.004 A 
ATOM     26  C   UNL A   1      33.035  27.942  26.275  1.00  0.00     0.000 A 
ATOM     27  C   UNL A   1      31.189  26.424  26.519  1.00  0.00     0.000 A 
ATOM     28  C   UNL A   1      31.688  27.719  26.546  1.00  0.00     0.000 A 
ENDBRANCH  21  23
ENDBRANCH   7  21
ENDBRANCH   4   7
ENDBRANCH   2   3
ENDBRANCH   1   2
BRANCH   1  29
ATOM     29  C   UNL A   1      37.907  19.457  24.958  1.00  0.00     0.023 C 
BRANCH  29  30
ATOM     30  C   UNL A   1      39.041  20.065  25.766  1.00  0.00     0.116 C 
BRANCH  30  31
ATOM     31  N   UNL A   1      40.143  19.129  25.924  1.00  0.00    -0.352 N 
ATOM     32  C   UNL A   1      41.484  19.364  26.078  1.00  0.00     0.251 C 
ATOM     33  H   UNL A   1      39.884  18.179  25.922  1.00  0.00     0.163 HD
ATOM     34  O   UNL A   1      42.285  18.438  25.928  1.00  0.00    -0.269 OA
BRANCH  32  35
ATOM     35  C   UNL A   1      41.982  20.713  26.416  1.00  0.00     0.039 A 
ATOM     36  C   UNL A   1      42.211  21.042  27.756  1.00  0.00     0.014 A 
ATOM     37  C   UNL A   1      42.178  21.674  25.423  1.00  0.00     0.014 A 
ATOM     38  C   UNL A   1      42.677  22.316  28.089  1.00  0.00     0.010 A 
ATOM     39  C   UNL A   1      42.741  22.902  25.743  1.00  0.00     0.010 A 
ATOM     40  C   UNL A   1      42.971  23.249  27.082  1.00  0.00    -0.014 A 
BRANCH  40  41
ATOM     41  C   UNL A   1      43.460  24.615  27.399  1.00  0.00     0.031 A 
ATOM     42  C   UNL A   1      42.505  25.633  27.964  1.00  0.00     0.074 A 
ATOM     43  C   UNL A   1      44.729  24.960  27.112  1.00  0.00     0.049 A 
ATOM     44  N   UNL A   1      42.692  26.908  28.199  1.00  0.00    -0.248 NA
ATOM     45  C   UNL A   1      41.142  25.166  28.264  1.00  0.00     0.031 C 
ATOM     46  C   UNL A   1      45.732  24.078  26.512  1.00  0.00     0.029 A 
ATOM     47  N   UNL A   1      45.389  26.152  27.272  1.00  0.00    -0.354 N 
ATOM     48  C   UNL A   1      41.467  27.394  28.638  1.00  0.00     0.074 A 
ATOM     49  C   UNL A   1      40.529  26.296  28.581  1.00  0.00     0.031 C 
ATOM     50  C   UNL A   1      46.887  24.751  26.382  1.00  0.00     0.029 A 
ATOM     51  C   UNL A   1      46.696  26.120  26.851  1.00  0.00     0.049 A 
ATOM     52  H   UNL A   1      44.966  26.955  27.654  1.00  0.00     0.167 HD
ATOM     53  C   UNL A   1      41.159  28.636  29.079  1.00  0.00     0.037 A 
ATOM     54  C   UNL A   1      47.631  27.089  26.843  1.00  0.00     0.037 A 
ATOM     55  C   UNL A   1      42.112  29.708  29.187  1.00  0.00     0.049 A 
ATOM     56  C   UNL A   1      47.274  28.452  27.371  1.00  0.00     0.074 A 
ATOM     57  C   UNL A   1      41.924  30.984  29.688  1.00  0.00     0.029 A 
ATOM     58  N   UNL A   1      43.440  29.622  28.795  1.00  0.00    -0.354 N 
ATOM     59  N   UNL A   1      46.129  28.883  27.842  1.00  0.00    -0.248 NA
ATOM     60  C   UNL A   1      48.342  29.460  27.378  1.00  0.00     0.031 C 
ATOM     61  C   UNL A   1      43.131  31.681  29.567  1.00  0.00     0.029 A 
ATOM     62  C   UNL A   1      44.081  30.825  29.033  1.00  0.00     0.049 A 
ATOM     63  H   UNL A   1      43.863  28.823  28.405  1.00  0.00     0.167 HD
ATOM     64  C   UNL A   1      46.345  30.199  28.226  1.00  0.00     0.074 A 
ATOM     65  C   UNL A   1      47.735  30.492  27.947  1.00  0.00     0.031 C 
ATOM     66  C   UNL A   1      45.471  31.087  28.761  1.00  0.00     0.037 A 
BRANCH  53  67
ATOM     67  C   UNL A   1      39.737  28.897  29.488  1.00  0.00     0.064 A 
ATOM     68  C   UNL A   1      39.296  28.673  30.802  1.00  0.00     0.173 A 
ATOM     69  C   UNL A   1      38.810  29.401  28.564  1.00  0.00     0.173 A 
ATOM     70  F   UNL A   1      40.139  28.180  31.723  1.00  0.00    -0.203 F 
ATOM     71  C   UNL A   1      37.973  28.910  31.165  1.00  0.00     0.198 A 
ATOM     72  C   UNL A   1      37.495  29.668  28.939  1.00  0.00     0.198 A 
ATOM     73  F   UNL A   1      39.179  29.639  27.297  1.00  0.00    -0.203 F 
ATOM     74  F   UNL A   1      37.562  28.633  32.411  1.00  0.00    -0.200 F 
ATOM     75  C   UNL A   1      37.076  29.413  30.236  1.00  0.00     0.200 A 
ATOM     76  F   UNL A   1      36.632  30.167  28.043  1.00  0.00    -0.200 F 
ATOM     77  F   UNL A   1      35.804  29.645  30.589  1.00  0.00    -0.200 F 
ENDBRANCH  53  67
BRANCH  54  78
ATOM     78  C   UNL A   1      49.003  26.794  26.353  1.00  0.00     0.064 A 
ATOM     79  C   UNL A   1      49.979  26.282  27.220  1.00  0.00     0.173 A 
ATOM     80  C   UNL A   1      49.367  27.010  25.017  1.00  0.00     0.173 A 
ATOM     81  F   UNL A   1      49.683  26.075  28.512  1.00  0.00    -0.203 F 
ATOM     82  C   UNL A   1      51.272  26.020  26.775  1.00  0.00     0.198 A 
ATOM     83  C   UNL A   1      50.655  26.722  24.567  1.00  0.00     0.198 A 
ATOM     84  F   UNL A   1      48.469  27.491  24.145  1.00  0.00    -0.203 F 
ATOM     85  F   UNL A   1      52.197  25.573  27.637  1.00  0.00    -0.200 F 
ATOM     86  C   UNL A   1      51.608  26.234  25.448  1.00  0.00     0.200 A 
ATOM     87  F   UNL A   1      50.970  26.916  23.278  1.00  0.00    -0.200 F 
ATOM     88  F   UNL A   1      52.851  25.978  25.018  1.00  0.00    -0.200 F 
ENDBRANCH  54  78
BRANCH  66  89
ATOM     89  C   UNL A   1      46.002  32.443  29.118  1.00  0.00     0.064 A 
ATOM     90  C   UNL A   1      45.945  33.516  28.217  1.00  0.00     0.173 A 
ATOM     91  C   UNL A   1      46.529  32.683  30.397  1.00  0.00     0.173 A 
ATOM     92  F   UNL A   1      45.463  33.332  26.979  1.00  0.00    -0.203 F 
ATOM     93  C   UNL A   1      46.416  34.776  28.576  1.00  0.00     0.198 A 
ATOM     94  C   UNL A   1      46.972  33.949  30.762  1.00  0.00     0.198 A 
ATOM     95  F   UNL A   1      46.598  31.690  31.296  1.00  0.00    -0.203 F 
ATOM     96  F   UNL A   1      46.392  35.776  27.686  1.00  0.00    -0.200 F 
ATOM     97  C   UNL A   1      46.922  34.993  29.850  1.00  0.00     0.200 A 
ATOM     98  F   UNL A   1      47.447  34.163  31.997  1.00  0.00    -0.200 F 
ATOM     99  F   UNL A   1      47.366  36.209  30.196  1.00  0.00    -0.200 F 
ENDBRANCH  66  89
ENDBRANCH  40  41
ENDBRANCH  32  35
ENDBRANCH  30  31
ENDBRANCH  29  30
ENDBRANCH   1  29
TORSDOF 16
ENDMDL
