MODEL 1
REMARK VINA RESULT:     -13.0      0.000      0.000
REMARK SMILES C[C@H](Oc1ccc(-c2ccccc2)cc1)C(=O)N[C@H](C)C(=O)NCCCCNC(=O)c1ccc(-c2c3nc(c(-c4c(F)c(F)c(F)c(F)c4F)c4ccc([nH]4)c(-c4c(F)c(F)c(F)c(F)c4F)c4nc(c(-c5c(F)c(F)c(F)c(F)c5F)c5ccc2[nH]5)C=C4)C=C3)cc1
REMARK SMILES IDX 24 1 23 2 21 3 22 4 19 6 20 7 18 8 16 9 17 10 2 12 1 13 3 14
REMARK SMILES IDX 4 15 5 16 15 17 6 18 14 19 7 20 8 21 9 22 13 23 10 24 12 25
REMARK SMILES IDX 11 26 25 27 26 28 27 29 28 30 29 31 30 33 31 34 32 35 93 36
REMARK SMILES IDX 33 37 92 38 34 39 35 40 36 41 86 42 37 43 91 44 85 45 87 46
REMARK SMILES IDX 38 47 90 48 84 49 83 50 39 52 71 53 51 54 70 55 52 56 55 57
REMARK SMILES IDX 69 58 88 59 53 60 54 61 68 63 89 64 56 65 40 66 41 67 49 68
REMARK SMILES IDX 42 69 43 70 47 71 50 72 44 73 45 74 48 75 46 76 72 77 73 78
REMARK SMILES IDX 81 79 74 80 75 81 79 82 82 83 76 84 77 85 80 86 78 87 57 88
REMARK SMILES IDX 58 89 66 90 59 91 60 92 64 93 67 94 61 95 62 96 65 97 63 98
REMARK H PARENT 23 5 18 11 28 32 87 51 55 62
REMARK Flexibility Score: inf
ROOT
ATOM      1  C   UNL A   1      35.571  20.429  24.919  1.00  0.00     0.116 C 
ENDROOT
BRANCH   1   2
ATOM      2  N   UNL A   1      34.367  19.663  25.182  1.00  0.00    -0.354 N 
ATOM      3  C   UNL A   1      33.048  20.009  25.056  1.00  0.00     0.242 C 
ATOM      4  O   UNL A   1      32.208  19.171  25.398  1.00  0.00    -0.273 OA
ATOM      5  H   UNL A   1      34.524  18.745  25.501  1.00  0.00     0.163 HD
BRANCH   3   6
ATOM      6  C   UNL A   1      32.623  21.447  24.664  1.00  0.00     0.168 C 
ATOM      7  C   UNL A   1      32.129  21.376  23.229  1.00  0.00     0.041 C 
BRANCH   6   8
ATOM      8  N   UNL A   1      31.769  21.997  25.730  1.00  0.00    -0.341 N 
ATOM      9  C   UNL A   1      31.496  23.218  26.264  1.00  0.00     0.261 C 
ATOM     10  O   UNL A   1      30.758  23.226  27.256  1.00  0.00    -0.271 OA
ATOM     11  H   UNL A   1      31.252  21.288  26.178  1.00  0.00     0.164 HD
BRANCH   9  12
ATOM     12  C   UNL A   1      31.946  24.536  25.633  1.00  0.00     0.258 C 
ATOM     13  C   UNL A   1      33.382  24.833  26.082  1.00  0.00     0.064 C 
BRANCH  12  14
ATOM     14  O   UNL A   1      30.932  25.484  25.944  1.00  0.00    -0.481 OA
BRANCH  14  15
ATOM     15  C   UNL A   1      30.718  26.573  25.156  1.00  0.00     0.120 A 
ATOM     16  C   UNL A   1      31.422  27.768  25.189  1.00  0.00     0.047 A 
ATOM     17  C   UNL A   1      29.615  26.457  24.308  1.00  0.00     0.047 A 
ATOM     18  C   UNL A   1      30.944  28.876  24.487  1.00  0.00     0.012 A 
ATOM     19  C   UNL A   1      29.161  27.554  23.573  1.00  0.00     0.012 A 
ATOM     20  C   UNL A   1      29.798  28.798  23.678  1.00  0.00    -0.018 A 
BRANCH  20  21
ATOM     21  C   UNL A   1      29.287  29.996  22.990  1.00  0.00    -0.018 A 
ATOM     22  C   UNL A   1      28.904  31.134  23.723  1.00  0.00     0.009 A 
ATOM     23  C   UNL A   1      29.121  30.028  21.595  1.00  0.00     0.009 A 
ATOM     24  C   UNL A   1      28.359  32.252  23.091  1.00  0.00     0.001 A 
ATOM     25  C   UNL A   1      28.580  31.150  20.959  1.00  0.00     0.001 A 
ATOM     26  C   UNL A   1      28.194  32.258  21.709  1.00  0.00     0.000 A 
ENDBRANCH  20  21
ENDBRANCH  14  15
ENDBRANCH  12  14
ENDBRANCH   9  12
ENDBRANCH   6   8
ENDBRANCH   3   6
ENDBRANCH   1   2
BRANCH   1  27
ATOM     27  C   UNL A   1      36.844  19.586  24.973  1.00  0.00     0.023 C 
BRANCH  27  28
ATOM     28  C   UNL A   1      38.141  20.375  24.817  1.00  0.00     0.023 C 
BRANCH  28  29
ATOM     29  C   UNL A   1      39.066  20.334  26.025  1.00  0.00     0.116 C 
BRANCH  29  30
ATOM     30  N   UNL A   1      40.087  19.302  25.934  1.00  0.00    -0.352 N 
ATOM     31  C   UNL A   1      41.453  19.427  26.037  1.00  0.00     0.251 C 
ATOM     32  H   UNL A   1      39.755  18.389  25.778  1.00  0.00     0.163 HD
ATOM     33  O   UNL A   1      42.177  18.468  25.807  1.00  0.00    -0.269 OA
BRANCH  31  34
ATOM     34  C   UNL A   1      42.046  20.738  26.382  1.00  0.00     0.039 A 
ATOM     35  C   UNL A   1      42.300  21.647  25.353  1.00  0.00     0.014 A 
ATOM     36  C   UNL A   1      42.332  21.079  27.708  1.00  0.00     0.014 A 
ATOM     37  C   UNL A   1      42.778  22.920  25.662  1.00  0.00     0.010 A 
ATOM     38  C   UNL A   1      42.724  22.377  28.020  1.00  0.00     0.010 A 
ATOM     39  C   UNL A   1      42.955  23.311  27.001  1.00  0.00    -0.014 A 
BRANCH  39  40
ATOM     40  C   UNL A   1      43.359  24.702  27.333  1.00  0.00     0.031 A 
ATOM     41  C   UNL A   1      44.761  25.179  27.070  1.00  0.00     0.074 A 
ATOM     42  C   UNL A   1      42.460  25.527  27.904  1.00  0.00     0.049 A 
ATOM     43  N   UNL A   1      45.281  26.364  27.268  1.00  0.00    -0.248 NA
ATOM     44  C   UNL A   1      45.713  24.190  26.541  1.00  0.00     0.031 C 
ATOM     45  C   UNL A   1      41.090  25.162  28.270  1.00  0.00     0.029 A 
ATOM     46  N   UNL A   1      42.560  26.846  28.272  1.00  0.00    -0.354 N 
ATOM     47  C   UNL A   1      46.613  26.261  26.893  1.00  0.00     0.074 A 
ATOM     48  C   UNL A   1      46.841  24.884  26.515  1.00  0.00     0.031 C 
ATOM     49  C   UNL A   1      40.463  26.241  28.764  1.00  0.00     0.029 A 
ATOM     50  C   UNL A   1      41.395  27.363  28.787  1.00  0.00     0.049 A 
ATOM     51  H   UNL A   1      43.387  27.371  28.176  1.00  0.00     0.167 HD
ATOM     52  C   UNL A   1      47.556  27.234  26.845  1.00  0.00     0.037 A 
ATOM     53  C   UNL A   1      41.111  28.604  29.223  1.00  0.00     0.037 A 
ATOM     54  C   UNL A   1      47.319  28.608  27.205  1.00  0.00     0.049 A 
ATOM     55  C   UNL A   1      42.179  29.663  29.157  1.00  0.00     0.074 A 
ATOM     56  C   UNL A   1      48.186  29.684  27.124  1.00  0.00     0.029 A 
ATOM     57  N   UNL A   1      46.128  29.096  27.725  1.00  0.00    -0.354 N 
ATOM     58  N   UNL A   1      43.408  29.577  28.709  1.00  0.00    -0.248 NA
ATOM     59  C   UNL A   1      41.812  30.998  29.648  1.00  0.00     0.031 C 
ATOM     60  C   UNL A   1      47.542  30.808  27.652  1.00  0.00     0.029 A 
ATOM     61  C   UNL A   1      46.250  30.449  28.001  1.00  0.00     0.049 A 
ATOM     62  H   UNL A   1      45.316  28.560  27.876  1.00  0.00     0.167 HD
ATOM     63  C   UNL A   1      43.951  30.848  28.838  1.00  0.00     0.074 A 
ATOM     64  C   UNL A   1      42.907  31.693  29.378  1.00  0.00     0.031 C 
ATOM     65  C   UNL A   1      45.203  31.278  28.543  1.00  0.00     0.037 A 
BRANCH  52  66
ATOM     66  C   UNL A   1      48.935  26.850  26.385  1.00  0.00     0.064 A 
ATOM     67  C   UNL A   1      49.314  26.937  25.036  1.00  0.00     0.173 A 
ATOM     68  C   UNL A   1      49.904  26.440  27.313  1.00  0.00     0.173 A 
ATOM     69  F   UNL A   1      48.423  27.313  24.106  1.00  0.00    -0.203 F 
ATOM     70  C   UNL A   1      50.605  26.602  24.631  1.00  0.00     0.198 A 
ATOM     71  C   UNL A   1      51.203  26.139  26.908  1.00  0.00     0.198 A 
ATOM     72  F   UNL A   1      49.597  26.345  28.615  1.00  0.00    -0.203 F 
ATOM     73  F   UNL A   1      50.929  26.647  23.331  1.00  0.00    -0.200 F 
ATOM     74  C   UNL A   1      51.549  26.213  25.567  1.00  0.00     0.200 A 
ATOM     75  F   UNL A   1      52.119  25.777  27.817  1.00  0.00    -0.200 F 
ATOM     76  F   UNL A   1      52.794  25.904  25.178  1.00  0.00    -0.200 F 
ENDBRANCH  52  66
BRANCH  53  77
ATOM     77  C   UNL A   1      39.751  28.928  29.731  1.00  0.00     0.064 A 
ATOM     78  C   UNL A   1      39.424  28.743  31.082  1.00  0.00     0.173 A 
ATOM     79  C   UNL A   1      38.744  29.399  28.877  1.00  0.00     0.173 A 
ATOM     80  F   UNL A   1      40.347  28.276  31.937  1.00  0.00    -0.203 F 
ATOM     81  C   UNL A   1      38.136  28.987  31.554  1.00  0.00     0.198 A 
ATOM     82  C   UNL A   1      37.464  29.676  29.356  1.00  0.00     0.198 A 
ATOM     83  F   UNL A   1      39.004  29.599  27.577  1.00  0.00    -0.203 F 
ATOM     84  F   UNL A   1      37.837  28.743  32.837  1.00  0.00    -0.200 F 
ATOM     85  C   UNL A   1      37.158  29.457  30.690  1.00  0.00     0.200 A 
ATOM     86  F   UNL A   1      36.527  30.147  28.522  1.00  0.00    -0.200 F 
ATOM     87  F   UNL A   1      35.919  29.691  31.142  1.00  0.00    -0.200 F 
ENDBRANCH  53  77
BRANCH  65  88
ATOM     88  C   UNL A   1      45.496  32.734  28.771  1.00  0.00     0.064 A 
ATOM     89  C   UNL A   1      45.200  33.707  27.804  1.00  0.00     0.173 A 
ATOM     90  C   UNL A   1      46.084  33.162  29.972  1.00  0.00     0.173 A 
ATOM     91  F   UNL A   1      44.652  33.351  26.633  1.00  0.00    -0.203 F 
ATOM     92  C   UNL A   1      45.525  35.046  28.011  1.00  0.00     0.198 A 
ATOM     93  C   UNL A   1      46.369  34.507  30.191  1.00  0.00     0.198 A 
ATOM     94  F   UNL A   1      46.378  32.277  30.935  1.00  0.00    -0.203 F 
ATOM     95  F   UNL A   1      45.301  35.944  27.043  1.00  0.00    -0.200 F 
ATOM     96  C   UNL A   1      46.104  35.444  29.206  1.00  0.00     0.200 A 
ATOM     97  F   UNL A   1      46.914  34.893  31.354  1.00  0.00    -0.200 F 
ATOM     98  F   UNL A   1      46.419  36.732  29.403  1.00  0.00    -0.200 F 
ENDBRANCH  65  88
ENDBRANCH  39  40
ENDBRANCH  31  34
ENDBRANCH  29  30
ENDBRANCH  28  29
ENDBRANCH  27  28
ENDBRANCH   1  27
TORSDOF 16
ENDMDL
MODEL 2
REMARK VINA RESULT:     -12.8      3.734      9.416
REMARK SMILES C[C@H](Oc1ccc(-c2ccccc2)cc1)C(=O)N[C@H](C)C(=O)NCCCCNC(=O)c1ccc(-c2c3nc(c(-c4c(F)c(F)c(F)c(F)c4F)c4ccc([nH]4)c(-c4c(F)c(F)c(F)c(F)c4F)c4nc(c(-c5c(F)c(F)c(F)c(F)c5F)c5ccc2[nH]5)C=C4)C=C3)cc1
REMARK SMILES IDX 24 1 23 2 21 3 22 4 19 6 20 7 18 8 16 9 17 10 2 12 1 13 3 14
REMARK SMILES IDX 4 15 5 16 15 17 6 18 14 19 7 20 8 21 9 22 13 23 10 24 12 25
REMARK SMILES IDX 11 26 25 27 26 28 27 29 28 30 29 31 30 33 31 34 32 35 93 36
REMARK SMILES IDX 33 37 92 38 34 39 35 40 36 41 86 42 37 43 91 44 85 45 87 46
REMARK SMILES IDX 38 47 90 48 84 49 83 50 39 52 71 53 51 54 70 55 52 56 55 57
REMARK SMILES IDX 69 58 88 59 53 60 54 61 68 63 89 64 56 65 40 66 41 67 49 68
REMARK SMILES IDX 42 69 43 70 47 71 50 72 44 73 45 74 48 75 46 76 72 77 73 78
REMARK SMILES IDX 81 79 74 80 75 81 79 82 82 83 76 84 77 85 80 86 78 87 57 88
REMARK SMILES IDX 58 89 66 90 59 91 60 92 64 93 67 94 61 95 62 96 65 97 63 98
REMARK H PARENT 23 5 18 11 28 32 87 51 55 62
REMARK Flexibility Score: inf
ROOT
ATOM      1  C   UNL A   1      31.094  30.064  25.065  1.00  0.00     0.116 C 
ENDROOT
BRANCH   1   2
ATOM      2  N   UNL A   1      30.607  30.027  23.698  1.00  0.00    -0.354 N 
ATOM      3  C   UNL A   1      30.426  28.971  22.846  1.00  0.00     0.242 C 
ATOM      4  O   UNL A   1      30.038  29.227  21.702  1.00  0.00    -0.273 OA
ATOM      5  H   UNL A   1      30.367  30.905  23.323  1.00  0.00     0.163 HD
BRANCH   3   6
ATOM      6  C   UNL A   1      30.850  27.533  23.239  1.00  0.00     0.168 C 
ATOM      7  C   UNL A   1      29.575  26.787  23.592  1.00  0.00     0.041 C 
BRANCH   6   8
ATOM      8  N   UNL A   1      31.771  27.013  22.214  1.00  0.00    -0.341 N 
ATOM      9  C   UNL A   1      32.769  26.092  22.141  1.00  0.00     0.261 C 
ATOM     10  O   UNL A   1      33.377  26.031  21.066  1.00  0.00    -0.271 OA
ATOM     11  H   UNL A   1      31.623  27.449  21.344  1.00  0.00     0.164 HD
BRANCH   9  12
ATOM     12  C   UNL A   1      33.070  25.082  23.250  1.00  0.00     0.258 C 
ATOM     13  C   UNL A   1      33.991  25.744  24.282  1.00  0.00     0.064 C 
BRANCH  12  14
ATOM     14  O   UNL A   1      33.529  23.906  22.592  1.00  0.00    -0.481 OA
BRANCH  14  15
ATOM     15  C   UNL A   1      33.460  22.688  23.195  1.00  0.00     0.120 A 
ATOM     16  C   UNL A   1      34.385  22.150  24.078  1.00  0.00     0.047 A 
ATOM     17  C   UNL A   1      32.378  21.908  22.785  1.00  0.00     0.047 A 
ATOM     18  C   UNL A   1      34.303  20.802  24.434  1.00  0.00     0.012 A 
ATOM     19  C   UNL A   1      32.272  20.572  23.176  1.00  0.00     0.012 A 
ATOM     20  C   UNL A   1      33.256  19.982  23.980  1.00  0.00    -0.018 A 
BRANCH  20  21
ATOM     21  C   UNL A   1      33.224  18.552  24.330  1.00  0.00    -0.018 A 
ATOM     22  C   UNL A   1      32.594  18.117  25.510  1.00  0.00     0.009 A 
ATOM     23  C   UNL A   1      33.856  17.585  23.530  1.00  0.00     0.009 A 
ATOM     24  C   UNL A   1      32.612  16.773  25.888  1.00  0.00     0.001 A 
ATOM     25  C   UNL A   1      33.869  16.237  23.903  1.00  0.00     0.001 A 
ATOM     26  C   UNL A   1      33.252  15.834  25.085  1.00  0.00     0.000 A 
ENDBRANCH  20  21
ENDBRANCH  14  15
ENDBRANCH  12  14
ENDBRANCH   9  12
ENDBRANCH   6   8
ENDBRANCH   3   6
ENDBRANCH   1   2
BRANCH   1  27
ATOM     27  C   UNL A   1      32.559  29.647  25.192  1.00  0.00     0.023 C 
BRANCH  27  28
ATOM     28  C   UNL A   1      32.818  28.522  26.190  1.00  0.00     0.023 C 
BRANCH  28  29
ATOM     29  C   UNL A   1      33.902  28.813  27.218  1.00  0.00     0.116 C 
BRANCH  29  30
ATOM     30  N   UNL A   1      33.804  30.142  27.800  1.00  0.00    -0.352 N 
ATOM     31  C   UNL A   1      34.740  30.837  28.529  1.00  0.00     0.251 C 
ATOM     32  H   UNL A   1      32.950  30.608  27.652  1.00  0.00     0.163 HD
ATOM     33  O   UNL A   1      34.443  31.901  29.055  1.00  0.00    -0.269 OA
BRANCH  31  34
ATOM     34  C   UNL A   1      36.095  30.272  28.712  1.00  0.00     0.039 A 
ATOM     35  C   UNL A   1      37.033  30.443  27.692  1.00  0.00     0.014 A 
ATOM     36  C   UNL A   1      36.449  29.596  29.884  1.00  0.00     0.014 A 
ATOM     37  C   UNL A   1      38.340  29.995  27.875  1.00  0.00     0.010 A 
ATOM     38  C   UNL A   1      37.773  29.229  30.100  1.00  0.00     0.010 A 
ATOM     39  C   UNL A   1      38.734  29.422  29.097  1.00  0.00    -0.014 A 
BRANCH  39  40
ATOM     40  C   UNL A   1      40.151  29.045  29.333  1.00  0.00     0.031 A 
ATOM     41  C   UNL A   1      41.065  29.944  30.119  1.00  0.00     0.074 A 
ATOM     42  C   UNL A   1      40.622  27.898  28.805  1.00  0.00     0.049 A 
ATOM     43  N   UNL A   1      42.319  29.764  30.449  1.00  0.00    -0.248 NA
ATOM     44  C   UNL A   1      40.507  31.227  30.575  1.00  0.00     0.031 C 
ATOM     45  C   UNL A   1      39.853  26.975  27.968  1.00  0.00     0.029 A 
ATOM     46  N   UNL A   1      41.858  27.308  28.899  1.00  0.00    -0.354 N 
ATOM     47  C   UNL A   1      42.698  30.905  31.141  1.00  0.00     0.074 A 
ATOM     48  C   UNL A   1      41.563  31.800  31.133  1.00  0.00     0.031 C 
ATOM     49  C   UNL A   1      40.617  25.914  27.666  1.00  0.00     0.029 A 
ATOM     50  C   UNL A   1      41.939  26.098  28.252  1.00  0.00     0.049 A 
ATOM     51  H   UNL A   1      42.613  27.713  29.383  1.00  0.00     0.167 HD
ATOM     52  C   UNL A   1      43.880  31.171  31.750  1.00  0.00     0.037 A 
ATOM     53  C   UNL A   1      42.966  25.233  28.150  1.00  0.00     0.037 A 
ATOM     54  C   UNL A   1      45.001  30.268  31.772  1.00  0.00     0.049 A 
ATOM     55  C   UNL A   1      44.265  25.557  28.838  1.00  0.00     0.074 A 
ATOM     56  C   UNL A   1      46.215  30.413  32.420  1.00  0.00     0.029 A 
ATOM     57  N   UNL A   1      45.050  29.052  31.104  1.00  0.00    -0.354 N 
ATOM     58  N   UNL A   1      44.579  26.596  29.573  1.00  0.00    -0.248 NA
ATOM     59  C   UNL A   1      45.348  24.577  28.690  1.00  0.00     0.031 C 
ATOM     60  C   UNL A   1      47.020  29.317  32.095  1.00  0.00     0.029 A 
ATOM     61  C   UNL A   1      46.285  28.454  31.298  1.00  0.00     0.049 A 
ATOM     62  H   UNL A   1      44.315  28.671  30.570  1.00  0.00     0.167 HD
ATOM     63  C   UNL A   1      45.884  26.383  29.996  1.00  0.00     0.074 A 
ATOM     64  C   UNL A   1      46.291  25.100  29.461  1.00  0.00     0.031 C 
ATOM     65  C   UNL A   1      46.678  27.178  30.755  1.00  0.00     0.037 A 
BRANCH  52  66
ATOM     66  C   UNL A   1      44.023  32.495  32.449  1.00  0.00     0.064 A 
ATOM     67  C   UNL A   1      44.515  33.630  31.787  1.00  0.00     0.173 A 
ATOM     68  C   UNL A   1      43.615  32.640  33.784  1.00  0.00     0.173 A 
ATOM     69  F   UNL A   1      44.930  33.545  30.514  1.00  0.00    -0.203 F 
ATOM     70  C   UNL A   1      44.617  34.855  32.444  1.00  0.00     0.198 A 
ATOM     71  C   UNL A   1      43.687  33.875  34.426  1.00  0.00     0.198 A 
ATOM     72  F   UNL A   1      43.132  31.589  34.462  1.00  0.00    -0.203 F 
ATOM     73  F   UNL A   1      45.135  35.914  31.805  1.00  0.00    -0.200 F 
ATOM     74  C   UNL A   1      44.194  34.979  33.758  1.00  0.00     0.200 A 
ATOM     75  F   UNL A   1      43.264  33.995  35.692  1.00  0.00    -0.200 F 
ATOM     76  F   UNL A   1      44.281  36.161  34.384  1.00  0.00    -0.200 F 
ENDBRANCH  52  66
BRANCH  53  77
ATOM     77  C   UNL A   1      42.803  23.962  27.395  1.00  0.00     0.064 A 
ATOM     78  C   UNL A   1      42.346  22.798  28.030  1.00  0.00     0.173 A 
ATOM     79  C   UNL A   1      43.125  23.875  26.033  1.00  0.00     0.173 A 
ATOM     80  F   UNL A   1      42.042  22.824  29.337  1.00  0.00    -0.203 F 
ATOM     81  C   UNL A   1      42.247  21.591  27.343  1.00  0.00     0.198 A 
ATOM     82  C   UNL A   1      42.994  22.674  25.337  1.00  0.00     0.198 A 
ATOM     83  F   UNL A   1      43.561  24.958  25.374  1.00  0.00    -0.203 F 
ATOM     84  F   UNL A   1      41.866  20.482  27.992  1.00  0.00    -0.200 F 
ATOM     85  C   UNL A   1      42.568  21.531  25.995  1.00  0.00     0.200 A 
ATOM     86  F   UNL A   1      43.287  22.624  24.031  1.00  0.00    -0.200 F 
ATOM     87  F   UNL A   1      42.474  20.369  25.334  1.00  0.00    -0.200 F 
ENDBRANCH  53  77
BRANCH  65  88
ATOM     88  C   UNL A   1      48.055  26.664  31.073  1.00  0.00     0.064 A 
ATOM     89  C   UNL A   1      49.167  26.993  30.283  1.00  0.00     0.173 A 
ATOM     90  C   UNL A   1      48.263  25.829  32.182  1.00  0.00     0.173 A 
ATOM     91  F   UNL A   1      49.021  27.777  29.204  1.00  0.00    -0.203 F 
ATOM     92  C   UNL A   1      50.425  26.468  30.563  1.00  0.00     0.198 A 
ATOM     93  C   UNL A   1      49.531  25.338  32.482  1.00  0.00     0.198 A 
ATOM     94  F   UNL A   1      47.238  25.490  32.978  1.00  0.00    -0.203 F 
ATOM     95  F   UNL A   1      51.457  26.736  29.751  1.00  0.00    -0.200 F 
ATOM     96  C   UNL A   1      50.607  25.645  31.664  1.00  0.00     0.200 A 
ATOM     97  F   UNL A   1      49.707  24.557  33.557  1.00  0.00    -0.200 F 
ATOM     98  F   UNL A   1      51.818  25.137  31.930  1.00  0.00    -0.200 F 
ENDBRANCH  65  88
ENDBRANCH  39  40
ENDBRANCH  31  34
ENDBRANCH  29  30
ENDBRANCH  28  29
ENDBRANCH  27  28
ENDBRANCH   1  27
TORSDOF 16
ENDMDL
MODEL 3
REMARK VINA RESULT:     -12.6      2.303      4.504
REMARK SMILES C[C@H](Oc1ccc(-c2ccccc2)cc1)C(=O)N[C@H](C)C(=O)NCCCCNC(=O)c1ccc(-c2c3nc(c(-c4c(F)c(F)c(F)c(F)c4F)c4ccc([nH]4)c(-c4c(F)c(F)c(F)c(F)c4F)c4nc(c(-c5c(F)c(F)c(F)c(F)c5F)c5ccc2[nH]5)C=C4)C=C3)cc1
REMARK SMILES IDX 24 1 23 2 21 3 22 4 19 6 20 7 18 8 16 9 17 10 2 12 1 13 3 14
REMARK SMILES IDX 4 15 5 16 15 17 6 18 14 19 7 20 8 21 9 22 13 23 10 24 12 25
REMARK SMILES IDX 11 26 25 27 26 28 27 29 28 30 29 31 30 33 31 34 32 35 93 36
REMARK SMILES IDX 33 37 92 38 34 39 35 40 36 41 86 42 37 43 91 44 85 45 87 46
REMARK SMILES IDX 38 47 90 48 84 49 83 50 39 52 71 53 51 54 70 55 52 56 55 57
REMARK SMILES IDX 69 58 88 59 53 60 54 61 68 63 89 64 56 65 40 66 41 67 49 68
REMARK SMILES IDX 42 69 43 70 47 71 50 72 44 73 45 74 48 75 46 76 72 77 73 78
REMARK SMILES IDX 81 79 74 80 75 81 79 82 82 83 76 84 77 85 80 86 78 87 57 88
REMARK SMILES IDX 58 89 66 90 59 91 60 92 64 93 67 94 61 95 62 96 65 97 63 98
REMARK H PARENT 23 5 18 11 28 32 87 51 55 62
REMARK Flexibility Score: inf
ROOT
ATOM      1  C   UNL A   1      37.474  21.775  25.423  1.00  0.00     0.116 C 
ENDROOT
BRANCH   1   2
ATOM      2  N   UNL A   1      36.341  22.253  26.195  1.00  0.00    -0.354 N 
ATOM      3  C   UNL A   1      35.373  23.168  25.880  1.00  0.00     0.242 C 
ATOM      4  O   UNL A   1      34.539  23.432  26.751  1.00  0.00    -0.273 OA
ATOM      5  H   UNL A   1      36.256  21.853  27.091  1.00  0.00     0.163 HD
BRANCH   3   6
ATOM      6  C   UNL A   1      35.416  23.966  24.553  1.00  0.00     0.168 C 
ATOM      7  C   UNL A   1      35.428  22.940  23.431  1.00  0.00     0.041 C 
BRANCH   6   8
ATOM      8  N   UNL A   1      34.390  25.021  24.599  1.00  0.00    -0.341 N 
ATOM      9  C   UNL A   1      33.335  25.425  23.841  1.00  0.00     0.261 C 
ATOM     10  O   UNL A   1      32.769  26.462  24.205  1.00  0.00    -0.271 OA
ATOM     11  H   UNL A   1      34.495  25.589  25.397  1.00  0.00     0.164 HD
BRANCH   9  12
ATOM     12  C   UNL A   1      32.766  24.608  22.680  1.00  0.00     0.258 C 
ATOM     13  C   UNL A   1      32.482  25.552  21.506  1.00  0.00     0.064 C 
BRANCH  12  14
ATOM     14  O   UNL A   1      31.683  23.861  23.223  1.00  0.00    -0.481 OA
BRANCH  14  15
ATOM     15  C   UNL A   1      31.853  22.578  23.644  1.00  0.00     0.120 A 
ATOM     16  C   UNL A   1      31.952  22.147  24.959  1.00  0.00     0.047 A 
ATOM     17  C   UNL A   1      32.026  21.655  22.611  1.00  0.00     0.047 A 
ATOM     18  C   UNL A   1      32.356  20.839  25.233  1.00  0.00     0.012 A 
ATOM     19  C   UNL A   1      32.388  20.335  22.886  1.00  0.00     0.012 A 
ATOM     20  C   UNL A   1      32.598  19.911  24.205  1.00  0.00    -0.018 A 
BRANCH  20  21
ATOM     21  C   UNL A   1      33.073  18.554  24.523  1.00  0.00    -0.018 A 
ATOM     22  C   UNL A   1      32.208  17.608  25.101  1.00  0.00     0.009 A 
ATOM     23  C   UNL A   1      34.408  18.173  24.304  1.00  0.00     0.009 A 
ATOM     24  C   UNL A   1      32.661  16.339  25.466  1.00  0.00     0.001 A 
ATOM     25  C   UNL A   1      34.863  16.901  24.663  1.00  0.00     0.001 A 
ATOM     26  C   UNL A   1      33.990  15.988  25.250  1.00  0.00     0.000 A 
ENDBRANCH  20  21
ENDBRANCH  14  15
ENDBRANCH  12  14
ENDBRANCH   9  12
ENDBRANCH   6   8
ENDBRANCH   3   6
ENDBRANCH   1   2
BRANCH   1  27
ATOM     27  C   UNL A   1      37.299  20.341  24.924  1.00  0.00     0.023 C 
BRANCH  27  28
ATOM     28  C   UNL A   1      38.559  19.483  24.991  1.00  0.00     0.023 C 
BRANCH  28  29
ATOM     29  C   UNL A   1      39.507  19.822  26.132  1.00  0.00     0.116 C 
BRANCH  29  30
ATOM     30  N   UNL A   1      40.772  19.110  26.063  1.00  0.00    -0.352 N 
ATOM     31  C   UNL A   1      42.050  19.607  26.157  1.00  0.00     0.251 C 
ATOM     32  H   UNL A   1      40.705  18.137  25.929  1.00  0.00     0.163 HD
ATOM     33  O   UNL A   1      43.011  18.879  25.948  1.00  0.00    -0.269 OA
BRANCH  31  34
ATOM     34  C   UNL A   1      42.259  21.039  26.469  1.00  0.00     0.039 A 
ATOM     35  C   UNL A   1      42.427  21.412  27.804  1.00  0.00     0.014 A 
ATOM     36  C   UNL A   1      42.309  22.003  25.458  1.00  0.00     0.014 A 
ATOM     37  C   UNL A   1      42.710  22.741  28.117  1.00  0.00     0.010 A 
ATOM     38  C   UNL A   1      42.679  23.309  25.764  1.00  0.00     0.010 A 
ATOM     39  C   UNL A   1      42.880  23.694  27.097  1.00  0.00    -0.014 A 
BRANCH  39  40
ATOM     40  C   UNL A   1      43.290  25.084  27.424  1.00  0.00     0.031 A 
ATOM     41  C   UNL A   1      44.685  25.564  27.129  1.00  0.00     0.074 A 
ATOM     42  C   UNL A   1      42.404  25.907  28.018  1.00  0.00     0.049 A 
ATOM     43  N   UNL A   1      45.208  26.749  27.317  1.00  0.00    -0.248 NA
ATOM     44  C   UNL A   1      45.625  24.578  26.575  1.00  0.00     0.031 C 
ATOM     45  C   UNL A   1      41.044  25.539  28.415  1.00  0.00     0.029 A 
ATOM     46  N   UNL A   1      42.510  27.225  28.387  1.00  0.00    -0.354 N 
ATOM     47  C   UNL A   1      46.531  26.650  26.911  1.00  0.00     0.074 A 
ATOM     48  C   UNL A   1      46.751  25.274  26.524  1.00  0.00     0.031 C 
ATOM     49  C   UNL A   1      40.427  26.616  28.926  1.00  0.00     0.029 A 
ATOM     50  C   UNL A   1      41.358  27.738  28.931  1.00  0.00     0.049 A 
ATOM     51  H   UNL A   1      43.335  27.752  28.273  1.00  0.00     0.167 HD
ATOM     52  C   UNL A   1      47.471  27.624  26.844  1.00  0.00     0.037 A 
ATOM     53  C   UNL A   1      41.082  28.979  29.377  1.00  0.00     0.037 A 
ATOM     54  C   UNL A   1      47.241  28.997  27.213  1.00  0.00     0.049 A 
ATOM     55  C   UNL A   1      42.147  30.039  29.289  1.00  0.00     0.074 A 
ATOM     56  C   UNL A   1      48.105  30.074  27.115  1.00  0.00     0.029 A 
ATOM     57  N   UNL A   1      46.062  29.481  27.763  1.00  0.00    -0.354 N 
ATOM     58  N   UNL A   1      43.365  29.956  28.812  1.00  0.00    -0.248 NA
ATOM     59  C   UNL A   1      41.790  31.372  29.792  1.00  0.00     0.031 C 
ATOM     60  C   UNL A   1      47.472  31.195  27.661  1.00  0.00     0.029 A 
ATOM     61  C   UNL A   1      46.189  30.834  28.040  1.00  0.00     0.049 A 
ATOM     62  H   UNL A   1      45.254  28.943  27.931  1.00  0.00     0.167 HD
ATOM     63  C   UNL A   1      43.910  31.227  28.932  1.00  0.00     0.074 A 
ATOM     64  C   UNL A   1      42.877  32.070  29.499  1.00  0.00     0.031 C 
ATOM     65  C   UNL A   1      45.154  31.659  28.608  1.00  0.00     0.037 A 
BRANCH  52  66
ATOM     66  C   UNL A   1      48.839  27.243  26.350  1.00  0.00     0.064 A 
ATOM     67  C   UNL A   1      49.162  27.260  24.984  1.00  0.00     0.173 A 
ATOM     68  C   UNL A   1      49.854  26.908  27.259  1.00  0.00     0.173 A 
ATOM     69  F   UNL A   1      48.227  27.562  24.072  1.00  0.00    -0.203 F 
ATOM     70  C   UNL A   1      50.443  26.929  24.546  1.00  0.00     0.198 A 
ATOM     71  C   UNL A   1      51.142  26.612  26.820  1.00  0.00     0.198 A 
ATOM     72  F   UNL A   1      49.602  26.883  28.576  1.00  0.00    -0.203 F 
ATOM     73  F   UNL A   1      50.715  26.905  23.234  1.00  0.00    -0.200 F 
ATOM     74  C   UNL A   1      51.434  26.615  25.464  1.00  0.00     0.200 A 
ATOM     75  F   UNL A   1      52.102  26.323  27.709  1.00  0.00    -0.200 F 
ATOM     76  F   UNL A   1      52.669  26.310  25.042  1.00  0.00    -0.200 F 
ENDBRANCH  52  66
BRANCH  53  77
ATOM     77  C   UNL A   1      39.735  29.298  29.918  1.00  0.00     0.064 A 
ATOM     78  C   UNL A   1      39.469  29.206  31.292  1.00  0.00     0.173 A 
ATOM     79  C   UNL A   1      38.678  29.674  29.076  1.00  0.00     0.173 A 
ATOM     80  F   UNL A   1      40.441  28.833  32.139  1.00  0.00    -0.203 F 
ATOM     81  C   UNL A   1      38.194  29.447  31.799  1.00  0.00     0.198 A 
ATOM     82  C   UNL A   1      37.411  29.948  29.587  1.00  0.00     0.198 A 
ATOM     83  F   UNL A   1      38.878  29.783  27.754  1.00  0.00    -0.203 F 
ATOM     84  F   UNL A   1      37.955  29.291  33.108  1.00  0.00    -0.200 F 
ATOM     85  C   UNL A   1      37.167  29.821  30.946  1.00  0.00     0.200 A 
ATOM     86  F   UNL A   1      36.425  30.327  28.763  1.00  0.00    -0.200 F 
ATOM     87  F   UNL A   1      35.940  30.051  31.433  1.00  0.00    -0.200 F 
ENDBRANCH  53  77
BRANCH  65  88
ATOM     88  C   UNL A   1      45.450  33.116  28.834  1.00  0.00     0.064 A 
ATOM     89  C   UNL A   1      45.167  34.086  27.861  1.00  0.00     0.173 A 
ATOM     90  C   UNL A   1      46.029  33.546  30.038  1.00  0.00     0.173 A 
ATOM     91  F   UNL A   1      44.627  33.728  26.686  1.00  0.00    -0.203 F 
ATOM     92  C   UNL A   1      45.494  35.424  28.066  1.00  0.00     0.198 A 
ATOM     93  C   UNL A   1      46.317  34.891  30.255  1.00  0.00     0.198 A 
ATOM     94  F   UNL A   1      46.311  32.663  31.007  1.00  0.00    -0.203 F 
ATOM     95  F   UNL A   1      45.282  36.320  27.092  1.00  0.00    -0.200 F 
ATOM     96  C   UNL A   1      46.065  35.825  29.264  1.00  0.00     0.200 A 
ATOM     97  F   UNL A   1      46.853  35.279  31.421  1.00  0.00    -0.200 F 
ATOM     98  F   UNL A   1      46.382  37.112  29.459  1.00  0.00    -0.200 F 
ENDBRANCH  65  88
ENDBRANCH  39  40
ENDBRANCH  31  34
ENDBRANCH  29  30
ENDBRANCH  28  29
ENDBRANCH  27  28
ENDBRANCH   1  27
TORSDOF 16
ENDMDL
