MODEL 1
REMARK VINA RESULT:     -12.5      0.000      0.000
REMARK SMILES Cc1nsc(NC(=O)c2ccc(N)cc2)c1C(=O)NCCCCNC(=O)c1ccc(-c2c3nc(c(-c4c(F)c(F)c(F)c(F)c4F)c4ccc([nH]4)c(-c4c(F)c(F)c(F)c(F)c4F)c4nc(c(-c5c(F)c(F)c(F)c(F)c5F)c5ccc2[nH]5)C=C4)C=C3)cc1
REMARK SMILES IDX 21 1 20 2 19 3 17 4 18 5 16 7 1 8 2 9 3 10 4 11 5 12 6 13
REMARK SMILES IDX 7 14 8 16 9 17 10 18 15 19 11 20 14 21 12 22 13 23 22 26
REMARK SMILES IDX 23 27 24 28 25 29 26 31 27 32 28 33 89 34 29 35 88 36 30 37
REMARK SMILES IDX 31 38 32 39 82 40 33 41 87 42 81 43 83 44 34 45 86 46 80 47
REMARK SMILES IDX 79 48 35 50 67 51 47 52 66 53 48 54 51 55 65 56 84 57 49 58
REMARK SMILES IDX 50 59 64 61 85 62 52 63 36 64 37 65 45 66 38 67 39 68 43 69
REMARK SMILES IDX 46 70 40 71 41 72 44 73 42 74 68 75 69 76 77 77 70 78 71 79
REMARK SMILES IDX 75 80 78 81 72 82 73 83 76 84 74 85 53 86 54 87 62 88 55 89
REMARK SMILES IDX 56 90 60 91 63 92 57 93 58 94 61 95 59 96
REMARK H PARENT 19 6 6 15 13 24 13 25 24 30 83 49 51 60
REMARK Flexibility Score: inf
ROOT
ATOM      1  C   UNL A   1      34.662  30.257  26.980  1.00  0.00     0.023 C 
ENDROOT
BRANCH   1   2
ATOM      2  C   UNL A   1      34.204  28.804  26.855  1.00  0.00     0.116 C 
BRANCH   2   3
ATOM      3  N   UNL A   1      32.957  28.549  27.530  1.00  0.00    -0.352 N 
ATOM      4  C   UNL A   1      31.780  27.933  27.213  1.00  0.00     0.256 C 
ATOM      5  O   UNL A   1      31.028  27.828  28.193  1.00  0.00    -0.269 OA
ATOM      6  H   UNL A   1      32.953  28.908  28.447  1.00  0.00     0.163 HD
BRANCH   4   7
ATOM      7  C   UNL A   1      31.328  27.460  25.890  1.00  0.00     0.097 A 
ATOM      8  C   UNL A   1      31.609  29.359  23.992  1.00  0.00     0.069 C 
ATOM      9  C   UNL A   1      31.187  28.051  24.556  1.00  0.00     0.066 A 
ATOM     10  N   UNL A   1      30.562  27.300  23.646  1.00  0.00    -0.195 NA
ATOM     11  S   UNL A   1      30.123  25.880  24.310  1.00  0.00    -0.017 S 
ATOM     12  C   UNL A   1      30.932  26.112  25.779  1.00  0.00     0.129 A 
BRANCH  12  13
ATOM     13  N   UNL A   1      31.028  25.105  26.733  1.00  0.00    -0.312 N 
ATOM     14  C   UNL A   1      31.774  23.944  26.777  1.00  0.00     0.256 C 
ATOM     15  H   UNL A   1      30.459  25.246  27.524  1.00  0.00     0.171 HD
ATOM     16  O   UNL A   1      31.535  23.086  27.626  1.00  0.00    -0.269 OA
BRANCH  14  17
ATOM     17  C   UNL A   1      32.905  23.707  25.859  1.00  0.00     0.040 A 
ATOM     18  C   UNL A   1      32.813  22.768  24.827  1.00  0.00     0.016 A 
ATOM     19  C   UNL A   1      34.095  24.405  26.072  1.00  0.00     0.016 A 
ATOM     20  C   UNL A   1      33.957  22.435  24.097  1.00  0.00     0.026 A 
ATOM     21  C   UNL A   1      35.227  24.078  25.321  1.00  0.00     0.026 A 
ATOM     22  C   UNL A   1      35.175  23.072  24.350  1.00  0.00     0.031 A 
BRANCH  22  23
ATOM     23  N   UNL A   1      36.323  22.674  23.693  1.00  0.00    -0.399 N 
ATOM     24  H   UNL A   1      36.261  22.095  22.900  1.00  0.00     0.156 HD
ATOM     25  H   UNL A   1      37.204  22.971  24.016  1.00  0.00     0.156 HD
ENDBRANCH  22  23
ENDBRANCH  14  17
ENDBRANCH  12  13
ENDBRANCH   4   7
ENDBRANCH   2   3
ENDBRANCH   1   2
BRANCH   1  26
ATOM     26  C   UNL A   1      33.664  31.206  27.656  1.00  0.00     0.023 C 
BRANCH  26  27
ATOM     27  C   UNL A   1      34.227  32.582  28.000  1.00  0.00     0.116 C 
BRANCH  27  28
ATOM     28  N   UNL A   1      34.140  32.903  29.425  1.00  0.00    -0.352 N 
ATOM     29  C   UNL A   1      34.855  32.324  30.459  1.00  0.00     0.251 C 
ATOM     30  H   UNL A   1      33.502  33.610  29.675  1.00  0.00     0.163 HD
ATOM     31  O   UNL A   1      34.451  32.339  31.609  1.00  0.00    -0.269 OA
BRANCH  29  32
ATOM     32  C   UNL A   1      36.154  31.717  30.133  1.00  0.00     0.039 A 
ATOM     33  C   UNL A   1      37.286  32.495  29.872  1.00  0.00     0.014 A 
ATOM     34  C   UNL A   1      36.219  30.326  30.163  1.00  0.00     0.014 A 
ATOM     35  C   UNL A   1      38.515  31.858  29.728  1.00  0.00     0.010 A 
ATOM     36  C   UNL A   1      37.444  29.712  30.151  1.00  0.00     0.010 A 
ATOM     37  C   UNL A   1      38.590  30.465  29.893  1.00  0.00    -0.014 A 
BRANCH  37  38
ATOM     38  C   UNL A   1      39.880  29.785  30.003  1.00  0.00     0.031 A 
ATOM     39  C   UNL A   1      40.355  29.648  31.414  1.00  0.00     0.074 A 
ATOM     40  C   UNL A   1      40.409  29.109  28.956  1.00  0.00     0.049 A 
ATOM     41  N   UNL A   1      41.451  30.096  31.930  1.00  0.00    -0.248 NA
ATOM     42  C   UNL A   1      39.436  29.068  32.415  1.00  0.00     0.031 C 
ATOM     43  C   UNL A   1      39.817  28.959  27.618  1.00  0.00     0.029 A 
ATOM     44  N   UNL A   1      41.506  28.298  28.882  1.00  0.00    -0.354 N 
ATOM     45  C   UNL A   1      41.467  29.644  33.252  1.00  0.00     0.074 A 
ATOM     46  C   UNL A   1      40.132  29.210  33.546  1.00  0.00     0.031 C 
ATOM     47  C   UNL A   1      40.404  27.932  26.967  1.00  0.00     0.029 A 
ATOM     48  C   UNL A   1      41.524  27.467  27.759  1.00  0.00     0.049 A 
ATOM     49  H   UNL A   1      42.221  28.300  29.559  1.00  0.00     0.167 HD
ATOM     50  C   UNL A   1      42.653  29.358  33.860  1.00  0.00     0.037 A 
ATOM     51  C   UNL A   1      42.392  26.455  27.504  1.00  0.00     0.037 A 
ATOM     52  C   UNL A   1      43.740  29.944  33.120  1.00  0.00     0.049 A 
ATOM     53  C   UNL A   1      43.580  26.683  28.351  1.00  0.00     0.074 A 
ATOM     54  C   UNL A   1      44.254  31.207  32.923  1.00  0.00     0.029 A 
ATOM     55  N   UNL A   1      44.180  29.155  32.093  1.00  0.00    -0.354 N 
ATOM     56  N   UNL A   1      44.392  27.691  28.187  1.00  0.00    -0.248 NA
ATOM     57  C   UNL A   1      43.677  26.000  29.635  1.00  0.00     0.031 C 
ATOM     58  C   UNL A   1      44.874  31.182  31.637  1.00  0.00     0.029 A 
ATOM     59  C   UNL A   1      44.783  29.893  31.116  1.00  0.00     0.049 A 
ATOM     60  H   UNL A   1      44.075  28.176  32.063  1.00  0.00     0.167 HD
ATOM     61  C   UNL A   1      44.766  28.034  29.470  1.00  0.00     0.074 A 
ATOM     62  C   UNL A   1      44.452  26.871  30.290  1.00  0.00     0.031 C 
ATOM     63  C   UNL A   1      44.976  29.342  29.795  1.00  0.00     0.037 A 
BRANCH  50  64
ATOM     64  C   UNL A   1      42.903  28.145  34.746  1.00  0.00     0.064 A 
ATOM     65  C   UNL A   1      43.392  28.350  36.057  1.00  0.00     0.173 A 
ATOM     66  C   UNL A   1      43.014  26.819  34.270  1.00  0.00     0.173 A 
ATOM     67  F   UNL A   1      43.361  29.570  36.614  1.00  0.00    -0.203 F 
ATOM     68  C   UNL A   1      44.013  27.331  36.790  1.00  0.00     0.198 A 
ATOM     69  C   UNL A   1      43.591  25.796  35.022  1.00  0.00     0.198 A 
ATOM     70  F   UNL A   1      42.680  26.475  33.023  1.00  0.00    -0.203 F 
ATOM     71  F   UNL A   1      44.571  27.607  37.976  1.00  0.00    -0.200 F 
ATOM     72  C   UNL A   1      44.117  26.056  36.268  1.00  0.00     0.200 A 
ATOM     73  F   UNL A   1      43.705  24.572  34.486  1.00  0.00    -0.200 F 
ATOM     74  F   UNL A   1      44.765  25.093  36.938  1.00  0.00    -0.200 F 
ENDBRANCH  50  64
BRANCH  51  75
ATOM     75  C   UNL A   1      42.187  25.182  26.772  1.00  0.00     0.064 A 
ATOM     76  C   UNL A   1      43.013  24.818  25.693  1.00  0.00     0.173 A 
ATOM     77  C   UNL A   1      41.377  24.162  27.307  1.00  0.00     0.173 A 
ATOM     78  F   UNL A   1      43.840  25.721  25.145  1.00  0.00    -0.203 F 
ATOM     79  C   UNL A   1      43.061  23.505  25.211  1.00  0.00     0.198 A 
ATOM     80  C   UNL A   1      41.424  22.852  26.823  1.00  0.00     0.198 A 
ATOM     81  F   UNL A   1      40.601  24.396  28.376  1.00  0.00    -0.203 F 
ATOM     82  F   UNL A   1      43.915  23.183  24.228  1.00  0.00    -0.200 F 
ATOM     83  C   UNL A   1      42.278  22.520  25.787  1.00  0.00     0.200 A 
ATOM     84  F   UNL A   1      40.689  21.900  27.414  1.00  0.00    -0.200 F 
ATOM     85  F   UNL A   1      42.377  21.247  25.377  1.00  0.00    -0.200 F 
ENDBRANCH  51  75
BRANCH  63  86
ATOM     86  C   UNL A   1      45.279  30.290  28.677  1.00  0.00     0.064 A 
ATOM     87  C   UNL A   1      44.327  31.081  28.015  1.00  0.00     0.173 A 
ATOM     88  C   UNL A   1      46.623  30.459  28.322  1.00  0.00     0.173 A 
ATOM     89  F   UNL A   1      43.032  31.031  28.353  1.00  0.00    -0.203 F 
ATOM     90  C   UNL A   1      44.705  31.974  27.014  1.00  0.00     0.198 A 
ATOM     91  C   UNL A   1      47.002  31.377  27.351  1.00  0.00     0.198 A 
ATOM     92  F   UNL A   1      47.577  29.756  28.953  1.00  0.00    -0.203 F 
ATOM     93  F   UNL A   1      43.778  32.709  26.381  1.00  0.00    -0.200 F 
ATOM     94  C   UNL A   1      46.044  32.127  26.689  1.00  0.00     0.200 A 
ATOM     95  F   UNL A   1      48.301  31.550  27.072  1.00  0.00    -0.200 F 
ATOM     96  F   UNL A   1      46.413  33.011  25.752  1.00  0.00    -0.200 F 
ENDBRANCH  63  86
ENDBRANCH  37  38
ENDBRANCH  29  32
ENDBRANCH  27  28
ENDBRANCH  26  27
ENDBRANCH   1  26
TORSDOF 14
ENDMDL
MODEL 2
REMARK VINA RESULT:     -12.5      3.131      8.687
REMARK SMILES Cc1nsc(NC(=O)c2ccc(N)cc2)c1C(=O)NCCCCNC(=O)c1ccc(-c2c3nc(c(-c4c(F)c(F)c(F)c(F)c4F)c4ccc([nH]4)c(-c4c(F)c(F)c(F)c(F)c4F)c4nc(c(-c5c(F)c(F)c(F)c(F)c5F)c5ccc2[nH]5)C=C4)C=C3)cc1
REMARK SMILES IDX 21 1 20 2 19 3 17 4 18 5 16 7 1 8 2 9 3 10 4 11 5 12 6 13
REMARK SMILES IDX 7 14 8 16 9 17 10 18 15 19 11 20 14 21 12 22 13 23 22 26
REMARK SMILES IDX 23 27 24 28 25 29 26 31 27 32 28 33 89 34 29 35 88 36 30 37
REMARK SMILES IDX 31 38 32 39 82 40 33 41 87 42 81 43 83 44 34 45 86 46 80 47
REMARK SMILES IDX 79 48 35 50 67 51 47 52 66 53 48 54 51 55 65 56 84 57 49 58
REMARK SMILES IDX 50 59 64 61 85 62 52 63 36 64 37 65 45 66 38 67 39 68 43 69
REMARK SMILES IDX 46 70 40 71 41 72 44 73 42 74 68 75 69 76 77 77 70 78 71 79
REMARK SMILES IDX 75 80 78 81 72 82 73 83 76 84 74 85 53 86 54 87 62 88 55 89
REMARK SMILES IDX 56 90 60 91 63 92 57 93 58 94 61 95 59 96
REMARK H PARENT 19 6 6 15 13 24 13 25 24 30 83 49 51 60
REMARK Flexibility Score: inf
ROOT
ATOM      1  C   UNL A   1      38.524  22.981  26.501  1.00  0.00     0.023 C 
ENDROOT
BRANCH   1   2
ATOM      2  C   UNL A   1      37.200  23.403  25.864  1.00  0.00     0.116 C 
BRANCH   2   3
ATOM      3  N   UNL A   1      37.166  23.180  24.442  1.00  0.00    -0.352 N 
ATOM      4  C   UNL A   1      36.197  22.924  23.513  1.00  0.00     0.256 C 
ATOM      5  O   UNL A   1      36.640  22.953  22.355  1.00  0.00    -0.269 OA
ATOM      6  H   UNL A   1      38.063  23.223  24.039  1.00  0.00     0.163 HD
BRANCH   4   7
ATOM      7  C   UNL A   1      34.781  22.585  23.747  1.00  0.00     0.097 A 
ATOM      8  C   UNL A   1      34.511  20.456  25.387  1.00  0.00     0.069 C 
ATOM      9  C   UNL A   1      34.058  21.530  24.465  1.00  0.00     0.066 A 
ATOM     10  N   UNL A   1      32.737  21.494  24.279  1.00  0.00    -0.195 NA
ATOM     11  S   UNL A   1      32.290  22.689  23.267  1.00  0.00    -0.017 S 
ATOM     12  C   UNL A   1      33.805  23.441  23.198  1.00  0.00     0.129 A 
BRANCH  12  13
ATOM     13  N   UNL A   1      33.993  24.661  22.557  1.00  0.00    -0.312 N 
ATOM     14  C   UNL A   1      33.537  25.932  22.843  1.00  0.00     0.256 C 
ATOM     15  H   UNL A   1      34.555  24.608  21.751  1.00  0.00     0.171 HD
ATOM     16  O   UNL A   1      33.648  26.832  22.010  1.00  0.00    -0.269 OA
BRANCH  14  17
ATOM     17  C   UNL A   1      32.955  26.277  24.154  1.00  0.00     0.040 A 
ATOM     18  C   UNL A   1      31.570  26.332  24.338  1.00  0.00     0.016 A 
ATOM     19  C   UNL A   1      33.817  26.600  25.203  1.00  0.00     0.016 A 
ATOM     20  C   UNL A   1      31.055  26.840  25.533  1.00  0.00     0.026 A 
ATOM     21  C   UNL A   1      33.289  27.087  26.402  1.00  0.00     0.026 A 
ATOM     22  C   UNL A   1      31.909  27.239  26.565  1.00  0.00     0.031 A 
BRANCH  22  23
ATOM     23  N   UNL A   1      31.400  27.829  27.706  1.00  0.00    -0.399 N 
ATOM     24  H   UNL A   1      30.614  27.439  28.154  1.00  0.00     0.156 HD
ATOM     25  H   UNL A   1      31.824  28.637  28.074  1.00  0.00     0.156 HD
ENDBRANCH  22  23
ENDBRANCH  14  17
ENDBRANCH  12  13
ENDBRANCH   4   7
ENDBRANCH   2   3
ENDBRANCH   1   2
BRANCH   1  26
ATOM     26  C   UNL A   1      39.204  21.765  25.861  1.00  0.00     0.023 C 
BRANCH  26  27
ATOM     27  C   UNL A   1      40.459  21.283  26.585  1.00  0.00     0.116 C 
BRANCH  27  28
ATOM     28  N   UNL A   1      41.689  21.520  25.830  1.00  0.00    -0.352 N 
ATOM     29  C   UNL A   1      42.290  22.739  25.569  1.00  0.00     0.251 C 
ATOM     30  H   UNL A   1      42.140  20.723  25.468  1.00  0.00     0.163 HD
ATOM     31  O   UNL A   1      43.044  22.898  24.625  1.00  0.00    -0.269 OA
BRANCH  29  32
ATOM     32  C   UNL A   1      42.020  23.845  26.502  1.00  0.00     0.039 A 
ATOM     33  C   UNL A   1      42.517  23.844  27.808  1.00  0.00     0.014 A 
ATOM     34  C   UNL A   1      41.302  24.926  25.998  1.00  0.00     0.014 A 
ATOM     35  C   UNL A   1      42.360  24.990  28.583  1.00  0.00     0.010 A 
ATOM     36  C   UNL A   1      41.261  26.095  26.713  1.00  0.00     0.010 A 
ATOM     37  C   UNL A   1      41.751  26.121  28.019  1.00  0.00    -0.014 A 
BRANCH  37  38
ATOM     38  C   UNL A   1      41.788  27.418  28.696  1.00  0.00     0.031 A 
ATOM     39  C   UNL A   1      42.961  28.256  28.300  1.00  0.00     0.074 A 
ATOM     40  C   UNL A   1      40.713  27.889  29.370  1.00  0.00     0.049 A 
ATOM     41  N   UNL A   1      43.891  28.731  29.059  1.00  0.00    -0.248 NA
ATOM     42  C   UNL A   1      43.218  28.475  26.861  1.00  0.00     0.031 C 
ATOM     43  C   UNL A   1      39.413  27.219  29.529  1.00  0.00     0.029 A 
ATOM     44  N   UNL A   1      40.484  29.109  29.941  1.00  0.00    -0.354 N 
ATOM     45  C   UNL A   1      44.707  29.506  28.231  1.00  0.00     0.074 A 
ATOM     46  C   UNL A   1      44.374  29.143  26.883  1.00  0.00     0.031 C 
ATOM     47  C   UNL A   1      38.477  28.114  29.912  1.00  0.00     0.029 A 
ATOM     48  C   UNL A   1      39.136  29.373  30.197  1.00  0.00     0.049 A 
ATOM     49  H   UNL A   1      41.204  29.746  30.152  1.00  0.00     0.167 HD
ATOM     50  C   UNL A   1      45.332  30.610  28.730  1.00  0.00     0.037 A 
ATOM     51  C   UNL A   1      38.595  30.549  30.604  1.00  0.00     0.037 A 
ATOM     52  C   UNL A   1      45.329  30.569  30.169  1.00  0.00     0.049 A 
ATOM     53  C   UNL A   1      39.693  31.350  31.183  1.00  0.00     0.074 A 
ATOM     54  C   UNL A   1      45.987  29.867  31.154  1.00  0.00     0.029 A 
ATOM     55  N   UNL A   1      44.186  31.080  30.720  1.00  0.00    -0.354 N 
ATOM     56  N   UNL A   1      40.313  31.022  32.283  1.00  0.00    -0.248 NA
ATOM     57  C   UNL A   1      40.373  32.331  30.347  1.00  0.00     0.031 C 
ATOM     58  C   UNL A   1      45.099  29.831  32.271  1.00  0.00     0.029 A 
ATOM     59  C   UNL A   1      43.956  30.565  31.964  1.00  0.00     0.049 A 
ATOM     60  H   UNL A   1      43.602  31.736  30.275  1.00  0.00     0.167 HD
ATOM     61  C   UNL A   1      41.620  31.403  32.059  1.00  0.00     0.074 A 
ATOM     62  C   UNL A   1      41.564  32.350  30.953  1.00  0.00     0.031 C 
ATOM     63  C   UNL A   1      42.646  30.659  32.564  1.00  0.00     0.037 A 
BRANCH  50  64
ATOM     64  C   UNL A   1      45.441  31.945  28.007  1.00  0.00     0.064 A 
ATOM     65  C   UNL A   1      44.256  32.571  27.555  1.00  0.00     0.173 A 
ATOM     66  C   UNL A   1      46.634  32.454  27.447  1.00  0.00     0.173 A 
ATOM     67  F   UNL A   1      43.057  32.164  27.997  1.00  0.00    -0.203 F 
ATOM     68  C   UNL A   1      44.267  33.563  26.565  1.00  0.00     0.198 A 
ATOM     69  C   UNL A   1      46.643  33.475  26.497  1.00  0.00     0.198 A 
ATOM     70  F   UNL A   1      47.831  31.917  27.701  1.00  0.00    -0.203 F 
ATOM     71  F   UNL A   1      43.111  34.035  26.081  1.00  0.00    -0.200 F 
ATOM     72  C   UNL A   1      45.462  34.009  26.032  1.00  0.00     0.200 A 
ATOM     73  F   UNL A   1      47.812  33.874  25.974  1.00  0.00    -0.200 F 
ATOM     74  F   UNL A   1      45.474  34.911  25.042  1.00  0.00    -0.200 F 
ENDBRANCH  50  64
BRANCH  51  75
ATOM     75  C   UNL A   1      37.264  31.138  30.321  1.00  0.00     0.064 A 
ATOM     76  C   UNL A   1      36.380  31.477  31.361  1.00  0.00     0.173 A 
ATOM     77  C   UNL A   1      36.959  31.659  29.050  1.00  0.00     0.173 A 
ATOM     78  F   UNL A   1      36.614  31.049  32.610  1.00  0.00    -0.203 F 
ATOM     79  C   UNL A   1      35.285  32.323  31.151  1.00  0.00     0.198 A 
ATOM     80  C   UNL A   1      35.865  32.503  28.841  1.00  0.00     0.198 A 
ATOM     81  F   UNL A   1      37.777  31.442  28.008  1.00  0.00    -0.203 F 
ATOM     82  F   UNL A   1      34.507  32.681  32.183  1.00  0.00    -0.200 F 
ATOM     83  C   UNL A   1      35.038  32.848  29.894  1.00  0.00     0.200 A 
ATOM     84  F   UNL A   1      35.659  33.034  27.627  1.00  0.00    -0.200 F 
ATOM     85  F   UNL A   1      34.036  33.718  29.707  1.00  0.00    -0.200 F 
ENDBRANCH  51  75
BRANCH  63  86
ATOM     86  C   UNL A   1      42.343  29.768  33.729  1.00  0.00     0.064 A 
ATOM     87  C   UNL A   1      41.936  28.428  33.630  1.00  0.00     0.173 A 
ATOM     88  C   UNL A   1      42.562  30.287  35.011  1.00  0.00     0.173 A 
ATOM     89  F   UNL A   1      41.781  27.840  32.437  1.00  0.00    -0.203 F 
ATOM     90  C   UNL A   1      41.721  27.657  34.770  1.00  0.00     0.198 A 
ATOM     91  C   UNL A   1      42.384  29.505  36.145  1.00  0.00     0.198 A 
ATOM     92  F   UNL A   1      42.992  31.550  35.158  1.00  0.00    -0.203 F 
ATOM     93  F   UNL A   1      41.315  26.383  34.655  1.00  0.00    -0.200 F 
ATOM     94  C   UNL A   1      41.953  28.194  36.027  1.00  0.00     0.200 A 
ATOM     95  F   UNL A   1      42.652  30.018  37.353  1.00  0.00    -0.200 F 
ATOM     96  F   UNL A   1      41.782  27.443  37.123  1.00  0.00    -0.200 F 
ENDBRANCH  63  86
ENDBRANCH  37  38
ENDBRANCH  29  32
ENDBRANCH  27  28
ENDBRANCH  26  27
ENDBRANCH   1  26
TORSDOF 14
ENDMDL
MODEL 3
REMARK VINA RESULT:     -12.3      3.117      8.591
REMARK SMILES Cc1nsc(NC(=O)c2ccc(N)cc2)c1C(=O)NCCCCNC(=O)c1ccc(-c2c3nc(c(-c4c(F)c(F)c(F)c(F)c4F)c4ccc([nH]4)c(-c4c(F)c(F)c(F)c(F)c4F)c4nc(c(-c5c(F)c(F)c(F)c(F)c5F)c5ccc2[nH]5)C=C4)C=C3)cc1
REMARK SMILES IDX 21 1 20 2 19 3 17 4 18 5 16 7 1 8 2 9 3 10 4 11 5 12 6 13
REMARK SMILES IDX 7 14 8 16 9 17 10 18 15 19 11 20 14 21 12 22 13 23 22 26
REMARK SMILES IDX 23 27 24 28 25 29 26 31 27 32 28 33 89 34 29 35 88 36 30 37
REMARK SMILES IDX 31 38 32 39 82 40 33 41 87 42 81 43 83 44 34 45 86 46 80 47
REMARK SMILES IDX 79 48 35 50 67 51 47 52 66 53 48 54 51 55 65 56 84 57 49 58
REMARK SMILES IDX 50 59 64 61 85 62 52 63 36 64 37 65 45 66 38 67 39 68 43 69
REMARK SMILES IDX 46 70 40 71 41 72 44 73 42 74 68 75 69 76 77 77 70 78 71 79
REMARK SMILES IDX 75 80 78 81 72 82 73 83 76 84 74 85 53 86 54 87 62 88 55 89
REMARK SMILES IDX 56 90 60 91 63 92 57 93 58 94 61 95 59 96
REMARK H PARENT 19 6 6 15 13 24 13 25 24 30 83 49 51 60
REMARK Flexibility Score: inf
ROOT
ATOM      1  C   UNL A   1      38.462  22.894  26.159  1.00  0.00     0.023 C 
ENDROOT
BRANCH   1   2
ATOM      2  C   UNL A   1      37.086  23.118  25.532  1.00  0.00     0.116 C 
BRANCH   2   3
ATOM      3  N   UNL A   1      36.024  23.144  26.505  1.00  0.00    -0.352 N 
ATOM      4  C   UNL A   1      34.895  22.412  26.742  1.00  0.00     0.256 C 
ATOM      5  O   UNL A   1      34.352  22.724  27.812  1.00  0.00    -0.269 OA
ATOM      6  H   UNL A   1      36.140  23.868  27.161  1.00  0.00     0.163 HD
BRANCH   4   7
ATOM      7  C   UNL A   1      34.274  21.392  25.875  1.00  0.00     0.097 A 
ATOM      8  C   UNL A   1      36.096  19.657  24.896  1.00  0.00     0.069 C 
ATOM      9  C   UNL A   1      34.757  20.281  25.049  1.00  0.00     0.066 A 
ATOM     10  N   UNL A   1      33.846  19.694  24.268  1.00  0.00    -0.195 NA
ATOM     11  S   UNL A   1      32.399  20.409  24.474  1.00  0.00    -0.017 S 
ATOM     12  C   UNL A   1      32.868  21.394  25.768  1.00  0.00     0.129 A 
BRANCH  12  13
ATOM     13  N   UNL A   1      31.952  22.162  26.479  1.00  0.00    -0.312 N 
ATOM     14  C   UNL A   1      31.522  23.464  26.322  1.00  0.00     0.256 C 
ATOM     15  H   UNL A   1      31.533  21.689  27.234  1.00  0.00     0.171 HD
ATOM     16  O   UNL A   1      30.862  24.009  27.206  1.00  0.00    -0.269 OA
BRANCH  14  17
ATOM     17  C   UNL A   1      31.782  24.229  25.087  1.00  0.00     0.040 A 
ATOM     18  C   UNL A   1      32.866  25.109  24.998  1.00  0.00     0.016 A 
ATOM     19  C   UNL A   1      30.893  24.098  24.020  1.00  0.00     0.016 A 
ATOM     20  C   UNL A   1      32.977  25.953  23.890  1.00  0.00     0.026 A 
ATOM     21  C   UNL A   1      31.026  24.933  22.907  1.00  0.00     0.026 A 
ATOM     22  C   UNL A   1      32.049  25.885  22.847  1.00  0.00     0.031 A 
BRANCH  22  23
ATOM     23  N   UNL A   1      32.106  26.784  21.799  1.00  0.00    -0.399 N 
ATOM     24  H   UNL A   1      32.266  27.739  21.978  1.00  0.00     0.156 HD
ATOM     25  H   UNL A   1      31.988  26.471  20.874  1.00  0.00     0.156 HD
ENDBRANCH  22  23
ENDBRANCH  14  17
ENDBRANCH  12  13
ENDBRANCH   4   7
ENDBRANCH   2   3
ENDBRANCH   1   2
BRANCH   1  26
ATOM     26  C   UNL A   1      39.163  21.590  25.758  1.00  0.00     0.023 C 
BRANCH  26  27
ATOM     27  C   UNL A   1      40.427  21.277  26.554  1.00  0.00     0.116 C 
BRANCH  27  28
ATOM     28  N   UNL A   1      41.657  21.484  25.791  1.00  0.00    -0.352 N 
ATOM     29  C   UNL A   1      42.310  22.683  25.562  1.00  0.00     0.251 C 
ATOM     30  H   UNL A   1      42.067  20.681  25.396  1.00  0.00     0.163 HD
ATOM     31  O   UNL A   1      43.058  22.840  24.614  1.00  0.00    -0.269 OA
BRANCH  29  32
ATOM     32  C   UNL A   1      42.102  23.768  26.535  1.00  0.00     0.039 A 
ATOM     33  C   UNL A   1      42.809  23.822  27.739  1.00  0.00     0.014 A 
ATOM     34  C   UNL A   1      41.215  24.776  26.167  1.00  0.00     0.014 A 
ATOM     35  C   UNL A   1      42.682  24.955  28.538  1.00  0.00     0.010 A 
ATOM     36  C   UNL A   1      41.190  25.941  26.886  1.00  0.00     0.010 A 
ATOM     37  C   UNL A   1      41.887  26.023  28.092  1.00  0.00    -0.014 A 
BRANCH  37  38
ATOM     38  C   UNL A   1      41.921  27.323  28.762  1.00  0.00     0.031 A 
ATOM     39  C   UNL A   1      43.085  28.167  28.352  1.00  0.00     0.074 A 
ATOM     40  C   UNL A   1      40.848  27.789  29.442  1.00  0.00     0.049 A 
ATOM     41  N   UNL A   1      44.017  28.653  29.103  1.00  0.00    -0.248 NA
ATOM     42  C   UNL A   1      43.328  28.381  26.911  1.00  0.00     0.031 C 
ATOM     43  C   UNL A   1      39.553  27.111  29.615  1.00  0.00     0.029 A 
ATOM     44  N   UNL A   1      40.614  29.011  30.009  1.00  0.00    -0.354 N 
ATOM     45  C   UNL A   1      44.820  29.429  28.264  1.00  0.00     0.074 A 
ATOM     46  C   UNL A   1      44.479  29.058  26.921  1.00  0.00     0.031 C 
ATOM     47  C   UNL A   1      38.615  28.002  30.002  1.00  0.00     0.029 A 
ATOM     48  C   UNL A   1      39.266  29.266  30.275  1.00  0.00     0.049 A 
ATOM     49  H   UNL A   1      41.332  29.654  30.212  1.00  0.00     0.167 HD
ATOM     50  C   UNL A   1      45.442  30.540  28.752  1.00  0.00     0.037 A 
ATOM     51  C   UNL A   1      38.721  30.441  30.680  1.00  0.00     0.037 A 
ATOM     52  C   UNL A   1      45.451  30.506  30.192  1.00  0.00     0.049 A 
ATOM     53  C   UNL A   1      39.818  31.253  31.248  1.00  0.00     0.074 A 
ATOM     54  C   UNL A   1      46.122  29.814  31.174  1.00  0.00     0.029 A 
ATOM     55  N   UNL A   1      44.308  31.012  30.749  1.00  0.00    -0.354 N 
ATOM     56  N   UNL A   1      40.449  30.934  32.344  1.00  0.00    -0.248 NA
ATOM     57  C   UNL A   1      40.484  32.234  30.401  1.00  0.00     0.031 C 
ATOM     58  C   UNL A   1      45.242  29.776  32.299  1.00  0.00     0.029 A 
ATOM     59  C   UNL A   1      44.092  30.502  31.997  1.00  0.00     0.049 A 
ATOM     60  H   UNL A   1      43.717  31.661  30.306  1.00  0.00     0.167 HD
ATOM     61  C   UNL A   1      41.751  31.323  32.108  1.00  0.00     0.074 A 
ATOM     62  C   UNL A   1      41.680  32.265  30.997  1.00  0.00     0.031 C 
ATOM     63  C   UNL A   1      42.787  30.589  32.608  1.00  0.00     0.037 A 
BRANCH  50  64
ATOM     64  C   UNL A   1      45.536  31.872  28.022  1.00  0.00     0.064 A 
ATOM     65  C   UNL A   1      44.342  32.489  27.578  1.00  0.00     0.173 A 
ATOM     66  C   UNL A   1      46.720  32.386  27.448  1.00  0.00     0.173 A 
ATOM     67  F   UNL A   1      43.150  32.077  28.034  1.00  0.00    -0.203 F 
ATOM     68  C   UNL A   1      44.338  33.476  26.584  1.00  0.00     0.198 A 
ATOM     69  C   UNL A   1      46.714  33.402  26.492  1.00  0.00     0.198 A 
ATOM     70  F   UNL A   1      47.922  31.857  27.693  1.00  0.00    -0.203 F 
ATOM     71  F   UNL A   1      43.174  33.939  26.109  1.00  0.00    -0.200 F 
ATOM     72  C   UNL A   1      45.524  33.927  26.037  1.00  0.00     0.200 A 
ATOM     73  F   UNL A   1      47.875  33.806  25.956  1.00  0.00    -0.200 F 
ATOM     74  F   UNL A   1      45.522  34.824  25.043  1.00  0.00    -0.200 F 
ENDBRANCH  50  64
BRANCH  51  75
ATOM     75  C   UNL A   1      37.383  31.019  30.406  1.00  0.00     0.064 A 
ATOM     76  C   UNL A   1      36.503  31.352  31.451  1.00  0.00     0.173 A 
ATOM     77  C   UNL A   1      37.066  31.536  29.136  1.00  0.00     0.173 A 
ATOM     78  F   UNL A   1      36.749  30.927  32.699  1.00  0.00    -0.203 F 
ATOM     79  C   UNL A   1      35.400  32.189  31.247  1.00  0.00     0.198 A 
ATOM     80  C   UNL A   1      35.964  32.371  28.933  1.00  0.00     0.198 A 
ATOM     81  F   UNL A   1      37.879  31.325  28.089  1.00  0.00    -0.203 F 
ATOM     82  F   UNL A   1      34.626  32.542  32.284  1.00  0.00    -0.200 F 
ATOM     83  C   UNL A   1      35.141  32.711  29.991  1.00  0.00     0.200 A 
ATOM     84  F   UNL A   1      35.746  32.899  27.720  1.00  0.00    -0.200 F 
ATOM     85  F   UNL A   1      34.131  33.573  29.809  1.00  0.00    -0.200 F 
ENDBRANCH  51  75
BRANCH  63  86
ATOM     86  C   UNL A   1      42.499  29.702  33.779  1.00  0.00     0.064 A 
ATOM     87  C   UNL A   1      42.108  28.357  33.690  1.00  0.00     0.173 A 
ATOM     88  C   UNL A   1      42.718  30.231  35.057  1.00  0.00     0.173 A 
ATOM     89  F   UNL A   1      41.955  27.759  32.501  1.00  0.00    -0.203 F 
ATOM     90  C   UNL A   1      41.907  27.589  34.836  1.00  0.00     0.198 A 
ATOM     91  C   UNL A   1      42.553  29.454  36.197  1.00  0.00     0.198 A 
ATOM     92  F   UNL A   1      43.133  31.500  35.195  1.00  0.00    -0.203 F 
ATOM     93  F   UNL A   1      41.516  26.310  34.730  1.00  0.00    -0.200 F 
ATOM     94  C   UNL A   1      42.138  28.138  36.088  1.00  0.00     0.200 A 
ATOM     95  F   UNL A   1      42.821  29.977  37.401  1.00  0.00    -0.200 F 
ATOM     96  F   UNL A   1      41.980  27.391  37.190  1.00  0.00    -0.200 F 
ENDBRANCH  63  86
ENDBRANCH  37  38
ENDBRANCH  29  32
ENDBRANCH  27  28
ENDBRANCH  26  27
ENDBRANCH   1  26
TORSDOF 14
ENDMDL
