MODEL 1
REMARK VINA RESULT:     -12.2      0.000      0.000
REMARK SMILES CCN(Cc1ccccn1)C(=O)N1CCC[C@H](C(=O)NCCCCNC(=O)c2ccc(-c3c4nc(c(-c5c(F)c(F)c(F)c(F)c5F)c5ccc([nH]5)c(-c5c(F)c(F)c(F)c(F)c5F)c5nc(c(-c6c(F)c(F)c(F)c(F)c6F)c6ccc3[nH]6)C=C5)C=C4)cc2)C1
REMARK SMILES IDX 21 1 20 2 18 3 19 4 17 6 13 7 14 8 91 9 15 10 16 11 11 12
REMARK SMILES IDX 12 13 3 14 2 15 1 16 4 17 5 18 6 19 10 20 7 21 9 22 8 23
REMARK SMILES IDX 22 24 23 25 24 26 25 27 26 28 27 30 28 31 29 32 90 33 30 34
REMARK SMILES IDX 89 35 31 36 32 37 33 38 83 39 34 40 88 41 82 42 84 43 35 44
REMARK SMILES IDX 87 45 81 46 80 47 36 49 68 50 48 51 67 52 49 53 52 54 66 55
REMARK SMILES IDX 85 56 50 57 51 58 65 60 86 61 53 62 37 63 38 64 46 65 39 66
REMARK SMILES IDX 40 67 44 68 47 69 41 70 42 71 45 72 43 73 69 74 70 75 78 76
REMARK SMILES IDX 71 77 72 78 76 79 79 80 73 81 74 82 77 83 75 84 54 85 55 86
REMARK SMILES IDX 63 87 56 88 57 89 61 90 64 91 58 92 59 93 62 94 60 95
REMARK H PARENT 20 5 25 29 84 48 52 59
REMARK Flexibility Score: inf
ROOT
ATOM      1  C   UNL A   1      37.233  22.380  24.598  1.00  0.00     0.116 C 
ENDROOT
BRANCH   1   2
ATOM      2  N   UNL A   1      36.311  22.932  23.639  1.00  0.00    -0.356 N 
ATOM      3  C   UNL A   1      35.267  23.779  23.819  1.00  0.00     0.224 C 
ATOM      4  O   UNL A   1      34.713  24.191  22.793  1.00  0.00    -0.275 OA
ATOM      5  H   UNL A   1      36.463  22.651  22.707  1.00  0.00     0.163 HD
BRANCH   3   6
ATOM      6  C   UNL A   1      34.760  24.242  25.191  1.00  0.00     0.098 C 
ATOM      7  N   UNL A   1      32.635  23.150  26.035  1.00  0.00    -0.324 N 
ATOM      8  C   UNL A   1      31.996  24.444  26.237  1.00  0.00     0.121 C 
ATOM      9  C   UNL A   1      34.090  23.146  26.017  1.00  0.00     0.134 C 
ATOM     10  C   UNL A   1      32.532  25.543  25.322  1.00  0.00     0.022 C 
ATOM     11  C   UNL A   1      34.054  25.594  25.233  1.00  0.00     0.017 C 
BRANCH   7  12
ATOM     12  C   UNL A   1      31.881  22.048  25.668  1.00  0.00     0.320 C 
ATOM     13  O   UNL A   1      30.661  22.050  25.845  1.00  0.00    -0.248 OA
BRANCH  12  14
ATOM     14  N   UNL A   1      32.531  20.978  25.066  1.00  0.00    -0.319 N 
BRANCH  14  15
ATOM     15  C   UNL A   1      32.192  20.651  23.679  1.00  0.00     0.118 C 
ATOM     16  C   UNL A   1      32.180  21.841  22.728  1.00  0.00     0.027 C 
ENDBRANCH  14  15
BRANCH  14  17
ATOM     17  C   UNL A   1      33.279  19.952  25.827  1.00  0.00     0.177 C 
BRANCH  17  18
ATOM     18  C   UNL A   1      33.275  18.556  25.226  1.00  0.00     0.060 A 
ATOM     19  C   UNL A   1      34.246  18.147  24.312  1.00  0.00     0.026 A 
ATOM     20  N   UNL A   1      32.360  17.685  25.733  1.00  0.00    -0.259 NA
ATOM     21  C   UNL A   1      34.349  16.792  24.000  1.00  0.00     0.004 A 
ATOM     22  C   UNL A   1      32.483  16.378  25.410  1.00  0.00     0.111 A 
ATOM     23  C   UNL A   1      33.468  15.886  24.575  1.00  0.00     0.020 A 
ENDBRANCH  17  18
ENDBRANCH  14  17
ENDBRANCH  12  14
ENDBRANCH   7  12
ENDBRANCH   3   6
ENDBRANCH   1   2
BRANCH   1  24
ATOM     24  C   UNL A   1      36.851  20.978  25.055  1.00  0.00     0.023 C 
BRANCH  24  25
ATOM     25  C   UNL A   1      37.974  19.957  24.941  1.00  0.00     0.023 C 
BRANCH  25  26
ATOM     26  C   UNL A   1      39.197  20.249  25.804  1.00  0.00     0.116 C 
BRANCH  26  27
ATOM     27  N   UNL A   1      40.184  19.180  25.842  1.00  0.00    -0.352 N 
ATOM     28  C   UNL A   1      41.541  19.290  26.064  1.00  0.00     0.251 C 
ATOM     29  H   UNL A   1      39.842  18.269  25.692  1.00  0.00     0.163 HD
ATOM     30  O   UNL A   1      42.284  18.327  25.973  1.00  0.00    -0.269 OA
BRANCH  28  31
ATOM     31  C   UNL A   1      42.091  20.625  26.384  1.00  0.00     0.039 A 
ATOM     32  C   UNL A   1      42.329  21.528  25.348  1.00  0.00     0.014 A 
ATOM     33  C   UNL A   1      42.301  20.997  27.714  1.00  0.00     0.014 A 
ATOM     34  C   UNL A   1      42.715  22.833  25.654  1.00  0.00     0.010 A 
ATOM     35  C   UNL A   1      42.587  22.321  28.020  1.00  0.00     0.010 A 
ATOM     36  C   UNL A   1      42.813  23.249  26.994  1.00  0.00    -0.014 A 
BRANCH  36  37
ATOM     37  C   UNL A   1      43.187  24.644  27.337  1.00  0.00     0.031 A 
ATOM     38  C   UNL A   1      44.589  25.126  27.085  1.00  0.00     0.074 A 
ATOM     39  C   UNL A   1      42.284  25.457  27.920  1.00  0.00     0.049 A 
ATOM     40  N   UNL A   1      45.119  26.298  27.329  1.00  0.00    -0.248 NA
ATOM     41  C   UNL A   1      45.534  24.149  26.520  1.00  0.00     0.031 C 
ATOM     42  C   UNL A   1      40.918  25.082  28.288  1.00  0.00     0.029 A 
ATOM     43  N   UNL A   1      42.384  26.770  28.305  1.00  0.00    -0.354 N 
ATOM     44  C   UNL A   1      46.455  26.190  26.962  1.00  0.00     0.074 A 
ATOM     45  C   UNL A   1      46.673  24.822  26.552  1.00  0.00     0.031 C 
ATOM     46  C   UNL A   1      40.294  26.151  28.809  1.00  0.00     0.029 A 
ATOM     47  C   UNL A   1      41.222  27.279  28.832  1.00  0.00     0.049 A 
ATOM     48  H   UNL A   1      43.209  27.298  28.213  1.00  0.00     0.167 HD
ATOM     49  C   UNL A   1      47.406  27.153  26.934  1.00  0.00     0.037 A 
ATOM     50  C   UNL A   1      40.938  28.520  29.269  1.00  0.00     0.037 A 
ATOM     51  C   UNL A   1      47.173  28.523  27.304  1.00  0.00     0.049 A 
ATOM     52  C   UNL A   1      41.997  29.585  29.182  1.00  0.00     0.074 A 
ATOM     53  C   UNL A   1      48.049  29.594  27.254  1.00  0.00     0.029 A 
ATOM     54  N   UNL A   1      45.969  29.013  27.787  1.00  0.00    -0.354 N 
ATOM     55  N   UNL A   1      43.233  29.493  28.756  1.00  0.00    -0.248 NA
ATOM     56  C   UNL A   1      41.611  30.935  29.616  1.00  0.00     0.031 C 
ATOM     57  C   UNL A   1      47.384  30.725  27.740  1.00  0.00     0.029 A 
ATOM     58  C   UNL A   1      46.080  30.369  28.047  1.00  0.00     0.049 A 
ATOM     59  H   UNL A   1      45.155  28.476  27.925  1.00  0.00     0.167 HD
ATOM     60  C   UNL A   1      43.764  30.773  28.842  1.00  0.00     0.074 A 
ATOM     61  C   UNL A   1      42.707  31.628  29.342  1.00  0.00     0.031 C 
ATOM     62  C   UNL A   1      45.012  31.204  28.535  1.00  0.00     0.037 A 
BRANCH  49  63
ATOM     63  C   UNL A   1      48.777  26.755  26.471  1.00  0.00     0.064 A 
ATOM     64  C   UNL A   1      49.715  26.189  27.350  1.00  0.00     0.173 A 
ATOM     65  C   UNL A   1      49.157  26.930  25.132  1.00  0.00     0.173 A 
ATOM     66  F   UNL A   1      49.407  26.016  28.644  1.00  0.00    -0.203 F 
ATOM     67  C   UNL A   1      50.992  25.848  26.915  1.00  0.00     0.198 A 
ATOM     68  C   UNL A   1      50.425  26.557  24.693  1.00  0.00     0.198 A 
ATOM     69  F   UNL A   1      48.300  27.462  24.249  1.00  0.00    -0.203 F 
ATOM     70  F   UNL A   1      51.889  25.368  27.786  1.00  0.00    -0.200 F 
ATOM     71  C   UNL A   1      51.344  26.026  25.585  1.00  0.00     0.200 A 
ATOM     72  F   UNL A   1      50.761  26.719  23.405  1.00  0.00    -0.200 F 
ATOM     73  F   UNL A   1      52.573  25.697  25.167  1.00  0.00    -0.200 F 
ENDBRANCH  49  63
BRANCH  50  74
ATOM     74  C   UNL A   1      39.575  28.839  29.771  1.00  0.00     0.064 A 
ATOM     75  C   UNL A   1      39.229  28.603  31.109  1.00  0.00     0.173 A 
ATOM     76  C   UNL A   1      38.590  29.373  28.927  1.00  0.00     0.173 A 
ATOM     77  F   UNL A   1      40.131  28.074  31.950  1.00  0.00    -0.203 F 
ATOM     78  C   UNL A   1      37.943  28.862  31.578  1.00  0.00     0.198 A 
ATOM     79  C   UNL A   1      37.313  29.659  29.404  1.00  0.00     0.198 A 
ATOM     80  F   UNL A   1      38.873  29.623  27.641  1.00  0.00    -0.203 F 
ATOM     81  F   UNL A   1      37.626  28.581  32.849  1.00  0.00    -0.200 F 
ATOM     82  C   UNL A   1      36.988  29.395  30.727  1.00  0.00     0.200 A 
ATOM     83  F   UNL A   1      36.395  30.185  28.582  1.00  0.00    -0.200 F 
ATOM     84  F   UNL A   1      35.751  29.646  31.178  1.00  0.00    -0.200 F 
ENDBRANCH  50  74
BRANCH  62  85
ATOM     85  C   UNL A   1      45.288  32.671  28.695  1.00  0.00     0.064 A 
ATOM     86  C   UNL A   1      45.006  33.590  27.675  1.00  0.00     0.173 A 
ATOM     87  C   UNL A   1      45.826  33.162  29.895  1.00  0.00     0.173 A 
ATOM     88  F   UNL A   1      44.503  33.167  26.505  1.00  0.00    -0.203 F 
ATOM     89  C   UNL A   1      45.286  34.944  27.835  1.00  0.00     0.198 A 
ATOM     90  C   UNL A   1      46.075  34.520  30.063  1.00  0.00     0.198 A 
ATOM     91  F   UNL A   1      46.105  32.325  30.904  1.00  0.00    -0.203 F 
ATOM     92  F   UNL A   1      45.063  35.797  26.825  1.00  0.00    -0.200 F 
ATOM     93  C   UNL A   1      45.815  35.409  29.031  1.00  0.00     0.200 A 
ATOM     94  F   UNL A   1      46.573  34.970  31.223  1.00  0.00    -0.200 F 
ATOM     95  F   UNL A   1      46.084  36.713  29.183  1.00  0.00    -0.200 F 
ENDBRANCH  62  85
ENDBRANCH  36  37
ENDBRANCH  28  31
ENDBRANCH  26  27
ENDBRANCH  25  26
ENDBRANCH  24  25
ENDBRANCH   1  24
TORSDOF 16
ENDMDL
MODEL 2
REMARK VINA RESULT:     -12.2      5.340     10.664
REMARK SMILES CCN(Cc1ccccn1)C(=O)N1CCC[C@H](C(=O)NCCCCNC(=O)c2ccc(-c3c4nc(c(-c5c(F)c(F)c(F)c(F)c5F)c5ccc([nH]5)c(-c5c(F)c(F)c(F)c(F)c5F)c5nc(c(-c6c(F)c(F)c(F)c(F)c6F)c6ccc3[nH]6)C=C5)C=C4)cc2)C1
REMARK SMILES IDX 21 1 20 2 18 3 19 4 17 6 13 7 14 8 91 9 15 10 16 11 11 12
REMARK SMILES IDX 12 13 3 14 2 15 1 16 4 17 5 18 6 19 10 20 7 21 9 22 8 23
REMARK SMILES IDX 22 24 23 25 24 26 25 27 26 28 27 30 28 31 29 32 90 33 30 34
REMARK SMILES IDX 89 35 31 36 32 37 33 38 83 39 34 40 88 41 82 42 84 43 35 44
REMARK SMILES IDX 87 45 81 46 80 47 36 49 68 50 48 51 67 52 49 53 52 54 66 55
REMARK SMILES IDX 85 56 50 57 51 58 65 60 86 61 53 62 37 63 38 64 46 65 39 66
REMARK SMILES IDX 40 67 44 68 47 69 41 70 42 71 45 72 43 73 69 74 70 75 78 76
REMARK SMILES IDX 71 77 72 78 76 79 79 80 73 81 74 82 77 83 75 84 54 85 55 86
REMARK SMILES IDX 63 87 56 88 57 89 61 90 64 91 58 92 59 93 62 94 60 95
REMARK H PARENT 20 5 25 29 84 48 52 59
REMARK Flexibility Score: inf
ROOT
ATOM      1  C   UNL A   1      33.218  30.108  26.645  1.00  0.00     0.116 C 
ENDROOT
BRANCH   1   2
ATOM      2  N   UNL A   1      33.696  29.558  25.403  1.00  0.00    -0.356 N 
ATOM      3  C   UNL A   1      33.472  28.343  24.843  1.00  0.00     0.224 C 
ATOM      4  O   UNL A   1      33.912  28.178  23.698  1.00  0.00    -0.275 OA
ATOM      5  H   UNL A   1      34.274  30.158  24.877  1.00  0.00     0.163 HD
BRANCH   3   6
ATOM      6  C   UNL A   1      32.718  27.200  25.535  1.00  0.00     0.098 C 
ATOM      7  N   UNL A   1      33.168  24.863  24.665  1.00  0.00    -0.324 N 
ATOM      8  C   UNL A   1      31.747  24.620  24.451  1.00  0.00     0.121 C 
ATOM      9  C   UNL A   1      33.506  25.896  25.634  1.00  0.00     0.134 C 
ATOM     10  C   UNL A   1      30.939  25.890  24.197  1.00  0.00     0.022 C 
ATOM     11  C   UNL A   1      31.249  27.031  25.161  1.00  0.00     0.017 C 
BRANCH   7  12
ATOM     12  C   UNL A   1      34.109  24.288  23.829  1.00  0.00     0.320 C 
ATOM     13  O   UNL A   1      34.198  24.657  22.656  1.00  0.00    -0.248 OA
BRANCH  12  14
ATOM     14  N   UNL A   1      34.964  23.329  24.359  1.00  0.00    -0.319 N 
BRANCH  14  15
ATOM     15  C   UNL A   1      36.274  23.143  23.733  1.00  0.00     0.118 C 
ATOM     16  C   UNL A   1      37.318  22.478  24.621  1.00  0.00     0.027 C 
ENDBRANCH  14  15
BRANCH  14  17
ATOM     17  C   UNL A   1      34.512  22.266  25.285  1.00  0.00     0.177 C 
BRANCH  17  18
ATOM     18  C   UNL A   1      34.036  20.982  24.628  1.00  0.00     0.060 A 
ATOM     19  C   UNL A   1      34.672  19.761  24.852  1.00  0.00     0.026 A 
ATOM     20  N   UNL A   1      32.874  21.062  23.924  1.00  0.00    -0.259 NA
ATOM     21  C   UNL A   1      34.042  18.587  24.441  1.00  0.00     0.004 A 
ATOM     22  C   UNL A   1      32.288  19.907  23.535  1.00  0.00     0.111 A 
ATOM     23  C   UNL A   1      32.817  18.657  23.791  1.00  0.00     0.020 A 
ENDBRANCH  17  18
ENDBRANCH  14  17
ENDBRANCH  12  14
ENDBRANCH   7  12
ENDBRANCH   3   6
ENDBRANCH   1   2
BRANCH   1  24
ATOM     24  C   UNL A   1      31.766  30.564  26.576  1.00  0.00     0.023 C 
BRANCH  24  25
ATOM     25  C   UNL A   1      31.583  32.074  26.631  1.00  0.00     0.023 C 
BRANCH  25  26
ATOM     26  C   UNL A   1      32.716  32.834  27.310  1.00  0.00     0.116 C 
BRANCH  26  27
ATOM     27  N   UNL A   1      32.384  34.195  27.704  1.00  0.00    -0.352 N 
ATOM     28  C   UNL A   1      32.990  34.966  28.674  1.00  0.00     0.251 C 
ATOM     29  H   UNL A   1      31.639  34.617  27.218  1.00  0.00     0.163 HD
ATOM     30  O   UNL A   1      32.557  36.064  28.982  1.00  0.00    -0.269 OA
BRANCH  28  31
ATOM     31  C   UNL A   1      34.172  34.412  29.369  1.00  0.00     0.039 A 
ATOM     32  C   UNL A   1      33.985  33.624  30.505  1.00  0.00     0.014 A 
ATOM     33  C   UNL A   1      35.453  34.621  28.853  1.00  0.00     0.014 A 
ATOM     34  C   UNL A   1      35.083  32.986  31.082  1.00  0.00     0.010 A 
ATOM     35  C   UNL A   1      36.527  33.907  29.367  1.00  0.00     0.010 A 
ATOM     36  C   UNL A   1      36.357  33.095  30.497  1.00  0.00    -0.014 A 
BRANCH  36  37
ATOM     37  C   UNL A   1      37.529  32.393  31.077  1.00  0.00     0.031 A 
ATOM     38  C   UNL A   1      38.014  32.760  32.453  1.00  0.00     0.074 A 
ATOM     39  C   UNL A   1      38.184  31.467  30.351  1.00  0.00     0.049 A 
ATOM     40  N   UNL A   1      39.027  32.280  33.130  1.00  0.00    -0.248 NA
ATOM     41  C   UNL A   1      37.291  33.838  33.146  1.00  0.00     0.031 C 
ATOM     42  C   UNL A   1      37.860  31.080  28.977  1.00  0.00     0.029 A 
ATOM     43  N   UNL A   1      39.263  30.682  30.671  1.00  0.00    -0.354 N 
ATOM     44  C   UNL A   1      39.067  33.007  34.313  1.00  0.00     0.074 A 
ATOM     45  C   UNL A   1      38.028  34.009  34.230  1.00  0.00     0.031 C 
ATOM     46  C   UNL A   1      38.695  30.104  28.586  1.00  0.00     0.029 A 
ATOM     47  C   UNL A   1      39.626  29.812  29.672  1.00  0.00     0.049 A 
ATOM     48  H   UNL A   1      39.732  30.736  31.535  1.00  0.00     0.167 HD
ATOM     49  C   UNL A   1      39.871  32.833  35.387  1.00  0.00     0.037 A 
ATOM     50  C   UNL A   1      40.594  28.876  29.645  1.00  0.00     0.037 A 
ATOM     51  C   UNL A   1      40.876  31.808  35.482  1.00  0.00     0.049 A 
ATOM     52  C   UNL A   1      41.443  28.668  30.870  1.00  0.00     0.074 A 
ATOM     53  C   UNL A   1      41.704  31.503  36.548  1.00  0.00     0.029 A 
ATOM     54  N   UNL A   1      41.182  30.913  34.468  1.00  0.00    -0.354 N 
ATOM     55  N   UNL A   1      41.418  29.306  32.015  1.00  0.00    -0.248 NA
ATOM     56  C   UNL A   1      42.441  27.591  30.806  1.00  0.00     0.031 C 
ATOM     57  C   UNL A   1      42.535  30.445  36.166  1.00  0.00     0.029 A 
ATOM     58  C   UNL A   1      42.193  30.060  34.880  1.00  0.00     0.049 A 
ATOM     59  H   UNL A   1      40.746  30.888  33.586  1.00  0.00     0.167 HD
ATOM     60  C   UNL A   1      42.371  28.692  32.816  1.00  0.00     0.074 A 
ATOM     61  C   UNL A   1      42.943  27.618  32.032  1.00  0.00     0.031 C 
ATOM     62  C   UNL A   1      42.741  28.990  34.086  1.00  0.00     0.037 A 
BRANCH  49  63
ATOM     63  C   UNL A   1      39.679  33.763  36.550  1.00  0.00     0.064 A 
ATOM     64  C   UNL A   1      40.302  35.022  36.596  1.00  0.00     0.173 A 
ATOM     65  C   UNL A   1      38.857  33.401  37.626  1.00  0.00     0.173 A 
ATOM     66  F   UNL A   1      41.113  35.409  35.599  1.00  0.00    -0.203 F 
ATOM     67  C   UNL A   1      40.139  35.864  37.691  1.00  0.00     0.198 A 
ATOM     68  C   UNL A   1      38.669  34.261  38.706  1.00  0.00     0.198 A 
ATOM     69  F   UNL A   1      38.235  32.213  37.634  1.00  0.00    -0.203 F 
ATOM     70  F   UNL A   1      40.793  37.032  37.739  1.00  0.00    -0.200 F 
ATOM     71  C   UNL A   1      39.317  35.486  38.742  1.00  0.00     0.200 A 
ATOM     72  F   UNL A   1      37.866  33.899  39.718  1.00  0.00    -0.200 F 
ATOM     73  F   UNL A   1      39.160  36.299  39.796  1.00  0.00    -0.200 F 
ENDBRANCH  49  63
BRANCH  50  74
ATOM     74  C   UNL A   1      40.771  28.022  28.442  1.00  0.00     0.064 A 
ATOM     75  C   UNL A   1      41.577  28.445  27.375  1.00  0.00     0.173 A 
ATOM     76  C   UNL A   1      40.135  26.778  28.325  1.00  0.00     0.173 A 
ATOM     77  F   UNL A   1      42.190  29.637  27.430  1.00  0.00    -0.203 F 
ATOM     78  C   UNL A   1      41.718  27.669  26.225  1.00  0.00     0.198 A 
ATOM     79  C   UNL A   1      40.299  25.989  27.188  1.00  0.00     0.198 A 
ATOM     80  F   UNL A   1      39.360  26.325  29.321  1.00  0.00    -0.203 F 
ATOM     81  F   UNL A   1      42.454  28.121  25.201  1.00  0.00    -0.200 F 
ATOM     82  C   UNL A   1      41.083  26.440  26.136  1.00  0.00     0.200 A 
ATOM     83  F   UNL A   1      39.695  24.797  27.109  1.00  0.00    -0.200 F 
ATOM     84  F   UNL A   1      41.219  25.693  25.032  1.00  0.00    -0.200 F 
ENDBRANCH  50  74
BRANCH  62  85
ATOM     85  C   UNL A   1      43.786  28.116  34.716  1.00  0.00     0.064 A 
ATOM     86  C   UNL A   1      45.152  28.425  34.637  1.00  0.00     0.173 A 
ATOM     87  C   UNL A   1      43.412  26.964  35.425  1.00  0.00     0.173 A 
ATOM     88  F   UNL A   1      45.561  29.509  33.959  1.00  0.00    -0.203 F 
ATOM     89  C   UNL A   1      46.107  27.592  35.212  1.00  0.00     0.198 A 
ATOM     90  C   UNL A   1      44.367  26.151  36.026  1.00  0.00     0.198 A 
ATOM     91  F   UNL A   1      42.118  26.630  35.537  1.00  0.00    -0.203 F 
ATOM     92  F   UNL A   1      47.411  27.875  35.073  1.00  0.00    -0.200 F 
ATOM     93  C   UNL A   1      45.715  26.459  35.911  1.00  0.00     0.200 A 
ATOM     94  F   UNL A   1      43.986  25.065  36.712  1.00  0.00    -0.200 F 
ATOM     95  F   UNL A   1      46.636  25.659  36.464  1.00  0.00    -0.200 F 
ENDBRANCH  62  85
ENDBRANCH  36  37
ENDBRANCH  28  31
ENDBRANCH  26  27
ENDBRANCH  25  26
ENDBRANCH  24  25
ENDBRANCH   1  24
TORSDOF 16
ENDMDL
MODEL 3
REMARK VINA RESULT:     -12.1      5.277     10.695
REMARK SMILES CCN(Cc1ccccn1)C(=O)N1CCC[C@H](C(=O)NCCCCNC(=O)c2ccc(-c3c4nc(c(-c5c(F)c(F)c(F)c(F)c5F)c5ccc([nH]5)c(-c5c(F)c(F)c(F)c(F)c5F)c5nc(c(-c6c(F)c(F)c(F)c(F)c6F)c6ccc3[nH]6)C=C5)C=C4)cc2)C1
REMARK SMILES IDX 21 1 20 2 18 3 19 4 17 6 13 7 14 8 91 9 15 10 16 11 11 12
REMARK SMILES IDX 12 13 3 14 2 15 1 16 4 17 5 18 6 19 10 20 7 21 9 22 8 23
REMARK SMILES IDX 22 24 23 25 24 26 25 27 26 28 27 30 28 31 29 32 90 33 30 34
REMARK SMILES IDX 89 35 31 36 32 37 33 38 83 39 34 40 88 41 82 42 84 43 35 44
REMARK SMILES IDX 87 45 81 46 80 47 36 49 68 50 48 51 67 52 49 53 52 54 66 55
REMARK SMILES IDX 85 56 50 57 51 58 65 60 86 61 53 62 37 63 38 64 46 65 39 66
REMARK SMILES IDX 40 67 44 68 47 69 41 70 42 71 45 72 43 73 69 74 70 75 78 76
REMARK SMILES IDX 71 77 72 78 76 79 79 80 73 81 74 82 77 83 75 84 54 85 55 86
REMARK SMILES IDX 63 87 56 88 57 89 61 90 64 91 58 92 59 93 62 94 60 95
REMARK H PARENT 20 5 25 29 84 48 52 59
REMARK Flexibility Score: inf
ROOT
ATOM      1  C   UNL A   1      31.857  29.582  27.234  1.00  0.00     0.116 C 
ENDROOT
BRANCH   1   2
ATOM      2  N   UNL A   1      32.821  28.554  26.934  1.00  0.00    -0.356 N 
ATOM      3  C   UNL A   1      32.732  27.494  26.093  1.00  0.00     0.224 C 
ATOM      4  O   UNL A   1      33.765  26.832  25.935  1.00  0.00    -0.275 OA
ATOM      5  H   UNL A   1      33.678  28.635  27.413  1.00  0.00     0.163 HD
BRANCH   3   6
ATOM      6  C   UNL A   1      31.453  27.090  25.346  1.00  0.00     0.098 C 
ATOM      7  N   UNL A   1      30.770  24.656  25.515  1.00  0.00    -0.324 N 
ATOM      8  C   UNL A   1      30.720  24.522  24.065  1.00  0.00     0.121 C 
ATOM      9  C   UNL A   1      30.634  26.006  26.042  1.00  0.00     0.134 C 
ATOM     10  C   UNL A   1      31.642  25.490  23.327  1.00  0.00     0.022 C 
ATOM     11  C   UNL A   1      31.573  26.928  23.834  1.00  0.00     0.017 C 
BRANCH   7  12
ATOM     12  C   UNL A   1      31.142  23.581  26.304  1.00  0.00     0.320 C 
ATOM     13  O   UNL A   1      30.434  23.239  27.253  1.00  0.00    -0.248 OA
BRANCH  12  14
ATOM     14  N   UNL A   1      32.299  22.888  25.968  1.00  0.00    -0.319 N 
BRANCH  14  15
ATOM     15  C   UNL A   1      32.180  21.477  25.597  1.00  0.00     0.118 C 
ATOM     16  C   UNL A   1      32.142  21.212  24.097  1.00  0.00     0.027 C 
ENDBRANCH  14  15
BRANCH  14  17
ATOM     17  C   UNL A   1      33.658  23.380  26.285  1.00  0.00     0.177 C 
BRANCH  17  18
ATOM     18  C   UNL A   1      34.779  22.806  25.433  1.00  0.00     0.060 A 
ATOM     19  C   UNL A   1      35.129  23.366  24.205  1.00  0.00     0.026 A 
ATOM     20  N   UNL A   1      35.512  21.808  25.997  1.00  0.00    -0.259 NA
ATOM     21  C   UNL A   1      36.320  22.969  23.598  1.00  0.00     0.004 A 
ATOM     22  C   UNL A   1      36.661  21.442  25.385  1.00  0.00     0.111 A 
ATOM     23  C   UNL A   1      37.113  22.007  24.208  1.00  0.00     0.020 A 
ENDBRANCH  17  18
ENDBRANCH  14  17
ENDBRANCH  12  14
ENDBRANCH   7  12
ENDBRANCH   3   6
ENDBRANCH   1   2
BRANCH   1  24
ATOM     24  C   UNL A   1      31.784  30.662  26.161  1.00  0.00     0.023 C 
BRANCH  24  25
ATOM     25  C   UNL A   1      31.444  32.047  26.693  1.00  0.00     0.023 C 
BRANCH  25  26
ATOM     26  C   UNL A   1      32.628  32.830  27.249  1.00  0.00     0.116 C 
BRANCH  26  27
ATOM     27  N   UNL A   1      32.322  34.198  27.639  1.00  0.00    -0.352 N 
ATOM     28  C   UNL A   1      32.945  34.962  28.605  1.00  0.00     0.251 C 
ATOM     29  H   UNL A   1      31.584  34.632  27.154  1.00  0.00     0.163 HD
ATOM     30  O   UNL A   1      32.533  36.068  28.911  1.00  0.00    -0.269 OA
BRANCH  28  31
ATOM     31  C   UNL A   1      34.119  34.388  29.298  1.00  0.00     0.039 A 
ATOM     32  C   UNL A   1      33.921  33.601  30.432  1.00  0.00     0.014 A 
ATOM     33  C   UNL A   1      35.403  34.578  28.781  1.00  0.00     0.014 A 
ATOM     34  C   UNL A   1      35.010  32.945  31.008  1.00  0.00     0.010 A 
ATOM     35  C   UNL A   1      36.466  33.847  29.293  1.00  0.00     0.010 A 
ATOM     36  C   UNL A   1      36.284  33.036  30.422  1.00  0.00    -0.014 A 
BRANCH  36  37
ATOM     37  C   UNL A   1      37.446  32.315  31.000  1.00  0.00     0.031 A 
ATOM     38  C   UNL A   1      37.931  32.664  32.381  1.00  0.00     0.074 A 
ATOM     39  C   UNL A   1      38.093  31.388  30.268  1.00  0.00     0.049 A 
ATOM     40  N   UNL A   1      38.935  32.167  33.057  1.00  0.00    -0.248 NA
ATOM     41  C   UNL A   1      37.218  33.745  33.080  1.00  0.00     0.031 C 
ATOM     42  C   UNL A   1      37.769  31.017  28.890  1.00  0.00     0.029 A 
ATOM     43  N   UNL A   1      39.162  30.587  30.585  1.00  0.00    -0.354 N 
ATOM     44  C   UNL A   1      38.980  32.883  34.246  1.00  0.00     0.074 A 
ATOM     45  C   UNL A   1      37.953  33.898  34.169  1.00  0.00     0.031 C 
ATOM     46  C   UNL A   1      38.594  30.034  28.493  1.00  0.00     0.029 A 
ATOM     47  C   UNL A   1      39.518  29.722  29.579  1.00  0.00     0.049 A 
ATOM     48  H   UNL A   1      39.628  30.628  31.450  1.00  0.00     0.167 HD
ATOM     49  C   UNL A   1      39.778  32.690  35.322  1.00  0.00     0.037 A 
ATOM     50  C   UNL A   1      40.475  28.775  29.548  1.00  0.00     0.037 A 
ATOM     51  C   UNL A   1      40.770  31.653  35.410  1.00  0.00     0.049 A 
ATOM     52  C   UNL A   1      41.317  28.546  30.774  1.00  0.00     0.074 A 
ATOM     53  C   UNL A   1      41.591  31.329  36.477  1.00  0.00     0.029 A 
ATOM     54  N   UNL A   1      41.070  30.763  34.390  1.00  0.00    -0.354 N 
ATOM     55  N   UNL A   1      41.295  29.175  31.924  1.00  0.00    -0.248 NA
ATOM     56  C   UNL A   1      42.303  27.459  30.703  1.00  0.00     0.031 C 
ATOM     57  C   UNL A   1      42.412  30.265  36.089  1.00  0.00     0.029 A 
ATOM     58  C   UNL A   1      42.070  29.895  34.798  1.00  0.00     0.049 A 
ATOM     59  H   UNL A   1      40.637  30.751  33.506  1.00  0.00     0.167 HD
ATOM     60  C   UNL A   1      42.239  28.543  32.723  1.00  0.00     0.074 A 
ATOM     61  C   UNL A   1      42.801  27.468  31.931  1.00  0.00     0.031 C 
ATOM     62  C   UNL A   1      42.608  28.825  33.996  1.00  0.00     0.037 A 
BRANCH  49  63
ATOM     63  C   UNL A   1      39.593  33.613  36.492  1.00  0.00     0.064 A 
ATOM     64  C   UNL A   1      40.248  34.853  36.561  1.00  0.00     0.173 A 
ATOM     65  C   UNL A   1      38.746  33.260  37.552  1.00  0.00     0.173 A 
ATOM     66  F   UNL A   1      41.083  35.231  35.581  1.00  0.00    -0.203 F 
ATOM     67  C   UNL A   1      40.091  35.688  37.663  1.00  0.00     0.198 A 
ATOM     68  C   UNL A   1      38.564  34.113  38.638  1.00  0.00     0.198 A 
ATOM     69  F   UNL A   1      38.093  32.089  37.536  1.00  0.00    -0.203 F 
ATOM     70  F   UNL A   1      40.774  36.837  37.734  1.00  0.00    -0.200 F 
ATOM     71  C   UNL A   1      39.243  35.320  38.697  1.00  0.00     0.200 A 
ATOM     72  F   UNL A   1      37.737  33.762  39.633  1.00  0.00    -0.200 F 
ATOM     73  F   UNL A   1      39.091  36.125  39.758  1.00  0.00    -0.200 F 
ENDBRANCH  49  63
BRANCH  50  74
ATOM     74  C   UNL A   1      40.646  27.930  28.337  1.00  0.00     0.064 A 
ATOM     75  C   UNL A   1      40.012  26.684  28.236  1.00  0.00     0.173 A 
ATOM     76  C   UNL A   1      41.451  28.340  27.265  1.00  0.00     0.173 A 
ATOM     77  F   UNL A   1      39.247  26.238  29.244  1.00  0.00    -0.203 F 
ATOM     78  C   UNL A   1      40.197  25.868  27.121  1.00  0.00     0.198 A 
ATOM     79  C   UNL A   1      41.614  27.537  26.138  1.00  0.00     0.198 A 
ATOM     80  F   UNL A   1      42.074  29.527  27.310  1.00  0.00    -0.203 F 
ATOM     81  F   UNL A   1      39.619  24.660  27.073  1.00  0.00    -0.200 F 
ATOM     82  C   UNL A   1      40.994  26.297  26.072  1.00  0.00     0.200 A 
ATOM     83  F   UNL A   1      42.374  27.960  25.120  1.00  0.00    -0.200 F 
ATOM     84  F   UNL A   1      41.173  25.514  24.999  1.00  0.00    -0.200 F 
ENDBRANCH  50  74
BRANCH  62  85
ATOM     85  C   UNL A   1      43.640  27.933  34.623  1.00  0.00     0.064 A 
ATOM     86  C   UNL A   1      43.288  26.749  35.286  1.00  0.00     0.173 A 
ATOM     87  C   UNL A   1      45.002  28.263  34.541  1.00  0.00     0.173 A 
ATOM     88  F   UNL A   1      41.997  26.398  35.402  1.00  0.00    -0.203 F 
ATOM     89  C   UNL A   1      44.258  25.945  35.876  1.00  0.00     0.198 A 
ATOM     90  C   UNL A   1      45.972  27.440  35.105  1.00  0.00     0.198 A 
ATOM     91  F   UNL A   1      45.391  29.380  33.910  1.00  0.00    -0.203 F 
ATOM     92  F   UNL A   1      43.894  24.848  36.556  1.00  0.00    -0.200 F 
ATOM     93  C   UNL A   1      45.599  26.287  35.781  1.00  0.00     0.200 A 
ATOM     94  F   UNL A   1      47.268  27.765  35.001  1.00  0.00    -0.200 F 
ATOM     95  F   UNL A   1      46.532  25.512  36.351  1.00  0.00    -0.200 F 
ENDBRANCH  62  85
ENDBRANCH  36  37
ENDBRANCH  28  31
ENDBRANCH  26  27
ENDBRANCH  25  26
ENDBRANCH  24  25
ENDBRANCH   1  24
TORSDOF 16
ENDMDL
