MODEL 1
REMARK VINA RESULT:     -12.6      0.000      0.000
REMARK SMILES CCc1cc(OC(F)(F)F)cc2c1O[C@@H](C(F)(F)F)C(C(=O)NCCCCNC(=O)c1ccc(-c3c4nc(c(-c5c(F)c(F)c(F)c(F)c5F)c5ccc([nH]5)c(-c5c(F)c(F)c(F)c(F)c5F)c5nc(c(-c6c(F)c(F)c(F)c(F)c6F)c6ccc3[nH]6)C=C5)C=C4)cc1)=C2
REMARK SMILES IDX 25 1 24 2 23 3 21 4 22 5 20 7 3 8 4 9 13 10 5 11 12 12 14 13
REMARK SMILES IDX 11 14 94 15 15 16 2 17 1 18 6 19 7 20 8 21 9 22 10 23 16 24
REMARK SMILES IDX 17 25 18 26 19 27 26 28 27 29 28 30 29 31 30 33 31 34 32 35
REMARK SMILES IDX 93 36 33 37 92 38 34 39 35 40 36 41 86 42 37 43 91 44 85 45
REMARK SMILES IDX 87 46 38 47 90 48 84 49 83 50 39 52 71 53 51 54 70 55 52 56
REMARK SMILES IDX 55 57 69 58 88 59 53 60 54 61 68 63 89 64 56 65 40 66 41 67
REMARK SMILES IDX 49 68 42 69 43 70 47 71 50 72 44 73 45 74 48 75 46 76 72 77
REMARK SMILES IDX 73 78 81 79 74 80 75 81 79 82 82 83 76 84 77 85 80 86 78 87
REMARK SMILES IDX 57 88 58 89 66 90 59 91 60 92 64 93 67 94 61 95 62 96 65 97
REMARK SMILES IDX 63 98
REMARK H PARENT 23 6 28 32 87 51 55 62
REMARK Flexibility Score: inf
ROOT
ATOM      1  C   UNL A   1      37.285  21.254  24.577  1.00  0.00     0.023 C 
ENDROOT
BRANCH   1   2
ATOM      2  C   UNL A   1      36.766  22.117  25.735  1.00  0.00     0.116 C 
BRANCH   2   3
ATOM      3  N   UNL A   1      35.630  21.469  26.365  1.00  0.00    -0.352 N 
ATOM      4  C   UNL A   1      34.356  21.882  26.599  1.00  0.00     0.251 C 
ATOM      5  O   UNL A   1      33.653  21.188  27.329  1.00  0.00    -0.270 OA
ATOM      6  H   UNL A   1      35.817  20.556  26.682  1.00  0.00     0.163 HD
BRANCH   4   7
ATOM      7  C   UNL A   1      33.762  23.083  25.952  1.00  0.00     0.067 C 
ATOM      8  C   UNL A   1      32.224  26.334  23.743  1.00  0.00    -0.002 A 
ATOM      9  C   UNL A   1      32.471  27.640  24.228  1.00  0.00     0.054 A 
ATOM     10  C   UNL A   1      32.689  25.239  24.493  1.00  0.00     0.131 A 
ATOM     11  C   UNL A   1      33.182  27.856  25.408  1.00  0.00     0.130 A 
ATOM     12  C   UNL A   1      33.398  25.453  25.675  1.00  0.00     0.021 A 
ATOM     13  O   UNL A   1      32.462  23.987  24.012  1.00  0.00    -0.475 OA
ATOM     14  C   UNL A   1      33.640  26.754  26.126  1.00  0.00     0.058 A 
ATOM     15  C   UNL A   1      33.956  24.328  26.405  1.00  0.00     0.025 C 
ATOM     16  C   UNL A   1      32.781  22.816  24.816  1.00  0.00     0.314 C 
BRANCH   8  17
ATOM     17  C   UNL A   1      31.404  26.204  22.473  1.00  0.00     0.036 C 
ATOM     18  C   UNL A   1      32.157  25.952  21.173  1.00  0.00     0.009 C 
ENDBRANCH   8  17
BRANCH  11  19
ATOM     19  O   UNL A   1      33.503  29.059  25.964  1.00  0.00    -0.406 OA
BRANCH  19  20
ATOM     20  C   UNL A   1      32.451  29.862  26.471  1.00  0.00     0.573 C 
ATOM     21  F   UNL A   1      32.922  30.818  27.298  1.00  0.00    -0.132 F 
ATOM     22  F   UNL A   1      31.754  30.433  25.468  1.00  0.00    -0.132 F 
ATOM     23  F   UNL A   1      31.609  29.073  27.174  1.00  0.00    -0.132 F 
ENDBRANCH  19  20
ENDBRANCH  11  19
BRANCH  16  24
ATOM     24  C   UNL A   1      33.169  21.681  23.838  1.00  0.00     0.429 C 
ATOM     25  F   UNL A   1      32.999  20.451  24.369  1.00  0.00    -0.167 F 
ATOM     26  F   UNL A   1      32.385  21.706  22.726  1.00  0.00    -0.167 F 
ATOM     27  F   UNL A   1      34.449  21.785  23.413  1.00  0.00    -0.167 F 
ENDBRANCH  16  24
ENDBRANCH   4   7
ENDBRANCH   2   3
ENDBRANCH   1   2
BRANCH   1  28
ATOM     28  C   UNL A   1      38.054  20.006  25.021  1.00  0.00     0.023 C 
BRANCH  28  29
ATOM     29  C   UNL A   1      39.246  20.285  25.927  1.00  0.00     0.116 C 
BRANCH  29  30
ATOM     30  N   UNL A   1      40.218  19.203  25.941  1.00  0.00    -0.352 N 
ATOM     31  C   UNL A   1      41.579  19.278  26.119  1.00  0.00     0.251 C 
ATOM     32  H   UNL A   1      39.854  18.299  25.805  1.00  0.00     0.163 HD
ATOM     33  O   UNL A   1      42.279  18.283  26.000  1.00  0.00    -0.269 OA
BRANCH  31  34
ATOM     34  C   UNL A   1      42.192  20.590  26.411  1.00  0.00     0.039 A 
ATOM     35  C   UNL A   1      42.599  21.390  25.342  1.00  0.00     0.014 A 
ATOM     36  C   UNL A   1      42.329  21.038  27.727  1.00  0.00     0.014 A 
ATOM     37  C   UNL A   1      43.086  22.674  25.590  1.00  0.00     0.010 A 
ATOM     38  C   UNL A   1      42.752  22.341  27.969  1.00  0.00     0.010 A 
ATOM     39  C   UNL A   1      43.133  23.170  26.904  1.00  0.00    -0.014 A 
BRANCH  39  40
ATOM     40  C   UNL A   1      43.576  24.557  27.183  1.00  0.00     0.031 A 
ATOM     41  C   UNL A   1      42.587  25.580  27.663  1.00  0.00     0.074 A 
ATOM     42  C   UNL A   1      44.853  24.907  26.936  1.00  0.00     0.049 A 
ATOM     43  N   UNL A   1      42.763  26.855  27.895  1.00  0.00    -0.248 NA
ATOM     44  C   UNL A   1      41.209  25.112  27.882  1.00  0.00     0.031 C 
ATOM     45  C   UNL A   1      45.890  24.014  26.419  1.00  0.00     0.029 A 
ATOM     46  N   UNL A   1      45.492  26.113  27.078  1.00  0.00    -0.354 N 
ATOM     47  C   UNL A   1      41.520  27.344  28.272  1.00  0.00     0.074 A 
ATOM     48  C   UNL A   1      40.587  26.242  28.188  1.00  0.00     0.031 C 
ATOM     49  C   UNL A   1      47.041  24.696  26.305  1.00  0.00     0.029 A 
ATOM     50  C   UNL A   1      46.814  26.081  26.709  1.00  0.00     0.049 A 
ATOM     51  H   UNL A   1      45.045  26.924  27.412  1.00  0.00     0.167 HD
ATOM     52  C   UNL A   1      41.191  28.595  28.674  1.00  0.00     0.037 A 
ATOM     53  C   UNL A   1      47.737  27.061  26.696  1.00  0.00     0.037 A 
ATOM     54  C   UNL A   1      42.129  29.680  28.784  1.00  0.00     0.049 A 
ATOM     55  C   UNL A   1      47.349  28.439  27.158  1.00  0.00     0.074 A 
ATOM     56  C   UNL A   1      41.912  30.967  29.243  1.00  0.00     0.029 A 
ATOM     57  N   UNL A   1      43.468  29.603  28.428  1.00  0.00    -0.354 N 
ATOM     58  N   UNL A   1      46.186  28.873  27.581  1.00  0.00    -0.248 NA
ATOM     59  C   UNL A   1      48.404  29.462  27.147  1.00  0.00     0.031 C 
ATOM     60  C   UNL A   1      43.110  31.681  29.129  1.00  0.00     0.029 A 
ATOM     61  C   UNL A   1      44.085  30.826  28.641  1.00  0.00     0.049 A 
ATOM     62  H   UNL A   1      43.915  28.799  28.077  1.00  0.00     0.167 HD
ATOM     63  C   UNL A   1      46.375  30.208  27.912  1.00  0.00     0.074 A 
ATOM     64  C   UNL A   1      47.768  30.509  27.654  1.00  0.00     0.031 C 
ATOM     65  C   UNL A   1      45.475  31.104  28.387  1.00  0.00     0.037 A 
BRANCH  52  66
ATOM     66  C   UNL A   1      39.758  28.853  29.033  1.00  0.00     0.064 A 
ATOM     67  C   UNL A   1      39.286  28.678  30.343  1.00  0.00     0.173 A 
ATOM     68  C   UNL A   1      38.851  29.308  28.065  1.00  0.00     0.173 A 
ATOM     69  F   UNL A   1      40.109  28.231  31.303  1.00  0.00    -0.203 F 
ATOM     70  C   UNL A   1      37.953  28.923  30.663  1.00  0.00     0.198 A 
ATOM     71  C   UNL A   1      37.526  29.580  28.395  1.00  0.00     0.198 A 
ATOM     72  F   UNL A   1      39.251  29.496  26.797  1.00  0.00    -0.203 F 
ATOM     73  F   UNL A   1      37.513  28.700  31.909  1.00  0.00    -0.200 F 
ATOM     74  C   UNL A   1      37.076  29.380  29.691  1.00  0.00     0.200 A 
ATOM     75  F   UNL A   1      36.682  30.033  27.457  1.00  0.00    -0.200 F 
ATOM     76  F   UNL A   1      35.794  29.620  30.001  1.00  0.00    -0.200 F 
ENDBRANCH  52  66
BRANCH  53  77
ATOM     77  C   UNL A   1      49.126  26.766  26.261  1.00  0.00     0.064 A 
ATOM     78  C   UNL A   1      49.518  26.962  24.929  1.00  0.00     0.173 A 
ATOM     79  C   UNL A   1      50.088  26.283  27.161  1.00  0.00     0.173 A 
ATOM     80  F   UNL A   1      48.629  27.404  24.028  1.00  0.00    -0.203 F 
ATOM     81  C   UNL A   1      50.814  26.667  24.509  1.00  0.00     0.198 A 
ATOM     82  C   UNL A   1      51.390  26.014  26.746  1.00  0.00     0.198 A 
ATOM     83  F   UNL A   1      49.765  26.086  28.447  1.00  0.00    -0.203 F 
ATOM     84  F   UNL A   1      51.149  26.823  23.221  1.00  0.00    -0.200 F 
ATOM     85  C   UNL A   1      51.750  26.199  25.418  1.00  0.00     0.200 A 
ATOM     86  F   UNL A   1      52.296  25.574  27.630  1.00  0.00    -0.200 F 
ATOM     87  F   UNL A   1      52.996  25.918  25.015  1.00  0.00    -0.200 F 
ENDBRANCH  53  77
BRANCH  65  88
ATOM     88  C   UNL A   1      45.977  32.484  28.690  1.00  0.00     0.064 A 
ATOM     89  C   UNL A   1      46.525  32.810  29.938  1.00  0.00     0.173 A 
ATOM     90  C   UNL A   1      45.944  33.482  27.704  1.00  0.00     0.173 A 
ATOM     91  F   UNL A   1      46.563  31.894  30.919  1.00  0.00    -0.203 F 
ATOM     92  C   UNL A   1      47.003  34.092  30.197  1.00  0.00     0.198 A 
ATOM     93  C   UNL A   1      46.449  34.755  27.957  1.00  0.00     0.198 A 
ATOM     94  F   UNL A   1      45.435  33.218  26.491  1.00  0.00    -0.203 F 
ATOM     95  F   UNL A   1      47.481  34.395  31.411  1.00  0.00    -0.200 F 
ATOM     96  C   UNL A   1      46.970  35.060  29.205  1.00  0.00     0.200 A 
ATOM     97  F   UNL A   1      46.428  35.686  26.992  1.00  0.00    -0.200 F 
ATOM     98  F   UNL A   1      47.437  36.291  29.453  1.00  0.00    -0.200 F 
ENDBRANCH  65  88
ENDBRANCH  39  40
ENDBRANCH  31  34
ENDBRANCH  29  30
ENDBRANCH  28  29
ENDBRANCH   1  28
TORSDOF 15
ENDMDL
MODEL 2
REMARK VINA RESULT:     -12.4      5.295      9.711
REMARK SMILES CCc1cc(OC(F)(F)F)cc2c1O[C@@H](C(F)(F)F)C(C(=O)NCCCCNC(=O)c1ccc(-c3c4nc(c(-c5c(F)c(F)c(F)c(F)c5F)c5ccc([nH]5)c(-c5c(F)c(F)c(F)c(F)c5F)c5nc(c(-c6c(F)c(F)c(F)c(F)c6F)c6ccc3[nH]6)C=C5)C=C4)cc1)=C2
REMARK SMILES IDX 25 1 24 2 23 3 21 4 22 5 20 7 3 8 4 9 13 10 5 11 12 12 14 13
REMARK SMILES IDX 11 14 94 15 15 16 2 17 1 18 6 19 7 20 8 21 9 22 10 23 16 24
REMARK SMILES IDX 17 25 18 26 19 27 26 28 27 29 28 30 29 31 30 33 31 34 32 35
REMARK SMILES IDX 93 36 33 37 92 38 34 39 35 40 36 41 86 42 37 43 91 44 85 45
REMARK SMILES IDX 87 46 38 47 90 48 84 49 83 50 39 52 71 53 51 54 70 55 52 56
REMARK SMILES IDX 55 57 69 58 88 59 53 60 54 61 68 63 89 64 56 65 40 66 41 67
REMARK SMILES IDX 49 68 42 69 43 70 47 71 50 72 44 73 45 74 48 75 46 76 72 77
REMARK SMILES IDX 73 78 81 79 74 80 75 81 79 82 82 83 76 84 77 85 80 86 78 87
REMARK SMILES IDX 57 88 58 89 66 90 59 91 60 92 64 93 67 94 61 95 62 96 65 97
REMARK SMILES IDX 63 98
REMARK H PARENT 23 6 28 32 87 51 55 62
REMARK Flexibility Score: inf
ROOT
ATOM      1  C   UNL A   1      31.308  31.205  25.496  1.00  0.00     0.023 C 
ENDROOT
BRANCH   1   2
ATOM      2  C   UNL A   1      32.069  29.873  25.471  1.00  0.00     0.116 C 
BRANCH   2   3
ATOM      3  N   UNL A   1      31.646  29.040  26.582  1.00  0.00    -0.352 N 
ATOM      4  C   UNL A   1      31.605  27.692  26.750  1.00  0.00     0.251 C 
ATOM      5  O   UNL A   1      31.014  27.254  27.734  1.00  0.00    -0.270 OA
ATOM      6  H   UNL A   1      31.328  29.548  27.363  1.00  0.00     0.163 HD
BRANCH   4   7
ATOM      7  C   UNL A   1      32.305  26.741  25.845  1.00  0.00     0.067 C 
ATOM      8  C   UNL A   1      33.930  23.808  23.282  1.00  0.00    -0.002 A 
ATOM      9  C   UNL A   1      35.220  23.309  23.579  1.00  0.00     0.054 A 
ATOM     10  C   UNL A   1      33.395  24.819  24.099  1.00  0.00     0.131 A 
ATOM     11  C   UNL A   1      35.948  23.780  24.672  1.00  0.00     0.130 A 
ATOM     12  C   UNL A   1      34.122  25.293  25.190  1.00  0.00     0.021 A 
ATOM     13  O   UNL A   1      32.147  25.282  23.816  1.00  0.00    -0.475 OA
ATOM     14  C   UNL A   1      35.390  24.775  25.471  1.00  0.00     0.058 A 
ATOM     15  C   UNL A   1      33.536  26.274  26.088  1.00  0.00     0.025 C 
ATOM     16  C   UNL A   1      31.605  26.430  24.528  1.00  0.00     0.314 C 
BRANCH   8  17
ATOM     17  C   UNL A   1      33.238  23.262  22.047  1.00  0.00     0.036 C 
ATOM     18  C   UNL A   1      32.381  22.014  22.215  1.00  0.00     0.009 C 
ENDBRANCH   8  17
BRANCH  11  19
ATOM     19  O   UNL A   1      37.183  23.366  25.076  1.00  0.00    -0.406 OA
BRANCH  19  20
ATOM     20  C   UNL A   1      37.376  21.982  25.317  1.00  0.00     0.573 C 
ATOM     21  F   UNL A   1      36.394  21.481  26.094  1.00  0.00    -0.132 F 
ATOM     22  F   UNL A   1      37.435  21.294  24.159  1.00  0.00    -0.132 F 
ATOM     23  F   UNL A   1      38.551  21.819  25.965  1.00  0.00    -0.132 F 
ENDBRANCH  19  20
ENDBRANCH  11  19
BRANCH  16  24
ATOM     24  C   UNL A   1      30.071  26.238  24.603  1.00  0.00     0.429 C 
ATOM     25  F   UNL A   1      29.390  27.397  24.462  1.00  0.00    -0.167 F 
ATOM     26  F   UNL A   1      29.629  25.436  23.598  1.00  0.00    -0.167 F 
ATOM     27  F   UNL A   1      29.682  25.659  25.762  1.00  0.00    -0.167 F 
ENDBRANCH  16  24
ENDBRANCH   4   7
ENDBRANCH   2   3
ENDBRANCH   1   2
BRANCH   1  28
ATOM     28  C   UNL A   1      31.334  31.916  26.852  1.00  0.00     0.023 C 
BRANCH  28  29
ATOM     29  C   UNL A   1      32.598  32.722  27.121  1.00  0.00     0.116 C 
BRANCH  29  30
ATOM     30  N   UNL A   1      32.326  34.093  27.525  1.00  0.00    -0.352 N 
ATOM     31  C   UNL A   1      32.956  34.840  28.493  1.00  0.00     0.251 C 
ATOM     32  H   UNL A   1      31.596  34.544  27.045  1.00  0.00     0.163 HD
ATOM     33  O   UNL A   1      32.541  35.951  28.790  1.00  0.00    -0.269 OA
BRANCH  31  34
ATOM     34  C   UNL A   1      34.115  34.262  29.203  1.00  0.00     0.039 A 
ATOM     35  C   UNL A   1      33.880  33.439  30.306  1.00  0.00     0.014 A 
ATOM     36  C   UNL A   1      35.417  34.504  28.759  1.00  0.00     0.014 A 
ATOM     37  C   UNL A   1      34.954  32.802  30.928  1.00  0.00     0.010 A 
ATOM     38  C   UNL A   1      36.479  33.816  29.339  1.00  0.00     0.010 A 
ATOM     39  C   UNL A   1      36.256  32.959  30.426  1.00  0.00    -0.014 A 
BRANCH  39  40
ATOM     40  C   UNL A   1      37.401  32.233  31.026  1.00  0.00     0.031 A 
ATOM     41  C   UNL A   1      37.900  32.611  32.391  1.00  0.00     0.074 A 
ATOM     42  C   UNL A   1      38.032  31.282  30.310  1.00  0.00     0.049 A 
ATOM     43  N   UNL A   1      38.926  32.146  33.056  1.00  0.00    -0.248 NA
ATOM     44  C   UNL A   1      37.164  33.677  33.089  1.00  0.00     0.031 C 
ATOM     45  C   UNL A   1      37.671  30.866  28.955  1.00  0.00     0.029 A 
ATOM     46  N   UNL A   1      39.116  30.501  30.621  1.00  0.00    -0.354 N 
ATOM     47  C   UNL A   1      38.968  32.869  34.239  1.00  0.00     0.074 A 
ATOM     48  C   UNL A   1      37.898  33.840  34.181  1.00  0.00     0.031 C 
ATOM     49  C   UNL A   1      38.506  29.893  28.557  1.00  0.00     0.029 A 
ATOM     50  C   UNL A   1      39.480  29.640  29.616  1.00  0.00     0.049 A 
ATOM     51  H   UNL A   1      39.589  30.554  31.483  1.00  0.00     0.167 HD
ATOM     52  C   UNL A   1      39.809  32.720  35.290  1.00  0.00     0.037 A 
ATOM     53  C   UNL A   1      40.489  28.750  29.555  1.00  0.00     0.037 A 
ATOM     54  C   UNL A   1      40.854  31.733  35.355  1.00  0.00     0.049 A 
ATOM     55  C   UNL A   1      41.402  28.597  30.740  1.00  0.00     0.074 A 
ATOM     56  C   UNL A   1      41.718  31.457  36.399  1.00  0.00     0.029 A 
ATOM     57  N   UNL A   1      41.175  30.858  34.327  1.00  0.00    -0.354 N 
ATOM     58  N   UNL A   1      41.388  29.238  31.884  1.00  0.00    -0.248 NA
ATOM     59  C   UNL A   1      42.469  27.593  30.628  1.00  0.00     0.031 C 
ATOM     60  C   UNL A   1      42.589  30.441  35.990  1.00  0.00     0.029 A 
ATOM     61  C   UNL A   1      42.237  30.053  34.707  1.00  0.00     0.049 A 
ATOM     62  H   UNL A   1      40.716  30.814  33.457  1.00  0.00     0.167 HD
ATOM     63  C   UNL A   1      42.422  28.697  32.637  1.00  0.00     0.074 A 
ATOM     64  C   UNL A   1      43.034  27.665  31.825  1.00  0.00     0.031 C 
ATOM     65  C   UNL A   1      42.827  29.025  33.888  1.00  0.00     0.037 A 
BRANCH  52  66
ATOM     66  C   UNL A   1      39.628  33.643  36.459  1.00  0.00     0.064 A 
ATOM     67  C   UNL A   1      40.235  34.907  36.496  1.00  0.00     0.173 A 
ATOM     68  C   UNL A   1      38.814  33.274  37.540  1.00  0.00     0.173 A 
ATOM     69  F   UNL A   1      41.033  35.303  35.493  1.00  0.00    -0.203 F 
ATOM     70  C   UNL A   1      40.057  35.756  37.586  1.00  0.00     0.198 A 
ATOM     71  C   UNL A   1      38.615  34.136  38.614  1.00  0.00     0.198 A 
ATOM     72  F   UNL A   1      38.207  32.077  37.553  1.00  0.00    -0.203 F 
ATOM     73  F   UNL A   1      40.687  36.938  37.623  1.00  0.00    -0.200 F 
ATOM     74  C   UNL A   1      39.242  35.373  38.641  1.00  0.00     0.200 A 
ATOM     75  F   UNL A   1      37.818  33.770  39.628  1.00  0.00    -0.200 F 
ATOM     76  F   UNL A   1      39.067  36.192  39.687  1.00  0.00    -0.200 F 
ENDBRANCH  52  66
BRANCH  53  77
ATOM     77  C   UNL A   1      40.667  27.912  28.342  1.00  0.00     0.064 A 
ATOM     78  C   UNL A   1      41.423  28.373  27.255  1.00  0.00     0.173 A 
ATOM     79  C   UNL A   1      40.087  26.639  28.242  1.00  0.00     0.173 A 
ATOM     80  F   UNL A   1      41.981  29.591  27.298  1.00  0.00    -0.203 F 
ATOM     81  C   UNL A   1      41.576  27.600  26.106  1.00  0.00     0.198 A 
ATOM     82  C   UNL A   1      40.263  25.856  27.102  1.00  0.00     0.198 A 
ATOM     83  F   UNL A   1      39.360  26.149  29.257  1.00  0.00    -0.203 F 
ATOM     84  F   UNL A   1      42.269  28.083  25.065  1.00  0.00    -0.200 F 
ATOM     85  C   UNL A   1      41.001  26.341  26.032  1.00  0.00     0.200 A 
ATOM     86  F   UNL A   1      39.716  24.634  27.040  1.00  0.00    -0.200 F 
ATOM     87  F   UNL A   1      41.151  25.598  24.928  1.00  0.00    -0.200 F 
ENDBRANCH  53  77
BRANCH  65  88
ATOM     88  C   UNL A   1      43.965  28.239  34.468  1.00  0.00     0.064 A 
ATOM     89  C   UNL A   1      45.294  28.669  34.348  1.00  0.00     0.173 A 
ATOM     90  C   UNL A   1      43.717  27.060  35.189  1.00  0.00     0.173 A 
ATOM     91  F   UNL A   1      45.582  29.781  33.654  1.00  0.00    -0.203 F 
ATOM     92  C   UNL A   1      46.336  27.936  34.908  1.00  0.00     0.198 A 
ATOM     93  C   UNL A   1      44.760  26.345  35.772  1.00  0.00     0.198 A 
ATOM     94  F   UNL A   1      42.462  26.610  35.338  1.00  0.00    -0.203 F 
ATOM     95  F   UNL A   1      47.603  28.341  34.742  1.00  0.00    -0.200 F 
ATOM     96  C   UNL A   1      46.068  26.780  35.625  1.00  0.00     0.200 A 
ATOM     97  F   UNL A   1      44.497  25.234  36.476  1.00  0.00    -0.200 F 
ATOM     98  F   UNL A   1      47.072  26.080  36.169  1.00  0.00    -0.200 F 
ENDBRANCH  65  88
ENDBRANCH  39  40
ENDBRANCH  31  34
ENDBRANCH  29  30
ENDBRANCH  28  29
ENDBRANCH   1  28
TORSDOF 15
ENDMDL
MODEL 3
REMARK VINA RESULT:     -12.4      0.355      1.695
REMARK SMILES CCc1cc(OC(F)(F)F)cc2c1O[C@@H](C(F)(F)F)C(C(=O)NCCCCNC(=O)c1ccc(-c3c4nc(c(-c5c(F)c(F)c(F)c(F)c5F)c5ccc([nH]5)c(-c5c(F)c(F)c(F)c(F)c5F)c5nc(c(-c6c(F)c(F)c(F)c(F)c6F)c6ccc3[nH]6)C=C5)C=C4)cc1)=C2
REMARK SMILES IDX 25 1 24 2 23 3 21 4 22 5 20 7 3 8 4 9 13 10 5 11 12 12 14 13
REMARK SMILES IDX 11 14 94 15 15 16 2 17 1 18 6 19 7 20 8 21 9 22 10 23 16 24
REMARK SMILES IDX 17 25 18 26 19 27 26 28 27 29 28 30 29 31 30 33 31 34 32 35
REMARK SMILES IDX 93 36 33 37 92 38 34 39 35 40 36 41 86 42 37 43 91 44 85 45
REMARK SMILES IDX 87 46 38 47 90 48 84 49 83 50 39 52 71 53 51 54 70 55 52 56
REMARK SMILES IDX 55 57 69 58 88 59 53 60 54 61 68 63 89 64 56 65 40 66 41 67
REMARK SMILES IDX 49 68 42 69 43 70 47 71 50 72 44 73 45 74 48 75 46 76 72 77
REMARK SMILES IDX 73 78 81 79 74 80 75 81 79 82 82 83 76 84 77 85 80 86 78 87
REMARK SMILES IDX 57 88 58 89 66 90 59 91 60 92 64 93 67 94 61 95 62 96 65 97
REMARK SMILES IDX 63 98
REMARK H PARENT 23 6 28 32 87 51 55 62
REMARK Flexibility Score: inf
ROOT
ATOM      1  C   UNL A   1      37.228  21.182  24.566  1.00  0.00     0.023 C 
ENDROOT
BRANCH   1   2
ATOM      2  C   UNL A   1      36.667  22.036  25.709  1.00  0.00     0.116 C 
BRANCH   2   3
ATOM      3  N   UNL A   1      35.425  21.460  26.194  1.00  0.00    -0.352 N 
ATOM      4  C   UNL A   1      34.182  21.981  26.366  1.00  0.00     0.251 C 
ATOM      5  O   UNL A   1      33.357  21.307  26.978  1.00  0.00    -0.270 OA
ATOM      6  H   UNL A   1      35.498  20.511  26.445  1.00  0.00     0.163 HD
BRANCH   4   7
ATOM      7  C   UNL A   1      33.760  23.282  25.780  1.00  0.00     0.067 C 
ATOM      8  C   UNL A   1      32.735  26.836  23.749  1.00  0.00    -0.002 A 
ATOM      9  C   UNL A   1      33.047  28.069  24.370  1.00  0.00     0.054 A 
ATOM     10  C   UNL A   1      33.026  25.644  24.434  1.00  0.00     0.131 A 
ATOM     11  C   UNL A   1      33.657  28.117  25.623  1.00  0.00     0.130 A 
ATOM     12  C   UNL A   1      33.634  25.691  25.689  1.00  0.00     0.021 A 
ATOM     13  O   UNL A   1      32.738  24.464  23.823  1.00  0.00    -0.475 OA
ATOM     14  C   UNL A   1      33.945  26.921  26.276  1.00  0.00     0.058 A 
ATOM     15  C   UNL A   1      34.018  24.461  26.360  1.00  0.00     0.025 C 
ATOM     16  C   UNL A   1      32.874  23.206  24.543  1.00  0.00     0.314 C 
BRANCH   8  17
ATOM     17  C   UNL A   1      32.032  26.891  22.405  1.00  0.00     0.036 C 
ATOM     18  C   UNL A   1      30.623  27.468  22.371  1.00  0.00     0.009 C 
ENDBRANCH   8  17
BRANCH  11  19
ATOM     19  O   UNL A   1      34.028  29.234  26.313  1.00  0.00    -0.406 OA
BRANCH  19  20
ATOM     20  C   UNL A   1      33.019  29.970  26.983  1.00  0.00     0.573 C 
ATOM     21  F   UNL A   1      32.145  29.149  27.601  1.00  0.00    -0.132 F 
ATOM     22  F   UNL A   1      33.558  30.819  27.883  1.00  0.00    -0.132 F 
ATOM     23  F   UNL A   1      32.339  30.699  26.070  1.00  0.00    -0.132 F 
ENDBRANCH  19  20
ENDBRANCH  11  19
BRANCH  16  24
ATOM     24  C   UNL A   1      33.253  22.123  23.503  1.00  0.00     0.429 C 
ATOM     25  F   UNL A   1      34.555  22.173  23.145  1.00  0.00    -0.167 F 
ATOM     26  F   UNL A   1      33.064  20.874  24.007  1.00  0.00    -0.167 F 
ATOM     27  F   UNL A   1      32.504  22.207  22.380  1.00  0.00    -0.167 F 
ENDBRANCH  16  24
ENDBRANCH   4   7
ENDBRANCH   2   3
ENDBRANCH   1   2
BRANCH   1  28
ATOM     28  C   UNL A   1      38.031  19.962  25.029  1.00  0.00     0.023 C 
BRANCH  28  29
ATOM     29  C   UNL A   1      39.261  20.293  25.864  1.00  0.00     0.116 C 
BRANCH  29  30
ATOM     30  N   UNL A   1      40.219  19.200  25.925  1.00  0.00    -0.352 N 
ATOM     31  C   UNL A   1      41.579  19.266  26.124  1.00  0.00     0.251 C 
ATOM     32  H   UNL A   1      39.847  18.298  25.808  1.00  0.00     0.163 HD
ATOM     33  O   UNL A   1      42.269  18.260  26.046  1.00  0.00    -0.269 OA
BRANCH  31  34
ATOM     34  C   UNL A   1      42.201  20.579  26.390  1.00  0.00     0.039 A 
ATOM     35  C   UNL A   1      42.532  21.393  25.304  1.00  0.00     0.014 A 
ATOM     36  C   UNL A   1      42.422  21.014  27.698  1.00  0.00     0.014 A 
ATOM     37  C   UNL A   1      43.027  22.676  25.534  1.00  0.00     0.010 A 
ATOM     38  C   UNL A   1      42.853  22.317  27.926  1.00  0.00     0.010 A 
ATOM     39  C   UNL A   1      43.157  23.159  26.847  1.00  0.00    -0.014 A 
BRANCH  39  40
ATOM     40  C   UNL A   1      43.610  24.546  27.112  1.00  0.00     0.031 A 
ATOM     41  C   UNL A   1      42.632  25.576  27.599  1.00  0.00     0.074 A 
ATOM     42  C   UNL A   1      44.885  24.889  26.846  1.00  0.00     0.049 A 
ATOM     43  N   UNL A   1      42.816  26.852  27.820  1.00  0.00    -0.248 NA
ATOM     44  C   UNL A   1      41.255  25.115  27.840  1.00  0.00     0.031 C 
ATOM     45  C   UNL A   1      45.911  23.989  26.320  1.00  0.00     0.029 A 
ATOM     46  N   UNL A   1      45.531  26.094  26.971  1.00  0.00    -0.354 N 
ATOM     47  C   UNL A   1      41.580  27.348  28.211  1.00  0.00     0.074 A 
ATOM     48  C   UNL A   1      40.641  26.250  28.147  1.00  0.00     0.031 C 
ATOM     49  C   UNL A   1      47.063  24.666  26.186  1.00  0.00     0.029 A 
ATOM     50  C   UNL A   1      46.847  26.054  26.584  1.00  0.00     0.049 A 
ATOM     51  H   UNL A   1      45.091  26.909  27.305  1.00  0.00     0.167 HD
ATOM     52  C   UNL A   1      41.262  28.603  28.611  1.00  0.00     0.037 A 
ATOM     53  C   UNL A   1      47.773  27.031  26.552  1.00  0.00     0.037 A 
ATOM     54  C   UNL A   1      42.206  29.685  28.701  1.00  0.00     0.049 A 
ATOM     55  C   UNL A   1      47.397  28.412  27.011  1.00  0.00     0.074 A 
ATOM     56  C   UNL A   1      42.000  30.976  29.154  1.00  0.00     0.029 A 
ATOM     57  N   UNL A   1      43.539  29.601  28.327  1.00  0.00    -0.354 N 
ATOM     58  N   UNL A   1      46.242  28.853  27.447  1.00  0.00    -0.248 NA
ATOM     59  C   UNL A   1      48.456  29.431  26.979  1.00  0.00     0.031 C 
ATOM     60  C   UNL A   1      43.198  31.684  29.019  1.00  0.00     0.029 A 
ATOM     61  C   UNL A   1      44.164  30.822  28.523  1.00  0.00     0.049 A 
ATOM     62  H   UNL A   1      43.978  28.792  27.974  1.00  0.00     0.167 HD
ATOM     63  C   UNL A   1      46.441  30.190  27.768  1.00  0.00     0.074 A 
ATOM     64  C   UNL A   1      47.832  30.484  27.488  1.00  0.00     0.031 C 
ATOM     65  C   UNL A   1      45.551  31.093  28.249  1.00  0.00     0.037 A 
BRANCH  52  66
ATOM     66  C   UNL A   1      39.834  28.869  28.987  1.00  0.00     0.064 A 
ATOM     67  C   UNL A   1      38.898  29.316  28.044  1.00  0.00     0.173 A 
ATOM     68  C   UNL A   1      39.390  28.646  30.299  1.00  0.00     0.173 A 
ATOM     69  F   UNL A   1      39.275  29.558  26.779  1.00  0.00    -0.203 F 
ATOM     70  C   UNL A   1      37.575  29.558  28.407  1.00  0.00     0.198 A 
ATOM     71  C   UNL A   1      38.060  28.860  30.651  1.00  0.00     0.198 A 
ATOM     72  F   UNL A   1      40.244  28.214  31.239  1.00  0.00    -0.203 F 
ATOM     73  F   UNL A   1      36.710  30.033  27.500  1.00  0.00    -0.200 F 
ATOM     74  C   UNL A   1      37.156  29.323  29.707  1.00  0.00     0.200 A 
ATOM     75  F   UNL A   1      37.653  28.622  31.905  1.00  0.00    -0.200 F 
ATOM     76  F   UNL A   1      35.881  29.551  30.054  1.00  0.00    -0.200 F 
ENDBRANCH  52  66
BRANCH  53  77
ATOM     77  C   UNL A   1      49.155  26.727  26.100  1.00  0.00     0.064 A 
ATOM     78  C   UNL A   1      50.115  26.240  26.998  1.00  0.00     0.173 A 
ATOM     79  C   UNL A   1      49.547  26.918  24.766  1.00  0.00     0.173 A 
ATOM     80  F   UNL A   1      49.793  26.060  28.287  1.00  0.00    -0.203 F 
ATOM     81  C   UNL A   1      51.419  25.974  26.585  1.00  0.00     0.198 A 
ATOM     82  C   UNL A   1      50.843  26.626  24.348  1.00  0.00     0.198 A 
ATOM     83  F   UNL A   1      48.664  27.375  23.866  1.00  0.00    -0.203 F 
ATOM     84  F   UNL A   1      52.327  25.550  27.475  1.00  0.00    -0.200 F 
ATOM     85  C   UNL A   1      51.780  26.162  25.260  1.00  0.00     0.200 A 
ATOM     86  F   UNL A   1      51.186  26.796  23.064  1.00  0.00    -0.200 F 
ATOM     87  F   UNL A   1      53.033  25.903  24.863  1.00  0.00    -0.200 F 
ENDBRANCH  53  77
BRANCH  65  88
ATOM     88  C   UNL A   1      46.063  32.473  28.536  1.00  0.00     0.064 A 
ATOM     89  C   UNL A   1      46.620  32.807  29.778  1.00  0.00     0.173 A 
ATOM     90  C   UNL A   1      46.030  33.462  27.541  1.00  0.00     0.173 A 
ATOM     91  F   UNL A   1      46.659  31.900  30.767  1.00  0.00    -0.203 F 
ATOM     92  C   UNL A   1      47.107  34.088  30.022  1.00  0.00     0.198 A 
ATOM     93  C   UNL A   1      46.543  34.734  27.780  1.00  0.00     0.198 A 
ATOM     94  F   UNL A   1      45.512  33.190  26.334  1.00  0.00    -0.203 F 
ATOM     95  F   UNL A   1      47.594  34.399  31.232  1.00  0.00    -0.200 F 
ATOM     96  C   UNL A   1      47.074  35.048  29.022  1.00  0.00     0.200 A 
ATOM     97  F   UNL A   1      46.522  35.656  26.807  1.00  0.00    -0.200 F 
ATOM     98  F   UNL A   1      47.549  36.278  29.256  1.00  0.00    -0.200 F 
ENDBRANCH  65  88
ENDBRANCH  39  40
ENDBRANCH  31  34
ENDBRANCH  29  30
ENDBRANCH  28  29
ENDBRANCH   1  28
TORSDOF 15
ENDMDL
