MODEL 1
REMARK VINA RESULT:     -12.5      0.000      0.000
REMARK SMILES Cc1nsc(NC[C@@H]2C[C@H]3CC[C@@H]2C3)c1C(=O)NCCCCNC(=O)c1ccc(-c2c3nc(c(-c4c(F)c(F)c(F)c(F)c4F)c4ccc([nH]4)c(-c4c(F)c(F)c(F)c(F)c4F)c4nc(c(-c5c(F)c(F)c(F)c(F)c5F)c5ccc2[nH]5)C=C4)C=C3)cc1
REMARK SMILES IDX 20 1 19 2 18 3 16 4 17 5 15 7 1 8 2 9 3 10 4 11 5 12 6 13
REMARK SMILES IDX 7 15 8 16 9 17 13 18 10 19 12 20 14 21 11 22 21 23 22 24
REMARK SMILES IDX 23 25 24 26 25 28 26 29 27 30 88 31 28 32 87 33 29 34 30 35
REMARK SMILES IDX 31 36 81 37 32 38 86 39 80 40 82 41 33 42 85 43 79 44 78 45
REMARK SMILES IDX 34 47 66 48 46 49 65 50 47 51 50 52 64 53 83 54 48 55 49 56
REMARK SMILES IDX 63 58 84 59 51 60 35 61 36 62 44 63 37 64 38 65 42 66 45 67
REMARK SMILES IDX 39 68 40 69 43 70 41 71 67 72 68 73 76 74 69 75 70 76 74 77
REMARK SMILES IDX 77 78 71 79 72 80 75 81 73 82 52 83 53 84 61 85 54 86 55 87
REMARK SMILES IDX 59 88 62 89 56 90 57 91 60 92 58 93
REMARK H PARENT 18 6 6 14 23 27 82 46 50 57
REMARK Flexibility Score: inf
ROOT
ATOM      1  C   UNL A   1      38.708  21.831  25.770  1.00  0.00     0.023 C 
ENDROOT
BRANCH   1   2
ATOM      2  C   UNL A   1      37.316  22.158  25.199  1.00  0.00     0.116 C 
BRANCH   2   3
ATOM      3  N   UNL A   1      36.316  21.768  26.134  1.00  0.00    -0.352 N 
ATOM      4  C   UNL A   1      34.984  22.058  26.169  1.00  0.00     0.256 C 
ATOM      5  O   UNL A   1      34.409  21.515  27.125  1.00  0.00    -0.269 OA
ATOM      6  H   UNL A   1      36.636  21.198  26.870  1.00  0.00     0.163 HD
BRANCH   4   7
ATOM      7  C   UNL A   1      34.252  22.874  25.163  1.00  0.00     0.097 A 
ATOM      8  C   UNL A   1      34.222  25.591  25.689  1.00  0.00     0.069 C 
ATOM      9  C   UNL A   1      33.967  24.316  24.951  1.00  0.00     0.066 A 
ATOM     10  N   UNL A   1      33.317  24.612  23.824  1.00  0.00    -0.195 NA
ATOM     11  S   UNL A   1      32.929  23.266  23.018  1.00  0.00    -0.018 S 
ATOM     12  C   UNL A   1      33.610  22.160  24.128  1.00  0.00     0.122 A 
BRANCH  12  13
ATOM     13  N   UNL A   1      33.537  20.804  23.984  1.00  0.00    -0.375 N 
ATOM     14  H   UNL A   1      34.257  20.362  23.480  1.00  0.00     0.161 HD
BRANCH  13  15
ATOM     15  C   UNL A   1      32.481  19.966  24.519  1.00  0.00     0.117 C 
BRANCH  15  16
ATOM     16  C   UNL A   1      33.097  18.689  25.092  1.00  0.00     0.012 C 
ATOM     17  C   UNL A   1      34.569  18.502  24.666  1.00  0.00     0.009 C 
ATOM     18  C   UNL A   1      32.425  17.402  24.548  1.00  0.00    -0.006 C 
ATOM     19  C   UNL A   1      34.585  17.071  24.109  1.00  0.00    -0.011 C 
ATOM     20  C   UNL A   1      32.789  16.242  25.488  1.00  0.00     0.004 C 
ATOM     21  C   UNL A   1      33.277  17.057  23.322  1.00  0.00     0.007 C 
ATOM     22  C   UNL A   1      34.297  16.074  25.248  1.00  0.00     0.004 C 
ENDBRANCH  15  16
ENDBRANCH  13  15
ENDBRANCH  12  13
ENDBRANCH   4   7
ENDBRANCH   2   3
ENDBRANCH   1   2
BRANCH   1  23
ATOM     23  C   UNL A   1      39.241  20.460  25.366  1.00  0.00     0.023 C 
BRANCH  23  24
ATOM     24  C   UNL A   1      39.961  19.784  26.513  1.00  0.00     0.116 C 
BRANCH  24  25
ATOM     25  N   UNL A   1      41.280  19.263  26.175  1.00  0.00    -0.352 N 
ATOM     26  C   UNL A   1      42.382  20.016  25.748  1.00  0.00     0.251 C 
ATOM     27  H   UNL A   1      41.407  18.289  26.252  1.00  0.00     0.163 HD
ATOM     28  O   UNL A   1      43.277  19.537  25.129  1.00  0.00    -0.269 OA
BRANCH  26  29
ATOM     29  C   UNL A   1      42.444  21.418  26.264  1.00  0.00     0.039 A 
ATOM     30  C   UNL A   1      42.619  22.584  25.516  1.00  0.00     0.014 A 
ATOM     31  C   UNL A   1      42.471  21.547  27.637  1.00  0.00     0.014 A 
ATOM     32  C   UNL A   1      42.912  23.795  26.236  1.00  0.00     0.010 A 
ATOM     33  C   UNL A   1      42.175  22.761  28.167  1.00  0.00     0.010 A 
ATOM     34  C   UNL A   1      42.912  23.805  27.670  1.00  0.00    -0.014 A 
BRANCH  34  35
ATOM     35  C   UNL A   1      42.826  24.965  28.651  1.00  0.00     0.031 A 
ATOM     36  C   UNL A   1      41.402  25.573  28.286  1.00  0.00     0.074 A 
ATOM     37  C   UNL A   1      43.730  25.281  29.714  1.00  0.00     0.049 A 
ATOM     38  N   UNL A   1      41.250  26.545  27.434  1.00  0.00    -0.248 NA
ATOM     39  C   UNL A   1      40.057  24.879  28.415  1.00  0.00     0.031 C 
ATOM     40  C   UNL A   1      45.084  24.745  30.177  1.00  0.00     0.029 A 
ATOM     41  N   UNL A   1      43.665  26.318  30.686  1.00  0.00    -0.354 N 
ATOM     42  C   UNL A   1      39.889  26.869  27.430  1.00  0.00     0.074 A 
ATOM     43  C   UNL A   1      39.205  25.671  27.745  1.00  0.00     0.031 C 
ATOM     44  C   UNL A   1      45.461  25.221  31.416  1.00  0.00     0.029 A 
ATOM     45  C   UNL A   1      44.496  26.199  31.886  1.00  0.00     0.049 A 
ATOM     46  H   UNL A   1      43.076  27.096  30.555  1.00  0.00     0.167 HD
ATOM     47  C   UNL A   1      39.535  28.166  27.646  1.00  0.00     0.037 A 
ATOM     48  C   UNL A   1      44.546  27.018  33.031  1.00  0.00     0.037 A 
ATOM     49  C   UNL A   1      40.722  28.965  27.470  1.00  0.00     0.049 A 
ATOM     50  C   UNL A   1      43.836  28.269  32.650  1.00  0.00     0.074 A 
ATOM     51  C   UNL A   1      41.598  29.163  26.422  1.00  0.00     0.029 A 
ATOM     52  N   UNL A   1      41.434  29.104  28.629  1.00  0.00    -0.354 N 
ATOM     53  N   UNL A   1      44.354  29.079  31.767  1.00  0.00    -0.248 NA
ATOM     54  C   UNL A   1      42.379  28.141  32.678  1.00  0.00     0.031 C 
ATOM     55  C   UNL A   1      42.901  29.121  26.999  1.00  0.00     0.029 A 
ATOM     56  C   UNL A   1      42.773  29.149  28.384  1.00  0.00     0.049 A 
ATOM     57  H   UNL A   1      41.031  29.163  29.526  1.00  0.00     0.167 HD
ATOM     58  C   UNL A   1      43.385  29.123  30.783  1.00  0.00     0.074 A 
ATOM     59  C   UNL A   1      42.176  28.519  31.408  1.00  0.00     0.031 C 
ATOM     60  C   UNL A   1      43.721  29.233  29.457  1.00  0.00     0.037 A 
BRANCH  47  61
ATOM     61  C   UNL A   1      38.397  28.663  28.524  1.00  0.00     0.064 A 
ATOM     62  C   UNL A   1      37.593  29.700  28.009  1.00  0.00     0.173 A 
ATOM     63  C   UNL A   1      38.237  28.409  29.906  1.00  0.00     0.173 A 
ATOM     64  F   UNL A   1      37.679  30.042  26.714  1.00  0.00    -0.203 F 
ATOM     65  C   UNL A   1      36.743  30.462  28.814  1.00  0.00     0.198 A 
ATOM     66  C   UNL A   1      37.339  29.135  30.699  1.00  0.00     0.198 A 
ATOM     67  F   UNL A   1      38.996  27.524  30.563  1.00  0.00    -0.203 F 
ATOM     68  F   UNL A   1      36.091  31.508  28.288  1.00  0.00    -0.200 F 
ATOM     69  C   UNL A   1      36.610  30.175  30.158  1.00  0.00     0.200 A 
ATOM     70  F   UNL A   1      37.235  28.860  32.008  1.00  0.00    -0.200 F 
ATOM     71  F   UNL A   1      35.806  30.914  30.935  1.00  0.00    -0.200 F 
ENDBRANCH  47  61
BRANCH  48  72
ATOM     72  C   UNL A   1      44.675  26.673  34.531  1.00  0.00     0.064 A 
ATOM     73  C   UNL A   1      45.345  27.399  35.576  1.00  0.00     0.173 A 
ATOM     74  C   UNL A   1      43.788  25.700  35.005  1.00  0.00     0.173 A 
ATOM     75  F   UNL A   1      46.224  28.376  35.297  1.00  0.00    -0.203 F 
ATOM     76  C   UNL A   1      45.086  27.164  36.960  1.00  0.00     0.198 A 
ATOM     77  C   UNL A   1      43.508  25.498  36.361  1.00  0.00     0.198 A 
ATOM     78  F   UNL A   1      43.085  24.971  34.135  1.00  0.00    -0.203 F 
ATOM     79  F   UNL A   1      45.711  27.870  37.919  1.00  0.00    -0.200 F 
ATOM     80  C   UNL A   1      44.138  26.233  37.343  1.00  0.00     0.200 A 
ATOM     81  F   UNL A   1      42.561  24.612  36.697  1.00  0.00    -0.200 F 
ATOM     82  F   UNL A   1      43.806  26.062  38.631  1.00  0.00    -0.200 F 
ENDBRANCH  48  72
BRANCH  60  83
ATOM     83  C   UNL A   1      45.156  29.477  29.048  1.00  0.00     0.064 A 
ATOM     84  C   UNL A   1      46.052  28.533  28.508  1.00  0.00     0.173 A 
ATOM     85  C   UNL A   1      45.571  30.810  29.015  1.00  0.00     0.173 A 
ATOM     86  F   UNL A   1      45.660  27.284  28.241  1.00  0.00    -0.203 F 
ATOM     87  C   UNL A   1      47.349  28.889  28.113  1.00  0.00     0.198 A 
ATOM     88  C   UNL A   1      46.832  31.176  28.557  1.00  0.00     0.198 A 
ATOM     89  F   UNL A   1      44.706  31.779  29.347  1.00  0.00    -0.203 F 
ATOM     90  F   UNL A   1      48.197  27.957  27.648  1.00  0.00    -0.200 F 
ATOM     91  C   UNL A   1      47.741  30.212  28.154  1.00  0.00     0.200 A 
ATOM     92  F   UNL A   1      47.148  32.473  28.472  1.00  0.00    -0.200 F 
ATOM     93  F   UNL A   1      48.971  30.570  27.761  1.00  0.00    -0.200 F 
ENDBRANCH  60  83
ENDBRANCH  34  35
ENDBRANCH  26  29
ENDBRANCH  24  25
ENDBRANCH  23  24
ENDBRANCH   1  23
TORSDOF 14
ENDMDL
MODEL 2
REMARK VINA RESULT:     -12.4      1.279      3.497
REMARK SMILES Cc1nsc(NC[C@@H]2C[C@H]3CC[C@@H]2C3)c1C(=O)NCCCCNC(=O)c1ccc(-c2c3nc(c(-c4c(F)c(F)c(F)c(F)c4F)c4ccc([nH]4)c(-c4c(F)c(F)c(F)c(F)c4F)c4nc(c(-c5c(F)c(F)c(F)c(F)c5F)c5ccc2[nH]5)C=C4)C=C3)cc1
REMARK SMILES IDX 20 1 19 2 18 3 16 4 17 5 15 7 1 8 2 9 3 10 4 11 5 12 6 13
REMARK SMILES IDX 7 15 8 16 9 17 13 18 10 19 12 20 14 21 11 22 21 23 22 24
REMARK SMILES IDX 23 25 24 26 25 28 26 29 27 30 88 31 28 32 87 33 29 34 30 35
REMARK SMILES IDX 31 36 81 37 32 38 86 39 80 40 82 41 33 42 85 43 79 44 78 45
REMARK SMILES IDX 34 47 66 48 46 49 65 50 47 51 50 52 64 53 83 54 48 55 49 56
REMARK SMILES IDX 63 58 84 59 51 60 35 61 36 62 44 63 37 64 38 65 42 66 45 67
REMARK SMILES IDX 39 68 40 69 43 70 41 71 67 72 68 73 76 74 69 75 70 76 74 77
REMARK SMILES IDX 77 78 71 79 72 80 75 81 73 82 52 83 53 84 61 85 54 86 55 87
REMARK SMILES IDX 59 88 62 89 56 90 57 91 60 92 58 93
REMARK H PARENT 18 6 6 14 23 27 82 46 50 57
REMARK Flexibility Score: inf
ROOT
ATOM      1  C   UNL A   1      37.589  20.121  25.081  1.00  0.00     0.023 C 
ENDROOT
BRANCH   1   2
ATOM      2  C   UNL A   1      37.901  21.620  25.238  1.00  0.00     0.116 C 
BRANCH   2   3
ATOM      3  N   UNL A   1      37.360  22.336  24.132  1.00  0.00    -0.352 N 
ATOM      4  C   UNL A   1      36.073  22.698  23.863  1.00  0.00     0.256 C 
ATOM      5  O   UNL A   1      35.977  23.348  22.811  1.00  0.00    -0.269 OA
ATOM      6  H   UNL A   1      38.019  22.613  23.455  1.00  0.00     0.163 HD
BRANCH   4   7
ATOM      7  C   UNL A   1      34.900  22.424  24.735  1.00  0.00     0.097 A 
ATOM      8  C   UNL A   1      33.971  19.819  24.625  1.00  0.00     0.069 C 
ATOM      9  C   UNL A   1      34.061  21.244  25.069  1.00  0.00     0.066 A 
ATOM     10  N   UNL A   1      33.131  21.448  26.003  1.00  0.00    -0.195 NA
ATOM     11  S   UNL A   1      33.114  22.997  26.465  1.00  0.00    -0.018 S 
ATOM     12  C   UNL A   1      34.371  23.529  25.437  1.00  0.00     0.122 A 
BRANCH  12  13
ATOM     13  N   UNL A   1      34.780  24.829  25.355  1.00  0.00    -0.375 N 
ATOM     14  H   UNL A   1      35.667  25.050  25.719  1.00  0.00     0.161 HD
BRANCH  13  15
ATOM     15  C   UNL A   1      34.008  25.910  24.773  1.00  0.00     0.117 C 
BRANCH  15  16
ATOM     16  C   UNL A   1      33.476  26.806  25.893  1.00  0.00     0.012 C 
ATOM     17  C   UNL A   1      31.950  27.023  25.798  1.00  0.00     0.009 C 
ATOM     18  C   UNL A   1      34.026  28.254  25.815  1.00  0.00    -0.006 C 
ATOM     19  C   UNL A   1      31.817  28.550  25.868  1.00  0.00    -0.011 C 
ATOM     20  C   UNL A   1      33.805  28.920  27.182  1.00  0.00     0.004 C 
ATOM     21  C   UNL A   1      32.974  28.979  24.969  1.00  0.00     0.007 C 
ATOM     22  C   UNL A   1      32.276  29.043  27.254  1.00  0.00     0.004 C 
ENDBRANCH  15  16
ENDBRANCH  13  15
ENDBRANCH  12  13
ENDBRANCH   4   7
ENDBRANCH   2   3
ENDBRANCH   1   2
BRANCH   1  23
ATOM     23  C   UNL A   1      38.785  19.206  25.323  1.00  0.00     0.023 C 
BRANCH  23  24
ATOM     24  C   UNL A   1      39.864  19.904  26.124  1.00  0.00     0.116 C 
BRANCH  24  25
ATOM     25  N   UNL A   1      41.178  19.277  26.041  1.00  0.00    -0.352 N 
ATOM     26  C   UNL A   1      42.395  19.933  25.809  1.00  0.00     0.251 C 
ATOM     27  H   UNL A   1      41.213  18.300  26.159  1.00  0.00     0.163 HD
ATOM     28  O   UNL A   1      43.346  19.369  25.373  1.00  0.00    -0.269 OA
BRANCH  26  29
ATOM     29  C   UNL A   1      42.471  21.343  26.301  1.00  0.00     0.039 A 
ATOM     30  C   UNL A   1      42.672  22.493  25.535  1.00  0.00     0.014 A 
ATOM     31  C   UNL A   1      42.485  21.496  27.672  1.00  0.00     0.014 A 
ATOM     32  C   UNL A   1      42.974  23.712  26.236  1.00  0.00     0.010 A 
ATOM     33  C   UNL A   1      42.202  22.723  28.177  1.00  0.00     0.010 A 
ATOM     34  C   UNL A   1      42.960  23.747  27.670  1.00  0.00    -0.014 A 
BRANCH  34  35
ATOM     35  C   UNL A   1      42.880  24.926  28.629  1.00  0.00     0.031 A 
ATOM     36  C   UNL A   1      41.462  25.539  28.247  1.00  0.00     0.074 A 
ATOM     37  C   UNL A   1      43.782  25.252  29.690  1.00  0.00     0.049 A 
ATOM     38  N   UNL A   1      41.323  26.497  27.378  1.00  0.00    -0.248 NA
ATOM     39  C   UNL A   1      40.111  24.860  28.384  1.00  0.00     0.031 C 
ATOM     40  C   UNL A   1      45.129  24.713  30.168  1.00  0.00     0.029 A 
ATOM     41  N   UNL A   1      43.723  26.308  30.643  1.00  0.00    -0.354 N 
ATOM     42  C   UNL A   1      39.965  26.833  27.362  1.00  0.00     0.074 A 
ATOM     43  C   UNL A   1      39.269  25.647  27.696  1.00  0.00     0.031 C 
ATOM     44  C   UNL A   1      45.505  25.208  31.401  1.00  0.00     0.029 A 
ATOM     45  C   UNL A   1      44.548  26.203  31.849  1.00  0.00     0.049 A 
ATOM     46  H   UNL A   1      43.141  27.088  30.496  1.00  0.00     0.167 HD
ATOM     47  C   UNL A   1      39.622  28.138  27.553  1.00  0.00     0.037 A 
ATOM     48  C   UNL A   1      44.600  27.042  32.979  1.00  0.00     0.037 A 
ATOM     49  C   UNL A   1      40.817  28.922  27.368  1.00  0.00     0.049 A 
ATOM     50  C   UNL A   1      43.903  28.292  32.573  1.00  0.00     0.074 A 
ATOM     51  C   UNL A   1      41.699  29.093  26.319  1.00  0.00     0.029 A 
ATOM     52  N   UNL A   1      41.526  29.076  28.527  1.00  0.00    -0.354 N 
ATOM     53  N   UNL A   1      44.431  29.081  31.677  1.00  0.00    -0.248 NA
ATOM     54  C   UNL A   1      42.445  28.177  32.597  1.00  0.00     0.031 C 
ATOM     55  C   UNL A   1      42.999  29.050  26.903  1.00  0.00     0.029 A 
ATOM     56  C   UNL A   1      42.865  29.105  28.287  1.00  0.00     0.049 A 
ATOM     57  H   UNL A   1      41.119  29.154  29.420  1.00  0.00     0.167 HD
ATOM     58  C   UNL A   1      43.467  29.116  30.688  1.00  0.00     0.074 A 
ATOM     59  C   UNL A   1      42.251  28.534  31.319  1.00  0.00     0.031 C 
ATOM     60  C   UNL A   1      43.810  29.199  29.362  1.00  0.00     0.037 A 
BRANCH  47  61
ATOM     61  C   UNL A   1      38.485  28.660  28.417  1.00  0.00     0.064 A 
ATOM     62  C   UNL A   1      37.715  29.720  27.894  1.00  0.00     0.173 A 
ATOM     63  C   UNL A   1      38.299  28.406  29.795  1.00  0.00     0.173 A 
ATOM     64  F   UNL A   1      37.828  30.064  26.602  1.00  0.00    -0.203 F 
ATOM     65  C   UNL A   1      36.874  30.500  28.690  1.00  0.00     0.198 A 
ATOM     66  C   UNL A   1      37.409  29.152  30.579  1.00  0.00     0.198 A 
ATOM     67  F   UNL A   1      39.026  27.499  30.459  1.00  0.00    -0.203 F 
ATOM     68  F   UNL A   1      36.257  31.565  28.160  1.00  0.00    -0.200 F 
ATOM     69  C   UNL A   1      36.715  30.212  30.031  1.00  0.00     0.200 A 
ATOM     70  F   UNL A   1      37.280  28.875  31.885  1.00  0.00    -0.200 F 
ATOM     71  F   UNL A   1      35.919  30.969  30.800  1.00  0.00    -0.200 F 
ENDBRANCH  47  61
BRANCH  48  72
ATOM     72  C   UNL A   1      44.720  26.723  34.485  1.00  0.00     0.064 A 
ATOM     73  C   UNL A   1      45.314  27.505  35.535  1.00  0.00     0.173 A 
ATOM     74  C   UNL A   1      43.893  25.696  34.952  1.00  0.00     0.173 A 
ATOM     75  F   UNL A   1      46.128  28.539  35.264  1.00  0.00    -0.203 F 
ATOM     76  C   UNL A   1      45.041  27.268  36.916  1.00  0.00     0.198 A 
ATOM     77  C   UNL A   1      43.598  25.488  36.305  1.00  0.00     0.198 A 
ATOM     78  F   UNL A   1      43.262  24.909  34.076  1.00  0.00    -0.203 F 
ATOM     79  F   UNL A   1      45.594  28.026  37.880  1.00  0.00    -0.200 F 
ATOM     80  C   UNL A   1      44.153  26.277  37.290  1.00  0.00     0.200 A 
ATOM     81  F   UNL A   1      42.708  24.542  36.631  1.00  0.00    -0.200 F 
ATOM     82  F   UNL A   1      43.805  26.096  38.574  1.00  0.00    -0.200 F 
ENDBRANCH  48  72
BRANCH  60  83
ATOM     83  C   UNL A   1      45.249  29.423  28.955  1.00  0.00     0.064 A 
ATOM     84  C   UNL A   1      46.144  28.458  28.452  1.00  0.00     0.173 A 
ATOM     85  C   UNL A   1      45.671  30.752  28.882  1.00  0.00     0.173 A 
ATOM     86  F   UNL A   1      45.747  27.203  28.223  1.00  0.00    -0.203 F 
ATOM     87  C   UNL A   1      47.444  28.794  28.055  1.00  0.00     0.198 A 
ATOM     88  C   UNL A   1      46.937  31.097  28.420  1.00  0.00     0.198 A 
ATOM     89  F   UNL A   1      44.808  31.736  29.176  1.00  0.00    -0.203 F 
ATOM     90  F   UNL A   1      48.291  27.843  27.626  1.00  0.00    -0.200 F 
ATOM     91  C   UNL A   1      47.843  30.116  28.055  1.00  0.00     0.200 A 
ATOM     92  F   UNL A   1      47.260  32.389  28.295  1.00  0.00    -0.200 F 
ATOM     93  F   UNL A   1      49.078  30.455  27.659  1.00  0.00    -0.200 F 
ENDBRANCH  60  83
ENDBRANCH  34  35
ENDBRANCH  26  29
ENDBRANCH  24  25
ENDBRANCH  23  24
ENDBRANCH   1  23
TORSDOF 14
ENDMDL
MODEL 3
REMARK VINA RESULT:     -12.2      2.491      7.122
REMARK SMILES Cc1nsc(NC[C@@H]2C[C@H]3CC[C@@H]2C3)c1C(=O)NCCCCNC(=O)c1ccc(-c2c3nc(c(-c4c(F)c(F)c(F)c(F)c4F)c4ccc([nH]4)c(-c4c(F)c(F)c(F)c(F)c4F)c4nc(c(-c5c(F)c(F)c(F)c(F)c5F)c5ccc2[nH]5)C=C4)C=C3)cc1
REMARK SMILES IDX 20 1 19 2 18 3 16 4 17 5 15 7 1 8 2 9 3 10 4 11 5 12 6 13
REMARK SMILES IDX 7 15 8 16 9 17 13 18 10 19 12 20 14 21 11 22 21 23 22 24
REMARK SMILES IDX 23 25 24 26 25 28 26 29 27 30 88 31 28 32 87 33 29 34 30 35
REMARK SMILES IDX 31 36 81 37 32 38 86 39 80 40 82 41 33 42 85 43 79 44 78 45
REMARK SMILES IDX 34 47 66 48 46 49 65 50 47 51 50 52 64 53 83 54 48 55 49 56
REMARK SMILES IDX 63 58 84 59 51 60 35 61 36 62 44 63 37 64 38 65 42 66 45 67
REMARK SMILES IDX 39 68 40 69 43 70 41 71 67 72 68 73 76 74 69 75 70 76 74 77
REMARK SMILES IDX 77 78 71 79 72 80 75 81 73 82 52 83 53 84 61 85 54 86 55 87
REMARK SMILES IDX 59 88 62 89 56 90 57 91 60 92 58 93
REMARK H PARENT 18 6 6 14 23 27 82 46 50 57
REMARK Flexibility Score: inf
ROOT
ATOM      1  C   UNL A   1      38.496  22.858  26.069  1.00  0.00     0.023 C 
ENDROOT
BRANCH   1   2
ATOM      2  C   UNL A   1      37.289  22.347  25.261  1.00  0.00     0.116 C 
BRANCH   2   3
ATOM      3  N   UNL A   1      36.284  21.880  26.155  1.00  0.00    -0.352 N 
ATOM      4  C   UNL A   1      34.940  22.113  26.167  1.00  0.00     0.256 C 
ATOM      5  O   UNL A   1      34.366  21.511  27.086  1.00  0.00    -0.269 OA
ATOM      6  H   UNL A   1      36.610  21.297  26.878  1.00  0.00     0.163 HD
BRANCH   4   7
ATOM      7  C   UNL A   1      34.199  22.934  25.172  1.00  0.00     0.097 A 
ATOM      8  C   UNL A   1      34.202  25.652  25.696  1.00  0.00     0.069 C 
ATOM      9  C   UNL A   1      33.923  24.379  24.964  1.00  0.00     0.066 A 
ATOM     10  N   UNL A   1      33.257  24.680  23.848  1.00  0.00    -0.195 NA
ATOM     11  S   UNL A   1      32.844  23.337  23.049  1.00  0.00    -0.018 S 
ATOM     12  C   UNL A   1      33.534  22.225  24.148  1.00  0.00     0.122 A 
BRANCH  12  13
ATOM     13  N   UNL A   1      33.447  20.870  24.007  1.00  0.00    -0.375 N 
ATOM     14  H   UNL A   1      34.138  20.425  23.468  1.00  0.00     0.161 HD
BRANCH  13  15
ATOM     15  C   UNL A   1      32.413  20.037  24.591  1.00  0.00     0.117 C 
BRANCH  15  16
ATOM     16  C   UNL A   1      33.048  18.754  25.128  1.00  0.00     0.012 C 
ATOM     17  C   UNL A   1      34.517  18.591  24.679  1.00  0.00     0.009 C 
ATOM     18  C   UNL A   1      32.382  17.473  24.562  1.00  0.00    -0.006 C 
ATOM     19  C   UNL A   1      34.541  17.175  24.090  1.00  0.00    -0.011 C 
ATOM     20  C   UNL A   1      32.770  16.295  25.469  1.00  0.00     0.004 C 
ATOM     21  C   UNL A   1      33.223  17.165  23.318  1.00  0.00     0.007 C 
ATOM     22  C   UNL A   1      34.276  16.149  25.208  1.00  0.00     0.004 C 
ENDBRANCH  15  16
ENDBRANCH  13  15
ENDBRANCH  12  13
ENDBRANCH   4   7
ENDBRANCH   2   3
ENDBRANCH   1   2
BRANCH   1  23
ATOM     23  C   UNL A   1      39.557  21.797  26.344  1.00  0.00     0.023 C 
BRANCH  23  24
ATOM     24  C   UNL A   1      40.428  22.176  27.523  1.00  0.00     0.116 C 
BRANCH  24  25
ATOM     25  N   UNL A   1      41.859  22.154  27.248  1.00  0.00    -0.352 N 
ATOM     26  C   UNL A   1      42.618  23.213  26.729  1.00  0.00     0.251 C 
ATOM     27  H   UNL A   1      42.338  21.317  27.445  1.00  0.00     0.163 HD
ATOM     28  O   UNL A   1      43.653  23.037  26.172  1.00  0.00    -0.269 OA
BRANCH  26  29
ATOM     29  C   UNL A   1      42.128  24.584  27.067  1.00  0.00     0.039 A 
ATOM     30  C   UNL A   1      41.291  25.394  26.297  1.00  0.00     0.014 A 
ATOM     31  C   UNL A   1      42.682  25.153  28.195  1.00  0.00     0.014 A 
ATOM     32  C   UNL A   1      41.160  26.772  26.687  1.00  0.00     0.010 A 
ATOM     33  C   UNL A   1      42.045  26.216  28.749  1.00  0.00     0.010 A 
ATOM     34  C   UNL A   1      41.787  27.250  27.886  1.00  0.00    -0.014 A 
BRANCH  34  35
ATOM     35  C   UNL A   1      41.527  28.506  28.704  1.00  0.00     0.031 A 
ATOM     36  C   UNL A   1      42.716  29.444  28.214  1.00  0.00     0.074 A 
ATOM     37  C   UNL A   1      40.403  28.787  29.544  1.00  0.00     0.049 A 
ATOM     38  N   UNL A   1      43.855  29.517  28.838  1.00  0.00    -0.248 NA
ATOM     39  C   UNL A   1      42.944  29.962  26.805  1.00  0.00     0.031 C 
ATOM     40  C   UNL A   1      39.200  27.989  30.041  1.00  0.00     0.029 A 
ATOM     41  N   UNL A   1      40.091  29.962  30.284  1.00  0.00    -0.354 N 
ATOM     42  C   UNL A   1      44.614  30.492  28.180  1.00  0.00     0.074 A 
ATOM     43  C   UNL A   1      44.187  30.468  26.831  1.00  0.00     0.031 C 
ATOM     44  C   UNL A   1      38.244  28.774  30.654  1.00  0.00     0.029 A 
ATOM     45  C   UNL A   1      38.714  30.143  30.751  1.00  0.00     0.049 A 
ATOM     46  H   UNL A   1      40.782  30.636  30.476  1.00  0.00     0.167 HD
ATOM     47  C   UNL A   1      45.137  31.509  28.919  1.00  0.00     0.037 A 
ATOM     48  C   UNL A   1      38.124  31.242  31.403  1.00  0.00     0.037 A 
ATOM     49  C   UNL A   1      45.059  31.112  30.303  1.00  0.00     0.049 A 
ATOM     50  C   UNL A   1      39.261  32.081  31.869  1.00  0.00     0.074 A 
ATOM     51  C   UNL A   1      45.568  30.051  31.025  1.00  0.00     0.029 A 
ATOM     52  N   UNL A   1      43.875  31.472  30.884  1.00  0.00    -0.354 N 
ATOM     53  N   UNL A   1      40.054  31.652  32.814  1.00  0.00    -0.248 NA
ATOM     54  C   UNL A   1      39.853  32.896  30.809  1.00  0.00     0.031 C 
ATOM     55  C   UNL A   1      44.499  29.610  31.859  1.00  0.00     0.029 A 
ATOM     56  C   UNL A   1      43.475  30.551  31.803  1.00  0.00     0.049 A 
ATOM     57  H   UNL A   1      43.377  32.293  30.666  1.00  0.00     0.167 HD
ATOM     58  C   UNL A   1      41.291  31.647  32.201  1.00  0.00     0.074 A 
ATOM     59  C   UNL A   1      41.103  32.433  30.951  1.00  0.00     0.031 C 
ATOM     60  C   UNL A   1      42.229  30.689  32.499  1.00  0.00     0.037 A 
BRANCH  47  61
ATOM     61  C   UNL A   1      45.168  32.982  28.542  1.00  0.00     0.064 A 
ATOM     62  C   UNL A   1      43.933  33.597  28.249  1.00  0.00     0.173 A 
ATOM     63  C   UNL A   1      46.312  33.724  28.168  1.00  0.00     0.173 A 
ATOM     64  F   UNL A   1      42.781  32.973  28.540  1.00  0.00    -0.203 F 
ATOM     65  C   UNL A   1      43.843  34.822  27.585  1.00  0.00     0.198 A 
ATOM     66  C   UNL A   1      46.219  34.980  27.556  1.00  0.00     0.198 A 
ATOM     67  F   UNL A   1      47.552  33.235  28.290  1.00  0.00    -0.203 F 
ATOM     68  F   UNL A   1      42.642  35.300  27.232  1.00  0.00    -0.200 F 
ATOM     69  C   UNL A   1      44.987  35.518  27.244  1.00  0.00     0.200 A 
ATOM     70  F   UNL A   1      47.337  35.637  27.211  1.00  0.00    -0.200 F 
ATOM     71  F   UNL A   1      44.902  36.687  26.594  1.00  0.00    -0.200 F 
ENDBRANCH  47  61
BRANCH  48  72
ATOM     72  C   UNL A   1      36.739  31.907  31.238  1.00  0.00     0.064 A 
ATOM     73  C   UNL A   1      35.835  32.386  32.248  1.00  0.00     0.173 A 
ATOM     74  C   UNL A   1      36.447  32.382  29.955  1.00  0.00     0.173 A 
ATOM     75  F   UNL A   1      35.976  32.036  33.537  1.00  0.00    -0.203 F 
ATOM     76  C   UNL A   1      34.771  33.292  31.957  1.00  0.00     0.198 A 
ATOM     77  C   UNL A   1      35.427  33.299  29.678  1.00  0.00     0.198 A 
ATOM     78  F   UNL A   1      37.227  32.029  28.929  1.00  0.00    -0.203 F 
ATOM     79  F   UNL A   1      33.949  33.741  32.922  1.00  0.00    -0.200 F 
ATOM     80  C   UNL A   1      34.595  33.770  30.672  1.00  0.00     0.200 A 
ATOM     81  F   UNL A   1      35.305  33.768  28.429  1.00  0.00    -0.200 F 
ATOM     82  F   UNL A   1      33.665  34.696  30.390  1.00  0.00    -0.200 F 
ENDBRANCH  48  72
BRANCH  60  83
ATOM     83  C   UNL A   1      41.995  29.714  33.629  1.00  0.00     0.064 A 
ATOM     84  C   UNL A   1      41.630  28.358  33.512  1.00  0.00     0.173 A 
ATOM     85  C   UNL A   1      42.373  30.143  34.904  1.00  0.00     0.173 A 
ATOM     86  F   UNL A   1      41.513  27.776  32.315  1.00  0.00    -0.203 F 
ATOM     87  C   UNL A   1      41.493  27.531  34.635  1.00  0.00     0.198 A 
ATOM     88  C   UNL A   1      42.306  29.303  36.011  1.00  0.00     0.198 A 
ATOM     89  F   UNL A   1      42.899  31.366  35.060  1.00  0.00    -0.203 F 
ATOM     90  F   UNL A   1      41.095  26.256  34.495  1.00  0.00    -0.200 F 
ATOM     91  C   UNL A   1      41.819  28.013  35.888  1.00  0.00     0.200 A 
ATOM     92  F   UNL A   1      42.756  29.740  37.193  1.00  0.00    -0.200 F 
ATOM     93  F   UNL A   1      41.712  27.228  36.968  1.00  0.00    -0.200 F 
ENDBRANCH  60  83
ENDBRANCH  34  35
ENDBRANCH  26  29
ENDBRANCH  24  25
ENDBRANCH  23  24
ENDBRANCH   1  23
TORSDOF 14
ENDMDL
