MODEL 1
REMARK VINA RESULT:     -13.7      0.000      0.000
REMARK SMILES CC(C)[C@H](NC(=O)c1cc2cc(Cl)ccc2n1C)C(=O)N[C@@H](C(=O)NCCCCNC(=O)c1ccc(-c2c3nc(c(-c4c(F)c(F)c(F)c(F)c4F)c4ccc([nH]4)c(-c4c(F)c(F)c(F)c(F)c4F)c4nc(c(-c5c(F)c(F)c(F)c(F)c5F)c5ccc2[nH]5)C=C4)C=C3)cc1)c1ccccc1
REMARK SMILES IDX 26 1 25 2 23 3 24 4 22 6 21 7 19 8 20 9 4 11 2 12 1 13 3 14
REMARK SMILES IDX 5 15 6 16 7 18 8 19 9 20 17 21 10 22 16 23 18 24 11 25 15 26
REMARK SMILES IDX 12 27 14 28 13 29 96 30 97 31 101 32 98 33 100 34 99 35
REMARK SMILES IDX 27 36 28 37 29 38 30 39 31 40 32 42 33 43 34 44 95 45 35 46
REMARK SMILES IDX 94 47 36 48 37 49 38 50 88 51 39 52 93 53 87 54 89 55 40 56
REMARK SMILES IDX 92 57 86 58 85 59 41 61 73 62 53 63 72 64 54 65 57 66 71 67
REMARK SMILES IDX 90 68 55 69 56 70 70 72 91 73 58 74 42 75 43 76 51 77 44 78
REMARK SMILES IDX 45 79 49 80 52 81 46 82 47 83 50 84 48 85 74 86 75 87 83 88
REMARK SMILES IDX 76 89 77 90 81 91 84 92 78 93 79 94 82 95 80 96 59 97 60 98
REMARK SMILES IDX 68 99 61 100 62 101 66 102 69 103 63 104 64 105 67 106
REMARK SMILES IDX 65 107
REMARK H PARENT 25 5 21 10 5 17 30 41 89 60 57 71
REMARK Flexibility Score: inf
ROOT
ATOM      1  C   UNL A   1      33.199  29.010  25.657  1.00  0.00     0.116 C 
ENDROOT
BRANCH   1   2
ATOM      2  N   UNL A   1      33.171  28.900  24.216  1.00  0.00    -0.354 N 
ATOM      3  C   UNL A   1      32.119  28.596  23.392  1.00  0.00     0.247 C 
ATOM      4  O   UNL A   1      32.325  28.717  22.181  1.00  0.00    -0.272 OA
ATOM      5  H   UNL A   1      34.029  29.070  23.761  1.00  0.00     0.163 HD
BRANCH   3   6
ATOM      6  C   UNL A   1      30.727  28.189  23.993  1.00  0.00     0.202 C 
BRANCH   6   7
ATOM      7  N   UNL A   1      30.368  26.842  23.537  1.00  0.00    -0.339 N 
ATOM      8  C   UNL A   1      30.920  25.621  23.747  1.00  0.00     0.243 C 
ATOM      9  O   UNL A   1      30.365  24.666  23.191  1.00  0.00    -0.273 OA
ATOM     10  H   UNL A   1      29.567  26.821  22.965  1.00  0.00     0.164 HD
BRANCH   8  11
ATOM     11  C   UNL A   1      32.218  25.378  24.565  1.00  0.00     0.174 C 
BRANCH  11  12
ATOM     12  C   UNL A   1      33.377  24.707  23.800  1.00  0.00     0.015 C 
ATOM     13  C   UNL A   1      33.681  25.385  22.452  1.00  0.00     0.010 C 
ATOM     14  C   UNL A   1      34.682  24.787  24.610  1.00  0.00     0.010 C 
ENDBRANCH  11  12
BRANCH  11  15
ATOM     15  N   UNL A   1      31.796  24.900  25.901  1.00  0.00    -0.339 N 
ATOM     16  C   UNL A   1      31.532  23.710  26.512  1.00  0.00     0.268 C 
ATOM     17  H   UNL A   1      31.671  25.653  26.523  1.00  0.00     0.164 HD
ATOM     18  O   UNL A   1      30.866  23.746  27.549  1.00  0.00    -0.268 OA
BRANCH  16  19
ATOM     19  C   UNL A   1      32.076  22.490  25.995  1.00  0.00     0.107 A 
ATOM     20  C   UNL A   1      31.464  21.516  25.229  1.00  0.00     0.042 A 
ATOM     21  N   UNL A   1      33.301  21.968  26.364  1.00  0.00    -0.340 N 
ATOM     22  C   UNL A   1      32.434  20.530  24.904  1.00  0.00     0.002 A 
ATOM     23  C   UNL A   1      33.599  20.855  25.604  1.00  0.00     0.048 A 
ATOM     24  C   UNL A   1      34.122  22.512  27.426  1.00  0.00     0.150 C 
ATOM     25  C   UNL A   1      32.428  19.390  24.076  1.00  0.00     0.030 A 
ATOM     26  C   UNL A   1      34.771  20.091  25.486  1.00  0.00     0.028 A 
ATOM     27  C   UNL A   1      33.597  18.637  23.944  1.00  0.00     0.041 A 
ATOM     28  C   UNL A   1      34.755  18.982  24.633  1.00  0.00     0.023 A 
ATOM     29  Cl  UNL A   1      33.608  17.261  22.906  1.00  0.00    -0.084 Cl
ENDBRANCH  16  19
ENDBRANCH  11  15
ENDBRANCH   8  11
ENDBRANCH   6   7
BRANCH   6  30
ATOM     30  C   UNL A   1      29.640  29.187  23.606  1.00  0.00    -0.016 A 
ATOM     31  C   UNL A   1      29.776  30.548  23.919  1.00  0.00     0.006 A 
ATOM     32  C   UNL A   1      28.490  28.780  22.908  1.00  0.00     0.006 A 
ATOM     33  C   UNL A   1      28.786  31.470  23.573  1.00  0.00     0.000 A 
ATOM     34  C   UNL A   1      27.501  29.704  22.556  1.00  0.00     0.000 A 
ATOM     35  C   UNL A   1      27.648  31.047  22.893  1.00  0.00     0.000 A 
ENDBRANCH   6  30
ENDBRANCH   3   6
ENDBRANCH   1   2
BRANCH   1  36
ATOM     36  C   UNL A   1      32.715  30.370  26.144  1.00  0.00     0.023 C 
BRANCH  36  37
ATOM     37  C   UNL A   1      33.156  30.727  27.570  1.00  0.00     0.023 C 
BRANCH  37  38
ATOM     38  C   UNL A   1      34.350  31.688  27.669  1.00  0.00     0.116 C 
BRANCH  38  39
ATOM     39  N   UNL A   1      34.482  32.300  28.981  1.00  0.00    -0.352 N 
ATOM     40  C   UNL A   1      35.386  32.184  30.006  1.00  0.00     0.251 C 
ATOM     41  H   UNL A   1      33.762  32.942  29.178  1.00  0.00     0.163 HD
ATOM     42  O   UNL A   1      35.248  32.954  30.959  1.00  0.00    -0.269 OA
BRANCH  40  43
ATOM     43  C   UNL A   1      36.515  31.211  30.038  1.00  0.00     0.039 A 
ATOM     44  C   UNL A   1      36.370  29.844  30.252  1.00  0.00     0.014 A 
ATOM     45  C   UNL A   1      37.819  31.731  29.930  1.00  0.00     0.014 A 
ATOM     46  C   UNL A   1      37.490  29.014  30.335  1.00  0.00     0.010 A 
ATOM     47  C   UNL A   1      38.948  30.902  30.022  1.00  0.00     0.010 A 
ATOM     48  C   UNL A   1      38.789  29.534  30.234  1.00  0.00    -0.014 A 
BRANCH  48  49
ATOM     49  C   UNL A   1      39.896  28.579  30.371  1.00  0.00     0.031 A 
ATOM     50  C   UNL A   1      40.579  28.470  31.691  1.00  0.00     0.074 A 
ATOM     51  C   UNL A   1      40.355  27.735  29.426  1.00  0.00     0.049 A 
ATOM     52  N   UNL A   1      41.802  28.789  31.986  1.00  0.00    -0.248 NA
ATOM     53  C   UNL A   1      39.823  27.866  32.796  1.00  0.00     0.031 C 
ATOM     54  C   UNL A   1      39.714  27.333  28.180  1.00  0.00     0.029 A 
ATOM     55  N   UNL A   1      41.525  27.011  29.443  1.00  0.00    -0.354 N 
ATOM     56  C   UNL A   1      42.012  28.338  33.281  1.00  0.00     0.074 A 
ATOM     57  C   UNL A   1      40.755  27.796  33.749  1.00  0.00     0.031 C 
ATOM     58  C   UNL A   1      40.425  26.325  27.627  1.00  0.00     0.029 A 
ATOM     59  C   UNL A   1      41.643  26.114  28.400  1.00  0.00     0.049 A 
ATOM     60  H   UNL A   1      42.216  27.124  30.135  1.00  0.00     0.167 HD
ATOM     61  C   UNL A   1      43.231  28.304  33.878  1.00  0.00     0.037 A 
ATOM     62  C   UNL A   1      42.657  25.254  28.151  1.00  0.00     0.037 A 
ATOM     63  C   UNL A   1      44.287  28.928  33.141  1.00  0.00     0.049 A 
ATOM     64  C   UNL A   1      43.894  25.694  28.841  1.00  0.00     0.074 A 
ATOM     65  C   UNL A   1      44.741  30.213  32.930  1.00  0.00     0.029 A 
ATOM     66  N   UNL A   1      44.978  28.101  32.291  1.00  0.00    -0.354 N 
ATOM     67  N   UNL A   1      44.606  26.733  28.502  1.00  0.00    -0.248 NA
ATOM     68  C   UNL A   1      44.346  25.002  30.045  1.00  0.00     0.031 C 
ATOM     69  C   UNL A   1      45.557  30.156  31.761  1.00  0.00     0.029 A 
ATOM     70  C   UNL A   1      45.518  28.852  31.274  1.00  0.00     0.049 A 
ATOM     71  H   UNL A   1      45.071  27.126  32.394  1.00  0.00     0.167 HD
ATOM     72  C   UNL A   1      45.357  27.025  29.623  1.00  0.00     0.074 A 
ATOM     73  C   UNL A   1      45.310  25.833  30.449  1.00  0.00     0.031 C 
ATOM     74  C   UNL A   1      45.642  28.318  29.935  1.00  0.00     0.037 A 
BRANCH  61  75
ATOM     75  C   UNL A   1      43.552  27.422  35.037  1.00  0.00     0.064 A 
ATOM     76  C   UNL A   1      43.902  27.970  36.276  1.00  0.00     0.173 A 
ATOM     77  C   UNL A   1      43.758  26.038  34.873  1.00  0.00     0.173 A 
ATOM     78  F   UNL A   1      43.790  29.291  36.489  1.00  0.00    -0.203 F 
ATOM     79  C   UNL A   1      44.408  27.169  37.305  1.00  0.00     0.198 A 
ATOM     80  C   UNL A   1      44.241  25.238  35.910  1.00  0.00     0.198 A 
ATOM     81  F   UNL A   1      43.558  25.458  33.681  1.00  0.00    -0.203 F 
ATOM     82  F   UNL A   1      44.767  27.729  38.466  1.00  0.00    -0.200 F 
ATOM     83  C   UNL A   1      44.573  25.804  37.125  1.00  0.00     0.200 A 
ATOM     84  F   UNL A   1      44.419  23.923  35.715  1.00  0.00    -0.200 F 
ATOM     85  F   UNL A   1      45.075  25.041  38.108  1.00  0.00    -0.200 F 
ENDBRANCH  61  75
BRANCH  62  86
ATOM     86  C   UNL A   1      42.640  24.024  27.326  1.00  0.00     0.064 A 
ATOM     87  C   UNL A   1      43.088  24.022  25.996  1.00  0.00     0.173 A 
ATOM     88  C   UNL A   1      42.367  22.766  27.898  1.00  0.00     0.173 A 
ATOM     89  F   UNL A   1      43.433  25.167  25.390  1.00  0.00    -0.203 F 
ATOM     90  C   UNL A   1      43.238  22.832  25.276  1.00  0.00     0.198 A 
ATOM     91  C   UNL A   1      42.499  21.581  27.172  1.00  0.00     0.198 A 
ATOM     92  F   UNL A   1      42.036  22.661  29.194  1.00  0.00    -0.203 F 
ATOM     93  F   UNL A   1      43.715  22.867  24.025  1.00  0.00    -0.200 F 
ATOM     94  C   UNL A   1      42.940  21.613  25.863  1.00  0.00     0.200 A 
ATOM     95  F   UNL A   1      42.246  20.406  27.764  1.00  0.00    -0.200 F 
ATOM     96  F   UNL A   1      43.118  20.471  25.184  1.00  0.00    -0.200 F 
ENDBRANCH  62  86
BRANCH  74  97
ATOM     97  C   UNL A   1      45.730  29.276  28.789  1.00  0.00     0.064 A 
ATOM     98  C   UNL A   1      44.608  29.901  28.222  1.00  0.00     0.173 A 
ATOM     99  C   UNL A   1      46.990  29.615  28.281  1.00  0.00     0.173 A 
ATOM    100  F   UNL A   1      43.380  29.663  28.704  1.00  0.00    -0.203 F 
ATOM    101  C   UNL A   1      44.747  30.803  27.166  1.00  0.00     0.198 A 
ATOM    102  C   UNL A   1      47.126  30.534  27.240  1.00  0.00     0.198 A 
ATOM    103  F   UNL A   1      48.098  29.075  28.813  1.00  0.00    -0.203 F 
ATOM    104  F   UNL A   1      43.665  31.387  26.632  1.00  0.00    -0.200 F 
ATOM    105  C   UNL A   1      46.005  31.122  26.677  1.00  0.00     0.200 A 
ATOM    106  F   UNL A   1      48.345  30.868  26.797  1.00  0.00    -0.200 F 
ATOM    107  F   UNL A   1      46.138  32.013  25.683  1.00  0.00    -0.200 F 
ENDBRANCH  74  97
ENDBRANCH  48  49
ENDBRANCH  40  43
ENDBRANCH  38  39
ENDBRANCH  37  38
ENDBRANCH  36  37
ENDBRANCH   1  36
TORSDOF 17
ENDMDL
MODEL 2
REMARK VINA RESULT:     -13.6      1.143      1.700
REMARK SMILES CC(C)[C@H](NC(=O)c1cc2cc(Cl)ccc2n1C)C(=O)N[C@@H](C(=O)NCCCCNC(=O)c1ccc(-c2c3nc(c(-c4c(F)c(F)c(F)c(F)c4F)c4ccc([nH]4)c(-c4c(F)c(F)c(F)c(F)c4F)c4nc(c(-c5c(F)c(F)c(F)c(F)c5F)c5ccc2[nH]5)C=C4)C=C3)cc1)c1ccccc1
REMARK SMILES IDX 26 1 25 2 23 3 24 4 22 6 21 7 19 8 20 9 4 11 2 12 1 13 3 14
REMARK SMILES IDX 5 15 6 16 7 18 8 19 9 20 17 21 10 22 16 23 18 24 11 25 15 26
REMARK SMILES IDX 12 27 14 28 13 29 96 30 97 31 101 32 98 33 100 34 99 35
REMARK SMILES IDX 27 36 28 37 29 38 30 39 31 40 32 42 33 43 34 44 95 45 35 46
REMARK SMILES IDX 94 47 36 48 37 49 38 50 88 51 39 52 93 53 87 54 89 55 40 56
REMARK SMILES IDX 92 57 86 58 85 59 41 61 73 62 53 63 72 64 54 65 57 66 71 67
REMARK SMILES IDX 90 68 55 69 56 70 70 72 91 73 58 74 42 75 43 76 51 77 44 78
REMARK SMILES IDX 45 79 49 80 52 81 46 82 47 83 50 84 48 85 74 86 75 87 83 88
REMARK SMILES IDX 76 89 77 90 81 91 84 92 78 93 79 94 82 95 80 96 59 97 60 98
REMARK SMILES IDX 68 99 61 100 62 101 66 102 69 103 63 104 64 105 67 106
REMARK SMILES IDX 65 107
REMARK H PARENT 25 5 21 10 5 17 30 41 89 60 57 71
REMARK Flexibility Score: inf
ROOT
ATOM      1  C   UNL A   1      33.298  29.326  25.291  1.00  0.00     0.116 C 
ENDROOT
BRANCH   1   2
ATOM      2  N   UNL A   1      33.936  29.145  24.007  1.00  0.00    -0.354 N 
ATOM      3  C   UNL A   1      33.792  28.122  23.107  1.00  0.00     0.247 C 
ATOM      4  O   UNL A   1      34.337  28.282  22.011  1.00  0.00    -0.272 OA
ATOM      5  H   UNL A   1      34.561  29.858  23.740  1.00  0.00     0.163 HD
BRANCH   3   6
ATOM      6  C   UNL A   1      32.918  26.866  23.460  1.00  0.00     0.202 C 
BRANCH   6   7
ATOM      7  N   UNL A   1      33.252  25.763  22.553  1.00  0.00    -0.339 N 
ATOM      8  C   UNL A   1      33.691  24.497  22.764  1.00  0.00     0.243 C 
ATOM      9  O   UNL A   1      33.895  23.812  21.756  1.00  0.00    -0.273 OA
ATOM     10  H   UNL A   1      33.134  25.986  21.601  1.00  0.00     0.164 HD
BRANCH   8  11
ATOM     11  C   UNL A   1      34.012  23.906  24.165  1.00  0.00     0.174 C 
BRANCH  11  12
ATOM     12  C   UNL A   1      35.131  22.845  24.205  1.00  0.00     0.015 C 
ATOM     13  C   UNL A   1      36.385  23.263  23.417  1.00  0.00     0.010 C 
ATOM     14  C   UNL A   1      35.605  22.609  25.649  1.00  0.00     0.010 C 
ENDBRANCH  11  12
BRANCH  11  15
ATOM     15  N   UNL A   1      32.714  23.684  24.841  1.00  0.00    -0.339 N 
ATOM     16  C   UNL A   1      31.814  22.672  24.994  1.00  0.00     0.268 C 
ATOM     17  H   UNL A   1      32.417  24.496  25.313  1.00  0.00     0.164 HD
ATOM     18  O   UNL A   1      30.673  22.981  25.345  1.00  0.00    -0.268 OA
BRANCH  16  19
ATOM     19  C   UNL A   1      32.216  21.308  24.822  1.00  0.00     0.107 A 
ATOM     20  C   UNL A   1      32.838  20.461  25.720  1.00  0.00     0.042 A 
ATOM     21  N   UNL A   1      32.229  20.648  23.608  1.00  0.00    -0.340 N 
ATOM     22  C   UNL A   1      32.968  19.184  25.112  1.00  0.00     0.002 A 
ATOM     23  C   UNL A   1      32.543  19.316  23.787  1.00  0.00     0.048 A 
ATOM     24  C   UNL A   1      31.976  21.295  22.337  1.00  0.00     0.150 C 
ATOM     25  C   UNL A   1      33.408  17.926  25.567  1.00  0.00     0.030 A 
ATOM     26  C   UNL A   1      32.518  18.224  22.904  1.00  0.00     0.028 A 
ATOM     27  C   UNL A   1      33.369  16.833  24.697  1.00  0.00     0.041 A 
ATOM     28  C   UNL A   1      32.927  16.976  23.386  1.00  0.00     0.023 A 
ATOM     29  Cl  UNL A   1      33.872  15.283  25.257  1.00  0.00    -0.084 Cl
ENDBRANCH  16  19
ENDBRANCH  11  15
ENDBRANCH   8  11
ENDBRANCH   6   7
BRANCH   6  30
ATOM     30  C   UNL A   1      31.429  27.184  23.381  1.00  0.00    -0.016 A 
ATOM     31  C   UNL A   1      30.967  28.251  22.594  1.00  0.00     0.006 A 
ATOM     32  C   UNL A   1      30.478  26.410  24.069  1.00  0.00     0.006 A 
ATOM     33  C   UNL A   1      29.606  28.554  22.518  1.00  0.00     0.000 A 
ATOM     34  C   UNL A   1      29.115  26.709  23.987  1.00  0.00     0.000 A 
ATOM     35  C   UNL A   1      28.681  27.784  23.216  1.00  0.00     0.000 A 
ENDBRANCH   6  30
ENDBRANCH   3   6
ENDBRANCH   1   2
BRANCH   1  36
ATOM     36  C   UNL A   1      34.089  28.686  26.426  1.00  0.00     0.023 C 
BRANCH  36  37
ATOM     37  C   UNL A   1      34.315  29.601  27.637  1.00  0.00     0.023 C 
BRANCH  37  38
ATOM     38  C   UNL A   1      34.320  31.107  27.333  1.00  0.00     0.116 C 
BRANCH  38  39
ATOM     39  N   UNL A   1      34.354  31.931  28.529  1.00  0.00    -0.352 N 
ATOM     40  C   UNL A   1      35.225  32.057  29.581  1.00  0.00     0.251 C 
ATOM     41  H   UNL A   1      33.578  32.533  28.601  1.00  0.00     0.163 HD
ATOM     42  O   UNL A   1      34.991  32.956  30.392  1.00  0.00    -0.269 OA
BRANCH  40  43
ATOM     43  C   UNL A   1      36.425  31.201  29.799  1.00  0.00     0.039 A 
ATOM     44  C   UNL A   1      37.648  31.382  29.161  1.00  0.00     0.014 A 
ATOM     45  C   UNL A   1      36.277  30.084  30.644  1.00  0.00     0.014 A 
ATOM     46  C   UNL A   1      38.700  30.489  29.373  1.00  0.00     0.010 A 
ATOM     47  C   UNL A   1      37.329  29.180  30.854  1.00  0.00     0.010 A 
ATOM     48  C   UNL A   1      38.550  29.374  30.210  1.00  0.00    -0.014 A 
BRANCH  48  49
ATOM     49  C   UNL A   1      39.708  28.479  30.335  1.00  0.00     0.031 A 
ATOM     50  C   UNL A   1      40.418  28.416  31.642  1.00  0.00     0.074 A 
ATOM     51  C   UNL A   1      40.193  27.653  29.387  1.00  0.00     0.049 A 
ATOM     52  N   UNL A   1      41.628  28.800  31.913  1.00  0.00    -0.248 NA
ATOM     53  C   UNL A   1      39.714  27.783  32.765  1.00  0.00     0.031 C 
ATOM     54  C   UNL A   1      39.553  27.208  28.155  1.00  0.00     0.029 A 
ATOM     55  N   UNL A   1      41.399  26.991  29.388  1.00  0.00    -0.354 N 
ATOM     56  C   UNL A   1      41.884  28.371  33.208  1.00  0.00     0.074 A 
ATOM     57  C   UNL A   1      40.665  27.769  33.702  1.00  0.00     0.031 C 
ATOM     58  C   UNL A   1      40.305  26.233  27.597  1.00  0.00     0.029 A 
ATOM     59  C   UNL A   1      41.546  26.092  28.350  1.00  0.00     0.049 A 
ATOM     60  H   UNL A   1      42.095  27.144  30.067  1.00  0.00     0.167 HD
ATOM     61  C   UNL A   1      43.113  28.406  33.783  1.00  0.00     0.037 A 
ATOM     62  C   UNL A   1      42.599  25.283  28.090  1.00  0.00     0.037 A 
ATOM     63  C   UNL A   1      44.122  29.077  33.024  1.00  0.00     0.049 A 
ATOM     64  C   UNL A   1      43.823  25.793  28.754  1.00  0.00     0.074 A 
ATOM     65  C   UNL A   1      44.505  30.382  32.796  1.00  0.00     0.029 A 
ATOM     66  N   UNL A   1      44.840  28.280  32.168  1.00  0.00    -0.354 N 
ATOM     67  N   UNL A   1      44.474  26.865  28.395  1.00  0.00    -0.248 NA
ATOM     68  C   UNL A   1      44.331  25.135  29.955  1.00  0.00     0.031 C 
ATOM     69  C   UNL A   1      45.302  30.359  31.612  1.00  0.00     0.029 A 
ATOM     70  C   UNL A   1      45.323  29.050  31.136  1.00  0.00     0.049 A 
ATOM     71  H   UNL A   1      44.986  27.312  32.275  1.00  0.00     0.167 HD
ATOM     72  C   UNL A   1      45.228  27.205  29.500  1.00  0.00     0.074 A 
ATOM     73  C   UNL A   1      45.257  26.018  30.336  1.00  0.00     0.031 C 
ATOM     74  C   UNL A   1      45.451  28.513  29.799  1.00  0.00     0.037 A 
BRANCH  61  75
ATOM     75  C   UNL A   1      43.499  27.551  34.943  1.00  0.00     0.064 A 
ATOM     76  C   UNL A   1      43.857  28.127  36.167  1.00  0.00     0.173 A 
ATOM     77  C   UNL A   1      43.758  26.174  34.788  1.00  0.00     0.173 A 
ATOM     78  F   UNL A   1      43.696  29.444  36.369  1.00  0.00    -0.203 F 
ATOM     79  C   UNL A   1      44.422  27.359  37.190  1.00  0.00     0.198 A 
ATOM     80  C   UNL A   1      44.300  25.407  35.821  1.00  0.00     0.198 A 
ATOM     81  F   UNL A   1      43.553  25.573  33.607  1.00  0.00    -0.203 F 
ATOM     82  F   UNL A   1      44.786  27.947  38.336  1.00  0.00    -0.200 F 
ATOM     83  C   UNL A   1      44.639  26.000  37.020  1.00  0.00     0.200 A 
ATOM     84  F   UNL A   1      44.527  24.099  35.635  1.00  0.00    -0.200 F 
ATOM     85  F   UNL A   1      45.197  25.270  37.998  1.00  0.00    -0.200 F 
ENDBRANCH  61  75
BRANCH  62  86
ATOM     86  C   UNL A   1      42.632  24.048  27.274  1.00  0.00     0.064 A 
ATOM     87  C   UNL A   1      43.097  24.051  25.949  1.00  0.00     0.173 A 
ATOM     88  C   UNL A   1      42.390  22.786  27.851  1.00  0.00     0.173 A 
ATOM     89  F   UNL A   1      43.414  25.202  25.339  1.00  0.00    -0.203 F 
ATOM     90  C   UNL A   1      43.295  22.861  25.241  1.00  0.00     0.198 A 
ATOM     91  C   UNL A   1      42.570  21.601  27.136  1.00  0.00     0.198 A 
ATOM     92  F   UNL A   1      42.045  22.680  29.144  1.00  0.00    -0.203 F 
ATOM     93  F   UNL A   1      43.787  22.902  23.997  1.00  0.00    -0.200 F 
ATOM     94  C   UNL A   1      43.027  21.637  25.833  1.00  0.00     0.200 A 
ATOM     95  F   UNL A   1      42.345  20.422  27.734  1.00  0.00    -0.200 F 
ATOM     96  F   UNL A   1      43.249  20.497  25.165  1.00  0.00    -0.200 F 
ENDBRANCH  62  86
BRANCH  74  97
ATOM     97  C   UNL A   1      45.469  29.465  28.644  1.00  0.00     0.064 A 
ATOM     98  C   UNL A   1      44.305  30.006  28.076  1.00  0.00     0.173 A 
ATOM     99  C   UNL A   1      46.702  29.886  28.129  1.00  0.00     0.173 A 
ATOM    100  F   UNL A   1      43.098  29.688  28.564  1.00  0.00    -0.203 F 
ATOM    101  C   UNL A   1      44.378  30.906  27.012  1.00  0.00     0.198 A 
ATOM    102  C   UNL A   1      46.770  30.803  27.080  1.00  0.00     0.198 A 
ATOM    103  F   UNL A   1      47.846  29.428  28.661  1.00  0.00    -0.203 F 
ATOM    104  F   UNL A   1      43.257  31.410  26.477  1.00  0.00    -0.200 F 
ATOM    105  C   UNL A   1      45.610  31.308  26.516  1.00  0.00     0.200 A 
ATOM    106  F   UNL A   1      47.962  31.217  26.629  1.00  0.00    -0.200 F 
ATOM    107  F   UNL A   1      45.678  32.197  25.514  1.00  0.00    -0.200 F 
ENDBRANCH  74  97
ENDBRANCH  48  49
ENDBRANCH  40  43
ENDBRANCH  38  39
ENDBRANCH  37  38
ENDBRANCH  36  37
ENDBRANCH   1  36
TORSDOF 17
ENDMDL
MODEL 3
REMARK VINA RESULT:     -13.5      3.691      9.591
REMARK SMILES CC(C)[C@H](NC(=O)c1cc2cc(Cl)ccc2n1C)C(=O)N[C@@H](C(=O)NCCCCNC(=O)c1ccc(-c2c3nc(c(-c4c(F)c(F)c(F)c(F)c4F)c4ccc([nH]4)c(-c4c(F)c(F)c(F)c(F)c4F)c4nc(c(-c5c(F)c(F)c(F)c(F)c5F)c5ccc2[nH]5)C=C4)C=C3)cc1)c1ccccc1
REMARK SMILES IDX 26 1 25 2 23 3 24 4 22 6 21 7 19 8 20 9 4 11 2 12 1 13 3 14
REMARK SMILES IDX 5 15 6 16 7 18 8 19 9 20 17 21 10 22 16 23 18 24 11 25 15 26
REMARK SMILES IDX 12 27 14 28 13 29 96 30 97 31 101 32 98 33 100 34 99 35
REMARK SMILES IDX 27 36 28 37 29 38 30 39 31 40 32 42 33 43 34 44 95 45 35 46
REMARK SMILES IDX 94 47 36 48 37 49 38 50 88 51 39 52 93 53 87 54 89 55 40 56
REMARK SMILES IDX 92 57 86 58 85 59 41 61 73 62 53 63 72 64 54 65 57 66 71 67
REMARK SMILES IDX 90 68 55 69 56 70 70 72 91 73 58 74 42 75 43 76 51 77 44 78
REMARK SMILES IDX 45 79 49 80 52 81 46 82 47 83 50 84 48 85 74 86 75 87 83 88
REMARK SMILES IDX 76 89 77 90 81 91 84 92 78 93 79 94 82 95 80 96 59 97 60 98
REMARK SMILES IDX 68 99 61 100 62 101 66 102 69 103 63 104 64 105 67 106
REMARK SMILES IDX 65 107
REMARK H PARENT 25 5 21 10 5 17 30 41 89 60 57 71
REMARK Flexibility Score: inf
ROOT
ATOM      1  C   UNL A   1      35.653  21.018  25.063  1.00  0.00     0.116 C 
ENDROOT
BRANCH   1   2
ATOM      2  N   UNL A   1      34.842  21.512  23.973  1.00  0.00    -0.354 N 
ATOM      3  C   UNL A   1      33.480  21.482  23.827  1.00  0.00     0.247 C 
ATOM      4  O   UNL A   1      33.023  22.111  22.868  1.00  0.00    -0.272 OA
ATOM      5  H   UNL A   1      35.338  21.931  23.233  1.00  0.00     0.163 HD
BRANCH   3   6
ATOM      6  C   UNL A   1      32.580  20.739  24.878  1.00  0.00     0.202 C 
BRANCH   6   7
ATOM      7  N   UNL A   1      32.929  21.188  26.229  1.00  0.00    -0.339 N 
ATOM      8  C   UNL A   1      32.771  22.369  26.877  1.00  0.00     0.243 C 
ATOM      9  O   UNL A   1      33.198  22.421  28.035  1.00  0.00    -0.273 OA
ATOM     10  H   UNL A   1      33.363  20.493  26.775  1.00  0.00     0.164 HD
BRANCH   8  11
ATOM     11  C   UNL A   1      32.166  23.646  26.230  1.00  0.00     0.174 C 
BRANCH  11  12
ATOM     12  C   UNL A   1      30.636  23.633  26.027  1.00  0.00     0.015 C 
ATOM     13  C   UNL A   1      29.918  22.619  26.933  1.00  0.00     0.010 C 
ATOM     14  C   UNL A   1      30.031  25.004  26.375  1.00  0.00     0.010 C 
ENDBRANCH  11  12
BRANCH  11  15
ATOM     15  N   UNL A   1      33.085  24.049  25.142  1.00  0.00    -0.339 N 
ATOM     16  C   UNL A   1      33.420  25.188  24.473  1.00  0.00     0.268 C 
ATOM     17  H   UNL A   1      33.599  23.278  24.809  1.00  0.00     0.164 HD
ATOM     18  O   UNL A   1      33.986  25.056  23.385  1.00  0.00    -0.268 OA
BRANCH  16  19
ATOM     19  C   UNL A   1      33.185  26.474  25.059  1.00  0.00     0.107 A 
ATOM     20  C   UNL A   1      33.782  27.053  26.163  1.00  0.00     0.042 A 
ATOM     21  N   UNL A   1      32.131  27.301  24.720  1.00  0.00    -0.340 N 
ATOM     22  C   UNL A   1      33.265  28.368  26.310  1.00  0.00     0.002 A 
ATOM     23  C   UNL A   1      32.247  28.517  25.365  1.00  0.00     0.048 A 
ATOM     24  C   UNL A   1      31.052  26.912  23.836  1.00  0.00     0.150 C 
ATOM     25  C   UNL A   1      33.571  29.447  27.162  1.00  0.00     0.030 A 
ATOM     26  C   UNL A   1      31.537  29.720  25.223  1.00  0.00     0.028 A 
ATOM     27  C   UNL A   1      32.878  30.652  27.014  1.00  0.00     0.041 A 
ATOM     28  C   UNL A   1      31.879  30.791  26.056  1.00  0.00     0.023 A 
ATOM     29  Cl  UNL A   1      33.271  31.988  28.028  1.00  0.00    -0.084 Cl
ENDBRANCH  16  19
ENDBRANCH  11  15
ENDBRANCH   8  11
ENDBRANCH   6   7
BRANCH   6  30
ATOM     30  C   UNL A   1      32.730  19.225  24.767  1.00  0.00    -0.016 A 
ATOM     31  C   UNL A   1      32.830  18.607  23.510  1.00  0.00     0.006 A 
ATOM     32  C   UNL A   1      32.797  18.411  25.911  1.00  0.00     0.006 A 
ATOM     33  C   UNL A   1      32.963  17.222  23.397  1.00  0.00     0.000 A 
ATOM     34  C   UNL A   1      32.937  17.025  25.798  1.00  0.00     0.000 A 
ATOM     35  C   UNL A   1      33.015  16.431  24.542  1.00  0.00     0.000 A 
ENDBRANCH   6  30
ENDBRANCH   3   6
ENDBRANCH   1   2
BRANCH   1  36
ATOM     36  C   UNL A   1      36.656  22.054  25.556  1.00  0.00     0.023 C 
BRANCH  36  37
ATOM     37  C   UNL A   1      38.123  21.695  25.286  1.00  0.00     0.023 C 
BRANCH  37  38
ATOM     38  C   UNL A   1      39.087  21.938  26.457  1.00  0.00     0.116 C 
BRANCH  38  39
ATOM     39  N   UNL A   1      40.482  21.969  26.051  1.00  0.00    -0.352 N 
ATOM     40  C   UNL A   1      41.482  22.904  26.130  1.00  0.00     0.251 C 
ATOM     41  H   UNL A   1      40.774  21.131  25.624  1.00  0.00     0.163 HD
ATOM     42  O   UNL A   1      42.607  22.546  25.773  1.00  0.00    -0.269 OA
BRANCH  40  43
ATOM     43  C   UNL A   1      41.306  24.299  26.624  1.00  0.00     0.039 A 
ATOM     44  C   UNL A   1      40.835  25.354  25.849  1.00  0.00     0.014 A 
ATOM     45  C   UNL A   1      41.728  24.577  27.938  1.00  0.00     0.014 A 
ATOM     46  C   UNL A   1      40.766  26.647  26.374  1.00  0.00     0.010 A 
ATOM     47  C   UNL A   1      41.668  25.876  28.467  1.00  0.00     0.010 A 
ATOM     48  C   UNL A   1      41.192  26.924  27.681  1.00  0.00    -0.014 A 
BRANCH  48  49
ATOM     49  C   UNL A   1      41.111  28.323  28.121  1.00  0.00     0.031 A 
ATOM     50  C   UNL A   1      42.276  29.215  27.868  1.00  0.00     0.074 A 
ATOM     51  C   UNL A   1      40.057  28.922  28.709  1.00  0.00     0.049 A 
ATOM     52  N   UNL A   1      43.064  29.766  28.740  1.00  0.00    -0.248 NA
ATOM     53  C   UNL A   1      42.550  29.592  26.475  1.00  0.00     0.031 C 
ATOM     54  C   UNL A   1      38.674  28.463  28.779  1.00  0.00     0.029 A 
ATOM     55  N   UNL A   1      40.030  30.143  29.342  1.00  0.00    -0.354 N 
ATOM     56  C   UNL A   1      43.872  30.640  28.026  1.00  0.00     0.074 A 
ATOM     57  C   UNL A   1      43.535  30.480  26.629  1.00  0.00     0.031 C 
ATOM     58  C   UNL A   1      37.908  29.457  29.284  1.00  0.00     0.029 A 
ATOM     59  C   UNL A   1      38.765  30.558  29.707  1.00  0.00     0.049 A 
ATOM     60  H   UNL A   1      40.841  30.673  29.519  1.00  0.00     0.167 HD
ATOM     61  C   UNL A   1      44.692  31.552  28.608  1.00  0.00     0.037 A 
ATOM     62  C   UNL A   1      38.410  31.709  30.323  1.00  0.00     0.037 A 
ATOM     63  C   UNL A   1      44.806  31.449  30.030  1.00  0.00     0.049 A 
ATOM     64  C   UNL A   1      39.573  32.302  31.027  1.00  0.00     0.074 A 
ATOM     65  C   UNL A   1      45.505  30.669  30.927  1.00  0.00     0.029 A 
ATOM     66  N   UNL A   1      43.907  32.199  30.746  1.00  0.00    -0.354 N 
ATOM     67  N   UNL A   1      40.117  31.815  32.108  1.00  0.00    -0.248 NA
ATOM     68  C   UNL A   1      40.252  33.468  30.466  1.00  0.00     0.031 C 
ATOM     69  C   UNL A   1      44.830  30.806  32.178  1.00  0.00     0.029 A 
ATOM     70  C   UNL A   1      43.715  31.616  31.977  1.00  0.00     0.049 A 
ATOM     71  H   UNL A   1      43.470  33.022  30.430  1.00  0.00     0.167 HD
ATOM     72  C   UNL A   1      41.375  32.380  32.154  1.00  0.00     0.074 A 
ATOM     73  C   UNL A   1      41.329  33.518  31.254  1.00  0.00     0.031 C 
ATOM     74  C   UNL A   1      42.428  31.664  32.635  1.00  0.00     0.037 A 
BRANCH  61  75
ATOM     75  C   UNL A   1      45.189  32.771  27.907  1.00  0.00     0.064 A 
ATOM     76  C   UNL A   1      44.334  33.851  27.659  1.00  0.00     0.173 A 
ATOM     77  C   UNL A   1      46.439  32.788  27.257  1.00  0.00     0.173 A 
ATOM     78  F   UNL A   1      43.103  33.877  28.195  1.00  0.00    -0.203 F 
ATOM     79  C   UNL A   1      44.721  34.903  26.823  1.00  0.00     0.198 A 
ATOM     80  C   UNL A   1      46.831  33.852  26.443  1.00  0.00     0.198 A 
ATOM     81  F   UNL A   1      47.267  31.737  27.350  1.00  0.00    -0.203 F 
ATOM     82  F   UNL A   1      43.866  35.903  26.577  1.00  0.00    -0.200 F 
ATOM     83  C   UNL A   1      45.970  34.907  26.220  1.00  0.00     0.200 A 
ATOM     84  F   UNL A   1      48.031  33.832  25.846  1.00  0.00    -0.200 F 
ATOM     85  F   UNL A   1      46.331  35.911  25.405  1.00  0.00    -0.200 F 
ENDBRANCH  61  75
BRANCH  62  86
ATOM     86  C   UNL A   1      37.084  32.367  30.352  1.00  0.00     0.064 A 
ATOM     87  C   UNL A   1      36.195  32.189  31.425  1.00  0.00     0.173 A 
ATOM     88  C   UNL A   1      36.739  33.355  29.409  1.00  0.00     0.173 A 
ATOM     89  F   UNL A   1      36.473  31.316  32.403  1.00  0.00    -0.203 F 
ATOM     90  C   UNL A   1      35.025  32.946  31.537  1.00  0.00     0.198 A 
ATOM     91  C   UNL A   1      35.560  34.095  29.514  1.00  0.00     0.198 A 
ATOM     92  F   UNL A   1      37.578  33.669  28.410  1.00  0.00    -0.203 F 
ATOM     93  F   UNL A   1      34.227  32.782  32.601  1.00  0.00    -0.200 F 
ATOM     94  C   UNL A   1      34.705  33.895  30.580  1.00  0.00     0.200 A 
ATOM     95  F   UNL A   1      35.284  35.038  28.602  1.00  0.00    -0.200 F 
ATOM     96  F   UNL A   1      33.600  34.643  30.708  1.00  0.00    -0.200 F 
ENDBRANCH  62  86
BRANCH  74  97
ATOM     97  C   UNL A   1      42.111  30.625  33.663  1.00  0.00     0.064 A 
ATOM     98  C   UNL A   1      41.685  29.327  33.340  1.00  0.00     0.173 A 
ATOM     99  C   UNL A   1      42.293  30.931  35.018  1.00  0.00     0.173 A 
ATOM    100  F   UNL A   1      41.549  28.955  32.059  1.00  0.00    -0.203 F 
ATOM    101  C   UNL A   1      41.422  28.388  34.338  1.00  0.00     0.198 A 
ATOM    102  C   UNL A   1      42.050  29.983  36.012  1.00  0.00     0.198 A 
ATOM    103  F   UNL A   1      42.735  32.146  35.380  1.00  0.00    -0.203 F 
ATOM    104  F   UNL A   1      41.011  27.155  34.012  1.00  0.00    -0.200 F 
ATOM    105  C   UNL A   1      41.607  28.714  35.673  1.00  0.00     0.200 A 
ATOM    106  F   UNL A   1      42.267  30.290  37.298  1.00  0.00    -0.200 F 
ATOM    107  F   UNL A   1      41.384  27.800  36.630  1.00  0.00    -0.200 F 
ENDBRANCH  74  97
ENDBRANCH  48  49
ENDBRANCH  40  43
ENDBRANCH  38  39
ENDBRANCH  37  38
ENDBRANCH  36  37
ENDBRANCH   1  36
TORSDOF 17
ENDMDL
