MODEL 1
REMARK VINA RESULT:     -12.6      0.000      0.000
REMARK SMILES O=C(NCCCCNC(=O)c1nn(-c2ccc([N+](=O)[O-])cc2)cc1CCO)c1ccc(-c2c3nc(c(-c4c(F)c(F)c(F)c(F)c4F)c4ccc([nH]4)c(-c4c(F)c(F)c(F)c(F)c4F)c4nc(c(-c5c(F)c(F)c(F)c(F)c5F)c5ccc2[nH]5)C=C4)C=C3)cc1
REMARK SMILES IDX 6 1 5 2 4 3 3 4 1 5 2 6 28 8 29 9 90 10 30 11 89 12 31 13
REMARK SMILES IDX 32 14 33 15 83 16 34 17 88 18 82 19 84 20 35 21 87 22 81 23
REMARK SMILES IDX 80 24 36 26 68 27 48 28 67 29 49 30 52 31 66 32 85 33 50 34
REMARK SMILES IDX 51 35 65 37 86 38 53 39 37 40 38 41 46 42 39 43 40 44 44 45
REMARK SMILES IDX 47 46 41 47 42 48 45 49 43 50 69 51 70 52 78 53 71 54 72 55
REMARK SMILES IDX 76 56 79 57 73 58 74 59 77 60 75 61 54 62 55 63 63 64 56 65
REMARK SMILES IDX 57 66 61 67 64 68 58 69 59 70 62 71 60 72 7 73 8 74 9 75
REMARK SMILES IDX 10 77 11 78 12 79 24 80 13 81 23 82 25 83 26 84 27 85 14 87
REMARK SMILES IDX 15 88 22 89 16 90 21 91 17 92 18 93 19 94 20 95
REMARK H PARENT 3 7 84 25 52 36 8 76 27 86
REMARK Flexibility Score: inf
ROOT
ATOM      1  C   UNL A   1      37.656  23.474  25.584  1.00  0.00     0.023 C 
ENDROOT
BRANCH   1   2
ATOM      2  C   UNL A   1      38.134  22.022  25.703  1.00  0.00     0.023 C 
BRANCH   2   3
ATOM      3  C   UNL A   1      39.378  21.812  26.566  1.00  0.00     0.116 C 
BRANCH   3   4
ATOM      4  N   UNL A   1      40.624  21.853  25.832  1.00  0.00    -0.352 N 
ATOM      5  O   UNL A   1      42.714  22.223  25.237  1.00  0.00    -0.269 OA
ATOM      6  C   UNL A   1      41.749  22.624  25.893  1.00  0.00     0.251 C 
ATOM      7  H   UNL A   1      40.671  21.167  25.128  1.00  0.00     0.163 HD
BRANCH   6   8
ATOM      8  C   UNL A   1      41.866  23.925  26.606  1.00  0.00     0.039 A 
ATOM      9  C   UNL A   1      42.549  24.150  27.802  1.00  0.00     0.014 A 
ATOM     10  C   UNL A   1      41.149  24.992  26.030  1.00  0.00     0.014 A 
ATOM     11  C   UNL A   1      42.425  25.369  28.462  1.00  0.00     0.010 A 
ATOM     12  C   UNL A   1      41.026  26.212  26.679  1.00  0.00     0.010 A 
ATOM     13  C   UNL A   1      41.626  26.379  27.921  1.00  0.00    -0.014 A 
BRANCH  13  14
ATOM     14  C   UNL A   1      41.558  27.662  28.614  1.00  0.00     0.031 A 
ATOM     15  C   UNL A   1      42.696  28.579  28.306  1.00  0.00     0.074 A 
ATOM     16  C   UNL A   1      40.490  28.041  29.346  1.00  0.00     0.049 A 
ATOM     17  N   UNL A   1      43.537  29.119  29.127  1.00  0.00    -0.248 NA
ATOM     18  C   UNL A   1      43.007  28.831  26.887  1.00  0.00     0.031 C 
ATOM     19  C   UNL A   1      39.205  27.351  29.497  1.00  0.00     0.029 A 
ATOM     20  N   UNL A   1      40.294  29.191  30.051  1.00  0.00    -0.354 N 
ATOM     21  C   UNL A   1      44.382  29.913  28.350  1.00  0.00     0.074 A 
ATOM     22  C   UNL A   1      44.100  29.587  26.978  1.00  0.00     0.031 C 
ATOM     23  C   UNL A   1      38.301  28.197  30.042  1.00  0.00     0.029 A 
ATOM     24  C   UNL A   1      38.970  29.435  30.401  1.00  0.00     0.049 A 
ATOM     25  H   UNL A   1      41.029  29.800  30.292  1.00  0.00     0.167 HD
ATOM     26  C   UNL A   1      45.091  30.938  28.898  1.00  0.00     0.037 A 
ATOM     27  C   UNL A   1      38.460  30.597  30.887  1.00  0.00     0.037 A 
ATOM     28  C   UNL A   1      45.248  30.756  30.317  1.00  0.00     0.049 A 
ATOM     29  C   UNL A   1      39.595  31.396  31.414  1.00  0.00     0.074 A 
ATOM     30  C   UNL A   1      45.859  29.806  31.113  1.00  0.00     0.029 A 
ATOM     31  N   UNL A   1      44.425  31.463  31.156  1.00  0.00    -0.354 N 
ATOM     32  N   UNL A   1      40.290  31.058  32.464  1.00  0.00    -0.248 NA
ATOM     33  C   UNL A   1      40.250  32.311  30.493  1.00  0.00     0.031 C 
ATOM     34  C   UNL A   1      45.001  29.668  32.244  1.00  0.00     0.029 A 
ATOM     35  C   UNL A   1      43.962  30.587  32.101  1.00  0.00     0.049 A 
ATOM     36  H   UNL A   1      44.208  32.421  31.091  1.00  0.00     0.167 HD
ATOM     37  C   UNL A   1      41.600  31.357  32.124  1.00  0.00     0.074 A 
ATOM     38  C   UNL A   1      41.507  32.185  30.924  1.00  0.00     0.031 C 
ATOM     39  C   UNL A   1      42.642  30.669  32.675  1.00  0.00     0.037 A 
BRANCH  26  40
ATOM     40  C   UNL A   1      45.286  32.288  28.237  1.00  0.00     0.064 A 
ATOM     41  C   UNL A   1      44.149  33.075  27.952  1.00  0.00     0.173 A 
ATOM     42  C   UNL A   1      46.471  32.682  27.579  1.00  0.00     0.173 A 
ATOM     43  F   UNL A   1      42.967  32.805  28.526  1.00  0.00    -0.203 F 
ATOM     44  C   UNL A   1      44.171  34.088  26.989  1.00  0.00     0.198 A 
ATOM     45  C   UNL A   1      46.499  33.725  26.654  1.00  0.00     0.198 A 
ATOM     46  F   UNL A   1      47.623  32.018  27.713  1.00  0.00    -0.203 F 
ATOM     47  F   UNL A   1      43.032  34.704  26.647  1.00  0.00    -0.200 F 
ATOM     48  C   UNL A   1      45.343  34.400  26.328  1.00  0.00     0.200 A 
ATOM     49  F   UNL A   1      47.645  34.007  26.017  1.00  0.00    -0.200 F 
ATOM     50  F   UNL A   1      45.352  35.312  25.348  1.00  0.00    -0.200 F 
ENDBRANCH  26  40
BRANCH  27  51
ATOM     51  C   UNL A   1      37.139  31.211  30.595  1.00  0.00     0.064 A 
ATOM     52  C   UNL A   1      36.222  31.503  31.619  1.00  0.00     0.173 A 
ATOM     53  C   UNL A   1      36.870  31.787  29.336  1.00  0.00     0.173 A 
ATOM     54  F   UNL A   1      36.430  31.043  32.861  1.00  0.00    -0.203 F 
ATOM     55  C   UNL A   1      35.113  32.331  31.401  1.00  0.00     0.198 A 
ATOM     56  C   UNL A   1      35.763  32.610  29.120  1.00  0.00     0.198 A 
ATOM     57  F   UNL A   1      37.730  31.644  28.320  1.00  0.00    -0.203 F 
ATOM     58  F   UNL A   1      34.293  32.633  32.417  1.00  0.00    -0.200 F 
ATOM     59  C   UNL A   1      34.890  32.891  30.154  1.00  0.00     0.200 A 
ATOM     60  F   UNL A   1      35.584  33.178  27.919  1.00  0.00    -0.200 F 
ATOM     61  F   UNL A   1      33.865  33.732  29.959  1.00  0.00    -0.200 F 
ENDBRANCH  27  51
BRANCH  39  62
ATOM     62  C   UNL A   1      42.350  29.749  33.825  1.00  0.00     0.064 A 
ATOM     63  C   UNL A   1      41.915  28.420  33.676  1.00  0.00     0.173 A 
ATOM     64  C   UNL A   1      42.683  30.179  35.115  1.00  0.00     0.173 A 
ATOM     65  F   UNL A   1      41.673  27.905  32.464  1.00  0.00    -0.203 F 
ATOM     66  C   UNL A   1      41.787  27.574  34.777  1.00  0.00     0.198 A 
ATOM     67  C   UNL A   1      42.589  29.322  36.208  1.00  0.00     0.198 A 
ATOM     68  F   UNL A   1      43.156  31.419  35.308  1.00  0.00    -0.203 F 
ATOM     69  F   UNL A   1      41.370  26.311  34.610  1.00  0.00    -0.200 F 
ATOM     70  C   UNL A   1      42.134  28.024  36.040  1.00  0.00     0.200 A 
ATOM     71  F   UNL A   1      42.974  29.745  37.419  1.00  0.00    -0.200 F 
ATOM     72  F   UNL A   1      42.059  27.197  37.092  1.00  0.00    -0.200 F 
ENDBRANCH  39  62
ENDBRANCH  13  14
ENDBRANCH   6   8
ENDBRANCH   3   4
ENDBRANCH   2   3
ENDBRANCH   1   2
BRANCH   1  73
ATOM     73  C   UNL A   1      36.407  23.702  24.729  1.00  0.00     0.116 C 
BRANCH  73  74
ATOM     74  N   UNL A   1      35.417  24.537  25.391  1.00  0.00    -0.351 N 
ATOM     75  C   UNL A   1      34.061  24.324  25.527  1.00  0.00     0.272 C 
ATOM     76  H   UNL A   1      35.761  25.366  25.795  1.00  0.00     0.163 HD
ATOM     77  O   UNL A   1      33.366  25.171  26.071  1.00  0.00    -0.267 OA
BRANCH  75  78
ATOM     78  C   UNL A   1      33.486  23.109  24.943  1.00  0.00     0.153 A 
ATOM     79  N   UNL A   1      33.757  21.889  25.439  1.00  0.00    -0.162 NA
ATOM     80  C   UNL A   1      32.581  23.034  23.846  1.00  0.00     0.006 A 
ATOM     81  N   UNL A   1      33.220  21.032  24.548  1.00  0.00    -0.240 N 
ATOM     82  C   UNL A   1      32.512  21.683  23.568  1.00  0.00     0.119 A 
BRANCH  80  83
ATOM     83  C   UNL A   1      31.921  24.156  23.105  1.00  0.00     0.068 C 
BRANCH  83  84
ATOM     84  C   UNL A   1      32.827  24.813  22.057  1.00  0.00     0.161 C 
BRANCH  84  85
ATOM     85  O   UNL A   1      33.100  23.949  20.961  1.00  0.00    -0.396 OA
ATOM     86  H   UNL A   1      33.716  23.255  21.241  1.00  0.00     0.210 HD
ENDBRANCH  84  85
ENDBRANCH  83  84
ENDBRANCH  80  83
BRANCH  81  87
ATOM     87  C   UNL A   1      33.466  19.645  24.662  1.00  0.00     0.065 A 
ATOM     88  C   UNL A   1      32.400  18.788  24.972  1.00  0.00     0.035 A 
ATOM     89  C   UNL A   1      34.765  19.145  24.506  1.00  0.00     0.035 A 
ATOM     90  C   UNL A   1      32.625  17.415  25.094  1.00  0.00     0.088 A 
ATOM     91  C   UNL A   1      35.002  17.779  24.688  1.00  0.00     0.088 A 
ATOM     92  C   UNL A   1      33.929  16.918  24.967  1.00  0.00     0.269 A 
BRANCH  92  93
ATOM     93  N   UNL A   1      34.176  15.480  25.134  1.00  0.00     0.062 N 
ATOM     94  O   UNL A   1      33.193  14.726  25.162  1.00  0.00    -0.258 OA
ATOM     95  O   UNL A   1      35.354  15.106  25.233  1.00  0.00    -0.258 OA
ENDBRANCH  92  93
ENDBRANCH  81  87
ENDBRANCH  75  78
ENDBRANCH  73  74
ENDBRANCH   1  73
TORSDOF 16
ENDMDL
MODEL 2
REMARK VINA RESULT:     -12.6      1.161      1.828
REMARK SMILES O=C(NCCCCNC(=O)c1nn(-c2ccc([N+](=O)[O-])cc2)cc1CCO)c1ccc(-c2c3nc(c(-c4c(F)c(F)c(F)c(F)c4F)c4ccc([nH]4)c(-c4c(F)c(F)c(F)c(F)c4F)c4nc(c(-c5c(F)c(F)c(F)c(F)c5F)c5ccc2[nH]5)C=C4)C=C3)cc1
REMARK SMILES IDX 6 1 5 2 4 3 3 4 1 5 2 6 28 8 29 9 90 10 30 11 89 12 31 13
REMARK SMILES IDX 32 14 33 15 83 16 34 17 88 18 82 19 84 20 35 21 87 22 81 23
REMARK SMILES IDX 80 24 36 26 68 27 48 28 67 29 49 30 52 31 66 32 85 33 50 34
REMARK SMILES IDX 51 35 65 37 86 38 53 39 37 40 38 41 46 42 39 43 40 44 44 45
REMARK SMILES IDX 47 46 41 47 42 48 45 49 43 50 69 51 70 52 78 53 71 54 72 55
REMARK SMILES IDX 76 56 79 57 73 58 74 59 77 60 75 61 54 62 55 63 63 64 56 65
REMARK SMILES IDX 57 66 61 67 64 68 58 69 59 70 62 71 60 72 7 73 8 74 9 75
REMARK SMILES IDX 10 77 11 78 12 79 24 80 13 81 23 82 25 83 26 84 27 85 14 87
REMARK SMILES IDX 15 88 22 89 16 90 21 91 17 92 18 93 19 94 20 95
REMARK H PARENT 3 7 84 25 52 36 8 76 27 86
REMARK Flexibility Score: inf
ROOT
ATOM      1  C   UNL A   1      38.649  23.259  26.605  1.00  0.00     0.023 C 
ENDROOT
BRANCH   1   2
ATOM      2  C   UNL A   1      39.274  21.934  26.150  1.00  0.00     0.023 C 
BRANCH   2   3
ATOM      3  C   UNL A   1      40.731  21.724  26.559  1.00  0.00     0.116 C 
BRANCH   3   4
ATOM      4  N   UNL A   1      41.693  22.285  25.635  1.00  0.00    -0.352 N 
ATOM      5  O   UNL A   1      43.279  23.517  24.726  1.00  0.00    -0.269 OA
ATOM      6  C   UNL A   1      42.358  23.474  25.546  1.00  0.00     0.251 C 
ATOM      7  H   UNL A   1      41.921  21.666  24.904  1.00  0.00     0.163 HD
BRANCH   6   8
ATOM      8  C   UNL A   1      42.006  24.717  26.285  1.00  0.00     0.039 A 
ATOM      9  C   UNL A   1      41.211  25.760  25.809  1.00  0.00     0.014 A 
ATOM     10  C   UNL A   1      42.607  24.853  27.552  1.00  0.00     0.014 A 
ATOM     11  C   UNL A   1      41.113  26.950  26.525  1.00  0.00     0.010 A 
ATOM     12  C   UNL A   1      42.508  26.033  28.274  1.00  0.00     0.010 A 
ATOM     13  C   UNL A   1      41.799  27.099  27.732  1.00  0.00    -0.014 A 
BRANCH  13  14
ATOM     14  C   UNL A   1      41.634  28.340  28.481  1.00  0.00     0.031 A 
ATOM     15  C   UNL A   1      42.718  29.340  28.245  1.00  0.00     0.074 A 
ATOM     16  C   UNL A   1      40.528  28.617  29.203  1.00  0.00     0.049 A 
ATOM     17  N   UNL A   1      43.504  29.893  29.111  1.00  0.00    -0.248 NA
ATOM     18  C   UNL A   1      43.043  29.679  26.848  1.00  0.00     0.031 C 
ATOM     19  C   UNL A   1      39.287  27.840  29.289  1.00  0.00     0.029 A 
ATOM     20  N   UNL A   1      40.242  29.717  29.955  1.00  0.00    -0.354 N 
ATOM     21  C   UNL A   1      44.313  30.775  28.393  1.00  0.00     0.074 A 
ATOM     22  C   UNL A   1      44.084  30.497  27.001  1.00  0.00     0.031 C 
ATOM     23  C   UNL A   1      38.318  28.601  29.849  1.00  0.00     0.029 A 
ATOM     24  C   UNL A   1      38.898  29.860  30.282  1.00  0.00     0.049 A 
ATOM     25  H   UNL A   1      40.931  30.358  30.242  1.00  0.00     0.167 HD
ATOM     26  C   UNL A   1      44.942  31.815  29.006  1.00  0.00     0.037 A 
ATOM     27  C   UNL A   1      38.304  30.963  30.807  1.00  0.00     0.037 A 
ATOM     28  C   UNL A   1      45.079  31.576  30.418  1.00  0.00     0.049 A 
ATOM     29  C   UNL A   1      39.373  31.806  31.399  1.00  0.00     0.074 A 
ATOM     30  C   UNL A   1      45.732  30.629  31.185  1.00  0.00     0.029 A 
ATOM     31  N   UNL A   1      44.194  32.189  31.268  1.00  0.00    -0.354 N 
ATOM     32  N   UNL A   1      40.064  31.463  32.450  1.00  0.00    -0.248 NA
ATOM     33  C   UNL A   1      39.989  32.804  30.538  1.00  0.00     0.031 C 
ATOM     34  C   UNL A   1      44.859  30.384  32.286  1.00  0.00     0.029 A 
ATOM     35  C   UNL A   1      43.766  31.241  32.160  1.00  0.00     0.049 A 
ATOM     36  H   UNL A   1      43.917  33.134  31.242  1.00  0.00     0.167 HD
ATOM     37  C   UNL A   1      41.360  31.859  32.158  1.00  0.00     0.074 A 
ATOM     38  C   UNL A   1      41.242  32.737  30.995  1.00  0.00     0.031 C 
ATOM     39  C   UNL A   1      42.432  31.213  32.703  1.00  0.00     0.037 A 
BRANCH  26  40
ATOM     40  C   UNL A   1      45.066  33.205  28.413  1.00  0.00     0.064 A 
ATOM     41  C   UNL A   1      46.353  33.759  28.243  1.00  0.00     0.173 A 
ATOM     42  C   UNL A   1      43.999  34.125  28.327  1.00  0.00     0.173 A 
ATOM     43  F   UNL A   1      47.446  32.981  28.293  1.00  0.00    -0.203 F 
ATOM     44  C   UNL A   1      46.559  35.136  28.128  1.00  0.00     0.198 A 
ATOM     45  C   UNL A   1      44.206  35.494  28.163  1.00  0.00     0.198 A 
ATOM     46  F   UNL A   1      42.723  33.767  28.503  1.00  0.00    -0.203 F 
ATOM     47  F   UNL A   1      47.806  35.623  28.121  1.00  0.00    -0.200 F 
ATOM     48  C   UNL A   1      45.485  36.004  28.106  1.00  0.00     0.200 A 
ATOM     49  F   UNL A   1      43.150  36.321  28.152  1.00  0.00    -0.200 F 
ATOM     50  F   UNL A   1      45.678  37.329  28.077  1.00  0.00    -0.200 F 
ENDBRANCH  26  40
BRANCH  27  51
ATOM     51  C   UNL A   1      36.953  31.506  30.510  1.00  0.00     0.064 A 
ATOM     52  C   UNL A   1      36.050  31.831  31.537  1.00  0.00     0.173 A 
ATOM     53  C   UNL A   1      36.632  31.986  29.224  1.00  0.00     0.173 A 
ATOM     54  F   UNL A   1      36.306  31.464  32.801  1.00  0.00    -0.203 F 
ATOM     55  C   UNL A   1      34.905  32.601  31.294  1.00  0.00     0.198 A 
ATOM     56  C   UNL A   1      35.488  32.750  28.983  1.00  0.00     0.198 A 
ATOM     57  F   UNL A   1      37.473  31.808  28.197  1.00  0.00    -0.203 F 
ATOM     58  F   UNL A   1      34.098  32.939  32.309  1.00  0.00    -0.200 F 
ATOM     59  C   UNL A   1      34.630  33.067  30.019  1.00  0.00     0.200 A 
ATOM     60  F   UNL A   1      35.258  33.229  27.752  1.00  0.00    -0.200 F 
ATOM     61  F   UNL A   1      33.568  33.853  29.796  1.00  0.00    -0.200 F 
ENDBRANCH  27  51
BRANCH  39  62
ATOM     62  C   UNL A   1      42.173  30.223  33.801  1.00  0.00     0.064 A 
ATOM     63  C   UNL A   1      41.792  28.887  33.581  1.00  0.00     0.173 A 
ATOM     64  C   UNL A   1      42.485  30.596  35.114  1.00  0.00     0.173 A 
ATOM     65  F   UNL A   1      41.574  28.427  32.342  1.00  0.00    -0.203 F 
ATOM     66  C   UNL A   1      41.695  27.980  34.634  1.00  0.00     0.198 A 
ATOM     67  C   UNL A   1      42.422  29.680  36.160  1.00  0.00     0.198 A 
ATOM     68  F   UNL A   1      42.908  31.843  35.374  1.00  0.00    -0.203 F 
ATOM     69  F   UNL A   1      41.329  26.712  34.400  1.00  0.00    -0.200 F 
ATOM     70  C   UNL A   1      42.020  28.376  35.922  1.00  0.00     0.200 A 
ATOM     71  F   UNL A   1      42.787  30.054  37.394  1.00  0.00    -0.200 F 
ATOM     72  F   UNL A   1      41.975  27.493  36.928  1.00  0.00    -0.200 F 
ENDBRANCH  39  62
ENDBRANCH  13  14
ENDBRANCH   6   8
ENDBRANCH   3   4
ENDBRANCH   2   3
ENDBRANCH   1   2
BRANCH   1  73
ATOM     73  C   UNL A   1      37.319  23.634  25.948  1.00  0.00     0.116 C 
BRANCH  73  74
ATOM     74  N   UNL A   1      37.388  23.632  24.496  1.00  0.00    -0.351 N 
ATOM     75  C   UNL A   1      36.530  23.039  23.593  1.00  0.00     0.272 C 
ATOM     76  H   UNL A   1      38.149  24.117  24.104  1.00  0.00     0.163 HD
ATOM     77  O   UNL A   1      36.778  23.093  22.396  1.00  0.00    -0.267 OA
BRANCH  75  78
ATOM     78  C   UNL A   1      35.379  22.295  24.111  1.00  0.00     0.153 A 
ATOM     79  N   UNL A   1      35.459  20.988  24.413  1.00  0.00    -0.162 NA
ATOM     80  C   UNL A   1      34.082  22.813  24.391  1.00  0.00     0.006 A 
ATOM     81  N   UNL A   1      34.189  20.617  24.668  1.00  0.00    -0.240 N 
ATOM     82  C   UNL A   1      33.328  21.687  24.655  1.00  0.00     0.119 A 
BRANCH  80  83
ATOM     83  C   UNL A   1      33.614  24.235  24.332  1.00  0.00     0.068 C 
BRANCH  83  84
ATOM     84  C   UNL A   1      33.601  24.815  22.913  1.00  0.00     0.161 C 
BRANCH  84  85
ATOM     85  O   UNL A   1      32.288  25.135  22.472  1.00  0.00    -0.396 OA
ATOM     86  H   UNL A   1      32.038  26.010  22.808  1.00  0.00     0.210 HD
ENDBRANCH  84  85
ENDBRANCH  83  84
ENDBRANCH  80  83
BRANCH  81  87
ATOM     87  C   UNL A   1      33.872  19.253  24.855  1.00  0.00     0.065 A 
ATOM     88  C   UNL A   1      32.744  18.914  25.617  1.00  0.00     0.035 A 
ATOM     89  C   UNL A   1      34.699  18.258  24.319  1.00  0.00     0.035 A 
ATOM     90  C   UNL A   1      32.419  17.571  25.817  1.00  0.00     0.088 A 
ATOM     91  C   UNL A   1      34.409  16.913  24.571  1.00  0.00     0.088 A 
ATOM     92  C   UNL A   1      33.262  16.575  25.306  1.00  0.00     0.269 A 
BRANCH  92  93
ATOM     93  N   UNL A   1      32.944  15.162  25.548  1.00  0.00     0.062 N 
ATOM     94  O   UNL A   1      33.868  14.341  25.462  1.00  0.00    -0.258 OA
ATOM     95  O   UNL A   1      31.771  14.876  25.825  1.00  0.00    -0.258 OA
ENDBRANCH  92  93
ENDBRANCH  81  87
ENDBRANCH  75  78
ENDBRANCH  73  74
ENDBRANCH   1  73
TORSDOF 16
ENDMDL
MODEL 3
REMARK VINA RESULT:     -12.4      3.101      8.146
REMARK SMILES O=C(NCCCCNC(=O)c1nn(-c2ccc([N+](=O)[O-])cc2)cc1CCO)c1ccc(-c2c3nc(c(-c4c(F)c(F)c(F)c(F)c4F)c4ccc([nH]4)c(-c4c(F)c(F)c(F)c(F)c4F)c4nc(c(-c5c(F)c(F)c(F)c(F)c5F)c5ccc2[nH]5)C=C4)C=C3)cc1
REMARK SMILES IDX 6 1 5 2 4 3 3 4 1 5 2 6 28 8 29 9 90 10 30 11 89 12 31 13
REMARK SMILES IDX 32 14 33 15 83 16 34 17 88 18 82 19 84 20 35 21 87 22 81 23
REMARK SMILES IDX 80 24 36 26 68 27 48 28 67 29 49 30 52 31 66 32 85 33 50 34
REMARK SMILES IDX 51 35 65 37 86 38 53 39 37 40 38 41 46 42 39 43 40 44 44 45
REMARK SMILES IDX 47 46 41 47 42 48 45 49 43 50 69 51 70 52 78 53 71 54 72 55
REMARK SMILES IDX 76 56 79 57 73 58 74 59 77 60 75 61 54 62 55 63 63 64 56 65
REMARK SMILES IDX 57 66 61 67 64 68 58 69 59 70 62 71 60 72 7 73 8 74 9 75
REMARK SMILES IDX 10 77 11 78 12 79 24 80 13 81 23 82 25 83 26 84 27 85 14 87
REMARK SMILES IDX 15 88 22 89 16 90 21 91 17 92 18 93 19 94 20 95
REMARK H PARENT 3 7 84 25 52 36 8 76 27 86
REMARK Flexibility Score: inf
ROOT
ATOM      1  C   UNL A   1      33.689  27.489  25.866  1.00  0.00     0.023 C 
ENDROOT
BRANCH   1   2
ATOM      2  C   UNL A   1      33.123  28.574  26.790  1.00  0.00     0.023 C 
BRANCH   2   3
ATOM      3  C   UNL A   1      33.592  29.997  26.493  1.00  0.00     0.116 C 
BRANCH   3   4
ATOM      4  N   UNL A   1      33.731  30.834  27.664  1.00  0.00    -0.352 N 
ATOM      5  O   UNL A   1      34.542  32.143  29.242  1.00  0.00    -0.269 OA
ATOM      6  C   UNL A   1      34.782  31.241  28.434  1.00  0.00     0.251 C 
ATOM      7  H   UNL A   1      32.869  31.193  27.978  1.00  0.00     0.163 HD
BRANCH   6   8
ATOM      8  C   UNL A   1      36.141  30.633  28.431  1.00  0.00     0.039 A 
ATOM      9  C   UNL A   1      36.458  29.330  28.046  1.00  0.00     0.014 A 
ATOM     10  C   UNL A   1      37.167  31.454  28.938  1.00  0.00     0.014 A 
ATOM     11  C   UNL A   1      37.736  28.825  28.268  1.00  0.00     0.010 A 
ATOM     12  C   UNL A   1      38.444  30.959  29.156  1.00  0.00     0.010 A 
ATOM     13  C   UNL A   1      38.712  29.626  28.865  1.00  0.00    -0.014 A 
BRANCH  13  14
ATOM     14  C   UNL A   1      40.054  29.081  29.037  1.00  0.00     0.031 A 
ATOM     15  C   UNL A   1      40.484  28.965  30.463  1.00  0.00     0.074 A 
ATOM     16  C   UNL A   1      40.780  28.590  28.011  1.00  0.00     0.049 A 
ATOM     17  N   UNL A   1      41.519  29.486  31.035  1.00  0.00    -0.248 NA
ATOM     18  C   UNL A   1      39.576  28.271  31.395  1.00  0.00     0.031 C 
ATOM     19  C   UNL A   1      40.364  28.397  26.619  1.00  0.00     0.029 A 
ATOM     20  N   UNL A   1      42.039  28.067  28.020  1.00  0.00    -0.354 N 
ATOM     21  C   UNL A   1      41.488  29.053  32.362  1.00  0.00     0.074 A 
ATOM     22  C   UNL A   1      40.207  28.432  32.558  1.00  0.00     0.031 C 
ATOM     23  C   UNL A   1      41.255  27.597  25.989  1.00  0.00     0.029 A 
ATOM     24  C   UNL A   1      42.366  27.332  26.885  1.00  0.00     0.049 A 
ATOM     25  H   UNL A   1      42.665  28.198  28.768  1.00  0.00     0.167 HD
ATOM     26  C   UNL A   1      42.613  29.045  33.129  1.00  0.00     0.037 A 
ATOM     27  C   UNL A   1      43.441  26.515  26.730  1.00  0.00     0.037 A 
ATOM     28  C   UNL A   1      43.598  29.955  32.610  1.00  0.00     0.049 A 
ATOM     29  C   UNL A   1      44.437  26.887  27.766  1.00  0.00     0.074 A 
ATOM     30  C   UNL A   1      43.651  31.322  32.412  1.00  0.00     0.029 A 
ATOM     31  N   UNL A   1      44.633  29.438  31.872  1.00  0.00    -0.354 N 
ATOM     32  N   UNL A   1      45.079  28.021  27.777  1.00  0.00    -0.248 NA
ATOM     33  C   UNL A   1      44.358  26.195  29.043  1.00  0.00     0.031 C 
ATOM     34  C   UNL A   1      44.370  31.488  31.191  1.00  0.00     0.029 A 
ATOM     35  C   UNL A   1      44.769  30.224  30.759  1.00  0.00     0.049 A 
ATOM     36  H   UNL A   1      45.177  28.649  32.100  1.00  0.00     0.167 HD
ATOM     37  C   UNL A   1      45.104  28.394  29.112  1.00  0.00     0.074 A 
ATOM     38  C   UNL A   1      44.701  27.200  29.853  1.00  0.00     0.031 C 
ATOM     39  C   UNL A   1      45.166  29.709  29.472  1.00  0.00     0.037 A 
BRANCH  26  40
ATOM     40  C   UNL A   1      42.977  27.935  34.095  1.00  0.00     0.064 A 
ATOM     41  C   UNL A   1      43.157  28.253  35.459  1.00  0.00     0.173 A 
ATOM     42  C   UNL A   1      43.480  26.676  33.700  1.00  0.00     0.173 A 
ATOM     43  F   UNL A   1      42.711  29.417  35.955  1.00  0.00    -0.203 F 
ATOM     44  C   UNL A   1      43.894  27.435  36.320  1.00  0.00     0.198 A 
ATOM     45  C   UNL A   1      44.173  25.841  34.575  1.00  0.00     0.198 A 
ATOM     46  F   UNL A   1      43.423  26.243  32.437  1.00  0.00    -0.203 F 
ATOM     47  F   UNL A   1      44.164  27.853  37.563  1.00  0.00    -0.200 F 
ATOM     48  C   UNL A   1      44.416  26.238  35.872  1.00  0.00     0.200 A 
ATOM     49  F   UNL A   1      44.680  24.687  34.118  1.00  0.00    -0.200 F 
ATOM     50  F   UNL A   1      45.190  25.491  36.669  1.00  0.00    -0.200 F 
ENDBRANCH  26  40
BRANCH  27  51
ATOM     51  C   UNL A   1      43.511  25.220  26.005  1.00  0.00     0.064 A 
ATOM     52  C   UNL A   1      44.570  24.924  25.130  1.00  0.00     0.173 A 
ATOM     53  C   UNL A   1      42.691  24.136  26.379  1.00  0.00     0.173 A 
ATOM     54  F   UNL A   1      45.433  25.884  24.767  1.00  0.00    -0.203 F 
ATOM     55  C   UNL A   1      44.803  23.621  24.670  1.00  0.00     0.198 A 
ATOM     56  C   UNL A   1      42.922  22.839  25.917  1.00  0.00     0.198 A 
ATOM     57  F   UNL A   1      41.711  24.296  27.279  1.00  0.00    -0.203 F 
ATOM     58  F   UNL A   1      45.857  23.367  23.883  1.00  0.00    -0.200 F 
ATOM     59  C   UNL A   1      43.984  22.579  25.072  1.00  0.00     0.200 A 
ATOM     60  F   UNL A   1      42.147  21.833  26.348  1.00  0.00    -0.200 F 
ATOM     61  F   UNL A   1      44.241  21.323  24.681  1.00  0.00    -0.200 F 
ENDBRANCH  27  51
BRANCH  39  62
ATOM     62  C   UNL A   1      45.443  30.722  28.399  1.00  0.00     0.064 A 
ATOM     63  C   UNL A   1      44.451  31.287  27.578  1.00  0.00     0.173 A 
ATOM     64  C   UNL A   1      46.734  31.257  28.314  1.00  0.00     0.173 A 
ATOM     65  F   UNL A   1      43.173  30.898  27.671  1.00  0.00    -0.203 F 
ATOM     66  C   UNL A   1      44.751  32.318  26.690  1.00  0.00     0.198 A 
ATOM     67  C   UNL A   1      47.023  32.311  27.452  1.00  0.00     0.198 A 
ATOM     68  F   UNL A   1      47.706  30.793  29.114  1.00  0.00    -0.203 F 
ATOM     69  F   UNL A   1      43.788  32.842  25.916  1.00  0.00    -0.200 F 
ATOM     70  C   UNL A   1      46.035  32.836  26.636  1.00  0.00     0.200 A 
ATOM     71  F   UNL A   1      48.253  32.842  27.441  1.00  0.00    -0.200 F 
ATOM     72  F   UNL A   1      46.313  33.860  25.818  1.00  0.00    -0.200 F 
ENDBRANCH  39  62
ENDBRANCH  13  14
ENDBRANCH   6   8
ENDBRANCH   3   4
ENDBRANCH   2   3
ENDBRANCH   1   2
BRANCH   1  73
ATOM     73  C   UNL A   1      33.233  26.057  26.152  1.00  0.00     0.116 C 
BRANCH  73  74
ATOM     74  N   UNL A   1      31.835  25.980  26.547  1.00  0.00    -0.351 N 
ATOM     75  C   UNL A   1      30.841  25.166  26.044  1.00  0.00     0.272 C 
ATOM     76  H   UNL A   1      31.562  26.590  27.269  1.00  0.00     0.163 HD
ATOM     77  O   UNL A   1      29.697  25.279  26.463  1.00  0.00    -0.267 OA
BRANCH  75  78
ATOM     78  C   UNL A   1      31.182  24.237  24.963  1.00  0.00     0.153 A 
ATOM     79  N   UNL A   1      31.242  22.910  25.165  1.00  0.00    -0.162 NA
ATOM     80  C   UNL A   1      31.455  24.569  23.606  1.00  0.00     0.006 A 
ATOM     81  N   UNL A   1      31.760  22.414  24.023  1.00  0.00    -0.240 N 
ATOM     82  C   UNL A   1      31.913  23.384  23.063  1.00  0.00     0.119 A 
BRANCH  80  83
ATOM     83  C   UNL A   1      31.357  25.905  22.936  1.00  0.00     0.068 C 
BRANCH  83  84
ATOM     84  C   UNL A   1      32.302  26.059  21.738  1.00  0.00     0.161 C 
BRANCH  84  85
ATOM     85  O   UNL A   1      31.610  26.021  20.496  1.00  0.00    -0.396 OA
ATOM     86  H   UNL A   1      32.193  25.657  19.812  1.00  0.00     0.210 HD
ENDBRANCH  84  85
ENDBRANCH  83  84
ENDBRANCH  80  83
BRANCH  81  87
ATOM     87  C   UNL A   1      32.127  21.052  23.943  1.00  0.00     0.065 A 
ATOM     88  C   UNL A   1      32.622  20.412  25.089  1.00  0.00     0.035 A 
ATOM     89  C   UNL A   1      32.035  20.368  22.724  1.00  0.00     0.035 A 
ATOM     90  C   UNL A   1      32.996  19.068  25.026  1.00  0.00     0.088 A 
ATOM     91  C   UNL A   1      32.466  19.041  22.647  1.00  0.00     0.088 A 
ATOM     92  C   UNL A   1      32.931  18.391  23.801  1.00  0.00     0.269 A 
BRANCH  92  93
ATOM     93  N   UNL A   1      33.360  16.989  23.723  1.00  0.00     0.062 N 
ATOM     94  O   UNL A   1      33.112  16.256  24.691  1.00  0.00    -0.258 OA
ATOM     95  O   UNL A   1      33.942  16.622  22.692  1.00  0.00    -0.258 OA
ENDBRANCH  92  93
ENDBRANCH  81  87
ENDBRANCH  75  78
ENDBRANCH  73  74
ENDBRANCH   1  73
TORSDOF 16
ENDMDL
