MODEL 1
REMARK VINA RESULT:     -11.8      0.000      0.000
REMARK SMILES CCC([NH3+])(CC)C(=O)N1C[C@@H](O)C[C@H]1C(=O)NCCCCNC(=O)c1ccc(-c2c3nc(c(-c4c(F)c(F)c(F)c(F)c4F)c4ccc([nH]4)c(-c4c(F)c(F)c(F)c(F)c4F)c4nc(c(-c5c(F)c(F)c(F)c(F)c5F)c5ccc2[nH]5)C=C4)C=C3)cc1
REMARK SMILES IDX 19 1 18 2 17 3 15 4 16 5 14 7 9 8 10 9 11 10 13 11 7 12 8 13
REMARK SMILES IDX 3 14 2 15 1 16 4 17 5 21 6 22 12 23 20 25 21 26 22 27 23 28
REMARK SMILES IDX 24 30 25 31 26 32 87 33 27 34 86 35 28 36 29 37 30 38 80 39
REMARK SMILES IDX 31 40 85 41 79 42 81 43 32 44 84 45 78 46 77 47 33 49 65 50
REMARK SMILES IDX 45 51 64 52 46 53 49 54 63 55 82 56 47 57 48 58 62 60 83 61
REMARK SMILES IDX 50 62 34 63 35 64 43 65 36 66 37 67 41 68 44 69 38 70 39 71
REMARK SMILES IDX 42 72 40 73 66 74 67 75 75 76 68 77 69 78 73 79 76 80 70 81
REMARK SMILES IDX 71 82 74 83 72 84 51 85 52 86 60 87 53 88 54 89 58 90 61 91
REMARK SMILES IDX 55 92 56 93 59 94 57 95
REMARK H PARENT 17 6 4 18 4 19 4 20 12 24 22 29 81 48 49 59
REMARK Flexibility Score: inf
ROOT
ATOM      1  C   UNL A   1      31.817  30.392  26.900  1.00  0.00     0.023 C 
ENDROOT
BRANCH   1   2
ATOM      2  C   UNL A   1      32.403  29.632  25.719  1.00  0.00     0.116 C 
BRANCH   2   3
ATOM      3  N   UNL A   1      31.624  29.794  24.515  1.00  0.00    -0.354 N 
ATOM      4  C   UNL A   1      31.409  28.927  23.485  1.00  0.00     0.242 C 
ATOM      5  O   UNL A   1      30.513  29.225  22.686  1.00  0.00    -0.273 OA
ATOM      6  H   UNL A   1      31.175  30.666  24.424  1.00  0.00     0.163 HD
BRANCH   4   7
ATOM      7  C   UNL A   1      32.068  27.531  23.428  1.00  0.00     0.177 C 
ATOM      8  N   UNL A   1      31.220  26.344  23.247  1.00  0.00    -0.323 N 
ATOM      9  C   UNL A   1      31.670  25.531  22.130  1.00  0.00     0.152 C 
ATOM     10  C   UNL A   1      33.023  26.095  21.707  1.00  0.00     0.136 C 
ATOM     11  C   UNL A   1      33.091  27.501  22.288  1.00  0.00     0.069 C 
BRANCH   8  12
ATOM     12  C   UNL A   1      30.291  26.055  24.235  1.00  0.00     0.284 C 
ATOM     13  O   UNL A   1      29.149  26.510  24.113  1.00  0.00    -0.268 OA
BRANCH  12  14
ATOM     14  C   UNL A   1      30.691  25.255  25.536  1.00  0.00     0.173 C 
BRANCH  14  15
ATOM     15  C   UNL A   1      31.097  23.788  25.170  1.00  0.00     0.075 C 
ATOM     16  C   UNL A   1      30.595  22.672  26.090  1.00  0.00     0.011 C 
ENDBRANCH  14  15
BRANCH  14  17
ATOM     17  N   UNL A   1      29.504  25.162  26.428  1.00  0.00    -0.345 N 
ATOM     18  H   UNL A   1      29.734  24.595  27.243  1.00  0.00     0.345 HD
ATOM     19  H   UNL A   1      28.730  24.731  25.921  1.00  0.00     0.345 HD
ATOM     20  H   UNL A   1      29.232  26.098  26.730  1.00  0.00     0.345 HD
ENDBRANCH  14  17
BRANCH  14  21
ATOM     21  C   UNL A   1      31.850  25.899  26.339  1.00  0.00     0.075 C 
ATOM     22  C   UNL A   1      33.233  25.335  26.041  1.00  0.00     0.011 C 
ENDBRANCH  14  21
ENDBRANCH  12  14
ENDBRANCH   8  12
BRANCH  10  23
ATOM     23  O   UNL A   1      33.168  26.119  20.294  1.00  0.00    -0.391 OA
ATOM     24  H   UNL A   1      32.987  25.237  19.935  1.00  0.00     0.211 HD
ENDBRANCH  10  23
ENDBRANCH   4   7
ENDBRANCH   2   3
ENDBRANCH   1   2
BRANCH   1  25
ATOM     25  C   UNL A   1      31.714  31.904  26.704  1.00  0.00     0.023 C 
BRANCH  25  26
ATOM     26  C   UNL A   1      32.825  32.728  27.344  1.00  0.00     0.116 C 
BRANCH  26  27
ATOM     27  N   UNL A   1      32.437  34.099  27.644  1.00  0.00    -0.352 N 
ATOM     28  C   UNL A   1      32.988  34.958  28.564  1.00  0.00     0.251 C 
ATOM     29  H   UNL A   1      31.682  34.455  27.122  1.00  0.00     0.163 HD
ATOM     30  O   UNL A   1      32.494  36.064  28.761  1.00  0.00    -0.269 OA
BRANCH  28  31
ATOM     31  C   UNL A   1      34.161  34.520  29.345  1.00  0.00     0.039 A 
ATOM     32  C   UNL A   1      33.959  33.940  30.601  1.00  0.00     0.014 A 
ATOM     33  C   UNL A   1      35.450  34.630  28.814  1.00  0.00     0.014 A 
ATOM     34  C   UNL A   1      35.044  33.399  31.292  1.00  0.00     0.010 A 
ATOM     35  C   UNL A   1      36.517  34.030  29.472  1.00  0.00     0.010 A 
ATOM     36  C   UNL A   1      36.324  33.405  30.714  1.00  0.00    -0.014 A 
BRANCH  36  37
ATOM     37  C   UNL A   1      37.482  32.767  31.389  1.00  0.00     0.031 A 
ATOM     38  C   UNL A   1      38.198  31.627  30.723  1.00  0.00     0.074 A 
ATOM     39  C   UNL A   1      37.834  33.156  32.629  1.00  0.00     0.049 A 
ATOM     40  N   UNL A   1      39.155  30.864  31.186  1.00  0.00    -0.248 NA
ATOM     41  C   UNL A   1      37.758  31.279  29.362  1.00  0.00     0.031 C 
ATOM     42  C   UNL A   1      37.192  34.223  33.397  1.00  0.00     0.029 A 
ATOM     43  N   UNL A   1      38.813  32.687  33.469  1.00  0.00    -0.354 N 
ATOM     44  C   UNL A   1      39.417  29.938  30.185  1.00  0.00     0.074 A 
ATOM     45  C   UNL A   1      38.484  30.201  29.111  1.00  0.00     0.031 C 
ATOM     46  C   UNL A   1      37.805  34.341  34.585  1.00  0.00     0.029 A 
ATOM     47  C   UNL A   1      38.857  33.333  34.680  1.00  0.00     0.049 A 
ATOM     48  H   UNL A   1      39.426  31.955  33.226  1.00  0.00     0.167 HD
ATOM     49  C   UNL A   1      40.364  28.971  30.156  1.00  0.00     0.037 A 
ATOM     50  C   UNL A   1      39.653  33.130  35.746  1.00  0.00     0.037 A 
ATOM     51  C   UNL A   1      41.308  28.731  31.214  1.00  0.00     0.049 A 
ATOM     52  C   UNL A   1      40.692  32.043  35.691  1.00  0.00     0.074 A 
ATOM     53  C   UNL A   1      42.339  27.809  31.260  1.00  0.00     0.029 A 
ATOM     54  N   UNL A   1      41.337  29.423  32.416  1.00  0.00    -0.354 N 
ATOM     55  N   UNL A   1      40.967  31.209  34.719  1.00  0.00    -0.248 NA
ATOM     56  C   UNL A   1      41.536  31.873  36.883  1.00  0.00     0.031 C 
ATOM     57  C   UNL A   1      42.968  27.918  32.504  1.00  0.00     0.029 A 
ATOM     58  C   UNL A   1      42.359  28.939  33.216  1.00  0.00     0.049 A 
ATOM     59  H   UNL A   1      40.721  30.150  32.665  1.00  0.00     0.167 HD
ATOM     60  C   UNL A   1      42.033  30.439  35.165  1.00  0.00     0.074 A 
ATOM     61  C   UNL A   1      42.361  30.911  36.495  1.00  0.00     0.031 C 
ATOM     62  C   UNL A   1      42.682  29.434  34.530  1.00  0.00     0.037 A 
BRANCH  49  63
ATOM     63  C   UNL A   1      40.424  28.105  28.932  1.00  0.00     0.064 A 
ATOM     64  C   UNL A   1      41.194  28.465  27.815  1.00  0.00     0.173 A 
ATOM     65  C   UNL A   1      39.724  26.891  28.882  1.00  0.00     0.173 A 
ATOM     66  F   UNL A   1      41.873  29.622  27.808  1.00  0.00    -0.203 F 
ATOM     67  C   UNL A   1      41.231  27.660  26.680  1.00  0.00     0.198 A 
ATOM     68  C   UNL A   1      39.787  26.073  27.756  1.00  0.00     0.198 A 
ATOM     69  F   UNL A   1      38.976  26.497  29.924  1.00  0.00    -0.203 F 
ATOM     70  F   UNL A   1      41.928  28.052  25.605  1.00  0.00    -0.200 F 
ATOM     71  C   UNL A   1      40.533  26.462  26.653  1.00  0.00     0.200 A 
ATOM     72  F   UNL A   1      39.120  24.910  27.736  1.00  0.00    -0.200 F 
ATOM     73  F   UNL A   1      40.571  25.687  25.562  1.00  0.00    -0.200 F 
ENDBRANCH  49  63
BRANCH  50  74
ATOM     74  C   UNL A   1      39.522  33.995  36.947  1.00  0.00     0.064 A 
ATOM     75  C   UNL A   1      40.170  35.237  37.007  1.00  0.00     0.173 A 
ATOM     76  C   UNL A   1      38.757  33.603  38.054  1.00  0.00     0.173 A 
ATOM     77  F   UNL A   1      40.930  35.645  35.980  1.00  0.00    -0.203 F 
ATOM     78  C   UNL A   1      40.073  36.046  38.137  1.00  0.00     0.198 A 
ATOM     79  C   UNL A   1      38.640  34.424  39.175  1.00  0.00     0.198 A 
ATOM     80  F   UNL A   1      38.116  32.426  38.045  1.00  0.00    -0.203 F 
ATOM     81  F   UNL A   1      40.736  37.209  38.183  1.00  0.00    -0.200 F 
ATOM     82  C   UNL A   1      39.304  35.642  39.217  1.00  0.00     0.200 A 
ATOM     83  F   UNL A   1      37.887  34.036  40.212  1.00  0.00    -0.200 F 
ATOM     84  F   UNL A   1      39.208  36.422  40.303  1.00  0.00    -0.200 F 
ENDBRANCH  50  74
BRANCH  62  85
ATOM     85  C   UNL A   1      43.843  28.806  35.242  1.00  0.00     0.064 A 
ATOM     86  C   UNL A   1      45.153  29.277  35.074  1.00  0.00     0.173 A 
ATOM     87  C   UNL A   1      43.633  27.750  36.142  1.00  0.00     0.173 A 
ATOM     88  F   UNL A   1      45.405  30.275  34.213  1.00  0.00    -0.203 F 
ATOM     89  C   UNL A   1      46.214  28.700  35.767  1.00  0.00     0.198 A 
ATOM     90  C   UNL A   1      44.693  27.194  36.853  1.00  0.00     0.198 A 
ATOM     91  F   UNL A   1      42.398  27.267  36.343  1.00  0.00    -0.203 F 
ATOM     92  F   UNL A   1      47.463  29.140  35.560  1.00  0.00    -0.200 F 
ATOM     93  C   UNL A   1      45.982  27.666  36.661  1.00  0.00     0.200 A 
ATOM     94  F   UNL A   1      44.466  26.202  37.726  1.00  0.00    -0.200 F 
ATOM     95  F   UNL A   1      47.004  27.118  37.333  1.00  0.00    -0.200 F 
ENDBRANCH  62  85
ENDBRANCH  36  37
ENDBRANCH  28  31
ENDBRANCH  26  27
ENDBRANCH  25  26
ENDBRANCH   1  25
TORSDOF 17
ENDMDL
MODEL 2
REMARK VINA RESULT:     -11.7      1.238      2.591
REMARK SMILES CCC([NH3+])(CC)C(=O)N1C[C@@H](O)C[C@H]1C(=O)NCCCCNC(=O)c1ccc(-c2c3nc(c(-c4c(F)c(F)c(F)c(F)c4F)c4ccc([nH]4)c(-c4c(F)c(F)c(F)c(F)c4F)c4nc(c(-c5c(F)c(F)c(F)c(F)c5F)c5ccc2[nH]5)C=C4)C=C3)cc1
REMARK SMILES IDX 19 1 18 2 17 3 15 4 16 5 14 7 9 8 10 9 11 10 13 11 7 12 8 13
REMARK SMILES IDX 3 14 2 15 1 16 4 17 5 21 6 22 12 23 20 25 21 26 22 27 23 28
REMARK SMILES IDX 24 30 25 31 26 32 87 33 27 34 86 35 28 36 29 37 30 38 80 39
REMARK SMILES IDX 31 40 85 41 79 42 81 43 32 44 84 45 78 46 77 47 33 49 65 50
REMARK SMILES IDX 45 51 64 52 46 53 49 54 63 55 82 56 47 57 48 58 62 60 83 61
REMARK SMILES IDX 50 62 34 63 35 64 43 65 36 66 37 67 41 68 44 69 38 70 39 71
REMARK SMILES IDX 42 72 40 73 66 74 67 75 75 76 68 77 69 78 73 79 76 80 70 81
REMARK SMILES IDX 71 82 74 83 72 84 51 85 52 86 60 87 53 88 54 89 58 90 61 91
REMARK SMILES IDX 55 92 56 93 59 94 57 95
REMARK H PARENT 17 6 4 18 4 19 4 20 12 24 22 29 81 48 49 59
REMARK Flexibility Score: inf
ROOT
ATOM      1  C   UNL A   1      32.028  30.079  27.232  1.00  0.00     0.023 C 
ENDROOT
BRANCH   1   2
ATOM      2  C   UNL A   1      31.934  29.061  26.105  1.00  0.00     0.116 C 
BRANCH   2   3
ATOM      3  N   UNL A   1      32.783  29.394  24.987  1.00  0.00    -0.354 N 
ATOM      4  C   UNL A   1      32.976  28.741  23.805  1.00  0.00     0.242 C 
ATOM      5  O   UNL A   1      33.580  29.359  22.921  1.00  0.00    -0.273 OA
ATOM      6  H   UNL A   1      33.304  30.223  25.092  1.00  0.00     0.163 HD
BRANCH   4   7
ATOM      7  C   UNL A   1      32.283  27.399  23.480  1.00  0.00     0.177 C 
ATOM      8  N   UNL A   1      31.096  27.395  22.613  1.00  0.00    -0.323 N 
ATOM      9  C   UNL A   1      31.248  26.472  21.502  1.00  0.00     0.152 C 
ATOM     10  C   UNL A   1      32.506  25.658  21.791  1.00  0.00     0.136 C 
ATOM     11  C   UNL A   1      33.295  26.456  22.820  1.00  0.00     0.069 C 
BRANCH   8  12
ATOM     12  C   UNL A   1      29.968  28.066  23.059  1.00  0.00     0.284 C 
ATOM     13  O   UNL A   1      29.142  27.439  23.730  1.00  0.00    -0.268 OA
BRANCH  12  14
ATOM     14  C   UNL A   1      29.679  29.562  22.643  1.00  0.00     0.173 C 
BRANCH  14  15
ATOM     15  C   UNL A   1      28.267  29.678  21.976  1.00  0.00     0.075 C 
ATOM     16  C   UNL A   1      28.121  30.668  20.817  1.00  0.00     0.011 C 
ENDBRANCH  14  15
BRANCH  14  17
ATOM     17  N   UNL A   1      30.674  29.978  21.618  1.00  0.00    -0.345 N 
ATOM     18  H   UNL A   1      31.518  29.414  21.716  1.00  0.00     0.345 HD
ATOM     19  H   UNL A   1      30.905  30.963  21.748  1.00  0.00     0.345 HD
ATOM     20  H   UNL A   1      30.280  29.841  20.687  1.00  0.00     0.345 HD
ENDBRANCH  14  17
BRANCH  14  21
ATOM     21  C   UNL A   1      29.748  30.567  23.821  1.00  0.00     0.075 C 
ATOM     22  C   UNL A   1      28.662  31.635  23.824  1.00  0.00     0.011 C 
ENDBRANCH  14  21
ENDBRANCH  12  14
ENDBRANCH   8  12
BRANCH  10  23
ATOM     23  O   UNL A   1      33.276  25.439  20.616  1.00  0.00    -0.391 OA
ATOM     24  H   UNL A   1      32.779  25.747  19.842  1.00  0.00     0.211 HD
ENDBRANCH  10  23
ENDBRANCH   4   7
ENDBRANCH   2   3
ENDBRANCH   1   2
BRANCH   1  25
ATOM     25  C   UNL A   1      31.827  31.532  26.804  1.00  0.00     0.023 C 
BRANCH  25  26
ATOM     26  C   UNL A   1      32.958  32.487  27.166  1.00  0.00     0.116 C 
BRANCH  26  27
ATOM     27  N   UNL A   1      32.505  33.826  27.514  1.00  0.00    -0.352 N 
ATOM     28  C   UNL A   1      33.005  34.672  28.474  1.00  0.00     0.251 C 
ATOM     29  H   UNL A   1      31.741  34.168  26.996  1.00  0.00     0.163 HD
ATOM     30  O   UNL A   1      32.459  35.745  28.708  1.00  0.00    -0.269 OA
BRANCH  28  31
ATOM     31  C   UNL A   1      34.188  34.256  29.254  1.00  0.00     0.039 A 
ATOM     32  C   UNL A   1      33.997  33.567  30.455  1.00  0.00     0.014 A 
ATOM     33  C   UNL A   1      35.477  34.497  28.770  1.00  0.00     0.014 A 
ATOM     34  C   UNL A   1      35.102  33.050  31.134  1.00  0.00     0.010 A 
ATOM     35  C   UNL A   1      36.569  33.923  29.412  1.00  0.00     0.010 A 
ATOM     36  C   UNL A   1      36.391  33.190  30.596  1.00  0.00    -0.014 A 
BRANCH  36  37
ATOM     37  C   UNL A   1      37.575  32.583  31.254  1.00  0.00     0.031 A 
ATOM     38  C   UNL A   1      38.314  31.465  30.576  1.00  0.00     0.074 A 
ATOM     39  C   UNL A   1      37.933  32.980  32.490  1.00  0.00     0.049 A 
ATOM     40  N   UNL A   1      39.298  30.728  31.024  1.00  0.00    -0.248 NA
ATOM     41  C   UNL A   1      37.865  31.108  29.220  1.00  0.00     0.031 C 
ATOM     42  C   UNL A   1      37.272  34.027  33.269  1.00  0.00     0.029 A 
ATOM     43  N   UNL A   1      38.936  32.536  33.316  1.00  0.00    -0.354 N 
ATOM     44  C   UNL A   1      39.571  29.812  30.018  1.00  0.00     0.074 A 
ATOM     45  C   UNL A   1      38.617  30.050  28.957  1.00  0.00     0.031 C 
ATOM     46  C   UNL A   1      37.898  34.160  34.450  1.00  0.00     0.029 A 
ATOM     47  C   UNL A   1      38.979  33.182  34.527  1.00  0.00     0.049 A 
ATOM     48  H   UNL A   1      39.566  31.822  33.063  1.00  0.00     0.167 HD
ATOM     49  C   UNL A   1      40.544  28.871  29.974  1.00  0.00     0.037 A 
ATOM     50  C   UNL A   1      39.794  32.999  35.583  1.00  0.00     0.037 A 
ATOM     51  C   UNL A   1      41.509  28.656  31.019  1.00  0.00     0.049 A 
ATOM     52  C   UNL A   1      40.862  31.941  35.511  1.00  0.00     0.074 A 
ATOM     53  C   UNL A   1      42.565  27.762  31.048  1.00  0.00     0.029 A 
ATOM     54  N   UNL A   1      41.535  29.345  32.222  1.00  0.00    -0.354 N 
ATOM     55  N   UNL A   1      41.147  31.117  34.533  1.00  0.00    -0.248 NA
ATOM     56  C   UNL A   1      41.726  31.792  36.691  1.00  0.00     0.031 C 
ATOM     57  C   UNL A   1      43.209  27.886  32.285  1.00  0.00     0.029 A 
ATOM     58  C   UNL A   1      42.580  28.889  33.007  1.00  0.00     0.049 A 
ATOM     59  H   UNL A   1      40.902  30.055  32.480  1.00  0.00     0.167 HD
ATOM     60  C   UNL A   1      42.239  30.376  34.963  1.00  0.00     0.074 A 
ATOM     61  C   UNL A   1      42.572  30.854  36.290  1.00  0.00     0.031 C 
ATOM     62  C   UNL A   1      42.907  29.390  34.318  1.00  0.00     0.037 A 
BRANCH  49  63
ATOM     63  C   UNL A   1      40.612  28.009  28.748  1.00  0.00     0.064 A 
ATOM     64  C   UNL A   1      39.909  26.797  28.661  1.00  0.00     0.173 A 
ATOM     65  C   UNL A   1      41.372  28.407  27.638  1.00  0.00     0.173 A 
ATOM     66  F   UNL A   1      39.179  26.366  29.701  1.00  0.00    -0.203 F 
ATOM     67  C   UNL A   1      39.992  25.999  27.524  1.00  0.00     0.198 A 
ATOM     68  C   UNL A   1      41.428  27.620  26.489  1.00  0.00     0.198 A 
ATOM     69  F   UNL A   1      42.060  29.558  27.665  1.00  0.00    -0.203 F 
ATOM     70  F   UNL A   1      39.357  24.820  27.488  1.00  0.00    -0.200 F 
ATOM     71  C   UNL A   1      40.746  26.413  26.437  1.00  0.00     0.200 A 
ATOM     72  F   UNL A   1      42.149  28.028  25.435  1.00  0.00    -0.200 F 
ATOM     73  F   UNL A   1      40.823  25.646  25.342  1.00  0.00    -0.200 F 
ENDBRANCH  49  63
BRANCH  50  74
ATOM     74  C   UNL A   1      39.656  33.857  36.787  1.00  0.00     0.064 A 
ATOM     75  C   UNL A   1      40.309  35.095  36.861  1.00  0.00     0.173 A 
ATOM     76  C   UNL A   1      38.878  33.462  37.884  1.00  0.00     0.173 A 
ATOM     77  F   UNL A   1      41.082  35.505  35.844  1.00  0.00    -0.203 F 
ATOM     78  C   UNL A   1      40.205  35.898  37.994  1.00  0.00     0.198 A 
ATOM     79  C   UNL A   1      38.753  34.278  39.008  1.00  0.00     0.198 A 
ATOM     80  F   UNL A   1      38.230  32.289  37.861  1.00  0.00    -0.203 F 
ATOM     81  F   UNL A   1      40.873  37.058  38.054  1.00  0.00    -0.200 F 
ATOM     82  C   UNL A   1      39.422  35.492  39.064  1.00  0.00     0.200 A 
ATOM     83  F   UNL A   1      37.987  33.888  40.036  1.00  0.00    -0.200 F 
ATOM     84  F   UNL A   1      39.320  36.266  40.154  1.00  0.00    -0.200 F 
ENDBRANCH  50  74
BRANCH  62  85
ATOM     85  C   UNL A   1      44.095  28.793  35.012  1.00  0.00     0.064 A 
ATOM     86  C   UNL A   1      43.978  27.666  35.837  1.00  0.00     0.173 A 
ATOM     87  C   UNL A   1      45.376  29.330  34.808  1.00  0.00     0.173 A 
ATOM     88  F   UNL A   1      42.773  27.126  36.074  1.00  0.00    -0.203 F 
ATOM     89  C   UNL A   1      45.098  27.109  36.450  1.00  0.00     0.198 A 
ATOM     90  C   UNL A   1      46.496  28.755  35.400  1.00  0.00     0.198 A 
ATOM     91  F   UNL A   1      45.542  30.405  34.023  1.00  0.00    -0.203 F 
ATOM     92  F   UNL A   1      44.957  26.056  37.266  1.00  0.00    -0.200 F 
ATOM     93  C   UNL A   1      46.355  27.648  36.224  1.00  0.00     0.200 A 
ATOM     94  F   UNL A   1      47.713  29.269  35.173  1.00  0.00    -0.200 F 
ATOM     95  F   UNL A   1      47.433  27.105  36.807  1.00  0.00    -0.200 F 
ENDBRANCH  62  85
ENDBRANCH  36  37
ENDBRANCH  28  31
ENDBRANCH  26  27
ENDBRANCH  25  26
ENDBRANCH   1  25
TORSDOF 17
ENDMDL
MODEL 3
REMARK VINA RESULT:     -11.7      0.180      1.621
REMARK SMILES CCC([NH3+])(CC)C(=O)N1C[C@@H](O)C[C@H]1C(=O)NCCCCNC(=O)c1ccc(-c2c3nc(c(-c4c(F)c(F)c(F)c(F)c4F)c4ccc([nH]4)c(-c4c(F)c(F)c(F)c(F)c4F)c4nc(c(-c5c(F)c(F)c(F)c(F)c5F)c5ccc2[nH]5)C=C4)C=C3)cc1
REMARK SMILES IDX 19 1 18 2 17 3 15 4 16 5 14 7 9 8 10 9 11 10 13 11 7 12 8 13
REMARK SMILES IDX 3 14 2 15 1 16 4 17 5 21 6 22 12 23 20 25 21 26 22 27 23 28
REMARK SMILES IDX 24 30 25 31 26 32 87 33 27 34 86 35 28 36 29 37 30 38 80 39
REMARK SMILES IDX 31 40 85 41 79 42 81 43 32 44 84 45 78 46 77 47 33 49 65 50
REMARK SMILES IDX 45 51 64 52 46 53 49 54 63 55 82 56 47 57 48 58 62 60 83 61
REMARK SMILES IDX 50 62 34 63 35 64 43 65 36 66 37 67 41 68 44 69 38 70 39 71
REMARK SMILES IDX 42 72 40 73 66 74 67 75 75 76 68 77 69 78 73 79 76 80 70 81
REMARK SMILES IDX 71 82 74 83 72 84 51 85 52 86 60 87 53 88 54 89 58 90 61 91
REMARK SMILES IDX 55 92 56 93 59 94 57 95
REMARK H PARENT 17 6 4 18 4 19 4 20 12 24 22 29 81 48 49 59
REMARK Flexibility Score: inf
ROOT
ATOM      1  C   UNL A   1      31.875  30.341  26.682  1.00  0.00     0.023 C 
ENDROOT
BRANCH   1   2
ATOM      2  C   UNL A   1      32.457  29.709  25.426  1.00  0.00     0.116 C 
BRANCH   2   3
ATOM      3  N   UNL A   1      31.553  29.775  24.304  1.00  0.00    -0.354 N 
ATOM      4  C   UNL A   1      31.252  28.835  23.362  1.00  0.00     0.242 C 
ATOM      5  O   UNL A   1      30.270  29.063  22.645  1.00  0.00    -0.273 OA
ATOM      6  H   UNL A   1      31.077  30.631  24.202  1.00  0.00     0.163 HD
BRANCH   4   7
ATOM      7  C   UNL A   1      31.933  27.449  23.330  1.00  0.00     0.177 C 
ATOM      8  N   UNL A   1      31.101  26.242  23.225  1.00  0.00    -0.323 N 
ATOM      9  C   UNL A   1      31.522  25.396  22.122  1.00  0.00     0.152 C 
ATOM     10  C   UNL A   1      32.848  25.968  21.626  1.00  0.00     0.136 C 
ATOM     11  C   UNL A   1      32.912  27.395  22.153  1.00  0.00     0.069 C 
BRANCH   8  12
ATOM     12  C   UNL A   1      30.217  25.974  24.259  1.00  0.00     0.284 C 
ATOM     13  O   UNL A   1      29.044  26.342  24.133  1.00  0.00    -0.268 OA
BRANCH  12  14
ATOM     14  C   UNL A   1      30.699  25.309  25.608  1.00  0.00     0.173 C 
BRANCH  14  15
ATOM     15  C   UNL A   1      31.286  23.884  25.333  1.00  0.00     0.075 C 
ATOM     16  C   UNL A   1      30.652  22.710  26.082  1.00  0.00     0.011 C 
ENDBRANCH  14  15
BRANCH  14  17
ATOM     17  N   UNL A   1      29.523  25.125  26.500  1.00  0.00    -0.345 N 
ATOM     18  H   UNL A   1      29.739  25.491  27.427  1.00  0.00     0.345 HD
ATOM     19  H   UNL A   1      29.301  24.132  26.569  1.00  0.00     0.345 HD
ATOM     20  H   UNL A   1      28.723  25.626  26.115  1.00  0.00     0.345 HD
ENDBRANCH  14  17
BRANCH  14  21
ATOM     21  C   UNL A   1      31.762  26.139  26.372  1.00  0.00     0.075 C 
ATOM     22  C   UNL A   1      33.206  25.722  26.125  1.00  0.00     0.011 C 
ENDBRANCH  14  21
ENDBRANCH  12  14
ENDBRANCH   8  12
BRANCH  10  23
ATOM     23  O   UNL A   1      32.938  25.943  20.209  1.00  0.00    -0.391 OA
ATOM     24  H   UNL A   1      32.142  26.344  19.826  1.00  0.00     0.211 HD
ENDBRANCH  10  23
ENDBRANCH   4   7
ENDBRANCH   2   3
ENDBRANCH   1   2
BRANCH   1  25
ATOM     25  C   UNL A   1      31.726  31.860  26.629  1.00  0.00     0.023 C 
BRANCH  25  26
ATOM     26  C   UNL A   1      32.825  32.654  27.325  1.00  0.00     0.116 C 
BRANCH  26  27
ATOM     27  N   UNL A   1      32.452  34.029  27.625  1.00  0.00    -0.352 N 
ATOM     28  C   UNL A   1      33.009  34.881  28.548  1.00  0.00     0.251 C 
ATOM     29  H   UNL A   1      31.705  34.395  27.099  1.00  0.00     0.163 HD
ATOM     30  O   UNL A   1      32.528  35.992  28.745  1.00  0.00    -0.269 OA
BRANCH  28  31
ATOM     31  C   UNL A   1      34.173  34.427  29.335  1.00  0.00     0.039 A 
ATOM     32  C   UNL A   1      33.955  33.802  30.566  1.00  0.00     0.014 A 
ATOM     33  C   UNL A   1      35.470  34.568  28.831  1.00  0.00     0.014 A 
ATOM     34  C   UNL A   1      35.033  33.248  31.257  1.00  0.00     0.010 A 
ATOM     35  C   UNL A   1      36.532  33.957  29.487  1.00  0.00     0.010 A 
ATOM     36  C   UNL A   1      36.323  33.287  30.703  1.00  0.00    -0.014 A 
BRANCH  36  37
ATOM     37  C   UNL A   1      37.475  32.637  31.376  1.00  0.00     0.031 A 
ATOM     38  C   UNL A   1      38.181  31.491  30.708  1.00  0.00     0.074 A 
ATOM     39  C   UNL A   1      37.832  33.021  32.617  1.00  0.00     0.049 A 
ATOM     40  N   UNL A   1      39.131  30.719  31.169  1.00  0.00    -0.248 NA
ATOM     41  C   UNL A   1      37.736  31.149  29.347  1.00  0.00     0.031 C 
ATOM     42  C   UNL A   1      37.201  34.094  33.386  1.00  0.00     0.029 A 
ATOM     43  N   UNL A   1      38.808  32.542  33.455  1.00  0.00    -0.354 N 
ATOM     44  C   UNL A   1      39.383  29.792  30.168  1.00  0.00     0.074 A 
ATOM     45  C   UNL A   1      38.452  30.064  29.094  1.00  0.00     0.031 C 
ATOM     46  C   UNL A   1      37.816  34.204  34.575  1.00  0.00     0.029 A 
ATOM     47  C   UNL A   1      38.859  33.187  34.667  1.00  0.00     0.049 A 
ATOM     48  H   UNL A   1      39.413  31.805  33.211  1.00  0.00     0.167 HD
ATOM     49  C   UNL A   1      40.321  28.816  30.136  1.00  0.00     0.037 A 
ATOM     50  C   UNL A   1      39.654  32.975  35.732  1.00  0.00     0.037 A 
ATOM     51  C   UNL A   1      41.263  28.566  31.194  1.00  0.00     0.049 A 
ATOM     52  C   UNL A   1      40.683  31.878  35.675  1.00  0.00     0.074 A 
ATOM     53  C   UNL A   1      42.286  27.634  31.237  1.00  0.00     0.029 A 
ATOM     54  N   UNL A   1      41.300  29.256  32.396  1.00  0.00    -0.354 N 
ATOM     55  N   UNL A   1      40.949  31.043  34.701  1.00  0.00    -0.248 NA
ATOM     56  C   UNL A   1      41.526  31.699  36.866  1.00  0.00     0.031 C 
ATOM     57  C   UNL A   1      42.918  27.736  32.481  1.00  0.00     0.029 A 
ATOM     58  C   UNL A   1      42.318  28.762  33.195  1.00  0.00     0.049 A 
ATOM     59  H   UNL A   1      40.691  29.989  32.646  1.00  0.00     0.167 HD
ATOM     60  C   UNL A   1      42.008  30.263  35.145  1.00  0.00     0.074 A 
ATOM     61  C   UNL A   1      42.341  30.729  36.476  1.00  0.00     0.031 C 
ATOM     62  C   UNL A   1      42.647  29.252  34.509  1.00  0.00     0.037 A 
BRANCH  49  63
ATOM     63  C   UNL A   1      40.373  27.950  28.912  1.00  0.00     0.064 A 
ATOM     64  C   UNL A   1      39.645  26.753  28.827  1.00  0.00     0.173 A 
ATOM     65  C   UNL A   1      41.140  28.331  27.801  1.00  0.00     0.173 A 
ATOM     66  F   UNL A   1      38.905  26.339  29.867  1.00  0.00    -0.203 F 
ATOM     67  C   UNL A   1      39.713  25.951  27.691  1.00  0.00     0.198 A 
ATOM     68  C   UNL A   1      41.182  27.541  26.654  1.00  0.00     0.198 A 
ATOM     69  F   UNL A   1      41.851  29.468  27.827  1.00  0.00    -0.203 F 
ATOM     70  F   UNL A   1      39.054  24.785  27.657  1.00  0.00    -0.200 F 
ATOM     71  C   UNL A   1      40.476  26.348  26.604  1.00  0.00     0.200 A 
ATOM     72  F   UNL A   1      41.911  27.932  25.600  1.00  0.00    -0.200 F 
ATOM     73  F   UNL A   1      40.538  25.577  25.511  1.00  0.00    -0.200 F 
ENDBRANCH  49  63
BRANCH  50  74
ATOM     74  C   UNL A   1      39.532  33.840  36.934  1.00  0.00     0.064 A 
ATOM     75  C   UNL A   1      38.759  33.434  38.031  1.00  0.00     0.173 A 
ATOM     76  C   UNL A   1      40.176  35.083  37.012  1.00  0.00     0.173 A 
ATOM     77  F   UNL A   1      38.108  32.262  37.992  1.00  0.00    -0.203 F 
ATOM     78  C   UNL A   1      38.619  34.246  39.153  1.00  0.00     0.198 A 
ATOM     79  C   UNL A   1      40.056  35.884  38.147  1.00  0.00     0.198 A 
ATOM     80  F   UNL A   1      40.929  35.515  35.992  1.00  0.00    -0.203 F 
ATOM     81  F   UNL A   1      37.841  33.851  40.170  1.00  0.00    -0.200 F 
ATOM     82  C   UNL A   1      39.272  35.468  39.213  1.00  0.00     0.200 A 
ATOM     83  F   UNL A   1      40.697  37.059  38.207  1.00  0.00    -0.200 F 
ATOM     84  F   UNL A   1      39.139  36.248  40.295  1.00  0.00    -0.200 F 
ENDBRANCH  50  74
BRANCH  62  85
ATOM     85  C   UNL A   1      43.803  28.612  35.219  1.00  0.00     0.064 A 
ATOM     86  C   UNL A   1      45.113  29.091  35.075  1.00  0.00     0.173 A 
ATOM     87  C   UNL A   1      43.587  27.537  36.095  1.00  0.00     0.173 A 
ATOM     88  F   UNL A   1      45.371  30.107  34.238  1.00  0.00    -0.203 F 
ATOM     89  C   UNL A   1      46.169  28.502  35.766  1.00  0.00     0.198 A 
ATOM     90  C   UNL A   1      44.641  26.969  36.804  1.00  0.00     0.198 A 
ATOM     91  F   UNL A   1      42.351  27.046  36.273  1.00  0.00    -0.203 F 
ATOM     92  F   UNL A   1      47.418  28.950  35.581  1.00  0.00    -0.200 F 
ATOM     93  C   UNL A   1      45.931  27.449  36.635  1.00  0.00     0.200 A 
ATOM     94  F   UNL A   1      44.409  25.958  37.653  1.00  0.00    -0.200 F 
ATOM     95  F   UNL A   1      46.948  26.890  37.306  1.00  0.00    -0.200 F 
ENDBRANCH  62  85
ENDBRANCH  36  37
ENDBRANCH  28  31
ENDBRANCH  26  27
ENDBRANCH  25  26
ENDBRANCH   1  25
TORSDOF 17
ENDMDL
