MODEL 1
REMARK VINA RESULT:     -12.4      0.000      0.000
REMARK SMILES O=C(C[C@@H](NS(=O)(=O)c1ccc(Cl)cc1)c1ccc(F)cc1)NCCCCNC(=O)c1ccc(-c2c3nc(c(-c4c(F)c(F)c(F)c(F)c4F)c4ccc([nH]4)c(-c4c(F)c(F)c(F)c(F)c4F)c4nc(c(-c5c(F)c(F)c(F)c(F)c5F)c5ccc2[nH]5)C=C4)C=C3)cc1
REMARK SMILES IDX 24 1 23 2 1 3 2 4 3 6 4 7 5 8 6 10 7 11 8 12 9 13 10 14
REMARK SMILES IDX 15 15 11 16 14 17 12 18 13 19 16 20 17 21 22 22 18 23 21 24
REMARK SMILES IDX 19 25 20 26 25 27 26 28 27 29 28 30 29 31 30 33 31 34 32 35
REMARK SMILES IDX 93 36 33 37 92 38 34 39 35 40 36 41 86 42 37 43 91 44 85 45
REMARK SMILES IDX 87 46 38 47 90 48 84 49 83 50 39 52 71 53 51 54 70 55 52 56
REMARK SMILES IDX 55 57 69 58 88 59 53 60 54 61 68 63 89 64 56 65 40 66 41 67
REMARK SMILES IDX 49 68 42 69 43 70 47 71 50 72 44 73 45 74 48 75 46 76 72 77
REMARK SMILES IDX 73 78 81 79 74 80 75 81 79 82 82 83 76 84 77 85 80 86 78 87
REMARK SMILES IDX 57 88 58 89 66 90 59 91 60 92 64 93 67 94 61 95 62 96 65 97
REMARK SMILES IDX 63 98
REMARK H PARENT 23 5 5 9 28 32 87 51 55 62
REMARK Flexibility Score: inf
ROOT
ATOM      1  C   UNL A   1      31.924  29.097  27.124  1.00  0.00     0.116 C 
ENDROOT
BRANCH   1   2
ATOM      2  N   UNL A   1      31.914  27.721  26.666  1.00  0.00    -0.356 N 
ATOM      3  O   UNL A   1      34.197  27.537  26.476  1.00  0.00    -0.275 OA
ATOM      4  C   UNL A   1      33.079  27.050  26.366  1.00  0.00     0.221 C 
ATOM      5  H   UNL A   1      31.052  27.256  26.565  1.00  0.00     0.163 HD
BRANCH   4   6
ATOM      6  C   UNL A   1      32.861  25.627  25.920  1.00  0.00     0.124 C 
BRANCH   6   7
ATOM      7  C   UNL A   1      33.372  25.432  24.484  1.00  0.00     0.109 C 
BRANCH   7   8
ATOM      8  N   UNL A   1      33.747  26.751  23.904  1.00  0.00    -0.203 NA
ATOM      9  H   UNL A   1      34.764  26.776  23.847  1.00  0.00     0.142 HD
BRANCH   8  10
ATOM     10  S   UNL A   1      33.148  27.159  22.374  1.00  0.00     0.241 S 
ATOM     11  O   UNL A   1      34.016  28.175  21.826  1.00  0.00    -0.207 OA
ATOM     12  O   UNL A   1      32.948  25.894  21.698  1.00  0.00    -0.207 OA
BRANCH  10  13
ATOM     13  C   UNL A   1      31.548  27.855  22.677  1.00  0.00     0.082 A 
ATOM     14  C   UNL A   1      31.296  29.190  22.347  1.00  0.00     0.023 A 
ATOM     15  C   UNL A   1      30.533  27.041  23.195  1.00  0.00     0.023 A 
ATOM     16  C   UNL A   1      30.003  29.698  22.489  1.00  0.00     0.022 A 
ATOM     17  C   UNL A   1      29.244  27.557  23.339  1.00  0.00     0.022 A 
ATOM     18  C   UNL A   1      28.981  28.877  22.972  1.00  0.00     0.041 A 
ATOM     19  Cl  UNL A   1      27.379  29.492  23.096  1.00  0.00    -0.084 Cl
ENDBRANCH  10  13
ENDBRANCH   8  10
ENDBRANCH   7   8
BRANCH   7  20
ATOM     20  C   UNL A   1      34.565  24.486  24.511  1.00  0.00    -0.029 A 
ATOM     21  C   UNL A   1      34.902  23.749  23.365  1.00  0.00     0.008 A 
ATOM     22  C   UNL A   1      35.368  24.360  25.661  1.00  0.00     0.008 A 
ATOM     23  C   UNL A   1      36.024  22.916  23.367  1.00  0.00     0.039 A 
ATOM     24  C   UNL A   1      36.483  23.521  25.661  1.00  0.00     0.039 A 
ATOM     25  C   UNL A   1      36.804  22.812  24.512  1.00  0.00     0.123 A 
ATOM     26  F   UNL A   1      37.886  22.024  24.506  1.00  0.00    -0.207 F 
ENDBRANCH   7  20
ENDBRANCH   6   7
ENDBRANCH   4   6
ENDBRANCH   1   2
BRANCH   1  27
ATOM     27  C   UNL A   1      31.719  30.085  25.979  1.00  0.00     0.023 C 
BRANCH  27  28
ATOM     28  C   UNL A   1      31.491  31.539  26.403  1.00  0.00     0.023 C 
BRANCH  28  29
ATOM     29  C   UNL A   1      32.702  32.237  27.017  1.00  0.00     0.116 C 
BRANCH  29  30
ATOM     30  N   UNL A   1      32.427  33.620  27.370  1.00  0.00    -0.352 N 
ATOM     31  C   UNL A   1      33.009  34.409  28.332  1.00  0.00     0.251 C 
ATOM     32  H   UNL A   1      31.721  34.056  26.841  1.00  0.00     0.163 HD
ATOM     33  O   UNL A   1      32.531  35.509  28.592  1.00  0.00    -0.269 OA
BRANCH  31  34
ATOM     34  C   UNL A   1      34.191  33.928  29.083  1.00  0.00     0.039 A 
ATOM     35  C   UNL A   1      33.997  33.020  30.129  1.00  0.00     0.014 A 
ATOM     36  C   UNL A   1      35.480  34.370  28.775  1.00  0.00     0.014 A 
ATOM     37  C   UNL A   1      35.097  32.506  30.819  1.00  0.00     0.010 A 
ATOM     38  C   UNL A   1      36.582  33.807  29.417  1.00  0.00     0.010 A 
ATOM     39  C   UNL A   1      36.402  32.866  30.443  1.00  0.00    -0.014 A 
BRANCH  39  40
ATOM     40  C   UNL A   1      37.587  32.259  31.103  1.00  0.00     0.031 A 
ATOM     41  C   UNL A   1      38.368  31.175  30.417  1.00  0.00     0.074 A 
ATOM     42  C   UNL A   1      37.926  32.646  32.348  1.00  0.00     0.049 A 
ATOM     43  N   UNL A   1      39.383  30.479  30.863  1.00  0.00    -0.248 NA
ATOM     44  C   UNL A   1      37.938  30.806  29.060  1.00  0.00     0.031 C 
ATOM     45  C   UNL A   1      37.230  33.665  33.134  1.00  0.00     0.029 A 
ATOM     46  N   UNL A   1      38.938  32.223  33.175  1.00  0.00    -0.354 N 
ATOM     47  C   UNL A   1      39.704  29.586  29.850  1.00  0.00     0.074 A 
ATOM     48  C   UNL A   1      38.749  29.794  28.784  1.00  0.00     0.031 C 
ATOM     49  C   UNL A   1      37.849  33.809  34.316  1.00  0.00     0.029 A 
ATOM     50  C   UNL A   1      38.962  32.864  34.390  1.00  0.00     0.049 A 
ATOM     51  H   UNL A   1      39.585  31.527  32.921  1.00  0.00     0.167 HD
ATOM     52  C   UNL A   1      40.718  28.688  29.805  1.00  0.00     0.037 A 
ATOM     53  C   UNL A   1      39.781  32.707  35.446  1.00  0.00     0.037 A 
ATOM     54  C   UNL A   1      41.685  28.502  30.855  1.00  0.00     0.049 A 
ATOM     55  C   UNL A   1      40.890  31.693  35.379  1.00  0.00     0.074 A 
ATOM     56  C   UNL A   1      42.783  27.660  30.872  1.00  0.00     0.029 A 
ATOM     57  N   UNL A   1      41.671  29.168  32.071  1.00  0.00    -0.354 N 
ATOM     58  N   UNL A   1      41.213  30.889  34.395  1.00  0.00    -0.248 NA
ATOM     59  C   UNL A   1      41.747  31.562  36.565  1.00  0.00     0.031 C 
ATOM     60  C   UNL A   1      43.407  27.781  32.118  1.00  0.00     0.029 A 
ATOM     61  C   UNL A   1      42.729  28.736  32.857  1.00  0.00     0.049 A 
ATOM     62  H   UNL A   1      41.009  29.845  32.338  1.00  0.00     0.167 HD
ATOM     63  C   UNL A   1      42.321  30.176  34.833  1.00  0.00     0.074 A 
ATOM     64  C   UNL A   1      42.622  30.648  36.168  1.00  0.00     0.031 C 
ATOM     65  C   UNL A   1      43.023  29.217  34.182  1.00  0.00     0.037 A 
BRANCH  52  66
ATOM     66  C   UNL A   1      40.847  27.839  28.575  1.00  0.00     0.064 A 
ATOM     67  C   UNL A   1      41.617  28.275  27.487  1.00  0.00     0.173 A 
ATOM     68  C   UNL A   1      40.153  26.627  28.446  1.00  0.00     0.173 A 
ATOM     69  F   UNL A   1      42.295  29.430  27.557  1.00  0.00    -0.203 F 
ATOM     70  C   UNL A   1      41.678  27.533  26.310  1.00  0.00     0.198 A 
ATOM     71  C   UNL A   1      40.237  25.875  27.277  1.00  0.00     0.198 A 
ATOM     72  F   UNL A   1      39.409  26.163  29.462  1.00  0.00    -0.203 F 
ATOM     73  F   UNL A   1      42.394  27.985  25.271  1.00  0.00    -0.200 F 
ATOM     74  C   UNL A   1      40.991  26.332  26.207  1.00  0.00     0.200 A 
ATOM     75  F   UNL A   1      39.591  24.704  27.189  1.00  0.00    -0.200 F 
ATOM     76  F   UNL A   1      41.058  25.615  25.077  1.00  0.00    -0.200 F 
ENDBRANCH  52  66
BRANCH  53  77
ATOM     77  C   UNL A   1      39.600  33.562  36.647  1.00  0.00     0.064 A 
ATOM     78  C   UNL A   1      38.783  33.162  37.715  1.00  0.00     0.173 A 
ATOM     79  C   UNL A   1      40.216  34.818  36.731  1.00  0.00     0.173 A 
ATOM     80  F   UNL A   1      38.169  31.970  37.681  1.00  0.00    -0.203 F 
ATOM     81  C   UNL A   1      38.575  33.995  38.812  1.00  0.00     0.198 A 
ATOM     82  C   UNL A   1      40.025  35.640  37.839  1.00  0.00     0.198 A 
ATOM     83  F   UNL A   1      41.020  35.235  35.742  1.00  0.00    -0.203 F 
ATOM     84  F   UNL A   1      37.762  33.604  39.803  1.00  0.00    -0.200 F 
ATOM     85  C   UNL A   1      39.197  35.233  38.874  1.00  0.00     0.200 A 
ATOM     86  F   UNL A   1      40.646  36.826  37.905  1.00  0.00    -0.200 F 
ATOM     87  F   UNL A   1      39.002  36.031  39.932  1.00  0.00    -0.200 F 
ENDBRANCH  53  77
BRANCH  65  88
ATOM     88  C   UNL A   1      44.204  28.618  34.887  1.00  0.00     0.064 A 
ATOM     89  C   UNL A   1      45.482  29.176  34.730  1.00  0.00     0.173 A 
ATOM     90  C   UNL A   1      44.086  27.444  35.645  1.00  0.00     0.173 A 
ATOM     91  F   UNL A   1      45.647  30.294  34.007  1.00  0.00    -0.203 F 
ATOM     92  C   UNL A   1      46.602  28.569  35.292  1.00  0.00     0.198 A 
ATOM     93  C   UNL A   1      45.206  26.856  36.229  1.00  0.00     0.198 A 
ATOM     94  F   UNL A   1      42.884  26.881  35.836  1.00  0.00    -0.203 F 
ATOM     95  F   UNL A   1      47.818  29.100  35.098  1.00  0.00    -0.200 F 
ATOM     96  C   UNL A   1      46.463  27.412  36.043  1.00  0.00     0.200 A 
ATOM     97  F   UNL A   1      45.067  25.749  36.973  1.00  0.00    -0.200 F 
ATOM     98  F   UNL A   1      47.540  26.832  36.588  1.00  0.00    -0.200 F 
ENDBRANCH  65  88
ENDBRANCH  39  40
ENDBRANCH  31  34
ENDBRANCH  29  30
ENDBRANCH  28  29
ENDBRANCH  27  28
ENDBRANCH   1  27
TORSDOF 16
ENDMDL
MODEL 2
REMARK VINA RESULT:     -12.3      5.476     10.475
REMARK SMILES O=C(C[C@@H](NS(=O)(=O)c1ccc(Cl)cc1)c1ccc(F)cc1)NCCCCNC(=O)c1ccc(-c2c3nc(c(-c4c(F)c(F)c(F)c(F)c4F)c4ccc([nH]4)c(-c4c(F)c(F)c(F)c(F)c4F)c4nc(c(-c5c(F)c(F)c(F)c(F)c5F)c5ccc2[nH]5)C=C4)C=C3)cc1
REMARK SMILES IDX 24 1 23 2 1 3 2 4 3 6 4 7 5 8 6 10 7 11 8 12 9 13 10 14
REMARK SMILES IDX 15 15 11 16 14 17 12 18 13 19 16 20 17 21 22 22 18 23 21 24
REMARK SMILES IDX 19 25 20 26 25 27 26 28 27 29 28 30 29 31 30 33 31 34 32 35
REMARK SMILES IDX 93 36 33 37 92 38 34 39 35 40 36 41 86 42 37 43 91 44 85 45
REMARK SMILES IDX 87 46 38 47 90 48 84 49 83 50 39 52 71 53 51 54 70 55 52 56
REMARK SMILES IDX 55 57 69 58 88 59 53 60 54 61 68 63 89 64 56 65 40 66 41 67
REMARK SMILES IDX 49 68 42 69 43 70 47 71 50 72 44 73 45 74 48 75 46 76 72 77
REMARK SMILES IDX 73 78 81 79 74 80 75 81 79 82 82 83 76 84 77 85 80 86 78 87
REMARK SMILES IDX 57 88 58 89 66 90 59 91 60 92 64 93 67 94 61 95 62 96 65 97
REMARK SMILES IDX 63 98
REMARK H PARENT 23 5 5 9 28 32 87 51 55 62
REMARK Flexibility Score: inf
ROOT
ATOM      1  C   UNL A   1      37.032  22.174  24.338  1.00  0.00     0.116 C 
ENDROOT
BRANCH   1   2
ATOM      2  N   UNL A   1      35.910  23.025  23.992  1.00  0.00    -0.356 N 
ATOM      3  O   UNL A   1      36.171  24.464  25.765  1.00  0.00    -0.275 OA
ATOM      4  C   UNL A   1      35.566  24.116  24.760  1.00  0.00     0.221 C 
ATOM      5  H   UNL A   1      35.381  22.818  23.188  1.00  0.00     0.163 HD
BRANCH   4   6
ATOM      6  C   UNL A   1      34.381  24.881  24.228  1.00  0.00     0.124 C 
BRANCH   6   7
ATOM      7  C   UNL A   1      33.217  24.831  25.231  1.00  0.00     0.109 C 
BRANCH   7   8
ATOM      8  N   UNL A   1      33.496  23.799  26.267  1.00  0.00    -0.203 NA
ATOM      9  H   UNL A   1      33.729  24.293  27.128  1.00  0.00     0.142 HD
BRANCH   8  10
ATOM     10  S   UNL A   1      32.279  22.683  26.643  1.00  0.00     0.241 S 
ATOM     11  O   UNL A   1      32.470  22.280  28.017  1.00  0.00    -0.207 OA
ATOM     12  O   UNL A   1      31.047  23.307  26.206  1.00  0.00    -0.207 OA
BRANCH  10  13
ATOM     13  C   UNL A   1      32.578  21.301  25.579  1.00  0.00     0.082 A 
ATOM     14  C   UNL A   1      33.120  20.124  26.103  1.00  0.00     0.023 A 
ATOM     15  C   UNL A   1      32.216  21.383  24.229  1.00  0.00     0.023 A 
ATOM     16  C   UNL A   1      33.251  19.003  25.279  1.00  0.00     0.022 A 
ATOM     17  C   UNL A   1      32.355  20.261  23.410  1.00  0.00     0.022 A 
ATOM     18  C   UNL A   1      32.857  19.073  23.941  1.00  0.00     0.041 A 
ATOM     19  Cl  UNL A   1      32.972  17.676  22.943  1.00  0.00    -0.084 Cl
ENDBRANCH  10  13
ENDBRANCH   8  10
ENDBRANCH   7   8
BRANCH   7  20
ATOM     20  C   UNL A   1      33.049  26.207  25.858  1.00  0.00    -0.029 A 
ATOM     21  C   UNL A   1      31.875  26.519  26.562  1.00  0.00     0.008 A 
ATOM     22  C   UNL A   1      34.070  27.173  25.779  1.00  0.00     0.008 A 
ATOM     23  C   UNL A   1      31.733  27.763  27.182  1.00  0.00     0.039 A 
ATOM     24  C   UNL A   1      33.921  28.417  26.393  1.00  0.00     0.039 A 
ATOM     25  C   UNL A   1      32.757  28.698  27.094  1.00  0.00     0.123 A 
ATOM     26  F   UNL A   1      32.624  29.884  27.701  1.00  0.00    -0.207 F 
ENDBRANCH   7  20
ENDBRANCH   6   7
ENDBRANCH   4   6
ENDBRANCH   1   2
BRANCH   1  27
ATOM     27  C   UNL A   1      36.579  20.813  24.860  1.00  0.00     0.023 C 
BRANCH  27  28
ATOM     28  C   UNL A   1      37.690  19.769  25.010  1.00  0.00     0.023 C 
BRANCH  28  29
ATOM     29  C   UNL A   1      38.956  20.257  25.709  1.00  0.00     0.116 C 
BRANCH  29  30
ATOM     30  N   UNL A   1      39.978  19.229  25.792  1.00  0.00    -0.352 N 
ATOM     31  C   UNL A   1      41.319  19.348  26.066  1.00  0.00     0.251 C 
ATOM     32  H   UNL A   1      39.664  18.310  25.629  1.00  0.00     0.163 HD
ATOM     33  O   UNL A   1      42.060  18.379  25.933  1.00  0.00    -0.269 OA
BRANCH  31  34
ATOM     34  C   UNL A   1      41.885  20.650  26.489  1.00  0.00     0.039 A 
ATOM     35  C   UNL A   1      42.318  21.544  25.504  1.00  0.00     0.014 A 
ATOM     36  C   UNL A   1      42.004  20.989  27.839  1.00  0.00     0.014 A 
ATOM     37  C   UNL A   1      42.804  22.801  25.871  1.00  0.00     0.010 A 
ATOM     38  C   UNL A   1      42.425  22.268  28.201  1.00  0.00     0.010 A 
ATOM     39  C   UNL A   1      42.827  23.188  27.221  1.00  0.00    -0.014 A 
BRANCH  39  40
ATOM     40  C   UNL A   1      43.252  24.554  27.622  1.00  0.00     0.031 A 
ATOM     41  C   UNL A   1      42.231  25.599  27.969  1.00  0.00     0.074 A 
ATOM     42  C   UNL A   1      44.562  24.871  27.617  1.00  0.00     0.049 A 
ATOM     43  N   UNL A   1      42.409  26.860  28.272  1.00  0.00    -0.248 NA
ATOM     44  C   UNL A   1      40.821  25.179  27.953  1.00  0.00     0.031 C 
ATOM     45  C   UNL A   1      45.650  23.957  27.268  1.00  0.00     0.029 A 
ATOM     46  N   UNL A   1      45.201  26.051  27.909  1.00  0.00    -0.354 N 
ATOM     47  C   UNL A   1      41.138  27.385  28.469  1.00  0.00     0.074 A 
ATOM     48  C   UNL A   1      40.195  26.319  28.208  1.00  0.00     0.031 C 
ATOM     49  C   UNL A   1      46.822  24.600  27.391  1.00  0.00     0.029 A 
ATOM     50  C   UNL A   1      46.568  25.982  27.788  1.00  0.00     0.049 A 
ATOM     51  H   UNL A   1      44.725  26.869  28.179  1.00  0.00     0.167 HD
ATOM     52  C   UNL A   1      40.792  28.636  28.855  1.00  0.00     0.037 A 
ATOM     53  C   UNL A   1      47.511  26.926  27.971  1.00  0.00     0.037 A 
ATOM     54  C   UNL A   1      41.732  29.687  29.143  1.00  0.00     0.049 A 
ATOM     55  C   UNL A   1      47.100  28.313  28.383  1.00  0.00     0.074 A 
ATOM     56  C   UNL A   1      41.476  30.968  29.599  1.00  0.00     0.029 A 
ATOM     57  N   UNL A   1      43.108  29.578  29.004  1.00  0.00    -0.354 N 
ATOM     58  N   UNL A   1      45.899  28.782  28.614  1.00  0.00    -0.248 NA
ATOM     59  C   UNL A   1      48.174  29.301  28.560  1.00  0.00     0.031 C 
ATOM     60  C   UNL A   1      42.693  31.651  29.692  1.00  0.00     0.029 A 
ATOM     61  C   UNL A   1      43.712  30.780  29.343  1.00  0.00     0.049 A 
ATOM     62  H   UNL A   1      43.585  28.770  28.709  1.00  0.00     0.167 HD
ATOM     63  C   UNL A   1      46.072  30.109  28.985  1.00  0.00     0.074 A 
ATOM     64  C   UNL A   1      47.495  30.369  28.958  1.00  0.00     0.031 C 
ATOM     65  C   UNL A   1      45.131  31.026  29.318  1.00  0.00     0.037 A 
BRANCH  52  66
ATOM     66  C   UNL A   1      39.331  28.944  29.001  1.00  0.00     0.064 A 
ATOM     67  C   UNL A   1      38.587  29.407  27.905  1.00  0.00     0.173 A 
ATOM     68  C   UNL A   1      38.684  28.849  30.242  1.00  0.00     0.173 A 
ATOM     69  F   UNL A   1      39.161  29.523  26.699  1.00  0.00    -0.203 F 
ATOM     70  C   UNL A   1      37.252  29.774  28.050  1.00  0.00     0.198 A 
ATOM     71  C   UNL A   1      37.340  29.191  30.376  1.00  0.00     0.198 A 
ATOM     72  F   UNL A   1      39.349  28.404  31.319  1.00  0.00    -0.203 F 
ATOM     73  F   UNL A   1      36.570  30.243  26.996  1.00  0.00    -0.200 F 
ATOM     74  C   UNL A   1      36.628  29.662  29.284  1.00  0.00     0.200 A 
ATOM     75  F   UNL A   1      36.734  29.062  31.565  1.00  0.00    -0.200 F 
ATOM     76  F   UNL A   1      35.341  30.006  29.419  1.00  0.00    -0.200 F 
ENDBRANCH  52  66
BRANCH  53  77
ATOM     77  C   UNL A   1      48.943  26.573  27.796  1.00  0.00     0.064 A 
ATOM     78  C   UNL A   1      49.528  26.492  26.524  1.00  0.00     0.173 A 
ATOM     79  C   UNL A   1      49.746  26.275  28.904  1.00  0.00     0.173 A 
ATOM     80  F   UNL A   1      48.800  26.764  25.431  1.00  0.00    -0.203 F 
ATOM     81  C   UNL A   1      50.857  26.105  26.367  1.00  0.00     0.198 A 
ATOM     82  C   UNL A   1      51.082  25.911  28.748  1.00  0.00     0.198 A 
ATOM     83  F   UNL A   1      49.235  26.358  30.142  1.00  0.00    -0.203 F 
ATOM     84  F   UNL A   1      51.382  26.000  25.139  1.00  0.00    -0.200 F 
ATOM     85  C   UNL A   1      51.634  25.817  27.479  1.00  0.00     0.200 A 
ATOM     86  F   UNL A   1      51.835  25.655  29.827  1.00  0.00    -0.200 F 
ATOM     87  F   UNL A   1      52.914  25.452  27.329  1.00  0.00    -0.200 F 
ENDBRANCH  53  77
BRANCH  65  88
ATOM     88  C   UNL A   1      45.599  32.398  29.703  1.00  0.00     0.064 A 
ATOM     89  C   UNL A   1      45.877  32.702  31.045  1.00  0.00     0.173 A 
ATOM     90  C   UNL A   1      45.690  33.432  28.761  1.00  0.00     0.173 A 
ATOM     91  F   UNL A   1      45.796  31.748  31.985  1.00  0.00    -0.203 F 
ATOM     92  C   UNL A   1      46.210  33.998  31.431  1.00  0.00     0.198 A 
ATOM     93  C   UNL A   1      46.051  34.721  29.147  1.00  0.00     0.198 A 
ATOM     94  F   UNL A   1      45.449  33.187  27.464  1.00  0.00    -0.203 F 
ATOM     95  F   UNL A   1      46.435  34.273  32.723  1.00  0.00    -0.200 F 
ATOM     96  C   UNL A   1      46.300  35.005  30.482  1.00  0.00     0.200 A 
ATOM     97  F   UNL A   1      46.159  35.688  28.226  1.00  0.00    -0.200 F 
ATOM     98  F   UNL A   1      46.626  36.249  30.854  1.00  0.00    -0.200 F 
ENDBRANCH  65  88
ENDBRANCH  39  40
ENDBRANCH  31  34
ENDBRANCH  29  30
ENDBRANCH  28  29
ENDBRANCH  27  28
ENDBRANCH   1  27
TORSDOF 16
ENDMDL
MODEL 3
REMARK VINA RESULT:     -12.2      2.879      8.084
REMARK SMILES O=C(C[C@@H](NS(=O)(=O)c1ccc(Cl)cc1)c1ccc(F)cc1)NCCCCNC(=O)c1ccc(-c2c3nc(c(-c4c(F)c(F)c(F)c(F)c4F)c4ccc([nH]4)c(-c4c(F)c(F)c(F)c(F)c4F)c4nc(c(-c5c(F)c(F)c(F)c(F)c5F)c5ccc2[nH]5)C=C4)C=C3)cc1
REMARK SMILES IDX 24 1 23 2 1 3 2 4 3 6 4 7 5 8 6 10 7 11 8 12 9 13 10 14
REMARK SMILES IDX 15 15 11 16 14 17 12 18 13 19 16 20 17 21 22 22 18 23 21 24
REMARK SMILES IDX 19 25 20 26 25 27 26 28 27 29 28 30 29 31 30 33 31 34 32 35
REMARK SMILES IDX 93 36 33 37 92 38 34 39 35 40 36 41 86 42 37 43 91 44 85 45
REMARK SMILES IDX 87 46 38 47 90 48 84 49 83 50 39 52 71 53 51 54 70 55 52 56
REMARK SMILES IDX 55 57 69 58 88 59 53 60 54 61 68 63 89 64 56 65 40 66 41 67
REMARK SMILES IDX 49 68 42 69 43 70 47 71 50 72 44 73 45 74 48 75 46 76 72 77
REMARK SMILES IDX 73 78 81 79 74 80 75 81 79 82 82 83 76 84 77 85 80 86 78 87
REMARK SMILES IDX 57 88 58 89 66 90 59 91 60 92 64 93 67 94 61 95 62 96 65 97
REMARK SMILES IDX 63 98
REMARK H PARENT 23 5 5 9 28 32 87 51 55 62
REMARK Flexibility Score: inf
ROOT
ATOM      1  C   UNL A   1      31.759  26.175  26.425  1.00  0.00     0.116 C 
ENDROOT
BRANCH   1   2
ATOM      2  N   UNL A   1      31.557  24.975  25.637  1.00  0.00    -0.356 N 
ATOM      3  O   UNL A   1      31.275  23.575  27.438  1.00  0.00    -0.275 OA
ATOM      4  C   UNL A   1      31.337  23.750  26.228  1.00  0.00     0.221 C 
ATOM      5  H   UNL A   1      31.579  25.037  24.654  1.00  0.00     0.163 HD
BRANCH   4   6
ATOM      6  C   UNL A   1      31.136  22.629  25.241  1.00  0.00     0.124 C 
BRANCH   6   7
ATOM      7  C   UNL A   1      32.427  22.380  24.443  1.00  0.00     0.109 C 
BRANCH   7   8
ATOM      8  N   UNL A   1      33.595  22.890  25.214  1.00  0.00    -0.203 NA
ATOM      9  H   UNL A   1      34.045  22.084  25.646  1.00  0.00     0.142 HD
BRANCH   8  10
ATOM     10  S   UNL A   1      34.796  23.750  24.384  1.00  0.00     0.241 S 
ATOM     11  O   UNL A   1      34.576  23.547  22.971  1.00  0.00    -0.207 OA
ATOM     12  O   UNL A   1      34.780  25.076  24.967  1.00  0.00    -0.207 OA
BRANCH  10  13
ATOM     13  C   UNL A   1      36.319  22.982  24.858  1.00  0.00     0.082 A 
ATOM     14  C   UNL A   1      37.265  23.706  25.589  1.00  0.00     0.023 A 
ATOM     15  C   UNL A   1      36.537  21.636  24.541  1.00  0.00     0.023 A 
ATOM     16  C   UNL A   1      38.415  23.061  26.051  1.00  0.00     0.022 A 
ATOM     17  C   UNL A   1      37.690  20.998  25.001  1.00  0.00     0.022 A 
ATOM     18  C   UNL A   1      38.616  21.708  25.766  1.00  0.00     0.041 A 
ATOM     19  Cl  UNL A   1      40.008  20.905  26.380  1.00  0.00    -0.084 Cl
ENDBRANCH  10  13
ENDBRANCH   8  10
ENDBRANCH   7   8
BRANCH   7  20
ATOM     20  C   UNL A   1      32.558  20.888  24.172  1.00  0.00    -0.029 A 
ATOM     21  C   UNL A   1      32.154  20.362  22.935  1.00  0.00     0.008 A 
ATOM     22  C   UNL A   1      33.114  20.020  25.131  1.00  0.00     0.008 A 
ATOM     23  C   UNL A   1      32.316  19.002  22.660  1.00  0.00     0.039 A 
ATOM     24  C   UNL A   1      33.267  18.661  24.855  1.00  0.00     0.039 A 
ATOM     25  C   UNL A   1      32.872  18.166  23.620  1.00  0.00     0.123 A 
ATOM     26  F   UNL A   1      33.038  16.865  23.349  1.00  0.00    -0.207 F 
ENDBRANCH   7  20
ENDBRANCH   6   7
ENDBRANCH   4   6
ENDBRANCH   1   2
BRANCH   1  27
ATOM     27  C   UNL A   1      31.665  27.441  25.577  1.00  0.00     0.023 C 
BRANCH  27  28
ATOM     28  C   UNL A   1      31.755  28.757  26.355  1.00  0.00     0.023 C 
BRANCH  28  29
ATOM     29  C   UNL A   1      32.852  29.714  25.896  1.00  0.00     0.116 C 
BRANCH  29  30
ATOM     30  N   UNL A   1      32.607  31.083  26.315  1.00  0.00    -0.352 N 
ATOM     31  C   UNL A   1      33.269  31.845  27.248  1.00  0.00     0.251 C 
ATOM     32  H   UNL A   1      31.857  31.533  25.863  1.00  0.00     0.163 HD
ATOM     33  O   UNL A   1      32.813  32.934  27.583  1.00  0.00    -0.269 OA
BRANCH  31  34
ATOM     34  C   UNL A   1      34.512  31.345  27.878  1.00  0.00     0.039 A 
ATOM     35  C   UNL A   1      35.578  32.232  28.054  1.00  0.00     0.014 A 
ATOM     36  C   UNL A   1      34.639  30.013  28.283  1.00  0.00     0.014 A 
ATOM     37  C   UNL A   1      36.743  31.803  28.696  1.00  0.00     0.010 A 
ATOM     38  C   UNL A   1      35.773  29.604  28.983  1.00  0.00     0.010 A 
ATOM     39  C   UNL A   1      36.835  30.496  29.200  1.00  0.00    -0.014 A 
BRANCH  39  40
ATOM     40  C   UNL A   1      38.027  30.049  29.967  1.00  0.00     0.031 A 
ATOM     41  C   UNL A   1      38.250  30.527  31.373  1.00  0.00     0.074 A 
ATOM     42  C   UNL A   1      38.941  29.257  29.374  1.00  0.00     0.049 A 
ATOM     43  N   UNL A   1      39.264  30.303  32.171  1.00  0.00    -0.248 NA
ATOM     44  C   UNL A   1      37.209  31.389  31.954  1.00  0.00     0.031 C 
ATOM     45  C   UNL A   1      38.857  28.751  28.003  1.00  0.00     0.029 A 
ATOM     46  N   UNL A   1      40.124  28.743  29.845  1.00  0.00    -0.354 N 
ATOM     47  C   UNL A   1      38.989  31.004  33.338  1.00  0.00     0.074 A 
ATOM     48  C   UNL A   1      37.737  31.698  33.130  1.00  0.00     0.031 C 
ATOM     49  C   UNL A   1      39.926  27.979  27.753  1.00  0.00     0.029 A 
ATOM     50  C   UNL A   1      40.792  27.967  28.929  1.00  0.00     0.049 A 
ATOM     51  H   UNL A   1      40.462  28.914  30.753  1.00  0.00     0.167 HD
ATOM     52  C   UNL A   1      39.706  31.046  34.486  1.00  0.00     0.037 A 
ATOM     53  C   UNL A   1      41.970  27.322  29.022  1.00  0.00     0.037 A 
ATOM     54  C   UNL A   1      40.937  30.332  34.702  1.00  0.00     0.049 A 
ATOM     55  C   UNL A   1      42.756  27.397  30.303  1.00  0.00     0.074 A 
ATOM     56  C   UNL A   1      41.702  30.266  35.853  1.00  0.00     0.029 A 
ATOM     57  N   UNL A   1      41.582  29.560  33.747  1.00  0.00    -0.354 N 
ATOM     58  N   UNL A   1      42.461  28.023  31.415  1.00  0.00    -0.248 NA
ATOM     59  C   UNL A   1      44.037  26.678  30.341  1.00  0.00     0.031 C 
ATOM     60  C   UNL A   1      42.835  29.492  35.583  1.00  0.00     0.029 A 
ATOM     61  C   UNL A   1      42.750  29.034  34.278  1.00  0.00     0.049 A 
ATOM     62  H   UNL A   1      41.260  29.409  32.830  1.00  0.00     0.167 HD
ATOM     63  C   UNL A   1      43.503  27.756  32.292  1.00  0.00     0.074 A 
ATOM     64  C   UNL A   1      44.436  26.902  31.586  1.00  0.00     0.031 C 
ATOM     65  C   UNL A   1      43.669  28.181  33.568  1.00  0.00     0.037 A 
BRANCH  52  66
ATOM     66  C   UNL A   1      39.177  31.885  35.612  1.00  0.00     0.064 A 
ATOM     67  C   UNL A   1      39.590  33.217  35.762  1.00  0.00     0.173 A 
ATOM     68  C   UNL A   1      38.316  31.350  36.581  1.00  0.00     0.173 A 
ATOM     69  F   UNL A   1      40.418  33.774  34.866  1.00  0.00    -0.203 F 
ATOM     70  C   UNL A   1      39.169  33.979  36.848  1.00  0.00     0.198 A 
ATOM     71  C   UNL A   1      37.875  32.124  37.652  1.00  0.00     0.198 A 
ATOM     72  F   UNL A   1      37.886  30.083  36.478  1.00  0.00    -0.203 F 
ATOM     73  F   UNL A   1      39.601  35.240  36.989  1.00  0.00    -0.200 F 
ATOM     74  C   UNL A   1      38.309  33.433  37.791  1.00  0.00     0.200 A 
ATOM     75  F   UNL A   1      37.028  31.601  38.549  1.00  0.00    -0.200 F 
ATOM     76  F   UNL A   1      37.897  34.171  38.831  1.00  0.00    -0.200 F 
ENDBRANCH  52  66
BRANCH  53  77
ATOM     77  C   UNL A   1      42.458  26.518  27.872  1.00  0.00     0.064 A 
ATOM     78  C   UNL A   1      42.066  25.183  27.693  1.00  0.00     0.173 A 
ATOM     79  C   UNL A   1      43.357  27.065  26.948  1.00  0.00     0.173 A 
ATOM     80  F   UNL A   1      41.210  24.612  28.553  1.00  0.00    -0.203 F 
ATOM     81  C   UNL A   1      42.574  24.420  26.643  1.00  0.00     0.198 A 
ATOM     82  C   UNL A   1      43.845  26.308  25.885  1.00  0.00     0.198 A 
ATOM     83  F   UNL A   1      43.745  28.343  27.068  1.00  0.00    -0.203 F 
ATOM     84  F   UNL A   1      42.212  23.137  26.514  1.00  0.00    -0.200 F 
ATOM     85  C   UNL A   1      43.461  24.984  25.738  1.00  0.00     0.200 A 
ATOM     86  F   UNL A   1      44.686  26.864  25.000  1.00  0.00    -0.200 F 
ATOM     87  F   UNL A   1      43.943  24.253  24.725  1.00  0.00    -0.200 F 
ENDBRANCH  53  77
BRANCH  65  88
ATOM     88  C   UNL A   1      44.892  27.721  34.305  1.00  0.00     0.064 A 
ATOM     89  C   UNL A   1      46.093  28.440  34.205  1.00  0.00     0.173 A 
ATOM     90  C   UNL A   1      44.898  26.525  35.037  1.00  0.00     0.173 A 
ATOM     91  F   UNL A   1      46.139  29.586  33.509  1.00  0.00    -0.203 F 
ATOM     92  C   UNL A   1      47.261  27.967  34.797  1.00  0.00     0.198 A 
ATOM     93  C   UNL A   1      46.063  26.070  35.651  1.00  0.00     0.198 A 
ATOM     94  F   UNL A   1      43.772  25.810  35.173  1.00  0.00    -0.203 F 
ATOM     95  F   UNL A   1      48.405  28.652  34.657  1.00  0.00    -0.200 F 
ATOM     96  C   UNL A   1      47.245  26.785  35.521  1.00  0.00     0.200 A 
ATOM     97  F   UNL A   1      46.041  24.938  36.368  1.00  0.00    -0.200 F 
ATOM     98  F   UNL A   1      48.368  26.334  36.094  1.00  0.00    -0.200 F 
ENDBRANCH  65  88
ENDBRANCH  39  40
ENDBRANCH  31  34
ENDBRANCH  29  30
ENDBRANCH  28  29
ENDBRANCH  27  28
ENDBRANCH   1  27
TORSDOF 16
ENDMDL
