MODEL 1
REMARK VINA RESULT:     -12.2      0.000      0.000
REMARK SMILES O=C(Cc1ccccc1Nc1c(Cl)cccc1Cl)NCCCCNC(=O)c1ccc(-c2c3nc(c(-c4c(F)c(F)c(F)c(F)c4F)c4ccc([nH]4)c(-c4c(F)c(F)c(F)c(F)c4F)c4nc(c(-c5c(F)c(F)c(F)c(F)c5F)c5ccc2[nH]5)C=C4)C=C3)cc1
REMARK SMILES IDX 21 1 20 2 19 3 1 4 2 5 3 7 4 8 5 9 9 10 6 11 8 12 7 13 10 14
REMARK SMILES IDX 11 16 12 17 17 18 13 19 14 20 16 21 18 22 15 23 22 24 23 25
REMARK SMILES IDX 24 26 25 27 26 29 27 30 28 31 89 32 29 33 88 34 30 35 31 36
REMARK SMILES IDX 32 37 82 38 33 39 87 40 81 41 83 42 34 43 86 44 80 45 79 46
REMARK SMILES IDX 35 48 67 49 47 50 66 51 48 52 51 53 65 54 84 55 49 56 50 57
REMARK SMILES IDX 64 59 85 60 52 61 36 62 37 63 45 64 38 65 39 66 43 67 46 68
REMARK SMILES IDX 40 69 41 70 44 71 42 72 68 73 69 74 77 75 70 76 71 77 75 78
REMARK SMILES IDX 78 79 72 80 73 81 76 82 74 83 53 84 54 85 62 86 55 87 56 88
REMARK SMILES IDX 60 89 63 90 57 91 58 92 61 93 59 94
REMARK H PARENT 19 6 10 15 24 28 83 47 51 58
REMARK Flexibility Score: inf
ROOT
ATOM      1  C   UNL A   1      31.541  30.726  26.152  1.00  0.00     0.023 C 
ENDROOT
BRANCH   1   2
ATOM      2  C   UNL A   1      32.042  29.782  27.247  1.00  0.00     0.116 C 
BRANCH   2   3
ATOM      3  N   UNL A   1      33.048  28.861  26.757  1.00  0.00    -0.356 N 
ATOM      4  O   UNL A   1      31.704  26.994  26.630  1.00  0.00    -0.275 OA
ATOM      5  C   UNL A   1      32.789  27.540  26.448  1.00  0.00     0.224 C 
ATOM      6  H   UNL A   1      33.966  29.195  26.638  1.00  0.00     0.163 HD
BRANCH   5   7
ATOM      7  C   UNL A   1      33.978  26.812  25.832  1.00  0.00     0.137 C 
BRANCH   7   8
ATOM      8  C   UNL A   1      33.655  26.280  24.451  1.00  0.00    -0.015 A 
ATOM      9  C   UNL A   1      33.627  27.196  23.377  1.00  0.00     0.006 A 
ATOM     10  C   UNL A   1      33.350  24.925  24.207  1.00  0.00     0.042 A 
ATOM     11  C   UNL A   1      33.266  26.797  22.093  1.00  0.00     0.000 A 
ATOM     12  C   UNL A   1      32.985  24.549  22.901  1.00  0.00     0.026 A 
ATOM     13  C   UNL A   1      32.934  25.472  21.857  1.00  0.00     0.002 A 
BRANCH  10  14
ATOM     14  N   UNL A   1      33.462  23.957  25.230  1.00  0.00    -0.353 N 
ATOM     15  H   UNL A   1      32.952  24.152  26.049  1.00  0.00     0.167 HD
BRANCH  14  16
ATOM     16  C   UNL A   1      34.202  22.745  25.253  1.00  0.00     0.076 A 
ATOM     17  C   UNL A   1      33.514  21.520  25.108  1.00  0.00     0.066 A 
ATOM     18  C   UNL A   1      35.610  22.683  25.322  1.00  0.00     0.066 A 
ATOM     19  Cl  UNL A   1      31.783  21.478  25.066  1.00  0.00    -0.082 Cl
ATOM     20  C   UNL A   1      34.194  20.303  24.982  1.00  0.00     0.023 A 
ATOM     21  C   UNL A   1      36.291  21.463  25.185  1.00  0.00     0.023 A 
ATOM     22  Cl  UNL A   1      36.590  24.069  25.678  1.00  0.00    -0.082 Cl
ATOM     23  C   UNL A   1      35.586  20.277  25.002  1.00  0.00     0.003 A 
ENDBRANCH  14  16
ENDBRANCH  10  14
ENDBRANCH   7   8
ENDBRANCH   5   7
ENDBRANCH   2   3
ENDBRANCH   1   2
BRANCH   1  24
ATOM     24  C   UNL A   1      31.400  32.199  26.557  1.00  0.00     0.023 C 
BRANCH  24  25
ATOM     25  C   UNL A   1      32.626  32.825  27.214  1.00  0.00     0.116 C 
BRANCH  25  26
ATOM     26  N   UNL A   1      32.401  34.201  27.627  1.00  0.00    -0.352 N 
ATOM     27  C   UNL A   1      33.010  34.934  28.615  1.00  0.00     0.251 C 
ATOM     28  H   UNL A   1      31.705  34.679  27.121  1.00  0.00     0.163 HD
ATOM     29  O   UNL A   1      32.561  36.042  28.915  1.00  0.00    -0.269 OA
BRANCH  27  30
ATOM     30  C   UNL A   1      34.182  34.405  29.349  1.00  0.00     0.039 A 
ATOM     31  C   UNL A   1      33.977  33.782  30.585  1.00  0.00     0.014 A 
ATOM     32  C   UNL A   1      35.481  34.542  28.850  1.00  0.00     0.014 A 
ATOM     33  C   UNL A   1      35.058  33.238  31.284  1.00  0.00     0.010 A 
ATOM     34  C   UNL A   1      36.550  33.942  29.516  1.00  0.00     0.010 A 
ATOM     35  C   UNL A   1      36.351  33.280  30.737  1.00  0.00    -0.014 A 
BRANCH  35  36
ATOM     36  C   UNL A   1      37.498  32.627  31.422  1.00  0.00     0.031 A 
ATOM     37  C   UNL A   1      38.201  31.457  30.790  1.00  0.00     0.074 A 
ATOM     38  C   UNL A   1      37.868  33.045  32.649  1.00  0.00     0.049 A 
ATOM     39  N   UNL A   1      39.165  30.710  31.270  1.00  0.00    -0.248 NA
ATOM     40  C   UNL A   1      37.743  31.058  29.450  1.00  0.00     0.031 C 
ATOM     41  C   UNL A   1      37.242  34.140  33.392  1.00  0.00     0.029 A 
ATOM     42  N   UNL A   1      38.850  32.589  33.495  1.00  0.00    -0.354 N 
ATOM     43  C   UNL A   1      39.419  29.750  30.299  1.00  0.00     0.074 A 
ATOM     44  C   UNL A   1      38.475  29.977  29.226  1.00  0.00     0.031 C 
ATOM     45  C   UNL A   1      37.864  34.280  34.574  1.00  0.00     0.029 A 
ATOM     46  C   UNL A   1      38.905  33.264  34.690  1.00  0.00     0.049 A 
ATOM     47  H   UNL A   1      39.457  31.849  33.264  1.00  0.00     0.167 HD
ATOM     48  C   UNL A   1      40.368  28.782  30.293  1.00  0.00     0.037 A 
ATOM     49  C   UNL A   1      39.696  33.078  35.764  1.00  0.00     0.037 A 
ATOM     50  C   UNL A   1      41.321  28.569  31.352  1.00  0.00     0.049 A 
ATOM     51  C   UNL A   1      40.735  31.990  35.736  1.00  0.00     0.074 A 
ATOM     52  C   UNL A   1      42.353  27.648  31.413  1.00  0.00     0.029 A 
ATOM     53  N   UNL A   1      41.357  29.287  32.539  1.00  0.00    -0.354 N 
ATOM     54  N   UNL A   1      41.005  31.128  34.787  1.00  0.00    -0.248 NA
ATOM     55  C   UNL A   1      41.584  31.854  36.929  1.00  0.00     0.031 C 
ATOM     56  C   UNL A   1      42.984  27.778  32.654  1.00  0.00     0.029 A 
ATOM     57  C   UNL A   1      42.380  28.815  33.347  1.00  0.00     0.049 A 
ATOM     58  H   UNL A   1      40.746  30.023  32.772  1.00  0.00     0.167 HD
ATOM     59  C   UNL A   1      42.069  30.367  35.253  1.00  0.00     0.074 A 
ATOM     60  C   UNL A   1      42.406  30.880  36.565  1.00  0.00     0.031 C 
ATOM     61  C   UNL A   1      42.709  29.337  34.648  1.00  0.00     0.037 A 
BRANCH  48  62
ATOM     62  C   UNL A   1      40.425  27.876  29.097  1.00  0.00     0.064 A 
ATOM     63  C   UNL A   1      39.667  26.696  29.032  1.00  0.00     0.173 A 
ATOM     64  C   UNL A   1      41.216  28.208  27.987  1.00  0.00     0.173 A 
ATOM     65  F   UNL A   1      38.901  26.328  30.070  1.00  0.00    -0.203 F 
ATOM     66  C   UNL A   1      39.725  25.867  27.914  1.00  0.00     0.198 A 
ATOM     67  C   UNL A   1      41.247  27.393  26.858  1.00  0.00     0.198 A 
ATOM     68  F   UNL A   1      41.955  29.328  27.992  1.00  0.00    -0.203 F 
ATOM     69  F   UNL A   1      39.032  24.721  27.897  1.00  0.00    -0.200 F 
ATOM     70  C   UNL A   1      40.508  26.219  26.826  1.00  0.00     0.200 A 
ATOM     71  F   UNL A   1      41.994  27.741  25.801  1.00  0.00    -0.200 F 
ATOM     72  F   UNL A   1      40.557  25.424  25.749  1.00  0.00    -0.200 F 
ENDBRANCH  48  62
BRANCH  49  73
ATOM     73  C   UNL A   1      39.547  33.956  36.953  1.00  0.00     0.064 A 
ATOM     74  C   UNL A   1      38.756  33.567  38.043  1.00  0.00     0.173 A 
ATOM     75  C   UNL A   1      40.189  35.201  37.024  1.00  0.00     0.173 A 
ATOM     76  F   UNL A   1      38.104  32.395  38.011  1.00  0.00    -0.203 F 
ATOM     77  C   UNL A   1      38.597  34.398  39.150  1.00  0.00     0.198 A 
ATOM     78  C   UNL A   1      40.053  36.018  38.145  1.00  0.00     0.198 A 
ATOM     79  F   UNL A   1      40.962  35.618  36.010  1.00  0.00    -0.203 F 
ATOM     80  F   UNL A   1      37.798  34.020  40.158  1.00  0.00    -0.200 F 
ATOM     81  C   UNL A   1      39.251  35.619  39.203  1.00  0.00     0.200 A 
ATOM     82  F   UNL A   1      40.697  37.191  38.199  1.00  0.00    -0.200 F 
ATOM     83  F   UNL A   1      39.102  36.415  40.270  1.00  0.00    -0.200 F 
ENDBRANCH  49  73
BRANCH  61  84
ATOM     84  C   UNL A   1      43.862  28.714  35.382  1.00  0.00     0.064 A 
ATOM     85  C   UNL A   1      43.677  27.648  36.274  1.00  0.00     0.173 A 
ATOM     86  C   UNL A   1      45.172  29.166  35.161  1.00  0.00     0.173 A 
ATOM     87  F   UNL A   1      42.443  27.189  36.532  1.00  0.00    -0.203 F 
ATOM     88  C   UNL A   1      44.758  27.073  36.936  1.00  0.00     0.198 A 
ATOM     89  C   UNL A   1      46.254  28.570  35.802  1.00  0.00     0.198 A 
ATOM     90  F   UNL A   1      45.403  30.180  34.313  1.00  0.00    -0.203 F 
ATOM     91  F   UNL A   1      44.555  26.086  37.819  1.00  0.00    -0.200 F 
ATOM     92  C   UNL A   1      46.046  27.529  36.694  1.00  0.00     0.200 A 
ATOM     93  F   UNL A   1      47.498  29.004  35.557  1.00  0.00    -0.200 F 
ATOM     94  F   UNL A   1      47.087  26.970  37.327  1.00  0.00    -0.200 F 
ENDBRANCH  61  84
ENDBRANCH  35  36
ENDBRANCH  27  30
ENDBRANCH  25  26
ENDBRANCH  24  25
ENDBRANCH   1  24
TORSDOF 14
ENDMDL
MODEL 2
REMARK VINA RESULT:     -12.2      0.056      1.951
REMARK SMILES O=C(Cc1ccccc1Nc1c(Cl)cccc1Cl)NCCCCNC(=O)c1ccc(-c2c3nc(c(-c4c(F)c(F)c(F)c(F)c4F)c4ccc([nH]4)c(-c4c(F)c(F)c(F)c(F)c4F)c4nc(c(-c5c(F)c(F)c(F)c(F)c5F)c5ccc2[nH]5)C=C4)C=C3)cc1
REMARK SMILES IDX 21 1 20 2 19 3 1 4 2 5 3 7 4 8 5 9 9 10 6 11 8 12 7 13 10 14
REMARK SMILES IDX 11 16 12 17 17 18 13 19 14 20 16 21 18 22 15 23 22 24 23 25
REMARK SMILES IDX 24 26 25 27 26 29 27 30 28 31 89 32 29 33 88 34 30 35 31 36
REMARK SMILES IDX 32 37 82 38 33 39 87 40 81 41 83 42 34 43 86 44 80 45 79 46
REMARK SMILES IDX 35 48 67 49 47 50 66 51 48 52 51 53 65 54 84 55 49 56 50 57
REMARK SMILES IDX 64 59 85 60 52 61 36 62 37 63 45 64 38 65 39 66 43 67 46 68
REMARK SMILES IDX 40 69 41 70 44 71 42 72 68 73 69 74 77 75 70 76 71 77 75 78
REMARK SMILES IDX 78 79 72 80 73 81 76 82 74 83 53 84 54 85 62 86 55 87 56 88
REMARK SMILES IDX 60 89 63 90 57 91 58 92 61 93 59 94
REMARK H PARENT 19 6 10 15 24 28 83 47 51 58
REMARK Flexibility Score: inf
ROOT
ATOM      1  C   UNL A   1      31.497  30.737  26.123  1.00  0.00     0.023 C 
ENDROOT
BRANCH   1   2
ATOM      2  C   UNL A   1      32.025  29.814  27.222  1.00  0.00     0.116 C 
BRANCH   2   3
ATOM      3  N   UNL A   1      33.038  28.901  26.730  1.00  0.00    -0.356 N 
ATOM      4  O   UNL A   1      31.740  26.998  26.715  1.00  0.00    -0.275 OA
ATOM      5  C   UNL A   1      32.803  27.564  26.477  1.00  0.00     0.224 C 
ATOM      6  H   UNL A   1      33.942  29.253  26.567  1.00  0.00     0.163 HD
BRANCH   5   7
ATOM      7  C   UNL A   1      33.989  26.844  25.846  1.00  0.00     0.137 C 
BRANCH   7   8
ATOM      8  C   UNL A   1      33.653  26.309  24.469  1.00  0.00    -0.015 A 
ATOM      9  C   UNL A   1      33.615  27.224  23.393  1.00  0.00     0.006 A 
ATOM     10  C   UNL A   1      33.345  24.954  24.230  1.00  0.00     0.042 A 
ATOM     11  C   UNL A   1      33.242  26.822  22.114  1.00  0.00     0.000 A 
ATOM     12  C   UNL A   1      32.967  24.576  22.928  1.00  0.00     0.026 A 
ATOM     13  C   UNL A   1      32.907  25.497  21.883  1.00  0.00     0.002 A 
BRANCH  10  14
ATOM     14  N   UNL A   1      33.467  23.988  25.254  1.00  0.00    -0.353 N 
ATOM     15  H   UNL A   1      32.969  24.187  26.080  1.00  0.00     0.167 HD
BRANCH  14  16
ATOM     16  C   UNL A   1      34.200  22.772  25.270  1.00  0.00     0.076 A 
ATOM     17  C   UNL A   1      33.509  21.553  25.095  1.00  0.00     0.066 A 
ATOM     18  C   UNL A   1      35.607  22.702  25.358  1.00  0.00     0.066 A 
ATOM     19  Cl  UNL A   1      31.778  21.520  25.027  1.00  0.00    -0.082 Cl
ATOM     20  C   UNL A   1      34.186  20.335  24.961  1.00  0.00     0.023 A 
ATOM     21  C   UNL A   1      36.284  21.481  25.213  1.00  0.00     0.023 A 
ATOM     22  Cl  UNL A   1      36.588  24.078  25.751  1.00  0.00    -0.082 Cl
ATOM     23  C   UNL A   1      35.576  20.301  25.001  1.00  0.00     0.003 A 
ENDBRANCH  14  16
ENDBRANCH  10  14
ENDBRANCH   7   8
ENDBRANCH   5   7
ENDBRANCH   2   3
ENDBRANCH   1   2
BRANCH   1  24
ATOM     24  C   UNL A   1      31.374  32.219  26.501  1.00  0.00     0.023 C 
BRANCH  24  25
ATOM     25  C   UNL A   1      32.580  32.822  27.215  1.00  0.00     0.116 C 
BRANCH  25  26
ATOM     26  N   UNL A   1      32.359  34.200  27.626  1.00  0.00    -0.352 N 
ATOM     27  C   UNL A   1      32.975  34.934  28.609  1.00  0.00     0.251 C 
ATOM     28  H   UNL A   1      31.661  34.677  27.123  1.00  0.00     0.163 HD
ATOM     29  O   UNL A   1      32.529  36.044  28.909  1.00  0.00    -0.269 OA
BRANCH  27  30
ATOM     30  C   UNL A   1      34.150  34.405  29.337  1.00  0.00     0.039 A 
ATOM     31  C   UNL A   1      33.949  33.765  30.564  1.00  0.00     0.014 A 
ATOM     32  C   UNL A   1      35.448  34.561  28.841  1.00  0.00     0.014 A 
ATOM     33  C   UNL A   1      35.035  33.221  31.257  1.00  0.00     0.010 A 
ATOM     34  C   UNL A   1      36.522  33.961  29.500  1.00  0.00     0.010 A 
ATOM     35  C   UNL A   1      36.328  33.281  30.712  1.00  0.00    -0.014 A 
BRANCH  35  36
ATOM     36  C   UNL A   1      37.479  32.629  31.390  1.00  0.00     0.031 A 
ATOM     37  C   UNL A   1      38.185  31.465  30.750  1.00  0.00     0.074 A 
ATOM     38  C   UNL A   1      37.852  33.042  32.617  1.00  0.00     0.049 A 
ATOM     39  N   UNL A   1      39.153  30.719  31.223  1.00  0.00    -0.248 NA
ATOM     40  C   UNL A   1      37.723  31.071  29.410  1.00  0.00     0.031 C 
ATOM     41  C   UNL A   1      37.225  34.131  33.368  1.00  0.00     0.029 A 
ATOM     42  N   UNL A   1      38.839  32.586  33.457  1.00  0.00    -0.354 N 
ATOM     43  C   UNL A   1      39.407  29.765  30.246  1.00  0.00     0.074 A 
ATOM     44  C   UNL A   1      38.459  29.993  29.177  1.00  0.00     0.031 C 
ATOM     45  C   UNL A   1      37.851  34.268  34.548  1.00  0.00     0.029 A 
ATOM     46  C   UNL A   1      38.896  33.255  34.656  1.00  0.00     0.049 A 
ATOM     47  H   UNL A   1      39.448  31.849  33.221  1.00  0.00     0.167 HD
ATOM     48  C   UNL A   1      40.360  28.800  30.232  1.00  0.00     0.037 A 
ATOM     49  C   UNL A   1      39.691  33.066  35.726  1.00  0.00     0.037 A 
ATOM     50  C   UNL A   1      41.317  28.586  31.286  1.00  0.00     0.049 A 
ATOM     51  C   UNL A   1      40.735  31.983  35.689  1.00  0.00     0.074 A 
ATOM     52  C   UNL A   1      42.353  27.668  31.339  1.00  0.00     0.029 A 
ATOM     53  N   UNL A   1      41.355  29.298  32.476  1.00  0.00    -0.354 N 
ATOM     54  N   UNL A   1      41.004  31.126  34.735  1.00  0.00    -0.248 NA
ATOM     55  C   UNL A   1      41.589  31.844  36.878  1.00  0.00     0.031 C 
ATOM     56  C   UNL A   1      42.988  27.795  32.578  1.00  0.00     0.029 A 
ATOM     57  C   UNL A   1      42.383  28.825  33.278  1.00  0.00     0.049 A 
ATOM     58  H   UNL A   1      40.742  30.031  32.715  1.00  0.00     0.167 HD
ATOM     59  C   UNL A   1      42.073  30.367  35.193  1.00  0.00     0.074 A 
ATOM     60  C   UNL A   1      42.413  30.875  36.506  1.00  0.00     0.031 C 
ATOM     61  C   UNL A   1      42.715  29.343  34.581  1.00  0.00     0.037 A 
BRANCH  48  62
ATOM     62  C   UNL A   1      40.416  27.900  29.031  1.00  0.00     0.064 A 
ATOM     63  C   UNL A   1      41.223  28.203  27.923  1.00  0.00     0.173 A 
ATOM     64  C   UNL A   1      39.685  26.703  29.000  1.00  0.00     0.173 A 
ATOM     65  F   UNL A   1      41.935  29.340  27.897  1.00  0.00    -0.203 F 
ATOM     66  C   UNL A   1      41.272  27.356  26.818  1.00  0.00     0.198 A 
ATOM     67  C   UNL A   1      39.759  25.844  27.906  1.00  0.00     0.198 A 
ATOM     68  F   UNL A   1      38.903  26.361  30.035  1.00  0.00    -0.203 F 
ATOM     69  F   UNL A   1      42.010  27.692  25.751  1.00  0.00    -0.200 F 
ATOM     70  C   UNL A   1      40.546  26.176  26.813  1.00  0.00     0.200 A 
ATOM     71  F   UNL A   1      39.069  24.696  27.910  1.00  0.00    -0.200 F 
ATOM     72  F   UNL A   1      40.599  25.360  25.752  1.00  0.00    -0.200 F 
ENDBRANCH  48  62
BRANCH  49  73
ATOM     73  C   UNL A   1      39.544  33.938  36.920  1.00  0.00     0.064 A 
ATOM     74  C   UNL A   1      40.168  35.192  36.978  1.00  0.00     0.173 A 
ATOM     75  C   UNL A   1      38.779  33.537  38.025  1.00  0.00     0.173 A 
ATOM     76  F   UNL A   1      40.927  35.609  35.955  1.00  0.00    -0.203 F 
ATOM     77  C   UNL A   1      40.049  36.003  38.105  1.00  0.00     0.198 A 
ATOM     78  C   UNL A   1      38.637  34.363  39.139  1.00  0.00     0.198 A 
ATOM     79  F   UNL A   1      38.157  32.349  38.017  1.00  0.00    -0.203 F 
ATOM     80  F   UNL A   1      40.693  37.177  38.153  1.00  0.00    -0.200 F 
ATOM     81  C   UNL A   1      39.278  35.591  39.181  1.00  0.00     0.200 A 
ATOM     82  F   UNL A   1      37.880  33.966  40.172  1.00  0.00    -0.200 F 
ATOM     83  F   UNL A   1      39.159  36.374  40.262  1.00  0.00    -0.200 F 
ENDBRANCH  49  73
BRANCH  61  84
ATOM     84  C   UNL A   1      43.872  28.720  35.307  1.00  0.00     0.064 A 
ATOM     85  C   UNL A   1      45.187  29.170  35.120  1.00  0.00     0.173 A 
ATOM     86  C   UNL A   1      43.657  27.685  36.230  1.00  0.00     0.173 A 
ATOM     87  F   UNL A   1      45.448  30.146  34.238  1.00  0.00    -0.203 F 
ATOM     88  C   UNL A   1      46.247  28.589  35.812  1.00  0.00     0.198 A 
ATOM     89  C   UNL A   1      44.715  27.127  36.942  1.00  0.00     0.198 A 
ATOM     90  F   UNL A   1      42.417  27.222  36.450  1.00  0.00    -0.203 F 
ATOM     91  F   UNL A   1      47.501  29.003  35.584  1.00  0.00    -0.200 F 
ATOM     92  C   UNL A   1      46.010  27.574  36.728  1.00  0.00     0.200 A 
ATOM     93  F   UNL A   1      44.481  26.156  37.835  1.00  0.00    -0.200 F 
ATOM     94  F   UNL A   1      47.030  27.022  37.398  1.00  0.00    -0.200 F 
ENDBRANCH  61  84
ENDBRANCH  35  36
ENDBRANCH  27  30
ENDBRANCH  25  26
ENDBRANCH  24  25
ENDBRANCH   1  24
TORSDOF 14
ENDMDL
MODEL 3
REMARK VINA RESULT:     -12.1      1.680      3.042
REMARK SMILES O=C(Cc1ccccc1Nc1c(Cl)cccc1Cl)NCCCCNC(=O)c1ccc(-c2c3nc(c(-c4c(F)c(F)c(F)c(F)c4F)c4ccc([nH]4)c(-c4c(F)c(F)c(F)c(F)c4F)c4nc(c(-c5c(F)c(F)c(F)c(F)c5F)c5ccc2[nH]5)C=C4)C=C3)cc1
REMARK SMILES IDX 21 1 20 2 19 3 1 4 2 5 3 7 4 8 5 9 9 10 6 11 8 12 7 13 10 14
REMARK SMILES IDX 11 16 12 17 17 18 13 19 14 20 16 21 18 22 15 23 22 24 23 25
REMARK SMILES IDX 24 26 25 27 26 29 27 30 28 31 89 32 29 33 88 34 30 35 31 36
REMARK SMILES IDX 32 37 82 38 33 39 87 40 81 41 83 42 34 43 86 44 80 45 79 46
REMARK SMILES IDX 35 48 67 49 47 50 66 51 48 52 51 53 65 54 84 55 49 56 50 57
REMARK SMILES IDX 64 59 85 60 52 61 36 62 37 63 45 64 38 65 39 66 43 67 46 68
REMARK SMILES IDX 40 69 41 70 44 71 42 72 68 73 69 74 77 75 70 76 71 77 75 78
REMARK SMILES IDX 78 79 72 80 73 81 76 82 74 83 53 84 54 85 62 86 55 87 56 88
REMARK SMILES IDX 60 89 63 90 57 91 58 92 61 93 59 94
REMARK H PARENT 19 6 10 15 24 28 83 47 51 58
REMARK Flexibility Score: inf
ROOT
ATOM      1  C   UNL A   1      31.500  30.844  26.165  1.00  0.00     0.023 C 
ENDROOT
BRANCH   1   2
ATOM      2  C   UNL A   1      32.541  30.042  26.949  1.00  0.00     0.116 C 
BRANCH   2   3
ATOM      3  N   UNL A   1      32.376  28.613  26.772  1.00  0.00    -0.356 N 
ATOM      4  O   UNL A   1      34.216  28.266  25.429  1.00  0.00    -0.275 OA
ATOM      5  C   UNL A   1      33.255  27.826  26.053  1.00  0.00     0.224 C 
ATOM      6  H   UNL A   1      31.597  28.179  27.186  1.00  0.00     0.163 HD
BRANCH   5   7
ATOM      7  C   UNL A   1      32.935  26.337  26.118  1.00  0.00     0.137 C 
BRANCH   7   8
ATOM      8  C   UNL A   1      32.880  25.715  24.738  1.00  0.00    -0.015 A 
ATOM      9  C   UNL A   1      33.923  24.840  24.362  1.00  0.00     0.006 A 
ATOM     10  C   UNL A   1      31.855  25.999  23.813  1.00  0.00     0.042 A 
ATOM     11  C   UNL A   1      33.981  24.288  23.086  1.00  0.00     0.000 A 
ATOM     12  C   UNL A   1      31.940  25.431  22.528  1.00  0.00     0.026 A 
ATOM     13  C   UNL A   1      32.992  24.593  22.164  1.00  0.00     0.002 A 
BRANCH  10  14
ATOM     14  N   UNL A   1      30.741  26.788  24.179  1.00  0.00    -0.353 N 
ATOM     15  H   UNL A   1      30.389  26.622  25.083  1.00  0.00     0.167 HD
BRANCH  14  16
ATOM     16  C   UNL A   1      30.055  27.786  23.437  1.00  0.00     0.076 A 
ATOM     17  C   UNL A   1      28.644  27.751  23.384  1.00  0.00     0.066 A 
ATOM     18  C   UNL A   1      30.691  28.881  22.814  1.00  0.00     0.066 A 
ATOM     19  Cl  UNL A   1      27.766  26.425  24.072  1.00  0.00    -0.082 Cl
ATOM     20  C   UNL A   1      27.903  28.779  22.790  1.00  0.00     0.023 A 
ATOM     21  C   UNL A   1      29.946  29.916  22.227  1.00  0.00     0.023 A 
ATOM     22  Cl  UNL A   1      32.413  28.982  22.633  1.00  0.00    -0.082 Cl
ATOM     23  C   UNL A   1      28.554  29.873  22.227  1.00  0.00     0.003 A 
ENDBRANCH  14  16
ENDBRANCH  10  14
ENDBRANCH   7   8
ENDBRANCH   5   7
ENDBRANCH   2   3
ENDBRANCH   1   2
BRANCH   1  24
ATOM     24  C   UNL A   1      31.371  32.323  26.553  1.00  0.00     0.023 C 
BRANCH  24  25
ATOM     25  C   UNL A   1      32.594  32.942  27.223  1.00  0.00     0.116 C 
BRANCH  25  26
ATOM     26  N   UNL A   1      32.366  34.312  27.653  1.00  0.00    -0.352 N 
ATOM     27  C   UNL A   1      32.983  35.037  28.642  1.00  0.00     0.251 C 
ATOM     28  H   UNL A   1      31.662  34.792  27.160  1.00  0.00     0.163 HD
ATOM     29  O   UNL A   1      32.531  36.140  28.959  1.00  0.00    -0.269 OA
BRANCH  27  30
ATOM     30  C   UNL A   1      34.166  34.507  29.357  1.00  0.00     0.039 A 
ATOM     31  C   UNL A   1      33.982  33.902  30.604  1.00  0.00     0.014 A 
ATOM     32  C   UNL A   1      35.454  34.627  28.828  1.00  0.00     0.014 A 
ATOM     33  C   UNL A   1      35.074  33.357  31.286  1.00  0.00     0.010 A 
ATOM     34  C   UNL A   1      36.533  34.025  29.477  1.00  0.00     0.010 A 
ATOM     35  C   UNL A   1      36.355  33.381  30.711  1.00  0.00    -0.014 A 
BRANCH  35  36
ATOM     36  C   UNL A   1      37.511  32.726  31.379  1.00  0.00     0.031 A 
ATOM     37  C   UNL A   1      38.223  31.575  30.722  1.00  0.00     0.074 A 
ATOM     38  C   UNL A   1      37.882  33.124  32.612  1.00  0.00     0.049 A 
ATOM     39  N   UNL A   1      39.196  30.829  31.184  1.00  0.00    -0.248 NA
ATOM     40  C   UNL A   1      37.763  31.197  29.377  1.00  0.00     0.031 C 
ATOM     41  C   UNL A   1      37.249  34.199  33.378  1.00  0.00     0.029 A 
ATOM     42  N   UNL A   1      38.872  32.662  33.445  1.00  0.00    -0.354 N 
ATOM     43  C   UNL A   1      39.455  29.890  30.194  1.00  0.00     0.074 A 
ATOM     44  C   UNL A   1      38.505  30.127  29.129  1.00  0.00     0.031 C 
ATOM     45  C   UNL A   1      37.874  34.323  34.560  1.00  0.00     0.029 A 
ATOM     46  C   UNL A   1      38.925  33.314  34.653  1.00  0.00     0.049 A 
ATOM     47  H   UNL A   1      39.485  31.932  33.198  1.00  0.00     0.167 HD
ATOM     48  C   UNL A   1      40.413  28.931  30.166  1.00  0.00     0.037 A 
ATOM     49  C   UNL A   1      39.722  33.116  35.720  1.00  0.00     0.037 A 
ATOM     50  C   UNL A   1      41.372  28.708  31.217  1.00  0.00     0.049 A 
ATOM     51  C   UNL A   1      40.772  32.039  35.667  1.00  0.00     0.074 A 
ATOM     52  C   UNL A   1      42.413  27.796  31.256  1.00  0.00     0.029 A 
ATOM     53  N   UNL A   1      41.406  29.403  32.416  1.00  0.00    -0.354 N 
ATOM     54  N   UNL A   1      41.046  31.198  34.701  1.00  0.00    -0.248 NA
ATOM     55  C   UNL A   1      41.628  31.889  36.853  1.00  0.00     0.031 C 
ATOM     56  C   UNL A   1      43.049  27.909  32.497  1.00  0.00     0.029 A 
ATOM     57  C   UNL A   1      42.437  28.926  33.211  1.00  0.00     0.049 A 
ATOM     58  H   UNL A   1      40.789  30.129  32.666  1.00  0.00     0.167 HD
ATOM     59  C   UNL A   1      42.120  30.439  35.149  1.00  0.00     0.074 A 
ATOM     60  C   UNL A   1      42.457  30.930  36.468  1.00  0.00     0.031 C 
ATOM     61  C   UNL A   1      42.767  29.427  34.521  1.00  0.00     0.037 A 
BRANCH  48  62
ATOM     62  C   UNL A   1      40.474  28.049  28.952  1.00  0.00     0.064 A 
ATOM     63  C   UNL A   1      39.743  26.853  28.876  1.00  0.00     0.173 A 
ATOM     64  C   UNL A   1      41.242  28.419  27.838  1.00  0.00     0.173 A 
ATOM     65  F   UNL A   1      39.000  26.448  29.918  1.00  0.00    -0.203 F 
ATOM     66  C   UNL A   1      39.803  26.046  27.742  1.00  0.00     0.198 A 
ATOM     67  C   UNL A   1      41.276  27.625  26.694  1.00  0.00     0.198 A 
ATOM     68  F   UNL A   1      41.955  29.555  27.854  1.00  0.00    -0.203 F 
ATOM     69  F   UNL A   1      39.136  24.885  27.713  1.00  0.00    -0.200 F 
ATOM     70  C   UNL A   1      40.564  26.436  26.651  1.00  0.00     0.200 A 
ATOM     71  F   UNL A   1      42.000  28.010  25.633  1.00  0.00    -0.200 F 
ATOM     72  F   UNL A   1      40.615  25.661  25.558  1.00  0.00    -0.200 F 
ENDBRANCH  48  62
BRANCH  49  73
ATOM     73  C   UNL A   1      39.570  33.970  36.926  1.00  0.00     0.064 A 
ATOM     74  C   UNL A   1      38.791  33.550  38.013  1.00  0.00     0.173 A 
ATOM     75  C   UNL A   1      40.196  35.222  37.016  1.00  0.00     0.173 A 
ATOM     76  F   UNL A   1      38.155  32.371  37.964  1.00  0.00    -0.203 F 
ATOM     77  C   UNL A   1      38.629  34.358  39.137  1.00  0.00     0.198 A 
ATOM     78  C   UNL A   1      40.057  36.016  38.153  1.00  0.00     0.198 A 
ATOM     79  F   UNL A   1      40.956  35.668  36.005  1.00  0.00    -0.203 F 
ATOM     80  F   UNL A   1      37.842  33.952  40.142  1.00  0.00    -0.200 F 
ATOM     81  C   UNL A   1      39.267  35.587  39.209  1.00  0.00     0.200 A 
ATOM     82  F   UNL A   1      40.686  37.197  38.224  1.00  0.00    -0.200 F 
ATOM     83  F   UNL A   1      39.115  36.361  40.291  1.00  0.00    -0.200 F 
ENDBRANCH  49  73
BRANCH  61  84
ATOM     84  C   UNL A   1      43.929  28.801  35.239  1.00  0.00     0.064 A 
ATOM     85  C   UNL A   1      45.240  29.268  35.066  1.00  0.00     0.173 A 
ATOM     86  C   UNL A   1      43.721  27.744  36.139  1.00  0.00     0.173 A 
ATOM     87  F   UNL A   1      45.493  30.265  34.205  1.00  0.00    -0.203 F 
ATOM     88  C   UNL A   1      46.303  28.684  35.749  1.00  0.00     0.198 A 
ATOM     89  C   UNL A   1      44.783  27.182  36.842  1.00  0.00     0.198 A 
ATOM     90  F   UNL A   1      42.485  27.264  36.344  1.00  0.00    -0.203 F 
ATOM     91  F   UNL A   1      47.553  29.115  35.534  1.00  0.00    -0.200 F 
ATOM     92  C   UNL A   1      46.073  27.648  36.642  1.00  0.00     0.200 A 
ATOM     93  F   UNL A   1      44.556  26.190  37.714  1.00  0.00    -0.200 F 
ATOM     94  F   UNL A   1      47.097  27.092  37.304  1.00  0.00    -0.200 F 
ENDBRANCH  61  84
ENDBRANCH  35  36
ENDBRANCH  27  30
ENDBRANCH  25  26
ENDBRANCH  24  25
ENDBRANCH   1  24
TORSDOF 14
ENDMDL
