MODEL 1
REMARK VINA RESULT:      -9.6      0.000      0.000
REMARK SMILES C[C@H](Oc1ccc(/C=C2/SC(=S)N(c3ccc(F)c(Cl)c3)C2=O)cc1)C(=O)NCCCCNC(=O)c1ccc(-c2c3nc(c(-c4c(F)c(F)c(F)c(F)c4F)c4ccc([nH]4)c(-c4c(F)c(F)c(F)c(F)c4F)c4nc(c(-c5c(F)c(F)c(F)c(F)c5F)c5ccc2[nH]5)C=C4)C=C3)cc1
REMARK SMILES IDX 29 1 28 2 26 3 27 4 2 6 1 7 3 8 4 9 5 10 25 11 6 12 24 13
REMARK SMILES IDX 7 14 8 15 9 16 10 17 22 18 11 19 13 20 23 21 12 22 14 23
REMARK SMILES IDX 15 24 21 25 16 26 19 27 17 28 20 29 18 30 30 31 31 32 32 33
REMARK SMILES IDX 33 34 34 35 35 37 36 38 37 39 98 40 38 41 97 42 39 43 40 44
REMARK SMILES IDX 41 45 91 46 42 47 96 48 90 49 92 50 43 51 95 52 89 53 88 54
REMARK SMILES IDX 44 56 76 57 56 58 75 59 57 60 60 61 74 62 93 63 58 64 59 65
REMARK SMILES IDX 73 67 94 68 61 69 45 70 46 71 54 72 47 73 48 74 52 75 55 76
REMARK SMILES IDX 49 77 50 78 53 79 51 80 77 81 78 82 86 83 79 84 80 85 84 86
REMARK SMILES IDX 87 87 81 88 82 89 85 90 83 91 62 92 63 93 71 94 64 95 65 96
REMARK SMILES IDX 69 97 72 98 66 99 67 100 70 101 68 102
REMARK H PARENT 28 5 33 36 92 55 60 66
REMARK Flexibility Score: inf
ROOT
ATOM      1  C   UNL A   1      33.727  34.877  30.053  1.00  0.00     0.116 C 
ENDROOT
BRANCH   1   2
ATOM      2  N   UNL A   1      34.246  35.435  31.290  1.00  0.00    -0.353 N 
ATOM      3  C   UNL A   1      35.204  34.933  32.134  1.00  0.00     0.260 C 
ATOM      4  O   UNL A   1      35.505  35.602  33.126  1.00  0.00    -0.271 OA
ATOM      5  H   UNL A   1      33.854  36.296  31.562  1.00  0.00     0.163 HD
BRANCH   3   6
ATOM      6  C   UNL A   1      35.918  33.608  31.812  1.00  0.00     0.258 C 
ATOM      7  C   UNL A   1      34.985  32.462  32.203  1.00  0.00     0.064 C 
BRANCH   6   8
ATOM      8  O   UNL A   1      37.210  33.745  32.405  1.00  0.00    -0.481 OA
BRANCH   8   9
ATOM      9  C   UNL A   1      38.361  34.020  31.747  1.00  0.00     0.120 A 
ATOM     10  C   UNL A   1      39.633  34.169  32.281  1.00  0.00     0.047 A 
ATOM     11  C   UNL A   1      38.185  34.178  30.370  1.00  0.00     0.047 A 
ATOM     12  C   UNL A   1      40.692  34.596  31.468  1.00  0.00     0.012 A 
ATOM     13  C   UNL A   1      39.242  34.570  29.550  1.00  0.00     0.012 A 
ATOM     14  C   UNL A   1      40.494  34.840  30.105  1.00  0.00    -0.024 A 
BRANCH  14  15
ATOM     15  C   UNL A   1      41.605  35.318  29.277  1.00  0.00     0.029 C 
ATOM     16  C   UNL A   1      42.634  34.588  28.820  1.00  0.00     0.081 C 
ATOM     17  S   UNL A   1      43.943  35.299  27.954  1.00  0.00    -0.054 SA
ATOM     18  C   UNL A   1      42.880  33.120  28.992  1.00  0.00     0.270 C 
ATOM     19  C   UNL A   1      44.883  33.810  27.940  1.00  0.00     0.152 C 
ATOM     20  N   UNL A   1      44.175  32.799  28.577  1.00  0.00    -0.261 N 
ATOM     21  O   UNL A   1      42.054  32.351  29.454  1.00  0.00    -0.268 OA
ATOM     22  S   UNL A   1      46.353  33.746  27.143  1.00  0.00    -0.051 S 
BRANCH  20  23
ATOM     23  C   UNL A   1      44.689  31.488  28.830  1.00  0.00     0.052 A 
ATOM     24  C   UNL A   1      45.588  31.259  29.885  1.00  0.00     0.030 A 
ATOM     25  C   UNL A   1      44.364  30.416  27.982  1.00  0.00     0.050 A 
ATOM     26  C   UNL A   1      46.128  29.988  30.105  1.00  0.00     0.043 A 
ATOM     27  C   UNL A   1      44.918  29.150  28.195  1.00  0.00     0.078 A 
ATOM     28  C   UNL A   1      45.791  28.940  29.257  1.00  0.00     0.141 A 
ATOM     29  Cl  UNL A   1      44.530  27.869  27.111  1.00  0.00    -0.081 Cl
ATOM     30  F   UNL A   1      46.332  27.732  29.473  1.00  0.00    -0.205 F 
ENDBRANCH  20  23
ENDBRANCH  14  15
ENDBRANCH   8   9
ENDBRANCH   6   8
ENDBRANCH   3   6
ENDBRANCH   1   2
BRANCH   1  31
ATOM     31  C   UNL A   1      34.710  35.008  28.894  1.00  0.00     0.023 C 
BRANCH  31  32
ATOM     32  C   UNL A   1      34.859  33.756  28.028  1.00  0.00     0.023 C 
BRANCH  32  33
ATOM     33  C   UNL A   1      34.359  32.459  28.658  1.00  0.00     0.116 C 
BRANCH  33  34
ATOM     34  N   UNL A   1      33.979  31.452  27.679  1.00  0.00    -0.352 N 
ATOM     35  C   UNL A   1      34.672  30.342  27.260  1.00  0.00     0.251 C 
ATOM     36  H   UNL A   1      33.100  31.587  27.255  1.00  0.00     0.163 HD
ATOM     37  O   UNL A   1      34.243  29.660  26.333  1.00  0.00    -0.269 OA
BRANCH  35  38
ATOM     38  C   UNL A   1      35.956  29.986  27.904  1.00  0.00     0.039 A 
ATOM     39  C   UNL A   1      35.934  29.419  29.181  1.00  0.00     0.014 A 
ATOM     40  C   UNL A   1      37.174  30.192  27.251  1.00  0.00     0.014 A 
ATOM     41  C   UNL A   1      37.126  28.990  29.772  1.00  0.00     0.010 A 
ATOM     42  C   UNL A   1      38.352  29.706  27.811  1.00  0.00     0.010 A 
ATOM     43  C   UNL A   1      38.341  29.095  29.074  1.00  0.00    -0.014 A 
BRANCH  43  44
ATOM     44  C   UNL A   1      39.603  28.558  29.642  1.00  0.00     0.031 A 
ATOM     45  C   UNL A   1      40.315  29.296  30.740  1.00  0.00     0.074 A 
ATOM     46  C   UNL A   1      40.151  27.444  29.116  1.00  0.00     0.049 A 
ATOM     47  N   UNL A   1      41.468  29.034  31.303  1.00  0.00    -0.248 NA
ATOM     48  C   UNL A   1      39.654  30.504  31.258  1.00  0.00     0.031 C 
ATOM     49  C   UNL A   1      39.587  26.664  28.014  1.00  0.00     0.029 A 
ATOM     50  N   UNL A   1      41.314  26.785  29.429  1.00  0.00    -0.354 N 
ATOM     51  C   UNL A   1      41.677  30.050  32.226  1.00  0.00     0.074 A 
ATOM     52  C   UNL A   1      40.556  30.958  32.116  1.00  0.00     0.031 C 
ATOM     53  C   UNL A   1      40.396  25.625  27.752  1.00  0.00     0.029 A 
ATOM     54  C   UNL A   1      41.551  25.683  28.644  1.00  0.00     0.049 A 
ATOM     55  H   UNL A   1      41.921  27.073  30.149  1.00  0.00     0.167 HD
ATOM     56  C   UNL A   1      42.700  30.200  33.101  1.00  0.00     0.037 A 
ATOM     57  C   UNL A   1      42.586  24.823  28.636  1.00  0.00     0.037 A 
ATOM     58  C   UNL A   1      43.802  29.283  33.229  1.00  0.00     0.049 A 
ATOM     59  C   UNL A   1      43.706  25.007  29.625  1.00  0.00     0.074 A 
ATOM     60  C   UNL A   1      44.856  29.319  34.126  1.00  0.00     0.029 A 
ATOM     61  N   UNL A   1      43.990  28.160  32.437  1.00  0.00    -0.354 N 
ATOM     62  N   UNL A   1      43.862  25.937  30.534  1.00  0.00    -0.248 NA
ATOM     63  C   UNL A   1      44.791  24.016  29.589  1.00  0.00     0.031 C 
ATOM     64  C   UNL A   1      45.701  28.238  33.853  1.00  0.00     0.029 A 
ATOM     65  C   UNL A   1      45.152  27.505  32.814  1.00  0.00     0.049 A 
ATOM     66  H   UNL A   1      43.388  27.871  31.714  1.00  0.00     0.167 HD
ATOM     67  C   UNL A   1      45.044  25.631  31.193  1.00  0.00     0.074 A 
ATOM     68  C   UNL A   1      45.560  24.421  30.590  1.00  0.00     0.031 C 
ATOM     69  C   UNL A   1      45.647  26.295  32.209  1.00  0.00     0.037 A 
BRANCH  56  70
ATOM     70  C   UNL A   1      42.672  31.404  33.998  1.00  0.00     0.064 A 
ATOM     71  C   UNL A   1      42.169  31.330  35.305  1.00  0.00     0.173 A 
ATOM     72  C   UNL A   1      43.186  32.633  33.559  1.00  0.00     0.173 A 
ATOM     73  F   UNL A   1      41.655  30.180  35.767  1.00  0.00    -0.203 F 
ATOM     74  C   UNL A   1      42.153  32.451  36.130  1.00  0.00     0.198 A 
ATOM     75  C   UNL A   1      43.195  33.744  34.398  1.00  0.00     0.198 A 
ATOM     76  F   UNL A   1      43.685  32.755  32.320  1.00  0.00    -0.203 F 
ATOM     77  F   UNL A   1      41.624  32.369  37.359  1.00  0.00    -0.200 F 
ATOM     78  C   UNL A   1      42.672  33.655  35.680  1.00  0.00     0.200 A 
ATOM     79  F   UNL A   1      43.708  34.905  33.964  1.00  0.00    -0.200 F 
ATOM     80  F   UNL A   1      42.662  34.731  36.477  1.00  0.00    -0.200 F 
ENDBRANCH  56  70
BRANCH  57  81
ATOM     81  C   UNL A   1      42.602  23.692  27.674  1.00  0.00     0.064 A 
ATOM     82  C   UNL A   1      42.129  22.426  28.046  1.00  0.00     0.173 A 
ATOM     83  C   UNL A   1      43.088  23.850  26.368  1.00  0.00     0.173 A 
ATOM     84  F   UNL A   1      41.674  22.221  29.290  1.00  0.00    -0.203 F 
ATOM     85  C   UNL A   1      42.159  21.356  27.153  1.00  0.00     0.198 A 
ATOM     86  C   UNL A   1      43.095  22.786  25.469  1.00  0.00     0.198 A 
ATOM     87  F   UNL A   1      43.549  25.043  25.964  1.00  0.00    -0.203 F 
ATOM     88  F   UNL A   1      41.740  20.146  27.548  1.00  0.00    -0.200 F 
ATOM     89  C   UNL A   1      42.636  21.538  25.864  1.00  0.00     0.200 A 
ATOM     90  F   UNL A   1      43.546  22.969  24.221  1.00  0.00    -0.200 F 
ATOM     91  F   UNL A   1      42.663  20.510  25.006  1.00  0.00    -0.200 F 
ENDBRANCH  57  81
BRANCH  69  92
ATOM     92  C   UNL A   1      46.918  25.711  32.753  1.00  0.00     0.064 A 
ATOM     93  C   UNL A   1      46.912  24.815  33.831  1.00  0.00     0.173 A 
ATOM     94  C   UNL A   1      48.152  26.020  32.160  1.00  0.00     0.173 A 
ATOM     95  F   UNL A   1      45.759  24.502  34.441  1.00  0.00    -0.203 F 
ATOM     96  C   UNL A   1      48.098  24.268  34.312  1.00  0.00     0.198 A 
ATOM     97  C   UNL A   1      49.332  25.450  32.626  1.00  0.00     0.198 A 
ATOM     98  F   UNL A   1      48.210  26.868  31.121  1.00  0.00    -0.203 F 
ATOM     99  F   UNL A   1      48.073  23.447  35.371  1.00  0.00    -0.200 F 
ATOM    100  C   UNL A   1      49.305  24.580  33.705  1.00  0.00     0.200 A 
ATOM    101  F   UNL A   1      50.497  25.743  32.032  1.00  0.00    -0.200 F 
ATOM    102  F   UNL A   1      50.445  24.046  34.164  1.00  0.00    -0.200 F 
ENDBRANCH  69  92
ENDBRANCH  43  44
ENDBRANCH  35  38
ENDBRANCH  33  34
ENDBRANCH  32  33
ENDBRANCH  31  32
ENDBRANCH   1  31
TORSDOF 15
ENDMDL
MODEL 2
REMARK VINA RESULT:      -9.5      4.043     10.503
REMARK SMILES C[C@H](Oc1ccc(/C=C2/SC(=S)N(c3ccc(F)c(Cl)c3)C2=O)cc1)C(=O)NCCCCNC(=O)c1ccc(-c2c3nc(c(-c4c(F)c(F)c(F)c(F)c4F)c4ccc([nH]4)c(-c4c(F)c(F)c(F)c(F)c4F)c4nc(c(-c5c(F)c(F)c(F)c(F)c5F)c5ccc2[nH]5)C=C4)C=C3)cc1
REMARK SMILES IDX 29 1 28 2 26 3 27 4 2 6 1 7 3 8 4 9 5 10 25 11 6 12 24 13
REMARK SMILES IDX 7 14 8 15 9 16 10 17 22 18 11 19 13 20 23 21 12 22 14 23
REMARK SMILES IDX 15 24 21 25 16 26 19 27 17 28 20 29 18 30 30 31 31 32 32 33
REMARK SMILES IDX 33 34 34 35 35 37 36 38 37 39 98 40 38 41 97 42 39 43 40 44
REMARK SMILES IDX 41 45 91 46 42 47 96 48 90 49 92 50 43 51 95 52 89 53 88 54
REMARK SMILES IDX 44 56 76 57 56 58 75 59 57 60 60 61 74 62 93 63 58 64 59 65
REMARK SMILES IDX 73 67 94 68 61 69 45 70 46 71 54 72 47 73 48 74 52 75 55 76
REMARK SMILES IDX 49 77 50 78 53 79 51 80 77 81 78 82 86 83 79 84 80 85 84 86
REMARK SMILES IDX 87 87 81 88 82 89 85 90 83 91 62 92 63 93 71 94 64 95 65 96
REMARK SMILES IDX 69 97 72 98 66 99 67 100 70 101 68 102
REMARK H PARENT 28 5 33 36 92 55 60 66
REMARK Flexibility Score: inf
ROOT
ATOM      1  C   UNL A   1      45.130  22.059  25.807  1.00  0.00     0.116 C 
ENDROOT
BRANCH   1   2
ATOM      2  N   UNL A   1      45.974  22.932  25.009  1.00  0.00    -0.353 N 
ATOM      3  C   UNL A   1      46.084  24.299  25.039  1.00  0.00     0.260 C 
ATOM      4  O   UNL A   1      46.896  24.828  24.276  1.00  0.00    -0.271 OA
ATOM      5  H   UNL A   1      46.549  22.477  24.352  1.00  0.00     0.163 HD
BRANCH   3   6
ATOM      6  C   UNL A   1      45.261  25.131  26.040  1.00  0.00     0.258 C 
ATOM      7  C   UNL A   1      44.784  26.394  25.322  1.00  0.00     0.064 C 
BRANCH   6   8
ATOM      8  O   UNL A   1      46.085  25.208  27.203  1.00  0.00    -0.481 OA
BRANCH   8   9
ATOM      9  C   UNL A   1      45.738  24.812  28.450  1.00  0.00     0.120 A 
ATOM     10  C   UNL A   1      44.722  23.939  28.816  1.00  0.00     0.047 A 
ATOM     11  C   UNL A   1      46.521  25.393  29.452  1.00  0.00     0.047 A 
ATOM     12  C   UNL A   1      44.410  23.750  30.169  1.00  0.00     0.012 A 
ATOM     13  C   UNL A   1      46.236  25.181  30.800  1.00  0.00     0.012 A 
ATOM     14  C   UNL A   1      45.138  24.403  31.169  1.00  0.00    -0.024 A 
BRANCH  14  15
ATOM     15  C   UNL A   1      44.776  24.219  32.578  1.00  0.00     0.029 C 
ATOM     16  C   UNL A   1      44.103  25.087  33.350  1.00  0.00     0.081 C 
ATOM     17  S   UNL A   1      43.847  24.802  35.030  1.00  0.00    -0.054 SA
ATOM     18  C   UNL A   1      43.521  26.413  32.967  1.00  0.00     0.270 C 
ATOM     19  C   UNL A   1      43.156  26.399  35.304  1.00  0.00     0.152 C 
ATOM     20  N   UNL A   1      43.118  27.107  34.111  1.00  0.00    -0.261 N 
ATOM     21  O   UNL A   1      43.446  26.806  31.815  1.00  0.00    -0.268 OA
ATOM     22  S   UNL A   1      42.575  26.819  36.817  1.00  0.00    -0.051 S 
BRANCH  20  23
ATOM     23  C   UNL A   1      42.708  28.474  33.995  1.00  0.00     0.052 A 
ATOM     24  C   UNL A   1      41.386  28.801  33.648  1.00  0.00     0.030 A 
ATOM     25  C   UNL A   1      43.636  29.516  34.154  1.00  0.00     0.050 A 
ATOM     26  C   UNL A   1      40.995  30.134  33.488  1.00  0.00     0.043 A 
ATOM     27  C   UNL A   1      43.246  30.847  33.978  1.00  0.00     0.078 A 
ATOM     28  C   UNL A   1      41.929  31.150  33.653  1.00  0.00     0.141 A 
ATOM     29  Cl  UNL A   1      44.421  32.096  34.139  1.00  0.00    -0.081 Cl
ATOM     30  F   UNL A   1      41.540  32.421  33.479  1.00  0.00    -0.205 F 
ENDBRANCH  20  23
ENDBRANCH  14  15
ENDBRANCH   8   9
ENDBRANCH   6   8
ENDBRANCH   3   6
ENDBRANCH   1   2
BRANCH   1  31
ATOM     31  C   UNL A   1      43.662  22.128  25.395  1.00  0.00     0.023 C 
BRANCH  31  32
ATOM     32  C   UNL A   1      42.712  21.291  26.253  1.00  0.00     0.023 C 
BRANCH  32  33
ATOM     33  C   UNL A   1      41.675  22.080  27.046  1.00  0.00     0.116 C 
BRANCH  33  34
ATOM     34  N   UNL A   1      40.326  21.953  26.518  1.00  0.00    -0.352 N 
ATOM     35  C   UNL A   1      39.317  22.886  26.474  1.00  0.00     0.251 C 
ATOM     36  H   UNL A   1      40.102  21.072  26.138  1.00  0.00     0.163 HD
ATOM     37  O   UNL A   1      38.195  22.565  26.092  1.00  0.00    -0.269 OA
BRANCH  35  38
ATOM     38  C   UNL A   1      39.575  24.273  26.921  1.00  0.00     0.039 A 
ATOM     39  C   UNL A   1      39.254  24.627  28.234  1.00  0.00     0.014 A 
ATOM     40  C   UNL A   1      40.142  25.217  26.061  1.00  0.00     0.014 A 
ATOM     41  C   UNL A   1      39.572  25.903  28.708  1.00  0.00     0.010 A 
ATOM     42  C   UNL A   1      40.517  26.465  26.551  1.00  0.00     0.010 A 
ATOM     43  C   UNL A   1      40.242  26.820  27.881  1.00  0.00    -0.014 A 
BRANCH  43  44
ATOM     44  C   UNL A   1      40.676  28.145  28.392  1.00  0.00     0.031 A 
ATOM     45  C   UNL A   1      42.126  28.404  28.691  1.00  0.00     0.074 A 
ATOM     46  C   UNL A   1      39.755  29.091  28.662  1.00  0.00     0.049 A 
ATOM     47  N   UNL A   1      42.686  29.461  29.223  1.00  0.00    -0.248 NA
ATOM     48  C   UNL A   1      43.068  27.320  28.372  1.00  0.00     0.031 C 
ATOM     49  C   UNL A   1      38.312  28.946  28.465  1.00  0.00     0.029 A 
ATOM     50  N   UNL A   1      39.895  30.357  29.173  1.00  0.00    -0.354 N 
ATOM     51  C   UNL A   1      44.039  29.165  29.317  1.00  0.00     0.074 A 
ATOM     52  C   UNL A   1      44.210  27.812  28.832  1.00  0.00     0.031 C 
ATOM     53  C   UNL A   1      37.701  30.082  28.838  1.00  0.00     0.029 A 
ATOM     54  C   UNL A   1      38.704  31.023  29.330  1.00  0.00     0.049 A 
ATOM     55  H   UNL A   1      40.767  30.751  29.406  1.00  0.00     0.167 HD
ATOM     56  C   UNL A   1      45.051  29.956  29.748  1.00  0.00     0.037 A 
ATOM     57  C   UNL A   1      38.447  32.249  29.823  1.00  0.00     0.037 A 
ATOM     58  C   UNL A   1      44.885  31.310  30.205  1.00  0.00     0.049 A 
ATOM     59  C   UNL A   1      39.590  33.111  30.288  1.00  0.00     0.074 A 
ATOM     60  C   UNL A   1      45.857  32.211  30.608  1.00  0.00     0.029 A 
ATOM     61  N   UNL A   1      43.665  31.961  30.319  1.00  0.00    -0.354 N 
ATOM     62  N   UNL A   1      40.872  32.842  30.315  1.00  0.00    -0.248 NA
ATOM     63  C   UNL A   1      39.248  34.452  30.785  1.00  0.00     0.031 C 
ATOM     64  C   UNL A   1      45.222  33.395  30.998  1.00  0.00     0.029 A 
ATOM     65  C   UNL A   1      43.859  33.247  30.800  1.00  0.00     0.049 A 
ATOM     66  H   UNL A   1      42.792  31.569  30.091  1.00  0.00     0.167 HD
ATOM     67  C   UNL A   1      41.491  33.983  30.805  1.00  0.00     0.074 A 
ATOM     68  C   UNL A   1      40.446  34.954  31.050  1.00  0.00     0.031 C 
ATOM     69  C   UNL A   1      42.808  34.205  31.031  1.00  0.00     0.037 A 
BRANCH  56  70
ATOM     70  C   UNL A   1      46.435  29.375  29.739  1.00  0.00     0.064 A 
ATOM     71  C   UNL A   1      46.986  28.780  30.883  1.00  0.00     0.173 A 
ATOM     72  C   UNL A   1      47.203  29.381  28.565  1.00  0.00     0.173 A 
ATOM     73  F   UNL A   1      46.296  28.760  32.033  1.00  0.00    -0.203 F 
ATOM     74  C   UNL A   1      48.269  28.239  30.861  1.00  0.00     0.198 A 
ATOM     75  C   UNL A   1      48.474  28.813  28.539  1.00  0.00     0.198 A 
ATOM     76  F   UNL A   1      46.719  29.931  27.442  1.00  0.00    -0.203 F 
ATOM     77  F   UNL A   1      48.794  27.719  31.978  1.00  0.00    -0.200 F 
ATOM     78  C   UNL A   1      49.009  28.249  29.688  1.00  0.00     0.200 A 
ATOM     79  F   UNL A   1      49.183  28.814  27.401  1.00  0.00    -0.200 F 
ATOM     80  F   UNL A   1      50.241  27.723  29.667  1.00  0.00    -0.200 F 
ENDBRANCH  56  70
BRANCH  57  81
ATOM     81  C   UNL A   1      37.049  32.746  29.882  1.00  0.00     0.064 A 
ATOM     82  C   UNL A   1      36.467  33.383  28.778  1.00  0.00     0.173 A 
ATOM     83  C   UNL A   1      36.268  32.595  31.037  1.00  0.00     0.173 A 
ATOM     84  F   UNL A   1      37.181  33.568  27.658  1.00  0.00    -0.203 F 
ATOM     85  C   UNL A   1      35.162  33.868  28.833  1.00  0.00     0.198 A 
ATOM     86  C   UNL A   1      34.955  33.059  31.083  1.00  0.00     0.198 A 
ATOM     87  F   UNL A   1      36.780  31.989  32.119  1.00  0.00    -0.203 F 
ATOM     88  F   UNL A   1      34.644  34.512  27.778  1.00  0.00    -0.200 F 
ATOM     89  C   UNL A   1      34.405  33.701  29.983  1.00  0.00     0.200 A 
ATOM     90  F   UNL A   1      34.223  32.884  32.191  1.00  0.00    -0.200 F 
ATOM     91  F   UNL A   1      33.149  34.166  30.035  1.00  0.00    -0.200 F 
ENDBRANCH  57  81
BRANCH  69  92
ATOM     92  C   UNL A   1      43.199  35.561  31.543  1.00  0.00     0.064 A 
ATOM     93  C   UNL A   1      43.174  35.864  32.911  1.00  0.00     0.173 A 
ATOM     94  C   UNL A   1      43.643  36.553  30.655  1.00  0.00     0.173 A 
ATOM     95  F   UNL A   1      42.741  34.954  33.796  1.00  0.00    -0.203 F 
ATOM     96  C   UNL A   1      43.557  37.121  33.371  1.00  0.00     0.198 A 
ATOM     97  C   UNL A   1      44.051  37.798  31.121  1.00  0.00     0.198 A 
ATOM     98  F   UNL A   1      43.691  36.308  29.337  1.00  0.00    -0.203 F 
ATOM     99  F   UNL A   1      43.485  37.404  34.679  1.00  0.00    -0.200 F 
ATOM    100  C   UNL A   1      44.002  38.084  32.477  1.00  0.00     0.200 A 
ATOM    101  F   UNL A   1      44.491  38.724  30.258  1.00  0.00    -0.200 F 
ATOM    102  F   UNL A   1      44.378  39.291  32.922  1.00  0.00    -0.200 F 
ENDBRANCH  69  92
ENDBRANCH  43  44
ENDBRANCH  35  38
ENDBRANCH  33  34
ENDBRANCH  32  33
ENDBRANCH  31  32
ENDBRANCH   1  31
TORSDOF 15
ENDMDL
MODEL 3
REMARK VINA RESULT:      -9.1      3.694      9.965
REMARK SMILES C[C@H](Oc1ccc(/C=C2/SC(=S)N(c3ccc(F)c(Cl)c3)C2=O)cc1)C(=O)NCCCCNC(=O)c1ccc(-c2c3nc(c(-c4c(F)c(F)c(F)c(F)c4F)c4ccc([nH]4)c(-c4c(F)c(F)c(F)c(F)c4F)c4nc(c(-c5c(F)c(F)c(F)c(F)c5F)c5ccc2[nH]5)C=C4)C=C3)cc1
REMARK SMILES IDX 29 1 28 2 26 3 27 4 2 6 1 7 3 8 4 9 5 10 25 11 6 12 24 13
REMARK SMILES IDX 7 14 8 15 9 16 10 17 22 18 11 19 13 20 23 21 12 22 14 23
REMARK SMILES IDX 15 24 21 25 16 26 19 27 17 28 20 29 18 30 30 31 31 32 32 33
REMARK SMILES IDX 33 34 34 35 35 37 36 38 37 39 98 40 38 41 97 42 39 43 40 44
REMARK SMILES IDX 41 45 91 46 42 47 96 48 90 49 92 50 43 51 95 52 89 53 88 54
REMARK SMILES IDX 44 56 76 57 56 58 75 59 57 60 60 61 74 62 93 63 58 64 59 65
REMARK SMILES IDX 73 67 94 68 61 69 45 70 46 71 54 72 47 73 48 74 52 75 55 76
REMARK SMILES IDX 49 77 50 78 53 79 51 80 77 81 78 82 86 83 79 84 80 85 84 86
REMARK SMILES IDX 87 87 81 88 82 89 85 90 83 91 62 92 63 93 71 94 64 95 65 96
REMARK SMILES IDX 69 97 72 98 66 99 67 100 70 101 68 102
REMARK H PARENT 28 5 33 36 92 55 60 66
REMARK Flexibility Score: inf
ROOT
ATOM      1  C   UNL A   1      43.393  22.642  28.499  1.00  0.00     0.116 C 
ENDROOT
BRANCH   1   2
ATOM      2  N   UNL A   1      43.931  22.151  27.241  1.00  0.00    -0.353 N 
ATOM      3  C   UNL A   1      44.436  22.856  26.179  1.00  0.00     0.260 C 
ATOM      4  O   UNL A   1      44.866  22.217  25.215  1.00  0.00    -0.271 OA
ATOM      5  H   UNL A   1      43.934  21.173  27.137  1.00  0.00     0.163 HD
BRANCH   3   6
ATOM      6  C   UNL A   1      44.517  24.394  26.223  1.00  0.00     0.258 C 
ATOM      7  C   UNL A   1      43.396  24.951  25.346  1.00  0.00     0.064 C 
BRANCH   6   8
ATOM      8  O   UNL A   1      45.886  24.688  25.948  1.00  0.00    -0.481 OA
BRANCH   8   9
ATOM      9  C   UNL A   1      46.480  25.898  26.075  1.00  0.00     0.120 A 
ATOM     10  C   UNL A   1      46.824  26.788  25.068  1.00  0.00     0.047 A 
ATOM     11  C   UNL A   1      46.772  26.232  27.400  1.00  0.00     0.047 A 
ATOM     12  C   UNL A   1      47.564  27.939  25.369  1.00  0.00     0.012 A 
ATOM     13  C   UNL A   1      47.480  27.393  27.709  1.00  0.00     0.012 A 
ATOM     14  C   UNL A   1      47.934  28.228  26.687  1.00  0.00    -0.024 A 
BRANCH  14  15
ATOM     15  C   UNL A   1      48.738  29.419  26.979  1.00  0.00     0.029 C 
ATOM     16  C   UNL A   1      48.286  30.676  27.114  1.00  0.00     0.081 C 
ATOM     17  S   UNL A   1      49.354  32.009  27.338  1.00  0.00    -0.054 SA
ATOM     18  C   UNL A   1      46.872  31.165  27.052  1.00  0.00     0.270 C 
ATOM     19  C   UNL A   1      48.066  33.202  27.195  1.00  0.00     0.152 C 
ATOM     20  N   UNL A   1      46.850  32.561  26.998  1.00  0.00    -0.261 N 
ATOM     21  O   UNL A   1      45.904  30.423  27.029  1.00  0.00    -0.268 OA
ATOM     22  S   UNL A   1      48.397  34.830  27.395  1.00  0.00    -0.051 S 
BRANCH  20  23
ATOM     23  C   UNL A   1      45.613  33.236  26.743  1.00  0.00     0.052 A 
ATOM     24  C   UNL A   1      45.218  33.541  25.430  1.00  0.00     0.030 A 
ATOM     25  C   UNL A   1      44.804  33.673  27.805  1.00  0.00     0.050 A 
ATOM     26  C   UNL A   1      44.034  34.242  25.182  1.00  0.00     0.043 A 
ATOM     27  C   UNL A   1      43.628  34.386  27.554  1.00  0.00     0.078 A 
ATOM     28  C   UNL A   1      43.245  34.662  26.247  1.00  0.00     0.141 A 
ATOM     29  Cl  UNL A   1      42.683  34.942  28.881  1.00  0.00    -0.081 Cl
ATOM     30  F   UNL A   1      42.122  35.347  25.990  1.00  0.00    -0.205 F 
ENDBRANCH  20  23
ENDBRANCH  14  15
ENDBRANCH   8   9
ENDBRANCH   6   8
ENDBRANCH   3   6
ENDBRANCH   1   2
BRANCH   1  31
ATOM     31  C   UNL A   1      41.908  22.978  28.408  1.00  0.00     0.023 C 
BRANCH  31  32
ATOM     32  C   UNL A   1      41.062  21.960  27.642  1.00  0.00     0.023 C 
BRANCH  32  33
ATOM     33  C   UNL A   1      40.832  22.273  26.166  1.00  0.00     0.116 C 
BRANCH  33  34
ATOM     34  N   UNL A   1      39.439  22.532  25.841  1.00  0.00    -0.352 N 
ATOM     35  C   UNL A   1      38.629  23.567  26.244  1.00  0.00     0.251 C 
ATOM     36  H   UNL A   1      39.013  21.869  25.248  1.00  0.00     0.163 HD
ATOM     37  O   UNL A   1      37.434  23.562  25.962  1.00  0.00    -0.269 OA
BRANCH  35  38
ATOM     38  C   UNL A   1      39.192  24.673  27.051  1.00  0.00     0.039 A 
ATOM     39  C   UNL A   1      40.012  25.614  26.424  1.00  0.00     0.014 A 
ATOM     40  C   UNL A   1      38.903  24.793  28.413  1.00  0.00     0.014 A 
ATOM     41  C   UNL A   1      40.479  26.718  27.142  1.00  0.00     0.010 A 
ATOM     42  C   UNL A   1      39.315  25.925  29.111  1.00  0.00     0.010 A 
ATOM     43  C   UNL A   1      40.102  26.902  28.483  1.00  0.00    -0.014 A 
BRANCH  43  44
ATOM     44  C   UNL A   1      40.507  28.116  29.237  1.00  0.00     0.031 A 
ATOM     45  C   UNL A   1      41.877  28.207  29.847  1.00  0.00     0.074 A 
ATOM     46  C   UNL A   1      39.615  29.106  29.438  1.00  0.00     0.049 A 
ATOM     47  N   UNL A   1      42.384  29.142  30.611  1.00  0.00    -0.248 NA
ATOM     48  C   UNL A   1      42.792  27.085  29.584  1.00  0.00     0.031 C 
ATOM     49  C   UNL A   1      38.238  29.116  28.944  1.00  0.00     0.029 A 
ATOM     50  N   UNL A   1      39.730  30.288  30.127  1.00  0.00    -0.354 N 
ATOM     51  C   UNL A   1      43.665  28.715  30.932  1.00  0.00     0.074 A 
ATOM     52  C   UNL A   1      43.843  27.415  30.319  1.00  0.00     0.031 C 
ATOM     53  C   UNL A   1      37.640  30.254  29.332  1.00  0.00     0.029 A 
ATOM     54  C   UNL A   1      38.578  31.037  30.130  1.00  0.00     0.049 A 
ATOM     55  H   UNL A   1      40.558  30.572  30.576  1.00  0.00     0.167 HD
ATOM     56  C   UNL A   1      44.616  29.357  31.653  1.00  0.00     0.037 A 
ATOM     57  C   UNL A   1      38.307  32.218  30.716  1.00  0.00     0.037 A 
ATOM     58  C   UNL A   1      44.449  30.660  32.239  1.00  0.00     0.049 A 
ATOM     59  C   UNL A   1      39.383  32.915  31.505  1.00  0.00     0.074 A 
ATOM     60  C   UNL A   1      45.373  31.418  32.939  1.00  0.00     0.029 A 
ATOM     61  N   UNL A   1      43.278  31.403  32.192  1.00  0.00    -0.354 N 
ATOM     62  N   UNL A   1      40.610  32.529  31.750  1.00  0.00    -0.248 NA
ATOM     63  C   UNL A   1      39.035  34.216  32.093  1.00  0.00     0.031 C 
ATOM     64  C   UNL A   1      44.751  32.603  33.346  1.00  0.00     0.029 A 
ATOM     65  C   UNL A   1      43.452  32.603  32.864  1.00  0.00     0.049 A 
ATOM     66  H   UNL A   1      42.447  31.120  31.748  1.00  0.00     0.167 HD
ATOM     67  C   UNL A   1      41.188  33.546  32.496  1.00  0.00     0.074 A 
ATOM     68  C   UNL A   1      40.182  34.575  32.653  1.00  0.00     0.031 C 
ATOM     69  C   UNL A   1      42.442  33.620  33.005  1.00  0.00     0.037 A 
BRANCH  56  70
ATOM     70  C   UNL A   1      45.930  28.657  31.843  1.00  0.00     0.064 A 
ATOM     71  C   UNL A   1      47.024  28.915  31.004  1.00  0.00     0.173 A 
ATOM     72  C   UNL A   1      46.109  27.747  32.896  1.00  0.00     0.173 A 
ATOM     73  F   UNL A   1      46.900  29.768  29.975  1.00  0.00    -0.203 F 
ATOM     74  C   UNL A   1      48.240  28.265  31.193  1.00  0.00     0.198 A 
ATOM     75  C   UNL A   1      47.336  27.121  33.099  1.00  0.00     0.198 A 
ATOM     76  F   UNL A   1      45.097  27.470  33.731  1.00  0.00    -0.203 F 
ATOM     77  F   UNL A   1      49.257  28.492  30.350  1.00  0.00    -0.200 F 
ATOM     78  C   UNL A   1      48.398  27.374  32.244  1.00  0.00     0.200 A 
ATOM     79  F   UNL A   1      47.489  26.269  34.123  1.00  0.00    -0.200 F 
ATOM     80  F   UNL A   1      49.571  26.755  32.428  1.00  0.00    -0.200 F 
ENDBRANCH  56  70
BRANCH  57  81
ATOM     81  C   UNL A   1      36.963  32.830  30.561  1.00  0.00     0.064 A 
ATOM     82  C   UNL A   1      36.641  33.575  29.418  1.00  0.00     0.173 A 
ATOM     83  C   UNL A   1      35.976  32.685  31.546  1.00  0.00     0.173 A 
ATOM     84  F   UNL A   1      37.559  33.759  28.458  1.00  0.00    -0.203 F 
ATOM     85  C   UNL A   1      35.388  34.168  29.276  1.00  0.00     0.198 A 
ATOM     86  C   UNL A   1      34.715  33.258  31.391  1.00  0.00     0.198 A 
ATOM     87  F   UNL A   1      36.235  31.979  32.657  1.00  0.00    -0.203 F 
ATOM     88  F   UNL A   1      35.120  34.910  28.193  1.00  0.00    -0.200 F 
ATOM     89  C   UNL A   1      34.424  34.004  30.259  1.00  0.00     0.200 A 
ATOM     90  F   UNL A   1      33.783  33.087  32.338  1.00  0.00    -0.200 F 
ATOM     91  F   UNL A   1      33.219  34.572  30.120  1.00  0.00    -0.200 F 
ENDBRANCH  57  81
BRANCH  69  92
ATOM     92  C   UNL A   1      42.807  34.868  33.754  1.00  0.00     0.064 A 
ATOM     93  C   UNL A   1      43.281  36.010  33.093  1.00  0.00     0.173 A 
ATOM     94  C   UNL A   1      42.640  34.934  35.146  1.00  0.00     0.173 A 
ATOM     95  F   UNL A   1      43.472  35.990  31.765  1.00  0.00    -0.203 F 
ATOM     96  C   UNL A   1      43.597  37.166  33.801  1.00  0.00     0.198 A 
ATOM     97  C   UNL A   1      42.932  36.100  35.847  1.00  0.00     0.198 A 
ATOM     98  F   UNL A   1      42.183  33.870  35.824  1.00  0.00    -0.203 F 
ATOM     99  F   UNL A   1      44.089  38.231  33.154  1.00  0.00    -0.200 F 
ATOM    100  C   UNL A   1      43.415  37.212  35.176  1.00  0.00     0.200 A 
ATOM    101  F   UNL A   1      42.745  36.148  37.173  1.00  0.00    -0.200 F 
ATOM    102  F   UNL A   1      43.713  38.329  35.854  1.00  0.00    -0.200 F 
ENDBRANCH  69  92
ENDBRANCH  43  44
ENDBRANCH  35  38
ENDBRANCH  33  34
ENDBRANCH  32  33
ENDBRANCH  31  32
ENDBRANCH   1  31
TORSDOF 15
ENDMDL
