MODEL 1
REMARK VINA RESULT:     -13.7      0.000      0.000
REMARK SMILES Cc1ccc(NC(=O)N2CCCC[C@@H]2C(=O)NCCCCNC(=O)c2ccc(-c3c4nc(c(-c5c(F)c(F)c(F)c(F)c5F)c5ccc([nH]5)c(-c5c(F)c(F)c(F)c(F)c5F)c5nc(c(-c6c(F)c(F)c(F)c(F)c6F)c6ccc3[nH]6)C=C5)C=C4)cc2)cc1
REMARK SMILES IDX 19 1 18 2 17 3 15 4 16 5 14 7 9 8 10 9 11 10 13 11 12 12
REMARK SMILES IDX 7 13 6 14 8 16 5 17 1 18 2 19 3 20 89 21 4 22 88 23 20 24
REMARK SMILES IDX 21 25 22 26 23 27 24 29 25 30 26 31 87 32 27 33 86 34 28 35
REMARK SMILES IDX 29 36 30 37 80 38 31 39 85 40 79 41 81 42 32 43 84 44 78 45
REMARK SMILES IDX 77 46 33 48 65 49 45 50 64 51 46 52 49 53 63 54 82 55 47 56
REMARK SMILES IDX 48 57 62 59 83 60 50 61 34 62 35 63 43 64 36 65 37 66 41 67
REMARK SMILES IDX 44 68 38 69 39 70 42 71 40 72 66 73 67 74 75 75 68 76 69 77
REMARK SMILES IDX 73 78 76 79 70 80 71 81 74 82 72 83 51 84 52 85 60 86 53 87
REMARK SMILES IDX 54 88 58 89 61 90 55 91 56 92 59 93 57 94
REMARK H PARENT 17 6 6 15 22 28 81 47 49 58
REMARK Flexibility Score: inf
ROOT
ATOM      1  C   UNL A   1      31.954  30.352  26.596  1.00  0.00     0.023 C 
ENDROOT
BRANCH   1   2
ATOM      2  C   UNL A   1      31.957  29.181  25.595  1.00  0.00     0.116 C 
BRANCH   2   3
ATOM      3  N   UNL A   1      32.918  29.381  24.524  1.00  0.00    -0.354 N 
ATOM      4  C   UNL A   1      33.807  28.526  23.944  1.00  0.00     0.242 C 
ATOM      5  O   UNL A   1      34.710  29.046  23.279  1.00  0.00    -0.273 OA
ATOM      6  H   UNL A   1      32.931  30.293  24.154  1.00  0.00     0.163 HD
BRANCH   4   7
ATOM      7  C   UNL A   1      33.795  26.998  24.204  1.00  0.00     0.176 C 
ATOM      8  N   UNL A   1      32.782  26.262  23.405  1.00  0.00    -0.313 N 
ATOM      9  C   UNL A   1      32.300  24.973  23.893  1.00  0.00     0.122 C 
ATOM     10  C   UNL A   1      32.120  24.890  25.397  1.00  0.00     0.022 C 
ATOM     11  C   UNL A   1      33.665  26.789  25.724  1.00  0.00     0.035 C 
ATOM     12  C   UNL A   1      33.381  25.349  26.107  1.00  0.00     0.004 C 
BRANCH   8  13
ATOM     13  C   UNL A   1      32.518  26.502  22.065  1.00  0.00     0.322 C 
ATOM     14  N   UNL A   1      31.303  26.962  21.668  1.00  0.00    -0.308 N 
ATOM     15  H   UNL A   1      30.970  26.567  20.829  1.00  0.00     0.171 HD
ATOM     16  O   UNL A   1      33.341  26.210  21.194  1.00  0.00    -0.248 OA
BRANCH  14  17
ATOM     17  C   UNL A   1      30.441  27.908  22.251  1.00  0.00     0.042 A 
ATOM     18  C   UNL A   1      27.576  30.872  23.475  1.00  0.00     0.044 C 
ATOM     19  C   UNL A   1      28.639  29.864  23.154  1.00  0.00    -0.051 A 
ATOM     20  C   UNL A   1      28.483  28.528  23.534  1.00  0.00     0.005 A 
ATOM     21  C   UNL A   1      29.752  30.225  22.388  1.00  0.00     0.005 A 
ATOM     22  C   UNL A   1      29.397  27.561  23.108  1.00  0.00     0.026 A 
ATOM     23  C   UNL A   1      30.660  29.254  21.957  1.00  0.00     0.026 A 
ENDBRANCH  14  17
ENDBRANCH   8  13
ENDBRANCH   4   7
ENDBRANCH   2   3
ENDBRANCH   1   2
BRANCH   1  24
ATOM     24  C   UNL A   1      33.315  31.006  26.860  1.00  0.00     0.023 C 
BRANCH  24  25
ATOM     25  C   UNL A   1      34.130  30.317  27.942  1.00  0.00     0.116 C 
BRANCH  25  26
ATOM     26  N   UNL A   1      34.834  31.227  28.835  1.00  0.00    -0.352 N 
ATOM     27  C   UNL A   1      36.057  31.059  29.467  1.00  0.00     0.251 C 
ATOM     28  H   UNL A   1      34.378  32.080  29.016  1.00  0.00     0.163 HD
ATOM     29  O   UNL A   1      36.476  31.900  30.240  1.00  0.00    -0.269 OA
BRANCH  27  30
ATOM     30  C   UNL A   1      36.903  29.896  29.096  1.00  0.00     0.039 A 
ATOM     31  C   UNL A   1      37.293  29.015  30.110  1.00  0.00     0.014 A 
ATOM     32  C   UNL A   1      37.453  29.783  27.821  1.00  0.00     0.014 A 
ATOM     33  C   UNL A   1      38.398  28.190  29.909  1.00  0.00     0.010 A 
ATOM     34  C   UNL A   1      38.603  29.032  27.649  1.00  0.00     0.010 A 
ATOM     35  C   UNL A   1      39.116  28.287  28.714  1.00  0.00    -0.014 A 
BRANCH  35  36
ATOM     36  C   UNL A   1      40.469  27.756  28.561  1.00  0.00     0.031 A 
ATOM     37  C   UNL A   1      40.711  26.339  28.220  1.00  0.00     0.074 A 
ATOM     38  C   UNL A   1      41.538  28.572  28.720  1.00  0.00     0.049 A 
ATOM     39  N   UNL A   1      41.753  25.679  28.611  1.00  0.00    -0.248 NA
ATOM     40  C   UNL A   1      39.788  25.543  27.418  1.00  0.00     0.031 C 
ATOM     41  C   UNL A   1      42.936  28.252  28.435  1.00  0.00     0.029 A 
ATOM     42  N   UNL A   1      41.594  29.804  29.395  1.00  0.00    -0.354 N 
ATOM     43  C   UNL A   1      41.766  24.486  27.935  1.00  0.00     0.074 A 
ATOM     44  C   UNL A   1      40.496  24.421  27.244  1.00  0.00     0.031 C 
ATOM     45  C   UNL A   1      43.715  29.036  29.194  1.00  0.00     0.029 A 
ATOM     46  C   UNL A   1      42.844  29.808  30.061  1.00  0.00     0.049 A 
ATOM     47  H   UNL A   1      40.910  30.513  29.403  1.00  0.00     0.167 HD
ATOM     48  C   UNL A   1      42.887  23.713  27.921  1.00  0.00     0.037 A 
ATOM     49  C   UNL A   1      42.928  29.877  31.419  1.00  0.00     0.037 A 
ATOM     50  C   UNL A   1      43.988  24.293  28.676  1.00  0.00     0.049 A 
ATOM     51  C   UNL A   1      43.629  28.710  32.077  1.00  0.00     0.074 A 
ATOM     52  C   UNL A   1      45.112  25.026  28.328  1.00  0.00     0.029 A 
ATOM     53  N   UNL A   1      43.875  24.398  30.049  1.00  0.00    -0.354 N 
ATOM     54  N   UNL A   1      44.062  27.657  31.443  1.00  0.00    -0.248 NA
ATOM     55  C   UNL A   1      43.787  28.591  33.529  1.00  0.00     0.031 C 
ATOM     56  C   UNL A   1      45.673  25.573  29.514  1.00  0.00     0.029 A 
ATOM     57  C   UNL A   1      44.886  25.176  30.578  1.00  0.00     0.049 A 
ATOM     58  H   UNL A   1      43.165  23.973  30.583  1.00  0.00     0.167 HD
ATOM     59  C   UNL A   1      44.471  26.722  32.356  1.00  0.00     0.074 A 
ATOM     60  C   UNL A   1      44.287  27.350  33.648  1.00  0.00     0.031 C 
ATOM     61  C   UNL A   1      44.886  25.476  31.996  1.00  0.00     0.037 A 
BRANCH  48  62
ATOM     62  C   UNL A   1      43.023  22.522  27.016  1.00  0.00     0.064 A 
ATOM     63  C   UNL A   1      42.283  21.345  27.235  1.00  0.00     0.173 A 
ATOM     64  C   UNL A   1      43.910  22.490  25.923  1.00  0.00     0.173 A 
ATOM     65  F   UNL A   1      41.364  21.267  28.204  1.00  0.00    -0.203 F 
ATOM     66  C   UNL A   1      42.485  20.191  26.477  1.00  0.00     0.198 A 
ATOM     67  C   UNL A   1      44.148  21.320  25.199  1.00  0.00     0.198 A 
ATOM     68  F   UNL A   1      44.559  23.597  25.535  1.00  0.00    -0.203 F 
ATOM     69  F   UNL A   1      41.760  19.092  26.734  1.00  0.00    -0.200 F 
ATOM     70  C   UNL A   1      43.442  20.167  25.482  1.00  0.00     0.200 A 
ATOM     71  F   UNL A   1      45.080  21.312  24.235  1.00  0.00    -0.200 F 
ATOM     72  F   UNL A   1      43.677  19.040  24.796  1.00  0.00    -0.200 F 
ENDBRANCH  48  62
BRANCH  49  73
ATOM     73  C   UNL A   1      41.817  30.646  32.033  1.00  0.00     0.064 A 
ATOM     74  C   UNL A   1      41.850  32.052  31.962  1.00  0.00     0.173 A 
ATOM     75  C   UNL A   1      40.602  30.040  32.365  1.00  0.00     0.173 A 
ATOM     76  F   UNL A   1      42.993  32.684  31.654  1.00  0.00    -0.203 F 
ATOM     77  C   UNL A   1      40.690  32.808  32.102  1.00  0.00     0.198 A 
ATOM     78  C   UNL A   1      39.446  30.803  32.526  1.00  0.00     0.198 A 
ATOM     79  F   UNL A   1      40.503  28.705  32.429  1.00  0.00    -0.203 F 
ATOM     80  F   UNL A   1      40.730  34.137  31.919  1.00  0.00    -0.200 F 
ATOM     81  C   UNL A   1      39.484  32.180  32.360  1.00  0.00     0.200 A 
ATOM     82  F   UNL A   1      38.276  30.193  32.758  1.00  0.00    -0.200 F 
ATOM     83  F   UNL A   1      38.353  32.897  32.415  1.00  0.00    -0.200 F 
ENDBRANCH  49  73
BRANCH  61  84
ATOM     84  C   UNL A   1      45.342  24.445  32.977  1.00  0.00     0.064 A 
ATOM     85  C   UNL A   1      44.511  23.394  33.391  1.00  0.00     0.173 A 
ATOM     86  C   UNL A   1      46.587  24.561  33.627  1.00  0.00     0.173 A 
ATOM     87  F   UNL A   1      43.292  23.234  32.855  1.00  0.00    -0.203 F 
ATOM     88  C   UNL A   1      44.912  22.495  34.380  1.00  0.00     0.198 A 
ATOM     89  C   UNL A   1      46.965  23.689  34.646  1.00  0.00     0.198 A 
ATOM     90  F   UNL A   1      47.468  25.509  33.276  1.00  0.00    -0.203 F 
ATOM     91  F   UNL A   1      44.108  21.479  34.723  1.00  0.00    -0.200 F 
ATOM     92  C   UNL A   1      46.133  22.651  35.017  1.00  0.00     0.200 A 
ATOM     93  F   UNL A   1      48.143  23.861  35.264  1.00  0.00    -0.200 F 
ATOM     94  F   UNL A   1      46.506  21.802  35.983  1.00  0.00    -0.200 F 
ENDBRANCH  61  84
ENDBRANCH  35  36
ENDBRANCH  27  30
ENDBRANCH  25  26
ENDBRANCH  24  25
ENDBRANCH   1  24
TORSDOF 13
ENDMDL
MODEL 2
REMARK VINA RESULT:     -13.5      1.135      2.629
REMARK SMILES Cc1ccc(NC(=O)N2CCCC[C@@H]2C(=O)NCCCCNC(=O)c2ccc(-c3c4nc(c(-c5c(F)c(F)c(F)c(F)c5F)c5ccc([nH]5)c(-c5c(F)c(F)c(F)c(F)c5F)c5nc(c(-c6c(F)c(F)c(F)c(F)c6F)c6ccc3[nH]6)C=C5)C=C4)cc2)cc1
REMARK SMILES IDX 19 1 18 2 17 3 15 4 16 5 14 7 9 8 10 9 11 10 13 11 12 12
REMARK SMILES IDX 7 13 6 14 8 16 5 17 1 18 2 19 3 20 89 21 4 22 88 23 20 24
REMARK SMILES IDX 21 25 22 26 23 27 24 29 25 30 26 31 87 32 27 33 86 34 28 35
REMARK SMILES IDX 29 36 30 37 80 38 31 39 85 40 79 41 81 42 32 43 84 44 78 45
REMARK SMILES IDX 77 46 33 48 65 49 45 50 64 51 46 52 49 53 63 54 82 55 47 56
REMARK SMILES IDX 48 57 62 59 83 60 50 61 34 62 35 63 43 64 36 65 37 66 41 67
REMARK SMILES IDX 44 68 38 69 39 70 42 71 40 72 66 73 67 74 75 75 68 76 69 77
REMARK SMILES IDX 73 78 76 79 70 80 71 81 74 82 72 83 51 84 52 85 60 86 53 87
REMARK SMILES IDX 54 88 58 89 61 90 55 91 56 92 59 93 57 94
REMARK H PARENT 17 6 6 15 22 28 81 47 49 58
REMARK Flexibility Score: inf
ROOT
ATOM      1  C   UNL A   1      33.595  28.781  27.236  1.00  0.00     0.023 C 
ENDROOT
BRANCH   1   2
ATOM      2  C   UNL A   1      34.409  28.435  25.975  1.00  0.00     0.116 C 
BRANCH   2   3
ATOM      3  N   UNL A   1      33.799  28.966  24.769  1.00  0.00    -0.354 N 
ATOM      4  C   UNL A   1      32.877  28.431  23.919  1.00  0.00     0.242 C 
ATOM      5  O   UNL A   1      32.777  28.972  22.812  1.00  0.00    -0.273 OA
ATOM      6  H   UNL A   1      34.105  29.868  24.521  1.00  0.00     0.163 HD
BRANCH   4   7
ATOM      7  C   UNL A   1      32.092  27.134  24.239  1.00  0.00     0.176 C 
ATOM      8  N   UNL A   1      32.169  26.107  23.168  1.00  0.00    -0.313 N 
ATOM      9  C   UNL A   1      31.112  25.103  23.076  1.00  0.00     0.122 C 
ATOM     10  C   UNL A   1      29.717  25.621  23.375  1.00  0.00     0.022 C 
ATOM     11  C   UNL A   1      30.655  27.543  24.611  1.00  0.00     0.035 C 
ATOM     12  C   UNL A   1      29.702  26.365  24.698  1.00  0.00     0.004 C 
BRANCH   8  13
ATOM     13  C   UNL A   1      33.326  25.785  22.475  1.00  0.00     0.322 C 
ATOM     14  N   UNL A   1      34.377  25.202  23.109  1.00  0.00    -0.308 N 
ATOM     15  H   UNL A   1      35.261  25.528  22.821  1.00  0.00     0.171 HD
ATOM     16  O   UNL A   1      33.468  26.109  21.293  1.00  0.00    -0.248 OA
BRANCH  14  17
ATOM     17  C   UNL A   1      34.416  24.211  24.105  1.00  0.00     0.042 A 
ATOM     18  C   UNL A   1      34.019  21.427  27.360  1.00  0.00     0.044 C 
ATOM     19  C   UNL A   1      34.279  22.366  26.219  1.00  0.00    -0.051 A 
ATOM     20  C   UNL A   1      34.080  21.948  24.901  1.00  0.00     0.005 A 
ATOM     21  C   UNL A   1      34.631  23.698  26.462  1.00  0.00     0.005 A 
ATOM     22  C   UNL A   1      34.177  22.861  23.847  1.00  0.00     0.026 A 
ATOM     23  C   UNL A   1      34.720  24.611  25.407  1.00  0.00     0.026 A 
ENDBRANCH  14  17
ENDBRANCH   8  13
ENDBRANCH   4   7
ENDBRANCH   2   3
ENDBRANCH   1   2
BRANCH   1  24
ATOM     24  C   UNL A   1      33.395  30.276  27.510  1.00  0.00     0.023 C 
BRANCH  24  25
ATOM     25  C   UNL A   1      34.691  31.069  27.577  1.00  0.00     0.116 C 
BRANCH  25  26
ATOM     26  N   UNL A   1      35.032  31.550  28.909  1.00  0.00    -0.352 N 
ATOM     27  C   UNL A   1      35.893  30.997  29.845  1.00  0.00     0.251 C 
ATOM     28  H   UNL A   1      34.590  32.386  29.183  1.00  0.00     0.163 HD
ATOM     29  O   UNL A   1      36.016  31.498  30.946  1.00  0.00    -0.269 OA
BRANCH  27  30
ATOM     30  C   UNL A   1      36.751  29.854  29.442  1.00  0.00     0.039 A 
ATOM     31  C   UNL A   1      37.190  28.977  30.439  1.00  0.00     0.014 A 
ATOM     32  C   UNL A   1      37.265  29.758  28.151  1.00  0.00     0.014 A 
ATOM     33  C   UNL A   1      38.306  28.175  30.201  1.00  0.00     0.010 A 
ATOM     34  C   UNL A   1      38.424  29.032  27.940  1.00  0.00     0.010 A 
ATOM     35  C   UNL A   1      38.985  28.293  28.986  1.00  0.00    -0.014 A 
BRANCH  35  36
ATOM     36  C   UNL A   1      40.343  27.791  28.788  1.00  0.00     0.031 A 
ATOM     37  C   UNL A   1      40.603  26.386  28.413  1.00  0.00     0.074 A 
ATOM     38  C   UNL A   1      41.400  28.624  28.937  1.00  0.00     0.049 A 
ATOM     39  N   UNL A   1      41.667  25.739  28.765  1.00  0.00    -0.248 NA
ATOM     40  C   UNL A   1      39.676  25.588  27.619  1.00  0.00     0.031 C 
ATOM     41  C   UNL A   1      42.797  28.337  28.612  1.00  0.00     0.029 A 
ATOM     42  N   UNL A   1      41.450  29.844  29.635  1.00  0.00    -0.354 N 
ATOM     43  C   UNL A   1      41.686  24.559  28.066  1.00  0.00     0.074 A 
ATOM     44  C   UNL A   1      40.400  24.484  27.405  1.00  0.00     0.031 C 
ATOM     45  C   UNL A   1      43.580  29.121  29.367  1.00  0.00     0.029 A 
ATOM     46  C   UNL A   1      42.716  29.859  30.270  1.00  0.00     0.049 A 
ATOM     47  H   UNL A   1      40.753  30.539  29.674  1.00  0.00     0.167 HD
ATOM     48  C   UNL A   1      42.820  23.809  28.009  1.00  0.00     0.037 A 
ATOM     49  C   UNL A   1      42.833  29.904  31.627  1.00  0.00     0.037 A 
ATOM     50  C   UNL A   1      43.929  24.395  28.748  1.00  0.00     0.049 A 
ATOM     51  C   UNL A   1      43.572  28.737  32.244  1.00  0.00     0.074 A 
ATOM     52  C   UNL A   1      45.029  25.156  28.388  1.00  0.00     0.029 A 
ATOM     53  N   UNL A   1      43.848  24.471  30.126  1.00  0.00    -0.354 N 
ATOM     54  N   UNL A   1      44.009  27.706  31.579  1.00  0.00    -0.248 NA
ATOM     55  C   UNL A   1      43.768  28.594  33.689  1.00  0.00     0.031 C 
ATOM     56  C   UNL A   1      45.609  25.691  29.570  1.00  0.00     0.029 A 
ATOM     57  C   UNL A   1      44.857  25.259  30.645  1.00  0.00     0.049 A 
ATOM     58  H   UNL A   1      43.159  24.022  30.668  1.00  0.00     0.167 HD
ATOM     59  C   UNL A   1      44.457  26.761  32.463  1.00  0.00     0.074 A 
ATOM     60  C   UNL A   1      44.294  27.361  33.771  1.00  0.00     0.031 C 
ATOM     61  C   UNL A   1      44.887  25.531  32.068  1.00  0.00     0.037 A 
BRANCH  48  62
ATOM     62  C   UNL A   1      42.956  22.639  27.078  1.00  0.00     0.064 A 
ATOM     63  C   UNL A   1      42.256  21.437  27.300  1.00  0.00     0.173 A 
ATOM     64  C   UNL A   1      43.804  22.650  25.954  1.00  0.00     0.173 A 
ATOM     65  F   UNL A   1      41.374  21.317  28.299  1.00  0.00    -0.203 F 
ATOM     66  C   UNL A   1      42.462  20.303  26.514  1.00  0.00     0.198 A 
ATOM     67  C   UNL A   1      44.049  21.501  25.200  1.00  0.00     0.198 A 
ATOM     68  F   UNL A   1      44.410  23.782  25.564  1.00  0.00    -0.203 F 
ATOM     69  F   UNL A   1      41.777  19.181  26.775  1.00  0.00    -0.200 F 
ATOM     70  C   UNL A   1      43.383  20.324  25.486  1.00  0.00     0.200 A 
ATOM     71  F   UNL A   1      44.945  21.535  24.204  1.00  0.00    -0.200 F 
ATOM     72  F   UNL A   1      43.624  19.216  24.771  1.00  0.00    -0.200 F 
ENDBRANCH  48  62
BRANCH  49  73
ATOM     73  C   UNL A   1      41.723  30.639  32.283  1.00  0.00     0.064 A 
ATOM     74  C   UNL A   1      41.712  32.045  32.215  1.00  0.00     0.173 A 
ATOM     75  C   UNL A   1      40.538  29.997  32.657  1.00  0.00     0.173 A 
ATOM     76  F   UNL A   1      42.826  32.710  31.868  1.00  0.00    -0.203 F 
ATOM     77  C   UNL A   1      40.537  32.767  32.400  1.00  0.00     0.198 A 
ATOM     78  C   UNL A   1      39.368  30.727  32.863  1.00  0.00     0.198 A 
ATOM     79  F   UNL A   1      40.480  28.660  32.720  1.00  0.00    -0.203 F 
ATOM     80  F   UNL A   1      40.532  34.097  32.219  1.00  0.00    -0.200 F 
ATOM     81  C   UNL A   1      39.360  32.105  32.700  1.00  0.00     0.200 A 
ATOM     82  F   UNL A   1      38.225  30.082  33.135  1.00  0.00    -0.200 F 
ATOM     83  F   UNL A   1      38.211  32.788  32.798  1.00  0.00    -0.200 F 
ENDBRANCH  49  73
BRANCH  61  84
ATOM     84  C   UNL A   1      45.387  24.490  33.017  1.00  0.00     0.064 A 
ATOM     85  C   UNL A   1      44.577  23.430  33.453  1.00  0.00     0.173 A 
ATOM     86  C   UNL A   1      46.656  24.602  33.617  1.00  0.00     0.173 A 
ATOM     87  F   UNL A   1      43.337  23.273  32.965  1.00  0.00    -0.203 F 
ATOM     88  C   UNL A   1      45.021  22.521  34.413  1.00  0.00     0.198 A 
ATOM     89  C   UNL A   1      47.080  23.720  34.608  1.00  0.00     0.198 A 
ATOM     90  F   UNL A   1      47.519  25.558  33.241  1.00  0.00    -0.203 F 
ATOM     91  F   UNL A   1      44.236  21.498  34.776  1.00  0.00    -0.200 F 
ATOM     92  C   UNL A   1      46.266  22.674  35.000  1.00  0.00     0.200 A 
ATOM     93  F   UNL A   1      48.281  23.889  35.180  1.00  0.00    -0.200 F 
ATOM     94  F   UNL A   1      46.682  21.815  35.941  1.00  0.00    -0.200 F 
ENDBRANCH  61  84
ENDBRANCH  35  36
ENDBRANCH  27  30
ENDBRANCH  25  26
ENDBRANCH  24  25
ENDBRANCH   1  24
TORSDOF 13
ENDMDL
MODEL 3
REMARK VINA RESULT:     -13.5      3.831     10.023
REMARK SMILES Cc1ccc(NC(=O)N2CCCC[C@@H]2C(=O)NCCCCNC(=O)c2ccc(-c3c4nc(c(-c5c(F)c(F)c(F)c(F)c5F)c5ccc([nH]5)c(-c5c(F)c(F)c(F)c(F)c5F)c5nc(c(-c6c(F)c(F)c(F)c(F)c6F)c6ccc3[nH]6)C=C5)C=C4)cc2)cc1
REMARK SMILES IDX 19 1 18 2 17 3 15 4 16 5 14 7 9 8 10 9 11 10 13 11 12 12
REMARK SMILES IDX 7 13 6 14 8 16 5 17 1 18 2 19 3 20 89 21 4 22 88 23 20 24
REMARK SMILES IDX 21 25 22 26 23 27 24 29 25 30 26 31 87 32 27 33 86 34 28 35
REMARK SMILES IDX 29 36 30 37 80 38 31 39 85 40 79 41 81 42 32 43 84 44 78 45
REMARK SMILES IDX 77 46 33 48 65 49 45 50 64 51 46 52 49 53 63 54 82 55 47 56
REMARK SMILES IDX 48 57 62 59 83 60 50 61 34 62 35 63 43 64 36 65 37 66 41 67
REMARK SMILES IDX 44 68 38 69 39 70 42 71 40 72 66 73 67 74 75 75 68 76 69 77
REMARK SMILES IDX 73 78 76 79 70 80 71 81 74 82 72 83 51 84 52 85 60 86 53 87
REMARK SMILES IDX 54 88 58 89 61 90 55 91 56 92 59 93 57 94
REMARK H PARENT 17 6 6 15 22 28 81 47 49 58
REMARK Flexibility Score: inf
ROOT
ATOM      1  C   UNL A   1      38.174  21.320  25.696  1.00  0.00     0.023 C 
ENDROOT
BRANCH   1   2
ATOM      2  C   UNL A   1      37.543  22.698  25.423  1.00  0.00     0.116 C 
BRANCH   2   3
ATOM      3  N   UNL A   1      36.471  23.001  26.355  1.00  0.00    -0.354 N 
ATOM      4  C   UNL A   1      35.133  22.743  26.300  1.00  0.00     0.242 C 
ATOM      5  O   UNL A   1      34.421  23.388  27.077  1.00  0.00    -0.273 OA
ATOM      6  H   UNL A   1      36.759  23.475  27.168  1.00  0.00     0.163 HD
BRANCH   4   7
ATOM      7  C   UNL A   1      34.501  21.809  25.236  1.00  0.00     0.176 C 
ATOM      8  N   UNL A   1      33.914  22.532  24.078  1.00  0.00    -0.313 N 
ATOM      9  C   UNL A   1      32.868  21.879  23.297  1.00  0.00     0.122 C 
ATOM     10  C   UNL A   1      31.884  21.060  24.111  1.00  0.00     0.022 C 
ATOM     11  C   UNL A   1      33.508  20.884  25.964  1.00  0.00     0.035 C 
ATOM     12  C   UNL A   1      32.625  20.093  25.018  1.00  0.00     0.004 C 
BRANCH   8  13
ATOM     13  C   UNL A   1      34.512  23.611  23.446  1.00  0.00     0.322 C 
ATOM     14  N   UNL A   1      33.971  24.855  23.534  1.00  0.00    -0.308 N 
ATOM     15  H   UNL A   1      34.012  25.379  22.700  1.00  0.00     0.171 HD
ATOM     16  O   UNL A   1      35.488  23.454  22.709  1.00  0.00    -0.248 OA
BRANCH  14  17
ATOM     17  C   UNL A   1      33.365  25.521  24.613  1.00  0.00     0.042 A 
ATOM     18  C   UNL A   1      31.498  28.046  27.551  1.00  0.00     0.044 C 
ATOM     19  C   UNL A   1      32.183  27.089  26.621  1.00  0.00    -0.051 A 
ATOM     20  C   UNL A   1      31.461  26.061  26.009  1.00  0.00     0.005 A 
ATOM     21  C   UNL A   1      33.527  27.270  26.279  1.00  0.00     0.005 A 
ATOM     22  C   UNL A   1      32.059  25.263  25.031  1.00  0.00     0.026 A 
ATOM     23  C   UNL A   1      34.120  26.475  25.295  1.00  0.00     0.026 A 
ENDBRANCH  14  17
ENDBRANCH   8  13
ENDBRANCH   4   7
ENDBRANCH   2   3
ENDBRANCH   1   2
BRANCH   1  24
ATOM     24  C   UNL A   1      39.647  21.334  26.119  1.00  0.00     0.023 C 
BRANCH  24  25
ATOM     25  C   UNL A   1      40.086  22.630  26.781  1.00  0.00     0.116 C 
BRANCH  25  26
ATOM     26  N   UNL A   1      41.356  23.152  26.298  1.00  0.00    -0.352 N 
ATOM     27  C   UNL A   1      41.766  24.470  26.167  1.00  0.00     0.251 C 
ATOM     28  H   UNL A   1      42.016  22.475  26.025  1.00  0.00     0.163 HD
ATOM     29  O   UNL A   1      42.849  24.737  25.680  1.00  0.00    -0.269 OA
BRANCH  27  30
ATOM     30  C   UNL A   1      40.918  25.546  26.740  1.00  0.00     0.039 A 
ATOM     31  C   UNL A   1      40.963  26.809  26.140  1.00  0.00     0.014 A 
ATOM     32  C   UNL A   1      40.244  25.367  27.946  1.00  0.00     0.014 A 
ATOM     33  C   UNL A   1      40.545  27.924  26.866  1.00  0.00     0.010 A 
ATOM     34  C   UNL A   1      39.912  26.477  28.702  1.00  0.00     0.010 A 
ATOM     35  C   UNL A   1      40.126  27.760  28.189  1.00  0.00    -0.014 A 
BRANCH  35  36
ATOM     36  C   UNL A   1      40.029  28.874  29.130  1.00  0.00     0.031 A 
ATOM     37  C   UNL A   1      38.960  29.889  29.023  1.00  0.00     0.074 A 
ATOM     38  C   UNL A   1      40.928  28.989  30.136  1.00  0.00     0.049 A 
ATOM     39  N   UNL A   1      39.108  31.122  29.385  1.00  0.00    -0.248 NA
ATOM     40  C   UNL A   1      37.635  29.596  28.487  1.00  0.00     0.031 C 
ATOM     41  C   UNL A   1      40.877  29.929  31.255  1.00  0.00     0.029 A 
ATOM     42  N   UNL A   1      42.207  28.412  30.225  1.00  0.00    -0.354 N 
ATOM     43  C   UNL A   1      37.870  31.712  29.362  1.00  0.00     0.074 A 
ATOM     44  C   UNL A   1      36.992  30.741  28.746  1.00  0.00     0.031 C 
ATOM     45  C   UNL A   1      42.126  30.129  31.701  1.00  0.00     0.029 A 
ATOM     46  C   UNL A   1      43.023  29.405  30.819  1.00  0.00     0.049 A 
ATOM     47  H   UNL A   1      42.477  27.510  29.937  1.00  0.00     0.167 HD
ATOM     48  C   UNL A   1      37.668  32.915  29.967  1.00  0.00     0.037 A 
ATOM     49  C   UNL A   1      44.095  29.933  30.164  1.00  0.00     0.037 A 
ATOM     50  C   UNL A   1      38.870  33.447  30.593  1.00  0.00     0.049 A 
ATOM     51  C   UNL A   1      44.038  31.429  29.946  1.00  0.00     0.074 A 
ATOM     52  C   UNL A   1      39.356  33.456  31.891  1.00  0.00     0.029 A 
ATOM     53  N   UNL A   1      39.924  33.839  29.789  1.00  0.00    -0.354 N 
ATOM     54  N   UNL A   1      43.027  32.183  30.270  1.00  0.00    -0.248 NA
ATOM     55  C   UNL A   1      45.081  32.169  29.232  1.00  0.00     0.031 C 
ATOM     56  C   UNL A   1      40.718  33.860  31.856  1.00  0.00     0.029 A 
ATOM     57  C   UNL A   1      41.059  34.090  30.537  1.00  0.00     0.049 A 
ATOM     58  H   UNL A   1      39.874  33.929  28.810  1.00  0.00     0.167 HD
ATOM     59  C   UNL A   1      43.229  33.441  29.767  1.00  0.00     0.074 A 
ATOM     60  C   UNL A   1      44.529  33.389  29.131  1.00  0.00     0.031 C 
ATOM     61  C   UNL A   1      42.295  34.428  29.862  1.00  0.00     0.037 A 
BRANCH  48  62
ATOM     62  C   UNL A   1      36.294  33.487  30.166  1.00  0.00     0.064 A 
ATOM     63  C   UNL A   1      35.530  33.955  29.080  1.00  0.00     0.173 A 
ATOM     64  C   UNL A   1      35.698  33.622  31.433  1.00  0.00     0.173 A 
ATOM     65  F   UNL A   1      35.958  33.830  27.818  1.00  0.00    -0.203 F 
ATOM     66  C   UNL A   1      34.303  34.597  29.258  1.00  0.00     0.198 A 
ATOM     67  C   UNL A   1      34.496  34.311  31.616  1.00  0.00     0.198 A 
ATOM     68  F   UNL A   1      36.270  33.085  32.521  1.00  0.00    -0.203 F 
ATOM     69  F   UNL A   1      33.620  35.033  28.190  1.00  0.00    -0.200 F 
ATOM     70  C   UNL A   1      33.803  34.806  30.527  1.00  0.00     0.200 A 
ATOM     71  F   UNL A   1      34.021  34.506  32.854  1.00  0.00    -0.200 F 
ATOM     72  F   UNL A   1      32.656  35.476  30.701  1.00  0.00    -0.200 F 
ENDBRANCH  48  62
BRANCH  49  73
ATOM     73  C   UNL A   1      44.742  28.972  29.236  1.00  0.00     0.064 A 
ATOM     74  C   UNL A   1      45.579  27.975  29.773  1.00  0.00     0.173 A 
ATOM     75  C   UNL A   1      44.292  28.805  27.923  1.00  0.00     0.173 A 
ATOM     76  F   UNL A   1      46.044  28.091  31.027  1.00  0.00    -0.203 F 
ATOM     77  C   UNL A   1      45.857  26.809  29.067  1.00  0.00     0.198 A 
ATOM     78  C   UNL A   1      44.592  27.644  27.210  1.00  0.00     0.198 A 
ATOM     79  F   UNL A   1      43.477  29.709  27.363  1.00  0.00    -0.203 F 
ATOM     80  F   UNL A   1      46.566  25.827  29.646  1.00  0.00    -0.200 F 
ATOM     81  C   UNL A   1      45.342  26.634  27.794  1.00  0.00     0.200 A 
ATOM     82  F   UNL A   1      44.077  27.468  25.985  1.00  0.00    -0.200 F 
ATOM     83  F   UNL A   1      45.540  25.479  27.143  1.00  0.00    -0.200 F 
ENDBRANCH  49  73
BRANCH  61  84
ATOM     84  C   UNL A   1      42.501  35.808  29.326  1.00  0.00     0.064 A 
ATOM     85  C   UNL A   1      41.955  36.219  28.101  1.00  0.00     0.173 A 
ATOM     86  C   UNL A   1      43.361  36.718  29.971  1.00  0.00     0.173 A 
ATOM     87  F   UNL A   1      41.157  35.399  27.398  1.00  0.00    -0.203 F 
ATOM     88  C   UNL A   1      42.233  37.476  27.564  1.00  0.00     0.198 A 
ATOM     89  C   UNL A   1      43.674  37.954  29.411  1.00  0.00     0.198 A 
ATOM     90  F   UNL A   1      43.902  36.434  31.165  1.00  0.00    -0.203 F 
ATOM     91  F   UNL A   1      41.663  37.850  26.410  1.00  0.00    -0.200 F 
ATOM     92  C   UNL A   1      43.103  38.338  28.212  1.00  0.00     0.200 A 
ATOM     93  F   UNL A   1      44.529  38.773  30.040  1.00  0.00    -0.200 F 
ATOM     94  F   UNL A   1      43.390  39.535  27.683  1.00  0.00    -0.200 F 
ENDBRANCH  61  84
ENDBRANCH  35  36
ENDBRANCH  27  30
ENDBRANCH  25  26
ENDBRANCH  24  25
ENDBRANCH   1  24
TORSDOF 13
ENDMDL
