MODEL 1
REMARK VINA RESULT:     -12.1      0.000      0.000
REMARK SMILES O=C(NCCCCNC(=O)[C@H]1[NH2+][C@@H]2CC[C@H]1CC2(F)F)c1ccc(-c2c3nc(c(-c4c(F)c(F)c(F)c(F)c4F)c4ccc([nH]4)c(-c4c(F)c(F)c(F)c(F)c4F)c4nc(c(-c5c(F)c(F)c(F)c(F)c5F)c5ccc2[nH]5)C=C4)C=C3)cc1
REMARK SMILES IDX 4 1 3 2 1 3 2 4 21 6 22 7 83 8 23 9 82 10 24 11 25 12 26 13
REMARK SMILES IDX 76 14 27 15 81 16 75 17 77 18 28 19 80 20 74 21 73 22 29 24
REMARK SMILES IDX 61 25 41 26 60 27 42 28 45 29 59 30 78 31 43 32 44 33 58 35
REMARK SMILES IDX 79 36 46 37 30 38 31 39 39 40 32 41 33 42 37 43 40 44 34 45
REMARK SMILES IDX 35 46 38 47 36 48 62 49 63 50 71 51 64 52 65 53 69 54 72 55
REMARK SMILES IDX 66 56 67 57 70 58 68 59 47 60 48 61 56 62 49 63 50 64 54 65
REMARK SMILES IDX 57 66 51 67 52 68 55 69 53 70 5 71 6 72 7 73 8 74 9 75 10 77
REMARK SMILES IDX 11 78 12 79 16 80 13 81 15 84 17 85 14 86 18 87 19 88 20 89
REMARK H PARENT 3 5 77 23 45 34 8 76 12 82 12 83
REMARK Flexibility Score: inf
ROOT
ATOM      1  C   UNL A   1      32.598  32.845  27.231  1.00  0.00     0.116 C 
ENDROOT
BRANCH   1   2
ATOM      2  N   UNL A   1      32.372  34.216  27.660  1.00  0.00    -0.352 N 
ATOM      3  O   UNL A   1      32.630  36.059  28.938  1.00  0.00    -0.269 OA
ATOM      4  C   UNL A   1      33.032  34.944  28.623  1.00  0.00     0.251 C 
ATOM      5  H   UNL A   1      31.644  34.690  27.197  1.00  0.00     0.163 HD
BRANCH   4   6
ATOM      6  C   UNL A   1      34.208  34.363  29.305  1.00  0.00     0.039 A 
ATOM      7  C   UNL A   1      35.493  34.539  28.788  1.00  0.00     0.014 A 
ATOM      8  C   UNL A   1      34.017  33.621  30.474  1.00  0.00     0.014 A 
ATOM      9  C   UNL A   1      36.562  33.852  29.352  1.00  0.00     0.010 A 
ATOM     10  C   UNL A   1      35.107  32.998  31.088  1.00  0.00     0.010 A 
ATOM     11  C   UNL A   1      36.384  33.077  30.510  1.00  0.00    -0.014 A 
BRANCH  11  12
ATOM     12  C   UNL A   1      37.556  32.395  31.114  1.00  0.00     0.031 A 
ATOM     13  C   UNL A   1      38.019  32.728  32.505  1.00  0.00     0.074 A 
ATOM     14  C   UNL A   1      38.179  31.434  30.407  1.00  0.00     0.049 A 
ATOM     15  N   UNL A   1      38.993  32.196  33.200  1.00  0.00    -0.248 NA
ATOM     16  C   UNL A   1      37.302  33.803  33.208  1.00  0.00     0.031 C 
ATOM     17  C   UNL A   1      37.827  31.032  29.044  1.00  0.00     0.029 A 
ATOM     18  N   UNL A   1      39.219  30.604  30.740  1.00  0.00    -0.354 N 
ATOM     19  C   UNL A   1      39.020  32.880  34.409  1.00  0.00     0.074 A 
ATOM     20  C   UNL A   1      37.980  33.884  34.345  1.00  0.00     0.031 C 
ATOM     21  C   UNL A   1      38.597  29.999  28.678  1.00  0.00     0.029 A 
ATOM     22  C   UNL A   1      39.534  29.701  29.755  1.00  0.00     0.049 A 
ATOM     23  H   UNL A   1      39.692  30.651  31.601  1.00  0.00     0.167 HD
ATOM     24  C   UNL A   1      39.834  32.680  35.474  1.00  0.00     0.037 A 
ATOM     25  C   UNL A   1      40.477  28.742  29.721  1.00  0.00     0.037 A 
ATOM     26  C   UNL A   1      40.854  31.664  35.541  1.00  0.00     0.049 A 
ATOM     27  C   UNL A   1      41.372  28.554  30.911  1.00  0.00     0.074 A 
ATOM     28  C   UNL A   1      41.699  31.356  36.592  1.00  0.00     0.029 A 
ATOM     29  N   UNL A   1      41.168  30.792  34.509  1.00  0.00    -0.354 N 
ATOM     30  N   UNL A   1      41.362  29.183  32.060  1.00  0.00    -0.248 NA
ATOM     31  C   UNL A   1      42.412  27.523  30.797  1.00  0.00     0.031 C 
ATOM     32  C   UNL A   1      42.553  30.326  36.182  1.00  0.00     0.029 A 
ATOM     33  C   UNL A   1      42.209  29.961  34.891  1.00  0.00     0.049 A 
ATOM     34  H   UNL A   1      40.716  30.766  33.634  1.00  0.00     0.167 HD
ATOM     35  C   UNL A   1      42.380  28.617  32.812  1.00  0.00     0.074 A 
ATOM     36  C   UNL A   1      42.974  27.578  31.996  1.00  0.00     0.031 C 
ATOM     37  C   UNL A   1      42.789  28.932  34.065  1.00  0.00     0.037 A 
BRANCH  24  38
ATOM     38  C   UNL A   1      39.668  33.591  36.657  1.00  0.00     0.064 A 
ATOM     39  C   UNL A   1      40.315  34.833  36.729  1.00  0.00     0.173 A 
ATOM     40  C   UNL A   1      38.814  33.234  37.713  1.00  0.00     0.173 A 
ATOM     41  F   UNL A   1      41.149  35.217  35.752  1.00  0.00    -0.203 F 
ATOM     42  C   UNL A   1      40.131  35.674  37.825  1.00  0.00     0.198 A 
ATOM     43  C   UNL A   1      38.612  34.088  38.794  1.00  0.00     0.198 A 
ATOM     44  F   UNL A   1      38.166  32.059  37.690  1.00  0.00    -0.203 F 
ATOM     45  F   UNL A   1      40.791  36.838  37.892  1.00  0.00    -0.200 F 
ATOM     46  C   UNL A   1      39.276  35.304  38.853  1.00  0.00     0.200 A 
ATOM     47  F   UNL A   1      37.777  33.733  39.780  1.00  0.00    -0.200 F 
ATOM     48  F   UNL A   1      39.096  36.116  39.903  1.00  0.00    -0.200 F 
ENDBRANCH  24  38
BRANCH  25  49
ATOM     49  C   UNL A   1      40.608  27.883  28.517  1.00  0.00     0.064 A 
ATOM     50  C   UNL A   1      39.943  26.653  28.437  1.00  0.00     0.173 A 
ATOM     51  C   UNL A   1      41.381  28.283  27.418  1.00  0.00     0.173 A 
ATOM     52  F   UNL A   1      39.208  26.220  29.472  1.00  0.00    -0.203 F 
ATOM     53  C   UNL A   1      40.055  25.848  27.306  1.00  0.00     0.198 A 
ATOM     54  C   UNL A   1      41.470  27.491  26.275  1.00  0.00     0.198 A 
ATOM     55  F   UNL A   1      42.032  29.455  27.445  1.00  0.00    -0.203 F 
ATOM     56  F   UNL A   1      39.438  24.660  27.267  1.00  0.00    -0.200 F 
ATOM     57  C   UNL A   1      40.811  26.271  26.223  1.00  0.00     0.200 A 
ATOM     58  F   UNL A   1      42.188  27.911  25.225  1.00  0.00    -0.200 F 
ATOM     59  F   UNL A   1      40.910  25.502  25.131  1.00  0.00    -0.200 F 
ENDBRANCH  25  49
BRANCH  37  60
ATOM     60  C   UNL A   1      43.918  28.125  34.634  1.00  0.00     0.064 A 
ATOM     61  C   UNL A   1      45.253  28.529  34.491  1.00  0.00     0.173 A 
ATOM     62  C   UNL A   1      43.660  26.942  35.342  1.00  0.00     0.173 A 
ATOM     63  F   UNL A   1      45.552  29.643  33.806  1.00  0.00    -0.203 F 
ATOM     64  C   UNL A   1      46.291  27.762  35.013  1.00  0.00     0.198 A 
ATOM     65  C   UNL A   1      44.699  26.192  35.886  1.00  0.00     0.198 A 
ATOM     66  F   UNL A   1      42.399  26.516  35.509  1.00  0.00    -0.203 F 
ATOM     67  F   UNL A   1      47.563  28.140  34.822  1.00  0.00    -0.200 F 
ATOM     68  C   UNL A   1      46.014  26.598  35.714  1.00  0.00     0.200 A 
ATOM     69  F   UNL A   1      44.428  25.072  36.571  1.00  0.00    -0.200 F 
ATOM     70  F   UNL A   1      47.014  25.861  36.215  1.00  0.00    -0.200 F 
ENDBRANCH  37  60
ENDBRANCH  11  12
ENDBRANCH   4   6
ENDBRANCH   1   2
BRANCH   1  71
ATOM     71  C   UNL A   1      31.401  32.232  26.516  1.00  0.00     0.023 C 
BRANCH  71  72
ATOM     72  C   UNL A   1      31.545  30.759  26.130  1.00  0.00     0.023 C 
BRANCH  72  73
ATOM     73  C   UNL A   1      32.908  30.142  26.433  1.00  0.00     0.116 C 
BRANCH  73  74
ATOM     74  N   UNL A   1      33.579  29.688  25.230  1.00  0.00    -0.351 N 
ATOM     75  C   UNL A   1      33.402  28.563  24.486  1.00  0.00     0.278 C 
ATOM     76  H   UNL A   1      34.281  30.295  24.898  1.00  0.00     0.163 HD
ATOM     77  O   UNL A   1      34.050  28.463  23.441  1.00  0.00    -0.268 OA
BRANCH  75  78
ATOM     78  C   UNL A   1      32.393  27.478  24.907  1.00  0.00     0.276 C 
ATOM     79  N   UNL A   1      31.928  26.736  23.698  1.00  0.00    -0.328 N 
ATOM     80  C   UNL A   1      32.969  26.512  25.974  1.00  0.00     0.064 C 
ATOM     81  C   UNL A   1      32.001  25.269  23.950  1.00  0.00     0.253 C 
ATOM     82  H   UNL A   1      32.523  26.975  22.904  1.00  0.00     0.347 HD
ATOM     83  H   UNL A   1      30.964  26.996  23.493  1.00  0.00     0.347 HD
ATOM     84  C   UNL A   1      31.799  25.619  26.436  1.00  0.00     0.017 C 
ATOM     85  C   UNL A   1      34.052  25.584  25.375  1.00  0.00     0.094 C 
ATOM     86  C   UNL A   1      31.171  24.945  25.206  1.00  0.00     0.072 C 
ATOM     87  C   UNL A   1      33.464  24.822  24.188  1.00  0.00     0.298 C 
ATOM     88  F   UNL A   1      33.513  23.488  24.424  1.00  0.00    -0.200 F 
ATOM     89  F   UNL A   1      34.205  25.047  23.076  1.00  0.00    -0.200 F 
ENDBRANCH  75  78
ENDBRANCH  73  74
ENDBRANCH  72  73
ENDBRANCH  71  72
ENDBRANCH   1  71
TORSDOF 11
ENDMDL
MODEL 2
REMARK VINA RESULT:     -12.1      0.145      1.655
REMARK SMILES O=C(NCCCCNC(=O)[C@H]1[NH2+][C@@H]2CC[C@H]1CC2(F)F)c1ccc(-c2c3nc(c(-c4c(F)c(F)c(F)c(F)c4F)c4ccc([nH]4)c(-c4c(F)c(F)c(F)c(F)c4F)c4nc(c(-c5c(F)c(F)c(F)c(F)c5F)c5ccc2[nH]5)C=C4)C=C3)cc1
REMARK SMILES IDX 4 1 3 2 1 3 2 4 21 6 22 7 83 8 23 9 82 10 24 11 25 12 26 13
REMARK SMILES IDX 76 14 27 15 81 16 75 17 77 18 28 19 80 20 74 21 73 22 29 24
REMARK SMILES IDX 61 25 41 26 60 27 42 28 45 29 59 30 78 31 43 32 44 33 58 35
REMARK SMILES IDX 79 36 46 37 30 38 31 39 39 40 32 41 33 42 37 43 40 44 34 45
REMARK SMILES IDX 35 46 38 47 36 48 62 49 63 50 71 51 64 52 65 53 69 54 72 55
REMARK SMILES IDX 66 56 67 57 70 58 68 59 47 60 48 61 56 62 49 63 50 64 54 65
REMARK SMILES IDX 57 66 51 67 52 68 55 69 53 70 5 71 6 72 7 73 8 74 9 75 10 77
REMARK SMILES IDX 11 78 12 79 16 80 13 81 15 84 17 85 14 86 18 87 19 88 20 89
REMARK H PARENT 3 5 77 23 45 34 8 76 12 82 12 83
REMARK Flexibility Score: inf
ROOT
ATOM      1  C   UNL A   1      32.620  32.873  27.190  1.00  0.00     0.116 C 
ENDROOT
BRANCH   1   2
ATOM      2  N   UNL A   1      32.360  34.231  27.641  1.00  0.00    -0.352 N 
ATOM      3  O   UNL A   1      32.570  36.056  28.952  1.00  0.00    -0.269 OA
ATOM      4  C   UNL A   1      32.999  34.956  28.620  1.00  0.00     0.251 C 
ATOM      5  H   UNL A   1      31.623  34.695  27.183  1.00  0.00     0.163 HD
BRANCH   4   6
ATOM      6  C   UNL A   1      34.186  34.391  29.298  1.00  0.00     0.039 A 
ATOM      7  C   UNL A   1      35.466  34.584  28.776  1.00  0.00     0.014 A 
ATOM      8  C   UNL A   1      34.008  33.646  30.467  1.00  0.00     0.014 A 
ATOM      9  C   UNL A   1      36.546  33.911  29.337  1.00  0.00     0.010 A 
ATOM     10  C   UNL A   1      35.109  33.037  31.077  1.00  0.00     0.010 A 
ATOM     11  C   UNL A   1      36.382  33.133  30.494  1.00  0.00    -0.014 A 
BRANCH  11  12
ATOM     12  C   UNL A   1      37.565  32.467  31.095  1.00  0.00     0.031 A 
ATOM     13  C   UNL A   1      38.029  32.807  32.483  1.00  0.00     0.074 A 
ATOM     14  C   UNL A   1      38.198  31.513  30.386  1.00  0.00     0.049 A 
ATOM     15  N   UNL A   1      39.013  32.287  33.175  1.00  0.00    -0.248 NA
ATOM     16  C   UNL A   1      37.302  33.872  33.188  1.00  0.00     0.031 C 
ATOM     17  C   UNL A   1      37.845  31.107  29.024  1.00  0.00     0.029 A 
ATOM     18  N   UNL A   1      39.250  30.697  30.715  1.00  0.00    -0.354 N 
ATOM     19  C   UNL A   1      39.036  32.972  34.383  1.00  0.00     0.074 A 
ATOM     20  C   UNL A   1      37.982  33.963  34.323  1.00  0.00     0.031 C 
ATOM     21  C   UNL A   1      38.628  30.083  28.655  1.00  0.00     0.029 A 
ATOM     22  C   UNL A   1      39.572  29.798  29.729  1.00  0.00     0.049 A 
ATOM     23  H   UNL A   1      39.726  30.751  31.574  1.00  0.00     0.167 HD
ATOM     24  C   UNL A   1      39.856  32.783  35.445  1.00  0.00     0.037 A 
ATOM     25  C   UNL A   1      40.527  28.851  29.691  1.00  0.00     0.037 A 
ATOM     26  C   UNL A   1      40.890  31.780  35.508  1.00  0.00     0.049 A 
ATOM     27  C   UNL A   1      41.430  28.675  30.878  1.00  0.00     0.074 A 
ATOM     28  C   UNL A   1      41.743  31.484  36.557  1.00  0.00     0.029 A 
ATOM     29  N   UNL A   1      41.211  30.912  34.476  1.00  0.00    -0.354 N 
ATOM     30  N   UNL A   1      41.416  29.304  32.026  1.00  0.00    -0.248 NA
ATOM     31  C   UNL A   1      42.482  27.657  30.760  1.00  0.00     0.031 C 
ATOM     32  C   UNL A   1      42.608  30.464  36.143  1.00  0.00     0.029 A 
ATOM     33  C   UNL A   1      42.265  30.095  34.854  1.00  0.00     0.049 A 
ATOM     34  H   UNL A   1      40.756  30.879  33.603  1.00  0.00     0.167 HD
ATOM     35  C   UNL A   1      42.444  28.752  32.775  1.00  0.00     0.074 A 
ATOM     36  C   UNL A   1      43.048  27.720  31.957  1.00  0.00     0.031 C 
ATOM     37  C   UNL A   1      42.854  29.073  34.026  1.00  0.00     0.037 A 
BRANCH  24  38
ATOM     38  C   UNL A   1      39.684  33.692  36.628  1.00  0.00     0.064 A 
ATOM     39  C   UNL A   1      40.313  34.944  36.697  1.00  0.00     0.173 A 
ATOM     40  C   UNL A   1      38.840  33.324  37.688  1.00  0.00     0.173 A 
ATOM     41  F   UNL A   1      41.137  35.339  35.715  1.00  0.00    -0.203 F 
ATOM     42  C   UNL A   1      40.123  35.782  37.792  1.00  0.00     0.198 A 
ATOM     43  C   UNL A   1      38.632  34.175  38.770  1.00  0.00     0.198 A 
ATOM     44  F   UNL A   1      38.209  32.140  37.670  1.00  0.00    -0.203 F 
ATOM     45  F   UNL A   1      40.766  36.956  37.856  1.00  0.00    -0.200 F 
ATOM     46  C   UNL A   1      39.278  35.401  38.825  1.00  0.00     0.200 A 
ATOM     47  F   UNL A   1      37.806  33.809  39.761  1.00  0.00    -0.200 F 
ATOM     48  F   UNL A   1      39.092  36.212  39.875  1.00  0.00    -0.200 F 
ENDBRANCH  24  38
BRANCH  25  49
ATOM     49  C   UNL A   1      40.664  27.993  28.488  1.00  0.00     0.064 A 
ATOM     50  C   UNL A   1      41.453  28.396  27.403  1.00  0.00     0.173 A 
ATOM     51  C   UNL A   1      40.028  26.746  28.407  1.00  0.00     0.173 A 
ATOM     52  F   UNL A   1      42.065  29.590  27.427  1.00  0.00    -0.203 F 
ATOM     53  C   UNL A   1      41.592  27.589  26.276  1.00  0.00     0.198 A 
ATOM     54  C   UNL A   1      40.190  25.926  27.292  1.00  0.00     0.198 A 
ATOM     55  F   UNL A   1      39.267  26.313  29.422  1.00  0.00    -0.203 F 
ATOM     56  F   UNL A   1      42.323  28.013  25.237  1.00  0.00    -0.200 F 
ATOM     57  C   UNL A   1      40.967  26.352  26.225  1.00  0.00     0.200 A 
ATOM     58  F   UNL A   1      39.598  24.725  27.254  1.00  0.00    -0.200 F 
ATOM     59  F   UNL A   1      41.110  25.571  25.146  1.00  0.00    -0.200 F 
ENDBRANCH  25  49
BRANCH  37  60
ATOM     60  C   UNL A   1      43.995  28.280  34.590  1.00  0.00     0.064 A 
ATOM     61  C   UNL A   1      43.782  27.078  35.282  1.00  0.00     0.173 A 
ATOM     62  C   UNL A   1      45.317  28.719  34.424  1.00  0.00     0.173 A 
ATOM     63  F   UNL A   1      42.535  26.627  35.482  1.00  0.00    -0.203 F 
ATOM     64  C   UNL A   1      44.851  26.359  35.811  1.00  0.00     0.198 A 
ATOM     65  C   UNL A   1      46.385  27.984  34.931  1.00  0.00     0.198 A 
ATOM     66  F   UNL A   1      45.572  29.860  33.767  1.00  0.00    -0.203 F 
ATOM     67  F   UNL A   1      44.622  25.240  36.511  1.00  0.00    -0.200 F 
ATOM     68  C   UNL A   1      46.150  26.809  35.631  1.00  0.00     0.200 A 
ATOM     69  F   UNL A   1      47.640  28.415  34.748  1.00  0.00    -0.200 F 
ATOM     70  F   UNL A   1      47.177  26.117  36.141  1.00  0.00    -0.200 F 
ENDBRANCH  37  60
ENDBRANCH  11  12
ENDBRANCH   4   6
ENDBRANCH   1   2
BRANCH   1  71
ATOM     71  C   UNL A   1      31.373  32.156  26.687  1.00  0.00     0.023 C 
BRANCH  71  72
ATOM     72  C   UNL A   1      31.612  30.792  26.036  1.00  0.00     0.023 C 
BRANCH  72  73
ATOM     73  C   UNL A   1      32.912  30.102  26.442  1.00  0.00     0.116 C 
BRANCH  73  74
ATOM     74  N   UNL A   1      33.663  29.636  25.292  1.00  0.00    -0.351 N 
ATOM     75  C   UNL A   1      33.532  28.506  24.546  1.00  0.00     0.278 C 
ATOM     76  H   UNL A   1      34.388  30.237  25.004  1.00  0.00     0.163 HD
ATOM     77  O   UNL A   1      34.250  28.394  23.549  1.00  0.00    -0.268 OA
BRANCH  75  78
ATOM     78  C   UNL A   1      32.492  27.428  24.904  1.00  0.00     0.276 C 
ATOM     79  N   UNL A   1      32.098  26.687  23.669  1.00  0.00    -0.328 N 
ATOM     80  C   UNL A   1      32.993  26.460  26.006  1.00  0.00     0.064 C 
ATOM     81  C   UNL A   1      32.145  25.220  23.927  1.00  0.00     0.253 C 
ATOM     82  H   UNL A   1      32.743  26.921  22.914  1.00  0.00     0.347 HD
ATOM     83  H   UNL A   1      31.150  26.954  23.404  1.00  0.00     0.347 HD
ATOM     84  C   UNL A   1      31.790  25.576  26.395  1.00  0.00     0.017 C 
ATOM     85  C   UNL A   1      34.105  25.523  25.478  1.00  0.00     0.094 C 
ATOM     86  C   UNL A   1      31.235  24.904  25.129  1.00  0.00     0.072 C 
ATOM     87  C   UNL A   1      33.586  24.764  24.257  1.00  0.00     0.298 C 
ATOM     88  F   UNL A   1      33.612  23.429  24.497  1.00  0.00    -0.200 F 
ATOM     89  F   UNL A   1      34.397  24.982  23.193  1.00  0.00    -0.200 F 
ENDBRANCH  75  78
ENDBRANCH  73  74
ENDBRANCH  72  73
ENDBRANCH  71  72
ENDBRANCH   1  71
TORSDOF 11
ENDMDL
MODEL 3
REMARK VINA RESULT:     -12.1      0.121      1.173
REMARK SMILES O=C(NCCCCNC(=O)[C@H]1[NH2+][C@@H]2CC[C@H]1CC2(F)F)c1ccc(-c2c3nc(c(-c4c(F)c(F)c(F)c(F)c4F)c4ccc([nH]4)c(-c4c(F)c(F)c(F)c(F)c4F)c4nc(c(-c5c(F)c(F)c(F)c(F)c5F)c5ccc2[nH]5)C=C4)C=C3)cc1
REMARK SMILES IDX 4 1 3 2 1 3 2 4 21 6 22 7 83 8 23 9 82 10 24 11 25 12 26 13
REMARK SMILES IDX 76 14 27 15 81 16 75 17 77 18 28 19 80 20 74 21 73 22 29 24
REMARK SMILES IDX 61 25 41 26 60 27 42 28 45 29 59 30 78 31 43 32 44 33 58 35
REMARK SMILES IDX 79 36 46 37 30 38 31 39 39 40 32 41 33 42 37 43 40 44 34 45
REMARK SMILES IDX 35 46 38 47 36 48 62 49 63 50 71 51 64 52 65 53 69 54 72 55
REMARK SMILES IDX 66 56 67 57 70 58 68 59 47 60 48 61 56 62 49 63 50 64 54 65
REMARK SMILES IDX 57 66 51 67 52 68 55 69 53 70 5 71 6 72 7 73 8 74 9 75 10 77
REMARK SMILES IDX 11 78 12 79 16 80 13 81 15 84 17 85 14 86 18 87 19 88 20 89
REMARK H PARENT 3 5 77 23 45 34 8 76 12 82 12 83
REMARK Flexibility Score: inf
ROOT
ATOM      1  C   UNL A   1      32.530  32.829  27.212  1.00  0.00     0.116 C 
ENDROOT
BRANCH   1   2
ATOM      2  N   UNL A   1      32.293  34.203  27.626  1.00  0.00    -0.352 N 
ATOM      3  O   UNL A   1      32.535  36.061  28.884  1.00  0.00    -0.269 OA
ATOM      4  C   UNL A   1      32.945  34.945  28.583  1.00  0.00     0.251 C 
ATOM      5  H   UNL A   1      31.563  34.667  27.155  1.00  0.00     0.163 HD
BRANCH   4   6
ATOM      6  C   UNL A   1      34.124  34.380  29.275  1.00  0.00     0.039 A 
ATOM      7  C   UNL A   1      35.409  34.562  28.762  1.00  0.00     0.014 A 
ATOM      8  C   UNL A   1      33.933  33.646  30.449  1.00  0.00     0.014 A 
ATOM      9  C   UNL A   1      36.481  33.888  29.337  1.00  0.00     0.010 A 
ATOM     10  C   UNL A   1      35.026  33.036  31.073  1.00  0.00     0.010 A 
ATOM     11  C   UNL A   1      36.304  33.121  30.500  1.00  0.00    -0.014 A 
BRANCH  11  12
ATOM     12  C   UNL A   1      37.479  32.454  31.115  1.00  0.00     0.031 A 
ATOM     13  C   UNL A   1      37.928  32.797  32.508  1.00  0.00     0.074 A 
ATOM     14  C   UNL A   1      38.117  31.497  30.416  1.00  0.00     0.049 A 
ATOM     15  N   UNL A   1      38.903  32.277  33.212  1.00  0.00    -0.248 NA
ATOM     16  C   UNL A   1      37.195  33.866  33.202  1.00  0.00     0.031 C 
ATOM     17  C   UNL A   1      37.779  31.087  29.052  1.00  0.00     0.029 A 
ATOM     18  N   UNL A   1      39.164  30.679  30.759  1.00  0.00    -0.354 N 
ATOM     19  C   UNL A   1      38.914  32.965  34.419  1.00  0.00     0.074 A 
ATOM     20  C   UNL A   1      37.863  33.959  34.344  1.00  0.00     0.031 C 
ATOM     21  C   UNL A   1      38.563  30.061  28.695  1.00  0.00     0.029 A 
ATOM     22  C   UNL A   1      39.495  29.777  29.780  1.00  0.00     0.049 A 
ATOM     23  H   UNL A   1      39.630  30.735  31.624  1.00  0.00     0.167 HD
ATOM     24  C   UNL A   1      39.722  32.778  35.490  1.00  0.00     0.037 A 
ATOM     25  C   UNL A   1      40.449  28.828  29.755  1.00  0.00     0.037 A 
ATOM     26  C   UNL A   1      40.752  31.773  35.568  1.00  0.00     0.049 A 
ATOM     27  C   UNL A   1      41.337  28.653  30.953  1.00  0.00     0.074 A 
ATOM     28  C   UNL A   1      41.593  31.477  36.627  1.00  0.00     0.029 A 
ATOM     29  N   UNL A   1      41.083  30.901  34.542  1.00  0.00    -0.354 N 
ATOM     30  N   UNL A   1      41.312  29.286  32.099  1.00  0.00    -0.248 NA
ATOM     31  C   UNL A   1      42.389  27.633  30.850  1.00  0.00     0.031 C 
ATOM     32  C   UNL A   1      42.461  30.455  36.226  1.00  0.00     0.029 A 
ATOM     33  C   UNL A   1      42.130  30.082  34.934  1.00  0.00     0.049 A 
ATOM     34  H   UNL A   1      40.638  30.867  33.664  1.00  0.00     0.167 HD
ATOM     35  C   UNL A   1      42.331  28.733  32.861  1.00  0.00     0.074 A 
ATOM     36  C   UNL A   1      42.941  27.698  32.052  1.00  0.00     0.031 C 
ATOM     37  C   UNL A   1      42.727  29.057  34.116  1.00  0.00     0.037 A 
BRANCH  24  38
ATOM     38  C   UNL A   1      39.538  33.691  36.669  1.00  0.00     0.064 A 
ATOM     39  C   UNL A   1      38.728  33.337  37.758  1.00  0.00     0.173 A 
ATOM     40  C   UNL A   1      40.217  34.918  36.729  1.00  0.00     0.173 A 
ATOM     41  F   UNL A   1      38.049  32.180  37.746  1.00  0.00    -0.203 F 
ATOM     42  C   UNL A   1      38.587  34.186  38.852  1.00  0.00     0.198 A 
ATOM     43  C   UNL A   1      40.094  35.753  37.836  1.00  0.00     0.198 A 
ATOM     44  F   UNL A   1      41.009  35.302  35.717  1.00  0.00    -0.203 F 
ATOM     45  F   UNL A   1      37.776  33.846  39.864  1.00  0.00    -0.200 F 
ATOM     46  C   UNL A   1      39.274  35.391  38.894  1.00  0.00     0.200 A 
ATOM     47  F   UNL A   1      40.769  36.911  37.878  1.00  0.00    -0.200 F 
ATOM     48  F   UNL A   1      39.142  36.204  39.950  1.00  0.00    -0.200 F 
ENDBRANCH  24  38
BRANCH  25  49
ATOM     49  C   UNL A   1      40.597  27.966  28.556  1.00  0.00     0.064 A 
ATOM     50  C   UNL A   1      39.942  26.732  28.472  1.00  0.00     0.173 A 
ATOM     51  C   UNL A   1      41.379  28.368  27.463  1.00  0.00     0.173 A 
ATOM     52  F   UNL A   1      39.199  26.296  29.501  1.00  0.00    -0.203 F 
ATOM     53  C   UNL A   1      40.071  25.924  27.345  1.00  0.00     0.198 A 
ATOM     54  C   UNL A   1      41.485  27.574  26.324  1.00  0.00     0.198 A 
ATOM     55  F   UNL A   1      42.021  29.544  27.493  1.00  0.00    -0.203 F 
ATOM     56  F   UNL A   1      39.462  24.732  27.304  1.00  0.00    -0.200 F 
ATOM     57  C   UNL A   1      40.835  26.349  26.268  1.00  0.00     0.200 A 
ATOM     58  F   UNL A   1      42.211  27.996  25.280  1.00  0.00    -0.200 F 
ATOM     59  F   UNL A   1      40.950  25.578  25.179  1.00  0.00    -0.200 F 
ENDBRANCH  25  49
BRANCH  37  60
ATOM     60  C   UNL A   1      43.860  28.264  34.695  1.00  0.00     0.064 A 
ATOM     61  C   UNL A   1      45.196  28.655  34.518  1.00  0.00     0.173 A 
ATOM     62  C   UNL A   1      43.607  27.108  35.448  1.00  0.00     0.173 A 
ATOM     63  F   UNL A   1      45.489  29.742  33.790  1.00  0.00    -0.203 F 
ATOM     64  C   UNL A   1      46.238  27.901  35.051  1.00  0.00     0.198 A 
ATOM     65  C   UNL A   1      44.650  26.372  36.002  1.00  0.00     0.198 A 
ATOM     66  F   UNL A   1      42.346  26.695  35.650  1.00  0.00    -0.203 F 
ATOM     67  F   UNL A   1      47.508  28.265  34.827  1.00  0.00    -0.200 F 
ATOM     68  C   UNL A   1      45.964  26.764  35.796  1.00  0.00     0.200 A 
ATOM     69  F   UNL A   1      44.384  25.278  36.731  1.00  0.00    -0.200 F 
ATOM     70  F   UNL A   1      46.968  26.039  36.308  1.00  0.00    -0.200 F 
ENDBRANCH  37  60
ENDBRANCH  11  12
ENDBRANCH   4   6
ENDBRANCH   1   2
BRANCH   1  71
ATOM     71  C   UNL A   1      31.338  32.199  26.502  1.00  0.00     0.023 C 
BRANCH  71  72
ATOM     72  C   UNL A   1      31.518  30.741  26.076  1.00  0.00     0.023 C 
BRANCH  72  73
ATOM     73  C   UNL A   1      32.875  30.131  26.417  1.00  0.00     0.116 C 
BRANCH  73  74
ATOM     74  N   UNL A   1      33.584  29.686  25.232  1.00  0.00    -0.351 N 
ATOM     75  C   UNL A   1      33.433  28.566  24.476  1.00  0.00     0.278 C 
ATOM     76  H   UNL A   1      34.294  30.297  24.925  1.00  0.00     0.163 HD
ATOM     77  O   UNL A   1      34.113  28.473  23.451  1.00  0.00    -0.268 OA
BRANCH  75  78
ATOM     78  C   UNL A   1      32.415  27.475  24.859  1.00  0.00     0.276 C 
ATOM     79  N   UNL A   1      31.994  26.736  23.633  1.00  0.00    -0.328 N 
ATOM     80  C   UNL A   1      32.958  26.508  25.942  1.00  0.00     0.064 C 
ATOM     81  C   UNL A   1      32.064  25.267  23.882  1.00  0.00     0.253 C 
ATOM     82  H   UNL A   1      32.614  26.979  22.860  1.00  0.00     0.347 HD
ATOM     83  H   UNL A   1      31.036  26.993  23.397  1.00  0.00     0.347 HD
ATOM     84  C   UNL A   1      31.777  25.609  26.362  1.00  0.00     0.017 C 
ATOM     85  C   UNL A   1      34.065  25.585  25.377  1.00  0.00     0.094 C 
ATOM     86  C   UNL A   1      31.193  24.937  25.109  1.00  0.00     0.072 C 
ATOM     87  C   UNL A   1      33.520  24.826  24.168  1.00  0.00     0.298 C 
ATOM     88  F   UNL A   1      33.567  23.491  24.401  1.00  0.00    -0.200 F 
ATOM     89  F   UNL A   1      34.297  25.057  23.082  1.00  0.00    -0.200 F 
ENDBRANCH  75  78
ENDBRANCH  73  74
ENDBRANCH  72  73
ENDBRANCH  71  72
ENDBRANCH   1  71
TORSDOF 11
ENDMDL
