MODEL 1
REMARK VINA RESULT:     -13.9      0.000      0.000
REMARK SMILES Cc1cc(C)c(NS(=O)(=O)c2cccc3cc(C)cnc23)c(C(=O)NCCCCNC(=O)c2ccc(-c3c4nc(c(-c5c(F)c(F)c(F)c(F)c5F)c5ccc([nH]5)c(-c5c(F)c(F)c(F)c(F)c5F)c5nc(c(-c6c(F)c(F)c(F)c(F)c6F)c6ccc3[nH]6)C=C5)C=C4)cc2)c1
REMARK SMILES IDX 27 1 26 2 25 3 23 4 24 5 22 7 1 8 2 9 3 10 96 11 4 12 5 13
REMARK SMILES IDX 6 14 7 15 8 17 9 18 10 19 11 20 12 21 21 22 13 23 15 24
REMARK SMILES IDX 20 25 14 26 16 27 19 28 17 29 18 30 28 31 29 32 30 33 31 34
REMARK SMILES IDX 32 36 33 37 34 38 95 39 35 40 94 41 36 42 37 43 38 44 88 45
REMARK SMILES IDX 39 46 93 47 87 48 89 49 40 50 92 51 86 52 85 53 41 55 73 56
REMARK SMILES IDX 53 57 72 58 54 59 57 60 71 61 90 62 55 63 56 64 70 66 91 67
REMARK SMILES IDX 58 68 42 69 43 70 51 71 44 72 45 73 49 74 52 75 46 76 47 77
REMARK SMILES IDX 50 78 48 79 74 80 75 81 83 82 76 83 77 84 81 85 84 86 78 87
REMARK SMILES IDX 79 88 82 89 80 90 59 91 60 92 68 93 61 94 62 95 66 96 69 97
REMARK SMILES IDX 63 98 64 99 67 100 65 101
REMARK H PARENT 25 6 7 16 30 35 89 54 57 65
REMARK Flexibility Score: inf
ROOT
ATOM      1  C   UNL A   1      31.793  30.843  25.987  1.00  0.00     0.023 C 
ENDROOT
BRANCH   1   2
ATOM      2  C   UNL A   1      32.847  29.886  26.552  1.00  0.00     0.116 C 
BRANCH   2   3
ATOM      3  N   UNL A   1      32.186  28.761  27.191  1.00  0.00    -0.352 N 
ATOM      4  C   UNL A   1      31.478  27.700  26.671  1.00  0.00     0.253 C 
ATOM      5  O   UNL A   1      30.955  26.915  27.461  1.00  0.00    -0.269 OA
ATOM      6  H   UNL A   1      32.256  28.756  28.173  1.00  0.00     0.163 HD
BRANCH   4   7
ATOM      7  C   UNL A   1      31.438  27.416  25.206  1.00  0.00     0.064 A 
ATOM      8  C   UNL A   1      30.127  29.117  22.084  1.00  0.00     0.044 C 
ATOM      9  C   UNL A   1      30.884  28.175  22.971  1.00  0.00    -0.050 A 
ATOM     10  C   UNL A   1      31.838  27.285  22.466  1.00  0.00     0.009 A 
ATOM     11  C   UNL A   1      30.701  28.238  24.349  1.00  0.00     0.019 A 
ATOM     12  C   UNL A   1      32.527  26.382  23.309  1.00  0.00    -0.026 A 
ATOM     13  C   UNL A   1      33.595  25.526  22.690  1.00  0.00     0.046 C 
ATOM     14  C   UNL A   1      32.204  26.345  24.675  1.00  0.00     0.065 A 
BRANCH  14  15
ATOM     15  N   UNL A   1      32.695  25.348  25.593  1.00  0.00    -0.278 N 
ATOM     16  H   UNL A   1      33.505  25.582  26.103  1.00  0.00     0.180 HD
BRANCH  15  17
ATOM     17  S   UNL A   1      32.034  23.825  25.888  1.00  0.00     0.264 S 
ATOM     18  O   UNL A   1      32.101  23.695  27.338  1.00  0.00    -0.201 OA
ATOM     19  O   UNL A   1      30.732  23.808  25.252  1.00  0.00    -0.201 OA
BRANCH  17  20
ATOM     20  C   UNL A   1      32.920  22.429  25.253  1.00  0.00     0.114 A 
ATOM     21  C   UNL A   1      32.118  21.297  24.970  1.00  0.00     0.024 A 
ATOM     22  C   UNL A   1      34.307  22.371  25.169  1.00  0.00     0.091 A 
ATOM     23  C   UNL A   1      32.693  20.063  24.718  1.00  0.00     0.002 A 
ATOM     24  C   UNL A   1      34.867  21.075  25.036  1.00  0.00     0.002 A 
ATOM     25  N   UNL A   1      35.113  23.451  25.250  1.00  0.00    -0.255 NA
ATOM     26  C   UNL A   1      34.070  19.943  24.800  1.00  0.00     0.010 A 
ATOM     27  C   UNL A   1      36.248  20.917  25.204  1.00  0.00     0.015 A 
ATOM     28  C   UNL A   1      36.450  23.263  25.362  1.00  0.00     0.115 A 
ATOM     29  C   UNL A   1      37.057  22.023  25.432  1.00  0.00    -0.032 A 
ATOM     30  C   UNL A   1      38.498  21.859  25.788  1.00  0.00     0.046 C 
ENDBRANCH  17  20
ENDBRANCH  15  17
ENDBRANCH  14  15
ENDBRANCH   4   7
ENDBRANCH   2   3
ENDBRANCH   1   2
BRANCH   1  31
ATOM     31  C   UNL A   1      31.474  32.011  26.922  1.00  0.00     0.023 C 
BRANCH  31  32
ATOM     32  C   UNL A   1      32.694  32.828  27.328  1.00  0.00     0.116 C 
BRANCH  32  33
ATOM     33  N   UNL A   1      32.370  34.205  27.677  1.00  0.00    -0.352 N 
ATOM     34  C   UNL A   1      32.981  35.009  28.609  1.00  0.00     0.251 C 
ATOM     35  H   UNL A   1      31.619  34.609  27.185  1.00  0.00     0.163 HD
ATOM     36  O   UNL A   1      32.539  36.124  28.865  1.00  0.00    -0.269 OA
BRANCH  34  37
ATOM     37  C   UNL A   1      34.151  34.484  29.335  1.00  0.00     0.039 A 
ATOM     38  C   UNL A   1      33.947  33.807  30.540  1.00  0.00     0.014 A 
ATOM     39  C   UNL A   1      35.431  34.593  28.786  1.00  0.00     0.014 A 
ATOM     40  C   UNL A   1      35.023  33.171  31.158  1.00  0.00     0.010 A 
ATOM     41  C   UNL A   1      36.488  33.901  29.366  1.00  0.00     0.010 A 
ATOM     42  C   UNL A   1      36.292  33.180  30.555  1.00  0.00    -0.014 A 
BRANCH  42  43
ATOM     43  C   UNL A   1      37.424  32.426  31.146  1.00  0.00     0.031 A 
ATOM     44  C   UNL A   1      37.938  32.788  32.508  1.00  0.00     0.074 A 
ATOM     45  C   UNL A   1      38.029  31.463  30.424  1.00  0.00     0.049 A 
ATOM     46  N   UNL A   1      38.948  32.286  33.172  1.00  0.00    -0.248 NA
ATOM     47  C   UNL A   1      37.242  33.880  33.209  1.00  0.00     0.031 C 
ATOM     48  C   UNL A   1      37.659  31.064  29.065  1.00  0.00     0.029 A 
ATOM     49  N   UNL A   1      39.093  30.651  30.730  1.00  0.00    -0.354 N 
ATOM     50  C   UNL A   1      39.016  33.007  34.356  1.00  0.00     0.074 A 
ATOM     51  C   UNL A   1      37.982  34.017  34.299  1.00  0.00     0.031 C 
ATOM     52  C   UNL A   1      38.465  30.069  28.664  1.00  0.00     0.029 A 
ATOM     53  C   UNL A   1      39.429  29.781  29.722  1.00  0.00     0.049 A 
ATOM     54  H   UNL A   1      39.570  30.690  31.590  1.00  0.00     0.167 HD
ATOM     55  C   UNL A   1      39.849  32.824  35.408  1.00  0.00     0.037 A 
ATOM     56  C   UNL A   1      40.404  28.855  29.662  1.00  0.00     0.037 A 
ATOM     57  C   UNL A   1      40.857  31.800  35.473  1.00  0.00     0.049 A 
ATOM     58  C   UNL A   1      41.309  28.666  30.849  1.00  0.00     0.074 A 
ATOM     59  C   UNL A   1      41.709  31.492  36.518  1.00  0.00     0.029 A 
ATOM     60  N   UNL A   1      41.148  30.915  34.445  1.00  0.00    -0.354 N 
ATOM     61  N   UNL A   1      41.312  29.300  31.996  1.00  0.00    -0.248 NA
ATOM     62  C   UNL A   1      42.340  27.624  30.737  1.00  0.00     0.031 C 
ATOM     63  C   UNL A   1      42.542  30.445  36.109  1.00  0.00     0.029 A 
ATOM     64  C   UNL A   1      42.179  30.072  34.825  1.00  0.00     0.049 A 
ATOM     65  H   UNL A   1      40.690  30.891  33.573  1.00  0.00     0.167 HD
ATOM     66  C   UNL A   1      42.322  28.718  32.751  1.00  0.00     0.074 A 
ATOM     67  C   UNL A   1      42.900  27.669  31.936  1.00  0.00     0.031 C 
ATOM     68  C   UNL A   1      42.733  29.026  34.005  1.00  0.00     0.037 A 
BRANCH  55  69
ATOM     69  C   UNL A   1      39.696  33.748  36.580  1.00  0.00     0.064 A 
ATOM     70  C   UNL A   1      40.334  34.997  36.618  1.00  0.00     0.173 A 
ATOM     71  C   UNL A   1      38.876  33.396  37.662  1.00  0.00     0.173 A 
ATOM     72  F   UNL A   1      41.139  35.375  35.613  1.00  0.00    -0.203 F 
ATOM     73  C   UNL A   1      40.179  35.849  37.708  1.00  0.00     0.198 A 
ATOM     74  C   UNL A   1      38.701  34.262  38.738  1.00  0.00     0.198 A 
ATOM     75  F   UNL A   1      38.241  32.215  37.675  1.00  0.00    -0.203 F 
ATOM     76  F   UNL A   1      40.837  37.015  37.744  1.00  0.00    -0.200 F 
ATOM     77  C   UNL A   1      39.357  35.484  38.764  1.00  0.00     0.200 A 
ATOM     78  F   UNL A   1      37.898  33.913  39.754  1.00  0.00    -0.200 F 
ATOM     79  F   UNL A   1      39.205  36.307  39.811  1.00  0.00    -0.200 F 
ENDBRANCH  55  69
BRANCH  56  80
ATOM     80  C   UNL A   1      40.556  28.012  28.448  1.00  0.00     0.064 A 
ATOM     81  C   UNL A   1      39.923  26.765  28.355  1.00  0.00     0.173 A 
ATOM     82  C   UNL A   1      41.342  28.427  27.363  1.00  0.00     0.173 A 
ATOM     83  F   UNL A   1      39.177  26.317  29.377  1.00  0.00    -0.203 F 
ATOM     84  C   UNL A   1      40.087  25.954  27.234  1.00  0.00     0.198 A 
ATOM     85  C   UNL A   1      41.485  27.626  26.230  1.00  0.00     0.198 A 
ATOM     86  F   UNL A   1      41.964  29.614  27.399  1.00  0.00    -0.203 F 
ATOM     87  F   UNL A   1      39.506  24.747  27.193  1.00  0.00    -0.200 F 
ATOM     88  C   UNL A   1      40.864  26.388  26.171  1.00  0.00     0.200 A 
ATOM     89  F   UNL A   1      42.225  28.054  25.200  1.00  0.00    -0.200 F 
ATOM     90  F   UNL A   1      41.021  25.608  25.093  1.00  0.00    -0.200 F 
ENDBRANCH  56  80
BRANCH  68  91
ATOM     91  C   UNL A   1      43.836  28.194  34.589  1.00  0.00     0.064 A 
ATOM     92  C   UNL A   1      45.179  28.588  34.502  1.00  0.00     0.173 A 
ATOM     93  C   UNL A   1      43.540  27.010  35.283  1.00  0.00     0.173 A 
ATOM     94  F   UNL A   1      45.513  29.703  33.836  1.00  0.00    -0.203 F 
ATOM     95  C   UNL A   1      46.188  27.815  35.070  1.00  0.00     0.198 A 
ATOM     96  C   UNL A   1      44.549  26.256  35.874  1.00  0.00     0.198 A 
ATOM     97  F   UNL A   1      42.271  26.594  35.400  1.00  0.00    -0.203 F 
ATOM     98  F   UNL A   1      47.469  28.189  34.938  1.00  0.00    -0.200 F 
ATOM     99  C   UNL A   1      45.873  26.655  35.761  1.00  0.00     0.200 A 
ATOM    100  F   UNL A   1      44.242  25.141  36.552  1.00  0.00    -0.200 F 
ATOM    101  F   UNL A   1      46.846  25.918  36.313  1.00  0.00    -0.200 F 
ENDBRANCH  68  91
ENDBRANCH  42  43
ENDBRANCH  34  37
ENDBRANCH  32  33
ENDBRANCH  31  32
ENDBRANCH   1  31
TORSDOF 14
ENDMDL
MODEL 2
REMARK VINA RESULT:     -13.7      0.733      7.157
REMARK SMILES Cc1cc(C)c(NS(=O)(=O)c2cccc3cc(C)cnc23)c(C(=O)NCCCCNC(=O)c2ccc(-c3c4nc(c(-c5c(F)c(F)c(F)c(F)c5F)c5ccc([nH]5)c(-c5c(F)c(F)c(F)c(F)c5F)c5nc(c(-c6c(F)c(F)c(F)c(F)c6F)c6ccc3[nH]6)C=C5)C=C4)cc2)c1
REMARK SMILES IDX 27 1 26 2 25 3 23 4 24 5 22 7 1 8 2 9 3 10 96 11 4 12 5 13
REMARK SMILES IDX 6 14 7 15 8 17 9 18 10 19 11 20 12 21 21 22 13 23 15 24
REMARK SMILES IDX 20 25 14 26 16 27 19 28 17 29 18 30 28 31 29 32 30 33 31 34
REMARK SMILES IDX 32 36 33 37 34 38 95 39 35 40 94 41 36 42 37 43 38 44 88 45
REMARK SMILES IDX 39 46 93 47 87 48 89 49 40 50 92 51 86 52 85 53 41 55 73 56
REMARK SMILES IDX 53 57 72 58 54 59 57 60 71 61 90 62 55 63 56 64 70 66 91 67
REMARK SMILES IDX 58 68 42 69 43 70 51 71 44 72 45 73 49 74 52 75 46 76 47 77
REMARK SMILES IDX 50 78 48 79 74 80 75 81 83 82 76 83 77 84 81 85 84 86 78 87
REMARK SMILES IDX 79 88 82 89 80 90 59 91 60 92 68 93 61 94 62 95 66 96 69 97
REMARK SMILES IDX 63 98 64 99 67 100 65 101
REMARK H PARENT 25 6 7 16 30 35 89 54 57 65
REMARK Flexibility Score: inf
ROOT
ATOM      1  C   UNL A   1      34.299  30.784  27.817  1.00  0.00     0.023 C 
ENDROOT
BRANCH   1   2
ATOM      2  C   UNL A   1      33.866  29.645  26.889  1.00  0.00     0.116 C 
BRANCH   2   3
ATOM      3  N   UNL A   1      32.827  28.862  27.537  1.00  0.00    -0.352 N 
ATOM      4  C   UNL A   1      31.785  28.122  27.024  1.00  0.00     0.253 C 
ATOM      5  O   UNL A   1      30.999  27.609  27.818  1.00  0.00    -0.269 OA
ATOM      6  H   UNL A   1      32.878  28.859  28.520  1.00  0.00     0.163 HD
BRANCH   4   7
ATOM      7  C   UNL A   1      31.662  27.832  25.564  1.00  0.00     0.064 A 
ATOM      8  C   UNL A   1      30.493  29.662  22.459  1.00  0.00     0.044 C 
ATOM      9  C   UNL A   1      31.145  28.636  23.336  1.00  0.00    -0.050 A 
ATOM     10  C   UNL A   1      31.957  27.623  22.816  1.00  0.00     0.009 A 
ATOM     11  C   UNL A   1      31.015  28.737  24.718  1.00  0.00     0.019 A 
ATOM     12  C   UNL A   1      32.545  26.645  23.650  1.00  0.00    -0.026 A 
ATOM     13  C   UNL A   1      33.470  25.648  23.013  1.00  0.00     0.046 C 
ATOM     14  C   UNL A   1      32.262  26.664  25.026  1.00  0.00     0.065 A 
BRANCH  14  15
ATOM     15  N   UNL A   1      32.645  25.619  25.942  1.00  0.00    -0.278 N 
ATOM     16  H   UNL A   1      33.395  25.821  26.548  1.00  0.00     0.180 HD
BRANCH  15  17
ATOM     17  S   UNL A   1      31.948  24.091  26.090  1.00  0.00     0.264 S 
ATOM     18  O   UNL A   1      31.947  23.849  27.527  1.00  0.00    -0.201 OA
ATOM     19  O   UNL A   1      30.675  24.148  25.398  1.00  0.00    -0.201 OA
BRANCH  17  20
ATOM     20  C   UNL A   1      32.839  22.731  25.387  1.00  0.00     0.114 A 
ATOM     21  C   UNL A   1      32.039  21.617  25.038  1.00  0.00     0.024 A 
ATOM     22  C   UNL A   1      34.227  22.678  25.311  1.00  0.00     0.091 A 
ATOM     23  C   UNL A   1      32.617  20.397  24.724  1.00  0.00     0.002 A 
ATOM     24  C   UNL A   1      34.789  21.391  25.114  1.00  0.00     0.002 A 
ATOM     25  N   UNL A   1      35.032  23.752  25.457  1.00  0.00    -0.255 NA
ATOM     26  C   UNL A   1      33.993  20.274  24.810  1.00  0.00     0.010 A 
ATOM     27  C   UNL A   1      36.167  21.224  25.284  1.00  0.00     0.015 A 
ATOM     28  C   UNL A   1      36.367  23.557  25.570  1.00  0.00     0.115 A 
ATOM     29  C   UNL A   1      36.974  22.316  25.578  1.00  0.00    -0.032 A 
ATOM     30  C   UNL A   1      38.413  22.133  25.936  1.00  0.00     0.046 C 
ENDBRANCH  17  20
ENDBRANCH  15  17
ENDBRANCH  14  15
ENDBRANCH   4   7
ENDBRANCH   2   3
ENDBRANCH   1   2
BRANCH   1  31
ATOM     31  C   UNL A   1      33.221  31.851  28.008  1.00  0.00     0.023 C 
BRANCH  31  32
ATOM     32  C   UNL A   1      33.397  33.075  27.118  1.00  0.00     0.116 C 
BRANCH  32  33
ATOM     33  N   UNL A   1      32.766  34.272  27.658  1.00  0.00    -0.352 N 
ATOM     34  C   UNL A   1      33.100  34.965  28.796  1.00  0.00     0.251 C 
ATOM     35  H   UNL A   1      32.006  34.627  27.143  1.00  0.00     0.163 HD
ATOM     36  O   UNL A   1      32.417  35.908  29.182  1.00  0.00    -0.269 OA
BRANCH  34  37
ATOM     37  C   UNL A   1      34.269  34.520  29.576  1.00  0.00     0.039 A 
ATOM     38  C   UNL A   1      34.059  33.925  30.822  1.00  0.00     0.014 A 
ATOM     39  C   UNL A   1      35.556  34.621  29.041  1.00  0.00     0.014 A 
ATOM     40  C   UNL A   1      35.137  33.361  31.502  1.00  0.00     0.010 A 
ATOM     41  C   UNL A   1      36.617  33.997  29.686  1.00  0.00     0.010 A 
ATOM     42  C   UNL A   1      36.417  33.357  30.920  1.00  0.00    -0.014 A 
BRANCH  42  43
ATOM     43  C   UNL A   1      37.554  32.674  31.580  1.00  0.00     0.031 A 
ATOM     44  C   UNL A   1      38.218  31.504  30.915  1.00  0.00     0.074 A 
ATOM     45  C   UNL A   1      37.941  33.067  32.810  1.00  0.00     0.049 A 
ATOM     46  N   UNL A   1      39.189  30.744  31.354  1.00  0.00    -0.248 NA
ATOM     47  C   UNL A   1      37.704  31.117  29.591  1.00  0.00     0.031 C 
ATOM     48  C   UNL A   1      37.333  34.152  33.583  1.00  0.00     0.029 A 
ATOM     49  N   UNL A   1      38.934  32.592  33.630  1.00  0.00    -0.354 N 
ATOM     50  C   UNL A   1      39.391  29.786  30.370  1.00  0.00     0.074 A 
ATOM     51  C   UNL A   1      38.408  30.025  29.337  1.00  0.00     0.031 C 
ATOM     52  C   UNL A   1      37.979  34.274  34.753  1.00  0.00     0.029 A 
ATOM     53  C   UNL A   1      39.025  33.258  34.828  1.00  0.00     0.049 A 
ATOM     54  H   UNL A   1      39.524  31.843  33.383  1.00  0.00     0.167 HD
ATOM     55  C   UNL A   1      40.331  28.812  30.323  1.00  0.00     0.037 A 
ATOM     56  C   UNL A   1      39.861  33.069  35.866  1.00  0.00     0.037 A 
ATOM     57  C   UNL A   1      41.325  28.596  31.340  1.00  0.00     0.049 A 
ATOM     58  C   UNL A   1      40.902  31.987  35.781  1.00  0.00     0.074 A 
ATOM     59  C   UNL A   1      42.359  27.678  31.355  1.00  0.00     0.029 A 
ATOM     60  N   UNL A   1      41.407  29.312  32.525  1.00  0.00    -0.354 N 
ATOM     61  N   UNL A   1      41.136  31.138  34.810  1.00  0.00    -0.248 NA
ATOM     62  C   UNL A   1      41.802  31.842  36.934  1.00  0.00     0.031 C 
ATOM     63  C   UNL A   1      43.044  27.812  32.567  1.00  0.00     0.029 A 
ATOM     64  C   UNL A   1      42.464  28.843  33.287  1.00  0.00     0.049 A 
ATOM     65  H   UNL A   1      40.802  30.044  32.786  1.00  0.00     0.167 HD
ATOM     66  C   UNL A   1      42.224  30.380  35.220  1.00  0.00     0.074 A 
ATOM     67  C   UNL A   1      42.614  30.879  36.523  1.00  0.00     0.031 C 
ATOM     68  C   UNL A   1      42.844  29.361  34.576  1.00  0.00     0.037 A 
BRANCH  55  69
ATOM     69  C   UNL A   1      40.333  27.912  29.122  1.00  0.00     0.064 A 
ATOM     70  C   UNL A   1      39.571  26.734  29.086  1.00  0.00     0.173 A 
ATOM     71  C   UNL A   1      41.078  28.246  27.982  1.00  0.00     0.173 A 
ATOM     72  F   UNL A   1      38.851  26.364  30.157  1.00  0.00    -0.203 F 
ATOM     73  C   UNL A   1      39.576  25.911  27.965  1.00  0.00     0.198 A 
ATOM     74  C   UNL A   1      41.058  27.435  26.850  1.00  0.00     0.198 A 
ATOM     75  F   UNL A   1      41.821  29.363  27.962  1.00  0.00    -0.203 F 
ATOM     76  F   UNL A   1      38.879  24.767  27.972  1.00  0.00    -0.200 F 
ATOM     77  C   UNL A   1      40.313  26.265  26.845  1.00  0.00     0.200 A 
ATOM     78  F   UNL A   1      41.763  27.784  25.765  1.00  0.00    -0.200 F 
ATOM     79  F   UNL A   1      40.313  25.474  25.763  1.00  0.00    -0.200 F 
ENDBRANCH  55  69
BRANCH  56  80
ATOM     80  C   UNL A   1      39.770  33.946  37.062  1.00  0.00     0.064 A 
ATOM     81  C   UNL A   1      38.987  33.578  38.165  1.00  0.00     0.173 A 
ATOM     82  C   UNL A   1      40.452  35.169  37.126  1.00  0.00     0.173 A 
ATOM     83  F   UNL A   1      38.299  32.426  38.142  1.00  0.00    -0.203 F 
ATOM     84  C   UNL A   1      38.871  34.409  39.277  1.00  0.00     0.198 A 
ATOM     85  C   UNL A   1      40.357  35.989  38.250  1.00  0.00     0.198 A 
ATOM     86  F   UNL A   1      41.220  35.565  36.101  1.00  0.00    -0.203 F 
ATOM     87  F   UNL A   1      38.078  34.053  40.296  1.00  0.00    -0.200 F 
ATOM     88  C   UNL A   1      39.560  35.612  39.320  1.00  0.00     0.200 A 
ATOM     89  F   UNL A   1      41.034  37.143  38.294  1.00  0.00    -0.200 F 
ATOM     90  F   UNL A   1      39.448  36.411  40.389  1.00  0.00    -0.200 F 
ENDBRANCH  56  80
BRANCH  68  91
ATOM     91  C   UNL A   1      44.032  28.744  35.252  1.00  0.00     0.064 A 
ATOM     92  C   UNL A   1      43.898  27.651  36.120  1.00  0.00     0.173 A 
ATOM     93  C   UNL A   1      45.325  29.224  34.991  1.00  0.00     0.173 A 
ATOM     94  F   UNL A   1      42.682  27.166  36.413  1.00  0.00    -0.203 F 
ATOM     95  C   UNL A   1      45.014  27.076  36.721  1.00  0.00     0.198 A 
ATOM     96  C   UNL A   1      46.440  28.627  35.572  1.00  0.00     0.198 A 
ATOM     97  F   UNL A   1      45.506  30.262  34.162  1.00  0.00    -0.203 F 
ATOM     98  F   UNL A   1      44.859  26.059  37.582  1.00  0.00    -0.200 F 
ATOM     99  C   UNL A   1      46.284  27.558  36.442  1.00  0.00     0.200 A 
ATOM    100  F   UNL A   1      47.668  29.087  35.290  1.00  0.00    -0.200 F 
ATOM    101  F   UNL A   1      47.357  26.997  37.015  1.00  0.00    -0.200 F 
ENDBRANCH  68  91
ENDBRANCH  42  43
ENDBRANCH  34  37
ENDBRANCH  32  33
ENDBRANCH  31  32
ENDBRANCH   1  31
TORSDOF 14
ENDMDL
MODEL 3
REMARK VINA RESULT:     -13.7      5.066     10.764
REMARK SMILES Cc1cc(C)c(NS(=O)(=O)c2cccc3cc(C)cnc23)c(C(=O)NCCCCNC(=O)c2ccc(-c3c4nc(c(-c5c(F)c(F)c(F)c(F)c5F)c5ccc([nH]5)c(-c5c(F)c(F)c(F)c(F)c5F)c5nc(c(-c6c(F)c(F)c(F)c(F)c6F)c6ccc3[nH]6)C=C5)C=C4)cc2)c1
REMARK SMILES IDX 27 1 26 2 25 3 23 4 24 5 22 7 1 8 2 9 3 10 96 11 4 12 5 13
REMARK SMILES IDX 6 14 7 15 8 17 9 18 10 19 11 20 12 21 21 22 13 23 15 24
REMARK SMILES IDX 20 25 14 26 16 27 19 28 17 29 18 30 28 31 29 32 30 33 31 34
REMARK SMILES IDX 32 36 33 37 34 38 95 39 35 40 94 41 36 42 37 43 38 44 88 45
REMARK SMILES IDX 39 46 93 47 87 48 89 49 40 50 92 51 86 52 85 53 41 55 73 56
REMARK SMILES IDX 53 57 72 58 54 59 57 60 71 61 90 62 55 63 56 64 70 66 91 67
REMARK SMILES IDX 58 68 42 69 43 70 51 71 44 72 45 73 49 74 52 75 46 76 47 77
REMARK SMILES IDX 50 78 48 79 74 80 75 81 83 82 76 83 77 84 81 85 84 86 78 87
REMARK SMILES IDX 79 88 82 89 80 90 59 91 60 92 68 93 61 94 62 95 66 96 69 97
REMARK SMILES IDX 63 98 64 99 67 100 65 101
REMARK H PARENT 25 6 7 16 30 35 89 54 57 65
REMARK Flexibility Score: inf
ROOT
ATOM      1  C   UNL A   1      37.199  20.357  25.311  1.00  0.00     0.023 C 
ENDROOT
BRANCH   1   2
ATOM      2  C   UNL A   1      36.988  21.847  25.593  1.00  0.00     0.116 C 
BRANCH   2   3
ATOM      3  N   UNL A   1      36.771  22.551  24.341  1.00  0.00    -0.352 N 
ATOM      4  C   UNL A   1      35.634  22.755  23.591  1.00  0.00     0.253 C 
ATOM      5  O   UNL A   1      35.751  23.338  22.515  1.00  0.00    -0.269 OA
ATOM      6  H   UNL A   1      37.584  22.955  23.959  1.00  0.00     0.163 HD
BRANCH   4   7
ATOM      7  C   UNL A   1      34.275  22.404  24.101  1.00  0.00     0.064 A 
ATOM      8  C   UNL A   1      32.445  19.275  25.204  1.00  0.00     0.044 C 
ATOM      9  C   UNL A   1      32.777  20.722  24.998  1.00  0.00    -0.050 A 
ATOM     10  C   UNL A   1      32.036  21.746  25.597  1.00  0.00     0.009 A 
ATOM     11  C   UNL A   1      33.905  21.066  24.259  1.00  0.00     0.019 A 
ATOM     12  C   UNL A   1      32.342  23.108  25.374  1.00  0.00    -0.026 A 
ATOM     13  C   UNL A   1      31.546  24.135  26.128  1.00  0.00     0.046 C 
ATOM     14  C   UNL A   1      33.381  23.437  24.487  1.00  0.00     0.065 A 
BRANCH  14  15
ATOM     15  N   UNL A   1      33.661  24.776  24.036  1.00  0.00    -0.278 N 
ATOM     16  H   UNL A   1      34.424  25.232  24.461  1.00  0.00     0.180 HD
BRANCH  15  17
ATOM     17  S   UNL A   1      32.827  25.647  22.857  1.00  0.00     0.264 S 
ATOM     18  O   UNL A   1      33.886  26.266  22.070  1.00  0.00    -0.201 OA
ATOM     19  O   UNL A   1      31.936  24.710  22.202  1.00  0.00    -0.201 OA
BRANCH  17  20
ATOM     20  C   UNL A   1      31.816  26.990  23.417  1.00  0.00     0.114 A 
ATOM     21  C   UNL A   1      30.730  27.308  22.566  1.00  0.00     0.024 A 
ATOM     22  C   UNL A   1      32.127  27.779  24.520  1.00  0.00     0.091 A 
ATOM     23  C   UNL A   1      30.016  28.483  22.734  1.00  0.00     0.002 A 
ATOM     24  C   UNL A   1      31.467  29.032  24.592  1.00  0.00     0.002 A 
ATOM     25  N   UNL A   1      33.028  27.434  25.464  1.00  0.00    -0.255 NA
ATOM     26  C   UNL A   1      30.418  29.368  23.720  1.00  0.00     0.010 A 
ATOM     27  C   UNL A   1      31.914  29.978  25.521  1.00  0.00     0.015 A 
ATOM     28  C   UNL A   1      33.404  28.360  26.378  1.00  0.00     0.115 A 
ATOM     29  C   UNL A   1      32.946  29.664  26.397  1.00  0.00    -0.032 A 
ATOM     30  C   UNL A   1      33.555  30.711  27.271  1.00  0.00     0.046 C 
ENDBRANCH  17  20
ENDBRANCH  15  17
ENDBRANCH  14  15
ENDBRANCH   4   7
ENDBRANCH   2   3
ENDBRANCH   1   2
BRANCH   1  31
ATOM     31  C   UNL A   1      38.631  20.017  24.898  1.00  0.00     0.023 C 
BRANCH  31  32
ATOM     32  C   UNL A   1      39.626  20.021  26.051  1.00  0.00     0.116 C 
BRANCH  32  33
ATOM     33  N   UNL A   1      40.631  18.972  25.945  1.00  0.00    -0.352 N 
ATOM     34  C   UNL A   1      41.992  19.085  26.089  1.00  0.00     0.251 C 
ATOM     35  H   UNL A   1      40.292  18.069  25.746  1.00  0.00     0.163 HD
ATOM     36  O   UNL A   1      42.729  18.128  25.879  1.00  0.00    -0.269 OA
BRANCH  34  37
ATOM     37  C   UNL A   1      42.557  20.398  26.451  1.00  0.00     0.039 A 
ATOM     38  C   UNL A   1      43.044  21.223  25.435  1.00  0.00     0.014 A 
ATOM     39  C   UNL A   1      42.531  20.837  27.777  1.00  0.00     0.014 A 
ATOM     40  C   UNL A   1      43.438  22.525  25.740  1.00  0.00     0.010 A 
ATOM     41  C   UNL A   1      42.857  22.157  28.068  1.00  0.00     0.010 A 
ATOM     42  C   UNL A   1      43.308  23.014  27.052  1.00  0.00    -0.014 A 
BRANCH  42  43
ATOM     43  C   UNL A   1      43.626  24.425  27.376  1.00  0.00     0.031 A 
ATOM     44  C   UNL A   1      45.054  24.888  27.395  1.00  0.00     0.074 A 
ATOM     45  C   UNL A   1      42.633  25.268  27.719  1.00  0.00     0.049 A 
ATOM     46  N   UNL A   1      45.537  26.064  27.705  1.00  0.00    -0.248 NA
ATOM     47  C   UNL A   1      46.077  23.890  27.047  1.00  0.00     0.031 C 
ATOM     48  C   UNL A   1      41.213  24.918  27.796  1.00  0.00     0.029 A 
ATOM     49  N   UNL A   1      42.667  26.592  28.078  1.00  0.00    -0.354 N 
ATOM     50  C   UNL A   1      46.917  25.942  27.603  1.00  0.00     0.074 A 
ATOM     51  C   UNL A   1      47.197  24.567  27.255  1.00  0.00     0.031 C 
ATOM     52  C   UNL A   1      40.511  26.003  28.155  1.00  0.00     0.029 A 
ATOM     53  C   UNL A   1      41.431  27.118  28.364  1.00  0.00     0.049 A 
ATOM     54  H   UNL A   1      43.500  27.116  28.127  1.00  0.00     0.167 HD
ATOM     55  C   UNL A   1      47.862  26.900  27.758  1.00  0.00     0.037 A 
ATOM     56  C   UNL A   1      41.082  28.359  28.751  1.00  0.00     0.037 A 
ATOM     57  C   UNL A   1      47.576  28.274  28.076  1.00  0.00     0.049 A 
ATOM     58  C   UNL A   1      42.151  29.406  28.905  1.00  0.00     0.074 A 
ATOM     59  C   UNL A   1      48.458  29.334  28.191  1.00  0.00     0.029 A 
ATOM     60  N   UNL A   1      46.309  28.777  28.328  1.00  0.00    -0.354 N 
ATOM     61  N   UNL A   1      43.445  29.300  28.727  1.00  0.00    -0.248 NA
ATOM     62  C   UNL A   1      41.710  30.750  29.305  1.00  0.00     0.031 C 
ATOM     63  C   UNL A   1      47.727  30.471  28.552  1.00  0.00     0.029 A 
ATOM     64  C   UNL A   1      46.386  30.130  28.616  1.00  0.00     0.049 A 
ATOM     65  H   UNL A   1      45.477  28.250  28.305  1.00  0.00     0.167 HD
ATOM     66  C   UNL A   1      43.968  30.563  28.964  1.00  0.00     0.074 A 
ATOM     67  C   UNL A   1      42.849  31.425  29.285  1.00  0.00     0.031 C 
ATOM     68  C   UNL A   1      45.260  30.973  28.921  1.00  0.00     0.037 A 
BRANCH  55  69
ATOM     69  C   UNL A   1      49.294  26.494  27.574  1.00  0.00     0.064 A 
ATOM     70  C   UNL A   1      49.864  26.374  26.297  1.00  0.00     0.173 A 
ATOM     71  C   UNL A   1      50.116  26.254  28.684  1.00  0.00     0.173 A 
ATOM     72  F   UNL A   1      49.116  26.580  25.202  1.00  0.00    -0.203 F 
ATOM     73  C   UNL A   1      51.196  26.002  26.138  1.00  0.00     0.198 A 
ATOM     74  C   UNL A   1      51.455  25.911  28.523  1.00  0.00     0.198 A 
ATOM     75  F   UNL A   1      49.622  26.358  29.927  1.00  0.00    -0.203 F 
ATOM     76  F   UNL A   1      51.704  25.847  24.909  1.00  0.00    -0.200 F 
ATOM     77  C   UNL A   1      51.992  25.778  27.251  1.00  0.00     0.200 A 
ATOM     78  F   UNL A   1      52.228  25.704  29.600  1.00  0.00    -0.200 F 
ATOM     79  F   UNL A   1      53.276  25.426  27.097  1.00  0.00    -0.200 F 
ENDBRANCH  55  69
BRANCH  56  80
ATOM     80  C   UNL A   1      39.653  28.691  28.987  1.00  0.00     0.064 A 
ATOM     81  C   UNL A   1      38.854  29.199  27.953  1.00  0.00     0.173 A 
ATOM     82  C   UNL A   1      39.060  28.518  30.245  1.00  0.00     0.173 A 
ATOM     83  F   UNL A   1      39.383  29.400  26.736  1.00  0.00    -0.203 F 
ATOM     84  C   UNL A   1      37.522  29.543  28.174  1.00  0.00     0.198 A 
ATOM     85  C   UNL A   1      37.720  28.839  30.459  1.00  0.00     0.198 A 
ATOM     86  F   UNL A   1      39.779  28.030  31.266  1.00  0.00    -0.203 F 
ATOM     87  F   UNL A   1      36.795  30.070  27.179  1.00  0.00    -0.200 F 
ATOM     88  C   UNL A   1      36.955  29.358  29.426  1.00  0.00     0.200 A 
ATOM     89  F   UNL A   1      37.172  28.646  31.666  1.00  0.00    -0.200 F 
ATOM     90  F   UNL A   1      35.674  29.689  29.638  1.00  0.00    -0.200 F 
ENDBRANCH  56  80
BRANCH  68  91
ATOM     91  C   UNL A   1      45.529  32.424  29.189  1.00  0.00     0.064 A 
ATOM     92  C   UNL A   1      45.833  32.889  30.478  1.00  0.00     0.173 A 
ATOM     93  C   UNL A   1      45.526  33.352  28.137  1.00  0.00     0.173 A 
ATOM     94  F   UNL A   1      45.833  32.042  31.518  1.00  0.00    -0.203 F 
ATOM     95  C   UNL A   1      46.103  34.235  30.705  1.00  0.00     0.198 A 
ATOM     96  C   UNL A   1      45.825  34.692  28.365  1.00  0.00     0.198 A 
ATOM     97  F   UNL A   1      45.248  32.956  26.887  1.00  0.00    -0.203 F 
ATOM     98  F   UNL A   1      46.350  34.665  31.951  1.00  0.00    -0.200 F 
ATOM     99  C   UNL A   1      46.106  35.134  29.649  1.00  0.00     0.200 A 
ATOM    100  F   UNL A   1      45.839  35.558  27.341  1.00  0.00    -0.200 F 
ATOM    101  F   UNL A   1      46.374  36.428  29.870  1.00  0.00    -0.200 F 
ENDBRANCH  68  91
ENDBRANCH  42  43
ENDBRANCH  34  37
ENDBRANCH  32  33
ENDBRANCH  31  32
ENDBRANCH   1  31
TORSDOF 14
ENDMDL
