MODEL 1
REMARK VINA RESULT:     -12.8      0.000      0.000
REMARK SMILES O=C(NCCCCNC(=O)[C@@H]1[C@H](C(=O)NCc2ccccc2Cl)[C@@H]2C=C[C@H]1C2)c1ccc(-c2c3nc(c(-c4c(F)c(F)c(F)c(F)c4F)c4ccc([nH]4)c(-c4c(F)c(F)c(F)c(F)c4F)c4nc(c(-c5c(F)c(F)c(F)c(F)c5F)c5ccc2[nH]5)C=C4)C=C3)cc1
REMARK SMILES IDX 6 1 5 2 4 3 3 4 1 5 2 6 29 8 30 9 91 10 31 11 90 12 32 13
REMARK SMILES IDX 33 14 34 15 84 16 35 17 89 18 83 19 85 20 36 21 88 22 82 23
REMARK SMILES IDX 81 24 37 26 69 27 49 28 68 29 50 30 53 31 67 32 86 33 51 34
REMARK SMILES IDX 52 35 66 37 87 38 54 39 38 40 39 41 47 42 40 43 41 44 45 45
REMARK SMILES IDX 48 46 42 47 43 48 46 49 44 50 70 51 71 52 79 53 72 54 73 55
REMARK SMILES IDX 77 56 80 57 74 58 75 59 78 60 76 61 55 62 56 63 64 64 57 65
REMARK SMILES IDX 58 66 62 67 65 68 59 69 60 70 63 71 61 72 7 73 8 74 9 75
REMARK SMILES IDX 10 77 11 78 12 79 27 80 24 81 26 82 28 83 25 84 13 85 14 86
REMARK SMILES IDX 15 87 16 89 17 90 18 91 22 92 19 93 21 94 23 95 20 96
REMARK H PARENT 3 7 85 25 53 36 8 76 15 88
REMARK Flexibility Score: inf
ROOT
ATOM      1  C   UNL A   1      35.408  23.009  23.394  1.00  0.00     0.023 C 
ENDROOT
BRANCH   1   2
ATOM      2  C   UNL A   1      36.773  22.440  23.789  1.00  0.00     0.023 C 
BRANCH   2   3
ATOM      3  C   UNL A   1      36.972  22.180  25.277  1.00  0.00     0.116 C 
BRANCH   3   4
ATOM      4  N   UNL A   1      37.922  21.114  25.552  1.00  0.00    -0.352 N 
ATOM      5  O   UNL A   1      39.880  20.182  26.163  1.00  0.00    -0.269 OA
ATOM      6  C   UNL A   1      39.182  21.180  26.105  1.00  0.00     0.251 C 
ATOM      7  H   UNL A   1      37.620  20.209  25.307  1.00  0.00     0.163 HD
BRANCH   6   8
ATOM      8  C   UNL A   1      39.701  22.478  26.595  1.00  0.00     0.039 A 
ATOM      9  C   UNL A   1      39.197  23.686  26.113  1.00  0.00     0.014 A 
ATOM     10  C   UNL A   1      40.722  22.476  27.551  1.00  0.00     0.014 A 
ATOM     11  C   UNL A   1      39.819  24.882  26.460  1.00  0.00     0.010 A 
ATOM     12  C   UNL A   1      41.291  23.684  27.963  1.00  0.00     0.010 A 
ATOM     13  C   UNL A   1      40.876  24.894  27.385  1.00  0.00    -0.014 A 
BRANCH  13  14
ATOM     14  C   UNL A   1      41.521  26.185  27.737  1.00  0.00     0.031 A 
ATOM     15  C   UNL A   1      42.900  26.523  27.238  1.00  0.00     0.074 A 
ATOM     16  C   UNL A   1      40.836  27.077  28.478  1.00  0.00     0.049 A 
ATOM     17  N   UNL A   1      43.593  27.622  27.407  1.00  0.00    -0.248 NA
ATOM     18  C   UNL A   1      43.597  25.492  26.454  1.00  0.00     0.031 C 
ATOM     19  C   UNL A   1      39.498  26.860  29.029  1.00  0.00     0.029 A 
ATOM     20  N   UNL A   1      41.159  28.348  28.878  1.00  0.00    -0.354 N 
ATOM     21  C   UNL A   1      44.812  27.405  26.776  1.00  0.00     0.074 A 
ATOM     22  C   UNL A   1      44.775  26.061  26.241  1.00  0.00     0.031 C 
ATOM     23  C   UNL A   1      39.091  27.978  29.647  1.00  0.00     0.029 A 
ATOM     24  C   UNL A   1      40.160  28.970  29.584  1.00  0.00     0.049 A 
ATOM     25  H   UNL A   1      42.024  28.774  28.677  1.00  0.00     0.167 HD
ATOM     26  C   UNL A   1      45.861  28.254  26.650  1.00  0.00     0.037 A 
ATOM     27  C   UNL A   1      40.109  30.202  30.123  1.00  0.00     0.037 A 
ATOM     28  C   UNL A   1      45.884  29.601  27.159  1.00  0.00     0.049 A 
ATOM     29  C   UNL A   1      41.288  31.119  29.970  1.00  0.00     0.074 A 
ATOM     30  C   UNL A   1      46.882  30.554  27.037  1.00  0.00     0.029 A 
ATOM     31  N   UNL A   1      44.861  30.187  27.890  1.00  0.00    -0.354 N 
ATOM     32  N   UNL A   1      42.415  30.918  29.333  1.00  0.00    -0.248 NA
ATOM     33  C   UNL A   1      41.184  32.437  30.609  1.00  0.00     0.031 C 
ATOM     34  C   UNL A   1      46.481  31.700  27.733  1.00  0.00     0.029 A 
ATOM     35  C   UNL A   1      45.212  31.481  28.245  1.00  0.00     0.049 A 
ATOM     36  H   UNL A   1      44.011  29.750  28.122  1.00  0.00     0.167 HD
ATOM     37  C   UNL A   1      43.145  32.090  29.471  1.00  0.00     0.074 A 
ATOM     38  C   UNL A   1      42.325  33.004  30.241  1.00  0.00     0.031 C 
ATOM     39  C   UNL A   1      44.382  32.383  29.001  1.00  0.00     0.037 A 
BRANCH  26  40
ATOM     40  C   UNL A   1      47.088  27.743  25.947  1.00  0.00     0.064 A 
ATOM     41  C   UNL A   1      47.216  27.789  24.551  1.00  0.00     0.173 A 
ATOM     42  C   UNL A   1      48.167  27.238  26.687  1.00  0.00     0.173 A 
ATOM     43  F   UNL A   1      46.209  28.253  23.796  1.00  0.00    -0.203 F 
ATOM     44  C   UNL A   1      48.366  27.320  23.920  1.00  0.00     0.198 A 
ATOM     45  C   UNL A   1      49.328  26.796  26.056  1.00  0.00     0.198 A 
ATOM     46  F   UNL A   1      48.102  27.180  28.026  1.00  0.00    -0.203 F 
ATOM     47  F   UNL A   1      48.447  27.331  22.583  1.00  0.00    -0.200 F 
ATOM     48  C   UNL A   1      49.423  26.831  24.673  1.00  0.00     0.200 A 
ATOM     49  F   UNL A   1      50.354  26.336  26.786  1.00  0.00    -0.200 F 
ATOM     50  F   UNL A   1      50.532  26.386  24.065  1.00  0.00    -0.200 F 
ENDBRANCH  26  40
BRANCH  27  51
ATOM     51  C   UNL A   1      38.884  30.643  30.837  1.00  0.00     0.064 A 
ATOM     52  C   UNL A   1      38.784  30.529  32.230  1.00  0.00     0.173 A 
ATOM     53  C   UNL A   1      37.799  31.202  30.146  1.00  0.00     0.173 A 
ATOM     54  F   UNL A   1      39.789  29.984  32.931  1.00  0.00    -0.203 F 
ATOM     55  C   UNL A   1      37.637  30.944  32.904  1.00  0.00     0.198 A 
ATOM     56  C   UNL A   1      36.665  31.644  30.825  1.00  0.00     0.198 A 
ATOM     57  F   UNL A   1      37.851  31.339  28.813  1.00  0.00    -0.203 F 
ATOM     58  F   UNL A   1      37.552  30.789  34.232  1.00  0.00    -0.200 F 
ATOM     59  C   UNL A   1      36.583  31.509  32.202  1.00  0.00     0.200 A 
ATOM     60  F   UNL A   1      35.656  32.203  30.144  1.00  0.00    -0.200 F 
ATOM     61  F   UNL A   1      35.485  31.917  32.852  1.00  0.00    -0.200 F 
ENDBRANCH  27  51
BRANCH  39  62
ATOM     62  C   UNL A   1      44.904  33.765  29.267  1.00  0.00     0.064 A 
ATOM     63  C   UNL A   1      45.678  34.056  30.399  1.00  0.00     0.173 A 
ATOM     64  C   UNL A   1      44.639  34.806  28.365  1.00  0.00     0.173 A 
ATOM     65  F   UNL A   1      45.944  33.098  31.301  1.00  0.00    -0.203 F 
ATOM     66  C   UNL A   1      46.144  35.347  30.633  1.00  0.00     0.198 A 
ATOM     67  C   UNL A   1      45.131  36.089  28.587  1.00  0.00     0.198 A 
ATOM     68  F   UNL A   1      43.907  34.578  27.264  1.00  0.00    -0.203 F 
ATOM     69  F   UNL A   1      46.837  35.615  31.749  1.00  0.00    -0.200 F 
ATOM     70  C   UNL A   1      45.874  36.361  29.725  1.00  0.00     0.200 A 
ATOM     71  F   UNL A   1      44.879  37.064  27.704  1.00  0.00    -0.200 F 
ATOM     72  F   UNL A   1      46.323  37.603  29.953  1.00  0.00    -0.200 F 
ENDBRANCH  39  62
ENDBRANCH  13  14
ENDBRANCH   6   8
ENDBRANCH   3   4
ENDBRANCH   2   3
ENDBRANCH   1   2
BRANCH   1  73
ATOM     73  C   UNL A   1      35.009  24.302  24.109  1.00  0.00     0.116 C 
BRANCH  73  74
ATOM     74  N   UNL A   1      34.074  25.076  23.321  1.00  0.00    -0.356 N 
ATOM     75  C   UNL A   1      33.250  26.075  23.740  1.00  0.00     0.224 C 
ATOM     76  H   UNL A   1      34.029  24.854  22.363  1.00  0.00     0.163 HD
ATOM     77  O   UNL A   1      32.171  26.166  23.161  1.00  0.00    -0.275 OA
BRANCH  75  78
ATOM     78  C   UNL A   1      33.596  26.887  24.969  1.00  0.00     0.098 C 
ATOM     79  C   UNL A   1      32.681  26.756  26.227  1.00  0.00     0.098 C 
ATOM     80  C   UNL A   1      33.793  28.431  24.869  1.00  0.00     0.025 C 
ATOM     81  C   UNL A   1      32.626  28.212  26.773  1.00  0.00     0.025 C 
ATOM     82  C   UNL A   1      32.506  29.204  24.713  1.00  0.00    -0.027 C 
ATOM     83  C   UNL A   1      34.012  28.741  26.361  1.00  0.00     0.017 C 
ATOM     84  C   UNL A   1      31.817  29.090  25.858  1.00  0.00    -0.027 C 
BRANCH  79  85
ATOM     85  C   UNL A   1      31.359  25.977  26.281  1.00  0.00     0.224 C 
ATOM     86  O   UNL A   1      30.326  26.581  25.949  1.00  0.00    -0.275 OA
ATOM     87  N   UNL A   1      31.186  24.665  26.569  1.00  0.00    -0.352 N 
ATOM     88  H   UNL A   1      30.250  24.368  26.496  1.00  0.00     0.163 HD
BRANCH  87  89
ATOM     89  C   UNL A   1      32.097  23.605  26.962  1.00  0.00     0.153 C 
BRANCH  89  90
ATOM     90  C   UNL A   1      32.388  22.540  25.925  1.00  0.00    -0.010 A 
ATOM     91  C   UNL A   1      31.745  22.526  24.677  1.00  0.00     0.007 A 
ATOM     92  C   UNL A   1      33.334  21.524  26.185  1.00  0.00     0.046 A 
ATOM     93  C   UNL A   1      32.003  21.515  23.745  1.00  0.00     0.000 A 
ATOM     94  C   UNL A   1      33.584  20.511  25.254  1.00  0.00     0.021 A 
ATOM     95  Cl  UNL A   1      34.246  21.456  27.655  1.00  0.00    -0.084 Cl
ATOM     96  C   UNL A   1      32.914  20.503  24.036  1.00  0.00     0.002 A 
ENDBRANCH  89  90
ENDBRANCH  87  89
ENDBRANCH  79  85
ENDBRANCH  75  78
ENDBRANCH  73  74
ENDBRANCH   1  73
TORSDOF 14
ENDMDL
MODEL 2
REMARK VINA RESULT:     -12.6      4.309      9.667
REMARK SMILES O=C(NCCCCNC(=O)[C@@H]1[C@H](C(=O)NCc2ccccc2Cl)[C@@H]2C=C[C@H]1C2)c1ccc(-c2c3nc(c(-c4c(F)c(F)c(F)c(F)c4F)c4ccc([nH]4)c(-c4c(F)c(F)c(F)c(F)c4F)c4nc(c(-c5c(F)c(F)c(F)c(F)c5F)c5ccc2[nH]5)C=C4)C=C3)cc1
REMARK SMILES IDX 6 1 5 2 4 3 3 4 1 5 2 6 29 8 30 9 91 10 31 11 90 12 32 13
REMARK SMILES IDX 33 14 34 15 84 16 35 17 89 18 83 19 85 20 36 21 88 22 82 23
REMARK SMILES IDX 81 24 37 26 69 27 49 28 68 29 50 30 53 31 67 32 86 33 51 34
REMARK SMILES IDX 52 35 66 37 87 38 54 39 38 40 39 41 47 42 40 43 41 44 45 45
REMARK SMILES IDX 48 46 42 47 43 48 46 49 44 50 70 51 71 52 79 53 72 54 73 55
REMARK SMILES IDX 77 56 80 57 74 58 75 59 78 60 76 61 55 62 56 63 64 64 57 65
REMARK SMILES IDX 58 66 62 67 65 68 59 69 60 70 63 71 61 72 7 73 8 74 9 75
REMARK SMILES IDX 10 77 11 78 12 79 27 80 24 81 26 82 28 83 25 84 13 85 14 86
REMARK SMILES IDX 15 87 16 89 17 90 18 91 22 92 19 93 21 94 23 95 20 96
REMARK H PARENT 3 7 85 25 53 36 8 76 15 88
REMARK Flexibility Score: inf
ROOT
ATOM      1  C   UNL A   1      32.131  27.522  27.309  1.00  0.00     0.023 C 
ENDROOT
BRANCH   1   2
ATOM      2  C   UNL A   1      31.690  28.953  26.987  1.00  0.00     0.023 C 
BRANCH   2   3
ATOM      3  C   UNL A   1      32.749  29.838  26.342  1.00  0.00     0.116 C 
BRANCH   3   4
ATOM      4  N   UNL A   1      32.578  31.251  26.642  1.00  0.00    -0.352 N 
ATOM      5  O   UNL A   1      33.003  33.231  27.627  1.00  0.00    -0.269 OA
ATOM      6  C   UNL A   1      33.366  32.090  27.399  1.00  0.00     0.251 C 
ATOM      7  H   UNL A   1      31.781  31.670  26.244  1.00  0.00     0.163 HD
BRANCH   6   8
ATOM      8  C   UNL A   1      34.638  31.588  27.969  1.00  0.00     0.039 A 
ATOM      9  C   UNL A   1      34.780  30.254  28.353  1.00  0.00     0.014 A 
ATOM     10  C   UNL A   1      35.702  32.482  28.129  1.00  0.00     0.014 A 
ATOM     11  C   UNL A   1      35.921  29.852  29.042  1.00  0.00     0.010 A 
ATOM     12  C   UNL A   1      36.881  32.055  28.747  1.00  0.00     0.010 A 
ATOM     13  C   UNL A   1      36.981  30.749  29.251  1.00  0.00    -0.014 A 
BRANCH  13  14
ATOM     14  C   UNL A   1      38.187  30.292  29.989  1.00  0.00     0.031 A 
ATOM     15  C   UNL A   1      38.427  30.712  31.414  1.00  0.00     0.074 A 
ATOM     16  C   UNL A   1      39.048  29.455  29.380  1.00  0.00     0.049 A 
ATOM     17  N   UNL A   1      39.398  30.368  32.224  1.00  0.00    -0.248 NA
ATOM     18  C   UNL A   1      37.457  31.645  32.007  1.00  0.00     0.031 C 
ATOM     19  C   UNL A   1      38.929  28.986  27.999  1.00  0.00     0.029 A 
ATOM     20  N   UNL A   1      40.179  28.835  29.846  1.00  0.00    -0.354 N 
ATOM     21  C   UNL A   1      39.171  31.061  33.408  1.00  0.00     0.074 A 
ATOM     22  C   UNL A   1      37.984  31.864  33.204  1.00  0.00     0.031 C 
ATOM     23  C   UNL A   1      39.913  28.111  27.746  1.00  0.00     0.029 A 
ATOM     24  C   UNL A   1      40.762  27.999  28.928  1.00  0.00     0.049 A 
ATOM     25  H   UNL A   1      40.537  28.976  30.753  1.00  0.00     0.167 HD
ATOM     26  C   UNL A   1      39.885  31.023  34.559  1.00  0.00     0.037 A 
ATOM     27  C   UNL A   1      41.861  27.228  29.024  1.00  0.00     0.037 A 
ATOM     28  C   UNL A   1      41.049  30.201  34.769  1.00  0.00     0.049 A 
ATOM     29  C   UNL A   1      42.633  27.208  30.312  1.00  0.00     0.074 A 
ATOM     30  C   UNL A   1      41.810  30.057  35.917  1.00  0.00     0.029 A 
ATOM     31  N   UNL A   1      41.624  29.385  33.806  1.00  0.00    -0.354 N 
ATOM     32  N   UNL A   1      42.383  27.833  31.436  1.00  0.00    -0.248 NA
ATOM     33  C   UNL A   1      43.840  26.373  30.343  1.00  0.00     0.031 C 
ATOM     34  C   UNL A   1      42.870  29.189  35.634  1.00  0.00     0.029 A 
ATOM     35  C   UNL A   1      42.742  28.751  34.326  1.00  0.00     0.049 A 
ATOM     36  H   UNL A   1      41.287  29.271  32.887  1.00  0.00     0.167 HD
ATOM     37  C   UNL A   1      43.383  27.447  32.317  1.00  0.00     0.074 A 
ATOM     38  C   UNL A   1      44.237  26.523  31.599  1.00  0.00     0.031 C 
ATOM     39  C   UNL A   1      43.576  27.825  33.604  1.00  0.00     0.037 A 
BRANCH  26  40
ATOM     40  C   UNL A   1      39.438  31.915  35.684  1.00  0.00     0.064 A 
ATOM     41  C   UNL A   1      39.930  33.219  35.836  1.00  0.00     0.173 A 
ATOM     42  C   UNL A   1      38.473  31.468  36.599  1.00  0.00     0.173 A 
ATOM     43  F   UNL A   1      40.862  33.691  34.994  1.00  0.00    -0.203 F 
ATOM     44  C   UNL A   1      39.495  34.033  36.879  1.00  0.00     0.198 A 
ATOM     45  C   UNL A   1      38.018  32.294  37.624  1.00  0.00     0.198 A 
ATOM     46  F   UNL A   1      37.962  30.233  36.494  1.00  0.00    -0.203 F 
ATOM     47  F   UNL A   1      40.014  35.259  37.033  1.00  0.00    -0.200 F 
ATOM     48  C   UNL A   1      38.536  33.572  37.768  1.00  0.00     0.200 A 
ATOM     49  F   UNL A   1      37.080  31.852  38.474  1.00  0.00    -0.200 F 
ATOM     50  F   UNL A   1      38.113  34.358  38.769  1.00  0.00    -0.200 F 
ENDBRANCH  26  40
BRANCH  27  51
ATOM     51  C   UNL A   1      42.277  26.391  27.870  1.00  0.00     0.064 A 
ATOM     52  C   UNL A   1      41.688  25.140  27.641  1.00  0.00     0.173 A 
ATOM     53  C   UNL A   1      43.254  26.831  26.965  1.00  0.00     0.173 A 
ATOM     54  F   UNL A   1      40.762  24.670  28.489  1.00  0.00    -0.203 F 
ATOM     55  C   UNL A   1      42.073  24.353  26.557  1.00  0.00     0.198 A 
ATOM     56  C   UNL A   1      43.616  26.056  25.865  1.00  0.00     0.198 A 
ATOM     57  F   UNL A   1      43.840  28.024  27.138  1.00  0.00    -0.203 F 
ATOM     58  F   UNL A   1      41.522  23.144  26.382  1.00  0.00    -0.200 F 
ATOM     59  C   UNL A   1      43.031  24.815  25.667  1.00  0.00     0.200 A 
ATOM     60  F   UNL A   1      44.530  26.513  24.999  1.00  0.00    -0.200 F 
ATOM     61  F   UNL A   1      43.392  24.062  24.619  1.00  0.00    -0.200 F 
ENDBRANCH  27  51
BRANCH  39  62
ATOM     62  C   UNL A   1      44.730  27.200  34.334  1.00  0.00     0.064 A 
ATOM     63  C   UNL A   1      44.599  25.983  35.016  1.00  0.00     0.173 A 
ATOM     64  C   UNL A   1      45.986  27.823  34.334  1.00  0.00     0.173 A 
ATOM     65  F   UNL A   1      43.412  25.357  35.060  1.00  0.00    -0.203 F 
ATOM     66  C   UNL A   1      45.678  25.425  35.696  1.00  0.00     0.198 A 
ATOM     67  C   UNL A   1      47.071  27.249  34.990  1.00  0.00     0.198 A 
ATOM     68  F   UNL A   1      46.165  28.988  33.692  1.00  0.00    -0.203 F 
ATOM     69  F   UNL A   1      45.517  24.287  36.386  1.00  0.00    -0.200 F 
ATOM     70  C   UNL A   1      46.914  26.056  35.678  1.00  0.00     0.200 A 
ATOM     71  F   UNL A   1      48.266  27.853  34.963  1.00  0.00    -0.200 F 
ATOM     72  F   UNL A   1      47.952  25.517  36.333  1.00  0.00    -0.200 F 
ENDBRANCH  39  62
ENDBRANCH  13  14
ENDBRANCH   6   8
ENDBRANCH   3   4
ENDBRANCH   2   3
ENDBRANCH   1   2
BRANCH   1  73
ATOM     73  C   UNL A   1      31.855  26.493  26.210  1.00  0.00     0.116 C 
BRANCH  73  74
ATOM     74  N   UNL A   1      31.477  25.212  26.768  1.00  0.00    -0.356 N 
ATOM     75  C   UNL A   1      32.055  23.999  26.549  1.00  0.00     0.224 C 
ATOM     76  H   UNL A   1      30.708  25.218  27.382  1.00  0.00     0.163 HD
ATOM     77  O   UNL A   1      31.301  23.030  26.565  1.00  0.00    -0.275 OA
BRANCH  75  78
ATOM     78  C   UNL A   1      33.506  23.907  26.131  1.00  0.00     0.098 C 
ATOM     79  C   UNL A   1      33.831  23.637  24.628  1.00  0.00     0.098 C 
ATOM     80  C   UNL A   1      34.478  22.927  26.857  1.00  0.00     0.025 C 
ATOM     81  C   UNL A   1      35.054  22.678  24.702  1.00  0.00     0.025 C 
ATOM     82  C   UNL A   1      34.274  21.477  26.487  1.00  0.00    -0.027 C 
ATOM     83  C   UNL A   1      35.735  23.158  25.997  1.00  0.00     0.017 C 
ATOM     84  C   UNL A   1      34.637  21.324  25.205  1.00  0.00    -0.027 C 
BRANCH  79  85
ATOM     85  C   UNL A   1      32.793  23.305  23.546  1.00  0.00     0.224 C 
ATOM     86  O   UNL A   1      32.211  22.211  23.628  1.00  0.00    -0.275 OA
ATOM     87  N   UNL A   1      32.363  24.107  22.543  1.00  0.00    -0.352 N 
ATOM     88  H   UNL A   1      31.653  23.701  21.994  1.00  0.00     0.163 HD
BRANCH  87  89
ATOM     89  C   UNL A   1      32.732  25.443  22.110  1.00  0.00     0.153 C 
BRANCH  89  90
ATOM     90  C   UNL A   1      31.854  26.580  22.591  1.00  0.00    -0.010 A 
ATOM     91  C   UNL A   1      30.512  26.378  22.952  1.00  0.00     0.007 A 
ATOM     92  C   UNL A   1      32.372  27.889  22.702  1.00  0.00     0.046 A 
ATOM     93  C   UNL A   1      29.708  27.447  23.363  1.00  0.00     0.000 A 
ATOM     94  C   UNL A   1      31.562  28.956  23.106  1.00  0.00     0.021 A 
ATOM     95  Cl  UNL A   1      34.024  28.270  22.352  1.00  0.00    -0.084 Cl
ATOM     96  C   UNL A   1      30.228  28.736  23.431  1.00  0.00     0.002 A 
ENDBRANCH  89  90
ENDBRANCH  87  89
ENDBRANCH  79  85
ENDBRANCH  75  78
ENDBRANCH  73  74
ENDBRANCH   1  73
TORSDOF 14
ENDMDL
MODEL 3
REMARK VINA RESULT:     -12.6      4.822     10.157
REMARK SMILES O=C(NCCCCNC(=O)[C@@H]1[C@H](C(=O)NCc2ccccc2Cl)[C@@H]2C=C[C@H]1C2)c1ccc(-c2c3nc(c(-c4c(F)c(F)c(F)c(F)c4F)c4ccc([nH]4)c(-c4c(F)c(F)c(F)c(F)c4F)c4nc(c(-c5c(F)c(F)c(F)c(F)c5F)c5ccc2[nH]5)C=C4)C=C3)cc1
REMARK SMILES IDX 6 1 5 2 4 3 3 4 1 5 2 6 29 8 30 9 91 10 31 11 90 12 32 13
REMARK SMILES IDX 33 14 34 15 84 16 35 17 89 18 83 19 85 20 36 21 88 22 82 23
REMARK SMILES IDX 81 24 37 26 69 27 49 28 68 29 50 30 53 31 67 32 86 33 51 34
REMARK SMILES IDX 52 35 66 37 87 38 54 39 38 40 39 41 47 42 40 43 41 44 45 45
REMARK SMILES IDX 48 46 42 47 43 48 46 49 44 50 70 51 71 52 79 53 72 54 73 55
REMARK SMILES IDX 77 56 80 57 74 58 75 59 78 60 76 61 55 62 56 63 64 64 57 65
REMARK SMILES IDX 58 66 62 67 65 68 59 69 60 70 63 71 61 72 7 73 8 74 9 75
REMARK SMILES IDX 10 77 11 78 12 79 27 80 24 81 26 82 28 83 25 84 13 85 14 86
REMARK SMILES IDX 15 87 16 89 17 90 18 91 22 92 19 93 21 94 23 95 20 96
REMARK H PARENT 3 7 85 25 53 36 8 76 15 88
REMARK Flexibility Score: inf
ROOT
ATOM      1  C   UNL A   1      32.137  30.080  27.116  1.00  0.00     0.023 C 
ENDROOT
BRANCH   1   2
ATOM      2  C   UNL A   1      31.718  31.544  26.955  1.00  0.00     0.023 C 
BRANCH   2   3
ATOM      3  C   UNL A   1      32.858  32.555  26.928  1.00  0.00     0.116 C 
BRANCH   3   4
ATOM      4  N   UNL A   1      32.478  33.863  27.438  1.00  0.00    -0.352 N 
ATOM      5  O   UNL A   1      32.488  35.632  28.832  1.00  0.00    -0.269 OA
ATOM      6  C   UNL A   1      33.012  34.588  28.480  1.00  0.00     0.251 C 
ATOM      7  H   UNL A   1      31.729  34.295  26.967  1.00  0.00     0.163 HD
BRANCH   6   8
ATOM      8  C   UNL A   1      34.201  34.076  29.199  1.00  0.00     0.039 A 
ATOM      9  C   UNL A   1      35.486  34.508  28.869  1.00  0.00     0.014 A 
ATOM     10  C   UNL A   1      34.017  33.135  30.218  1.00  0.00     0.014 A 
ATOM     11  C   UNL A   1      36.592  33.885  29.440  1.00  0.00     0.010 A 
ATOM     12  C   UNL A   1      35.129  32.570  30.850  1.00  0.00     0.010 A 
ATOM     13  C   UNL A   1      36.426  32.906  30.433  1.00  0.00    -0.014 A 
BRANCH  13  14
ATOM     14  C   UNL A   1      37.625  32.258  31.024  1.00  0.00     0.031 A 
ATOM     15  C   UNL A   1      38.077  32.595  32.420  1.00  0.00     0.074 A 
ATOM     16  C   UNL A   1      38.285  31.328  30.309  1.00  0.00     0.049 A 
ATOM     17  N   UNL A   1      39.071  32.091  33.110  1.00  0.00    -0.248 NA
ATOM     18  C   UNL A   1      37.323  33.637  33.132  1.00  0.00     0.031 C 
ATOM     19  C   UNL A   1      37.950  30.925  28.942  1.00  0.00     0.029 A 
ATOM     20  N   UNL A   1      39.358  30.539  30.635  1.00  0.00    -0.354 N 
ATOM     21  C   UNL A   1      39.077  32.771  34.322  1.00  0.00     0.074 A 
ATOM     22  C   UNL A   1      38.003  33.740  34.265  1.00  0.00     0.031 C 
ATOM     23  C   UNL A   1      38.763  29.927  28.567  1.00  0.00     0.029 A 
ATOM     24  C   UNL A   1      39.711  29.658  29.644  1.00  0.00     0.049 A 
ATOM     25  H   UNL A   1      39.830  30.599  31.498  1.00  0.00     0.167 HD
ATOM     26  C   UNL A   1      39.898  32.596  35.385  1.00  0.00     0.037 A 
ATOM     27  C   UNL A   1      40.691  28.736  29.604  1.00  0.00     0.037 A 
ATOM     28  C   UNL A   1      40.947  31.611  35.450  1.00  0.00     0.049 A 
ATOM     29  C   UNL A   1      41.588  28.567  30.797  1.00  0.00     0.074 A 
ATOM     30  C   UNL A   1      41.800  31.324  36.503  1.00  0.00     0.029 A 
ATOM     31  N   UNL A   1      41.290  30.752  34.415  1.00  0.00    -0.354 N 
ATOM     32  N   UNL A   1      41.554  29.184  31.952  1.00  0.00    -0.248 NA
ATOM     33  C   UNL A   1      42.658  27.567  30.679  1.00  0.00     0.031 C 
ATOM     34  C   UNL A   1      42.687  30.323  36.089  1.00  0.00     0.029 A 
ATOM     35  C   UNL A   1      42.354  29.950  34.797  1.00  0.00     0.049 A 
ATOM     36  H   UNL A   1      40.843  30.717  33.539  1.00  0.00     0.167 HD
ATOM     37  C   UNL A   1      42.578  28.633  32.708  1.00  0.00     0.074 A 
ATOM     38  C   UNL A   1      43.206  27.619  31.885  1.00  0.00     0.031 C 
ATOM     39  C   UNL A   1      42.962  28.938  33.972  1.00  0.00     0.037 A 
BRANCH  26  40
ATOM     40  C   UNL A   1      39.710  33.506  36.567  1.00  0.00     0.064 A 
ATOM     41  C   UNL A   1      40.357  34.747  36.657  1.00  0.00     0.173 A 
ATOM     42  C   UNL A   1      38.838  33.144  37.605  1.00  0.00     0.173 A 
ATOM     43  F   UNL A   1      41.209  35.135  35.696  1.00  0.00    -0.203 F 
ATOM     44  C   UNL A   1      40.161  35.580  37.756  1.00  0.00     0.198 A 
ATOM     45  C   UNL A   1      38.622  33.992  38.689  1.00  0.00     0.198 A 
ATOM     46  F   UNL A   1      38.188  31.973  37.565  1.00  0.00    -0.203 F 
ATOM     47  F   UNL A   1      40.825  36.740  37.843  1.00  0.00    -0.200 F 
ATOM     48  C   UNL A   1      39.289  35.204  38.768  1.00  0.00     0.200 A 
ATOM     49  F   UNL A   1      37.768  33.634  39.659  1.00  0.00    -0.200 F 
ATOM     50  F   UNL A   1      39.096  36.010  39.822  1.00  0.00    -0.200 F 
ENDBRANCH  26  40
BRANCH  27  51
ATOM     51  C   UNL A   1      40.853  27.886  28.397  1.00  0.00     0.064 A 
ATOM     52  C   UNL A   1      41.648  28.309  27.323  1.00  0.00     0.173 A 
ATOM     53  C   UNL A   1      40.235  26.631  28.300  1.00  0.00     0.173 A 
ATOM     54  F   UNL A   1      42.245  29.510  27.363  1.00  0.00    -0.203 F 
ATOM     55  C   UNL A   1      41.805  27.514  26.190  1.00  0.00     0.198 A 
ATOM     56  C   UNL A   1      40.417  25.825  27.179  1.00  0.00     0.198 A 
ATOM     57  F   UNL A   1      39.471  26.180  29.305  1.00  0.00    -0.203 F 
ATOM     58  F   UNL A   1      42.540  27.958  25.161  1.00  0.00    -0.200 F 
ATOM     59  C   UNL A   1      41.197  26.270  26.122  1.00  0.00     0.200 A 
ATOM     60  F   UNL A   1      39.841  24.617  27.125  1.00  0.00    -0.200 F 
ATOM     61  F   UNL A   1      41.358  25.502  25.036  1.00  0.00    -0.200 F 
ENDBRANCH  27  51
BRANCH  39  62
ATOM     62  C   UNL A   1      44.086  28.133  34.557  1.00  0.00     0.064 A 
ATOM     63  C   UNL A   1      45.421  28.548  34.455  1.00  0.00     0.173 A 
ATOM     64  C   UNL A   1      43.818  26.940  35.244  1.00  0.00     0.173 A 
ATOM     65  F   UNL A   1      45.731  29.673  33.793  1.00  0.00    -0.203 F 
ATOM     66  C   UNL A   1      46.451  27.782  34.996  1.00  0.00     0.198 A 
ATOM     67  C   UNL A   1      44.846  26.191  35.808  1.00  0.00     0.198 A 
ATOM     68  F   UNL A   1      42.556  26.503  35.373  1.00  0.00    -0.203 F 
ATOM     69  F   UNL A   1      47.725  28.170  34.841  1.00  0.00    -0.200 F 
ATOM     70  C   UNL A   1      46.162  26.607  35.675  1.00  0.00     0.200 A 
ATOM     71  F   UNL A   1      44.565  25.063  36.473  1.00  0.00    -0.200 F 
ATOM     72  F   UNL A   1      47.154  25.871  36.195  1.00  0.00    -0.200 F 
ENDBRANCH  39  62
ENDBRANCH  13  14
ENDBRANCH   6   8
ENDBRANCH   3   4
ENDBRANCH   2   3
ENDBRANCH   1   2
BRANCH   1  73
ATOM     73  C   UNL A   1      33.307  29.636  26.235  1.00  0.00     0.116 C 
BRANCH  73  74
ATOM     74  N   UNL A   1      32.948  29.643  24.834  1.00  0.00    -0.356 N 
ATOM     75  C   UNL A   1      33.419  28.838  23.843  1.00  0.00     0.224 C 
ATOM     76  H   UNL A   1      32.279  30.312  24.563  1.00  0.00     0.163 HD
ATOM     77  O   UNL A   1      33.506  29.345  22.728  1.00  0.00    -0.275 OA
BRANCH  75  78
ATOM     78  C   UNL A   1      33.967  27.466  24.168  1.00  0.00     0.098 C 
ATOM     79  C   UNL A   1      33.676  26.295  23.176  1.00  0.00     0.098 C 
ATOM     80  C   UNL A   1      33.674  26.803  25.549  1.00  0.00     0.025 C 
ATOM     81  C   UNL A   1      33.431  25.086  24.124  1.00  0.00     0.025 C 
ATOM     82  C   UNL A   1      32.264  26.279  25.691  1.00  0.00    -0.027 C 
ATOM     83  C   UNL A   1      34.349  25.440  25.308  1.00  0.00     0.017 C 
ATOM     84  C   UNL A   1      32.125  25.241  24.853  1.00  0.00    -0.027 C 
BRANCH  79  85
ATOM     85  C   UNL A   1      32.747  26.381  21.957  1.00  0.00     0.224 C 
ATOM     86  O   UNL A   1      33.214  26.042  20.857  1.00  0.00    -0.275 OA
ATOM     87  N   UNL A   1      31.432  26.704  21.943  1.00  0.00    -0.352 N 
ATOM     88  H   UNL A   1      31.024  26.647  21.049  1.00  0.00     0.163 HD
BRANCH  87  89
ATOM     89  C   UNL A   1      30.499  27.116  22.977  1.00  0.00     0.153 C 
BRANCH  89  90
ATOM     90  C   UNL A   1      29.638  28.325  22.673  1.00  0.00    -0.010 A 
ATOM     91  C   UNL A   1      30.146  29.442  21.990  1.00  0.00     0.007 A 
ATOM     92  C   UNL A   1      28.282  28.357  23.063  1.00  0.00     0.046 A 
ATOM     93  C   UNL A   1      29.344  30.563  21.746  1.00  0.00     0.000 A 
ATOM     94  C   UNL A   1      27.486  29.482  22.824  1.00  0.00     0.021 A 
ATOM     95  Cl  UNL A   1      27.509  27.025  23.854  1.00  0.00    -0.084 Cl
ATOM     96  C   UNL A   1      28.019  30.588  22.171  1.00  0.00     0.002 A 
ENDBRANCH  89  90
ENDBRANCH  87  89
ENDBRANCH  79  85
ENDBRANCH  75  78
ENDBRANCH  73  74
ENDBRANCH   1  73
TORSDOF 14
ENDMDL
