MODEL 1
REMARK VINA RESULT:     -12.9      0.000      0.000
REMARK SMILES Cc1ccc(S(=O)(=O)n2cc(C(=O)C(=O)N[C@@H](Cc3cnc[nH]3)C(=O)NCCCCNC(=O)c3ccc(-c4c5nc(c(-c6c(F)c(F)c(F)c(F)c6F)c6ccc([nH]6)c(-c6c(F)c(F)c(F)c(F)c6F)c6nc(c(-c7c(F)c(F)c(F)c(F)c7F)c7ccc4[nH]7)C=C6)C=C5)cc3)c3ccccc32)cc1
REMARK SMILES IDX 27 1 26 2 24 3 25 4 17 6 16 7 14 8 15 9 12 11 13 12 11 13
REMARK SMILES IDX 9 14 10 15 102 16 97 17 101 18 98 19 100 20 99 21 6 22 7 23
REMARK SMILES IDX 8 24 5 25 1 26 2 27 3 28 104 29 4 30 103 31 18 32 19 33
REMARK SMILES IDX 20 34 23 35 21 36 22 37 28 39 29 40 30 41 31 42 32 43 33 45
REMARK SMILES IDX 34 46 35 47 96 48 36 49 95 50 37 51 38 52 39 53 89 54 40 55
REMARK SMILES IDX 94 56 88 57 90 58 41 59 93 60 87 61 86 62 42 64 74 65 54 66
REMARK SMILES IDX 73 67 55 68 58 69 72 70 91 71 56 72 57 73 71 75 92 76 59 77
REMARK SMILES IDX 43 78 44 79 52 80 45 81 46 82 50 83 53 84 47 85 48 86 51 87
REMARK SMILES IDX 49 88 75 89 76 90 84 91 77 92 78 93 82 94 85 95 79 96 80 97
REMARK SMILES IDX 83 98 81 99 60 100 61 101 69 102 62 103 63 104 67 105 70 106
REMARK SMILES IDX 64 107 65 108 68 109 66 110
REMARK H PARENT 26 5 16 10 23 38 31 44 90 63 58 74
REMARK Flexibility Score: inf
ROOT
ATOM      1  C   UNL A   1      33.130  26.941  26.021  1.00  0.00     0.116 C 
ENDROOT
BRANCH   1   2
ATOM      2  N   UNL A   1      31.701  27.041  26.233  1.00  0.00    -0.354 N 
ATOM      3  C   UNL A   1      30.753  26.078  26.004  1.00  0.00     0.242 C 
ATOM      4  O   UNL A   1      29.807  26.039  26.800  1.00  0.00    -0.273 OA
ATOM      5  H   UNL A   1      31.374  27.901  26.581  1.00  0.00     0.163 HD
BRANCH   3   6
ATOM      6  C   UNL A   1      30.879  25.006  24.887  1.00  0.00     0.177 C 
BRANCH   6   7
ATOM      7  N   UNL A   1      30.250  23.726  25.250  1.00  0.00    -0.337 N 
ATOM      8  C   UNL A   1      30.600  22.770  26.172  1.00  0.00     0.293 C 
ATOM      9  O   UNL A   1      29.775  21.901  26.435  1.00  0.00    -0.265 OA
ATOM     10  H   UNL A   1      29.432  23.519  24.743  1.00  0.00     0.164 HD
BRANCH   8  11
ATOM     11  C   UNL A   1      32.002  22.755  26.824  1.00  0.00     0.252 C 
ATOM     12  O   UNL A   1      32.114  23.156  27.978  1.00  0.00    -0.283 OA
BRANCH  11  13
ATOM     13  C   UNL A   1      33.198  22.331  26.088  1.00  0.00     0.054 A 
ATOM     14  N   UNL A   1      35.202  22.270  25.112  1.00  0.00    -0.240 N 
ATOM     15  C   UNL A   1      34.284  23.096  25.705  1.00  0.00     0.117 A 
ATOM     16  C   UNL A   1      34.749  20.968  25.065  1.00  0.00     0.065 A 
ATOM     17  C   UNL A   1      33.470  20.990  25.638  1.00  0.00     0.012 A 
ATOM     18  C   UNL A   1      35.313  19.782  24.563  1.00  0.00     0.028 A 
ATOM     19  C   UNL A   1      32.733  19.786  25.684  1.00  0.00     0.011 A 
ATOM     20  C   UNL A   1      34.552  18.611  24.616  1.00  0.00     0.002 A 
ATOM     21  C   UNL A   1      33.276  18.611  25.164  1.00  0.00     0.001 A 
BRANCH  14  22
ATOM     22  S   UNL A   1      36.687  22.813  24.482  1.00  0.00     0.268 S 
ATOM     23  O   UNL A   1      36.737  24.224  24.790  1.00  0.00    -0.201 OA
ATOM     24  O   UNL A   1      36.740  22.318  23.113  1.00  0.00    -0.201 OA
BRANCH  22  25
ATOM     25  C   UNL A   1      37.989  22.010  25.375  1.00  0.00     0.088 A 
ATOM     26  C   UNL A   1      41.295  19.929  27.170  1.00  0.00     0.044 C 
ATOM     27  C   UNL A   1      40.126  20.653  26.568  1.00  0.00    -0.051 A 
ATOM     28  C   UNL A   1      39.301  19.997  25.647  1.00  0.00     0.005 A 
ATOM     29  C   UNL A   1      39.848  21.981  26.913  1.00  0.00     0.005 A 
ATOM     30  C   UNL A   1      38.239  20.673  25.047  1.00  0.00     0.022 A 
ATOM     31  C   UNL A   1      38.773  22.658  26.330  1.00  0.00     0.022 A 
ENDBRANCH  22  25
ENDBRANCH  14  22
ENDBRANCH  11  13
ENDBRANCH   8  11
ENDBRANCH   6   7
BRANCH   6  32
ATOM     32  C   UNL A   1      30.506  25.491  23.469  1.00  0.00     0.090 C 
BRANCH  32  33
ATOM     33  C   UNL A   1      31.674  25.683  22.569  1.00  0.00     0.037 A 
ATOM     34  C   UNL A   1      32.993  25.295  22.678  1.00  0.00     0.134 A 
ATOM     35  N   UNL A   1      31.581  26.261  21.326  1.00  0.00    -0.348 N 
ATOM     36  N   UNL A   1      33.619  25.406  21.470  1.00  0.00    -0.245 NA
ATOM     37  C   UNL A   1      32.729  25.932  20.667  1.00  0.00     0.196 A 
ATOM     38  H   UNL A   1      30.836  26.804  20.981  1.00  0.00     0.167 HD
ENDBRANCH  32  33
ENDBRANCH   6  32
ENDBRANCH   3   6
ENDBRANCH   1   2
BRANCH   1  39
ATOM     39  C   UNL A   1      33.910  28.247  25.995  1.00  0.00     0.023 C 
BRANCH  39  40
ATOM     40  C   UNL A   1      34.671  28.577  27.269  1.00  0.00     0.023 C 
BRANCH  40  41
ATOM     41  C   UNL A   1      35.557  29.812  27.200  1.00  0.00     0.116 C 
BRANCH  41  42
ATOM     42  N   UNL A   1      34.902  31.097  27.360  1.00  0.00    -0.352 N 
ATOM     43  C   UNL A   1      35.010  32.012  28.398  1.00  0.00     0.251 C 
ATOM     44  H   UNL A   1      34.295  31.357  26.628  1.00  0.00     0.163 HD
ATOM     45  O   UNL A   1      34.198  32.929  28.476  1.00  0.00    -0.269 OA
BRANCH  43  46
ATOM     46  C   UNL A   1      36.202  32.016  29.295  1.00  0.00     0.039 A 
ATOM     47  C   UNL A   1      37.266  32.866  28.952  1.00  0.00     0.014 A 
ATOM     48  C   UNL A   1      36.412  31.008  30.223  1.00  0.00     0.014 A 
ATOM     49  C   UNL A   1      38.565  32.515  29.300  1.00  0.00     0.010 A 
ATOM     50  C   UNL A   1      37.685  30.550  30.415  1.00  0.00     0.010 A 
ATOM     51  C   UNL A   1      38.754  31.285  29.912  1.00  0.00    -0.014 A 
BRANCH  51  52
ATOM     52  C   UNL A   1      40.031  30.651  30.127  1.00  0.00     0.031 A 
ATOM     53  C   UNL A   1      40.296  29.408  29.405  1.00  0.00     0.074 A 
ATOM     54  C   UNL A   1      40.970  31.344  30.800  1.00  0.00     0.049 A 
ATOM     55  N   UNL A   1      41.093  28.502  29.838  1.00  0.00    -0.248 NA
ATOM     56  C   UNL A   1      39.637  29.053  28.148  1.00  0.00     0.031 C 
ATOM     57  C   UNL A   1      42.415  31.165  30.832  1.00  0.00     0.029 A 
ATOM     58  N   UNL A   1      40.738  32.381  31.706  1.00  0.00    -0.354 N 
ATOM     59  C   UNL A   1      41.306  27.635  28.793  1.00  0.00     0.074 A 
ATOM     60  C   UNL A   1      40.284  27.931  27.819  1.00  0.00     0.031 C 
ATOM     61  C   UNL A   1      42.917  31.850  31.878  1.00  0.00     0.029 A 
ATOM     62  C   UNL A   1      41.789  32.368  32.639  1.00  0.00     0.049 A 
ATOM     63  H   UNL A   1      39.977  33.006  31.694  1.00  0.00     0.167 HD
ATOM     64  C   UNL A   1      42.452  26.907  28.784  1.00  0.00     0.037 A 
ATOM     65  C   UNL A   1      41.526  32.082  33.951  1.00  0.00     0.037 A 
ATOM     66  C   UNL A   1      43.286  27.280  29.922  1.00  0.00     0.049 A 
ATOM     67  C   UNL A   1      42.139  30.768  34.361  1.00  0.00     0.074 A 
ATOM     68  C   UNL A   1      44.312  28.205  30.033  1.00  0.00     0.029 A 
ATOM     69  N   UNL A   1      42.847  27.021  31.215  1.00  0.00    -0.354 N 
ATOM     70  N   UNL A   1      42.377  29.794  33.526  1.00  0.00    -0.248 NA
ATOM     71  C   UNL A   1      42.560  30.463  35.722  1.00  0.00     0.031 C 
ATOM     72  C   UNL A   1      44.490  28.502  31.405  1.00  0.00     0.029 A 
ATOM     73  C   UNL A   1      43.573  27.760  32.128  1.00  0.00     0.049 A 
ATOM     74  H   UNL A   1      42.121  26.398  31.446  1.00  0.00     0.167 HD
ATOM     75  C   UNL A   1      42.979  28.761  34.196  1.00  0.00     0.074 A 
ATOM     76  C   UNL A   1      43.071  29.229  35.566  1.00  0.00     0.031 C 
ATOM     77  C   UNL A   1      43.354  27.614  33.558  1.00  0.00     0.037 A 
BRANCH  64  78
ATOM     78  C   UNL A   1      42.955  26.140  27.592  1.00  0.00     0.064 A 
ATOM     79  C   UNL A   1      43.811  26.753  26.652  1.00  0.00     0.173 A 
ATOM     80  C   UNL A   1      42.635  24.796  27.324  1.00  0.00     0.173 A 
ATOM     81  F   UNL A   1      44.240  28.011  26.808  1.00  0.00    -0.203 F 
ATOM     82  C   UNL A   1      44.255  26.098  25.504  1.00  0.00     0.198 A 
ATOM     83  C   UNL A   1      43.047  24.152  26.153  1.00  0.00     0.198 A 
ATOM     84  F   UNL A   1      41.943  24.060  28.206  1.00  0.00    -0.203 F 
ATOM     85  F   UNL A   1      45.066  26.737  24.650  1.00  0.00    -0.200 F 
ATOM     86  C   UNL A   1      43.857  24.804  25.243  1.00  0.00     0.200 A 
ATOM     87  F   UNL A   1      42.659  22.892  25.913  1.00  0.00    -0.200 F 
ATOM     88  F   UNL A   1      44.268  24.184  24.129  1.00  0.00    -0.200 F 
ENDBRANCH  64  78
BRANCH  65  89
ATOM     89  C   UNL A   1      40.179  32.570  34.379  1.00  0.00     0.064 A 
ATOM     90  C   UNL A   1      40.064  33.915  34.784  1.00  0.00     0.173 A 
ATOM     91  C   UNL A   1      39.010  31.921  33.960  1.00  0.00     0.173 A 
ATOM     92  F   UNL A   1      41.150  34.570  35.222  1.00  0.00    -0.203 F 
ATOM     93  C   UNL A   1      38.871  34.621  34.619  1.00  0.00     0.198 A 
ATOM     94  C   UNL A   1      37.818  32.631  33.800  1.00  0.00     0.198 A 
ATOM     95  F   UNL A   1      39.048  30.637  33.575  1.00  0.00    -0.203 F 
ATOM     96  F   UNL A   1      38.814  35.927  34.911  1.00  0.00    -0.200 F 
ATOM     97  C   UNL A   1      37.765  33.990  34.077  1.00  0.00     0.200 A 
ATOM     98  F   UNL A   1      36.741  32.018  33.288  1.00  0.00    -0.200 F 
ATOM     99  F   UNL A   1      36.662  34.694  33.789  1.00  0.00    -0.200 F 
ENDBRANCH  65  89
BRANCH  77 100
ATOM    100  C   UNL A   1      43.674  26.285  34.207  1.00  0.00     0.064 A 
ATOM    101  C   UNL A   1      44.968  25.752  34.305  1.00  0.00     0.173 A 
ATOM    102  C   UNL A   1      42.672  25.561  34.907  1.00  0.00     0.173 A 
ATOM    103  F   UNL A   1      46.034  26.398  33.820  1.00  0.00    -0.203 F 
ATOM    104  C   UNL A   1      45.226  24.551  34.971  1.00  0.00     0.198 A 
ATOM    105  C   UNL A   1      42.948  24.411  35.640  1.00  0.00     0.198 A 
ATOM    106  F   UNL A   1      41.392  25.960  34.935  1.00  0.00    -0.203 F 
ATOM    107  F   UNL A   1      46.471  24.056  34.977  1.00  0.00    -0.200 F 
ATOM    108  C   UNL A   1      44.221  23.890  35.650  1.00  0.00     0.200 A 
ATOM    109  F   UNL A   1      41.974  23.827  36.351  1.00  0.00    -0.200 F 
ATOM    110  F   UNL A   1      44.486  22.766  36.328  1.00  0.00    -0.200 F 
ENDBRANCH  77 100
ENDBRANCH  51  52
ENDBRANCH  43  46
ENDBRANCH  41  42
ENDBRANCH  40  41
ENDBRANCH  39  40
ENDBRANCH   1  39
TORSDOF 18
ENDMDL
MODEL 2
REMARK VINA RESULT:     -12.7      1.767      2.475
REMARK SMILES Cc1ccc(S(=O)(=O)n2cc(C(=O)C(=O)N[C@@H](Cc3cnc[nH]3)C(=O)NCCCCNC(=O)c3ccc(-c4c5nc(c(-c6c(F)c(F)c(F)c(F)c6F)c6ccc([nH]6)c(-c6c(F)c(F)c(F)c(F)c6F)c6nc(c(-c7c(F)c(F)c(F)c(F)c7F)c7ccc4[nH]7)C=C6)C=C5)cc3)c3ccccc32)cc1
REMARK SMILES IDX 27 1 26 2 24 3 25 4 17 6 16 7 14 8 15 9 12 11 13 12 11 13
REMARK SMILES IDX 9 14 10 15 102 16 97 17 101 18 98 19 100 20 99 21 6 22 7 23
REMARK SMILES IDX 8 24 5 25 1 26 2 27 3 28 104 29 4 30 103 31 18 32 19 33
REMARK SMILES IDX 20 34 23 35 21 36 22 37 28 39 29 40 30 41 31 42 32 43 33 45
REMARK SMILES IDX 34 46 35 47 96 48 36 49 95 50 37 51 38 52 39 53 89 54 40 55
REMARK SMILES IDX 94 56 88 57 90 58 41 59 93 60 87 61 86 62 42 64 74 65 54 66
REMARK SMILES IDX 73 67 55 68 58 69 72 70 91 71 56 72 57 73 71 75 92 76 59 77
REMARK SMILES IDX 43 78 44 79 52 80 45 81 46 82 50 83 53 84 47 85 48 86 51 87
REMARK SMILES IDX 49 88 75 89 76 90 84 91 77 92 78 93 82 94 85 95 79 96 80 97
REMARK SMILES IDX 83 98 81 99 60 100 61 101 69 102 62 103 63 104 67 105 70 106
REMARK SMILES IDX 64 107 65 108 68 109 66 110
REMARK H PARENT 26 5 16 10 23 38 31 44 90 63 58 74
REMARK Flexibility Score: inf
ROOT
ATOM      1  C   UNL A   1      33.447  29.182  27.251  1.00  0.00     0.116 C 
ENDROOT
BRANCH   1   2
ATOM      2  N   UNL A   1      32.157  28.561  27.467  1.00  0.00    -0.354 N 
ATOM      3  C   UNL A   1      31.422  27.830  26.571  1.00  0.00     0.242 C 
ATOM      4  O   UNL A   1      30.782  26.878  27.033  1.00  0.00    -0.273 OA
ATOM      5  H   UNL A   1      31.764  28.679  28.361  1.00  0.00     0.163 HD
BRANCH   3   6
ATOM      6  C   UNL A   1      31.450  28.081  25.038  1.00  0.00     0.177 C 
BRANCH   6   7
ATOM      7  N   UNL A   1      30.821  26.995  24.270  1.00  0.00    -0.337 N 
ATOM      8  C   UNL A   1      31.351  25.870  23.685  1.00  0.00     0.293 C 
ATOM      9  O   UNL A   1      30.570  25.008  23.297  1.00  0.00    -0.265 OA
ATOM     10  H   UNL A   1      29.848  27.091  24.154  1.00  0.00     0.164 HD
BRANCH   8  11
ATOM     11  C   UNL A   1      32.875  25.711  23.479  1.00  0.00     0.252 C 
ATOM     12  O   UNL A   1      33.456  26.524  22.767  1.00  0.00    -0.283 OA
BRANCH  11  13
ATOM     13  C   UNL A   1      33.626  24.593  24.059  1.00  0.00     0.054 A 
ATOM     14  N   UNL A   1      35.169  23.039  24.479  1.00  0.00    -0.240 N 
ATOM     15  C   UNL A   1      34.768  23.985  23.572  1.00  0.00     0.117 A 
ATOM     16  C   UNL A   1      34.309  22.980  25.555  1.00  0.00     0.065 A 
ATOM     17  C   UNL A   1      33.306  23.922  25.292  1.00  0.00     0.012 A 
ATOM     18  C   UNL A   1      34.292  22.187  26.717  1.00  0.00     0.028 A 
ATOM     19  C   UNL A   1      32.245  24.051  26.216  1.00  0.00     0.011 A 
ATOM     20  C   UNL A   1      33.222  22.334  27.604  1.00  0.00     0.002 A 
ATOM     21  C   UNL A   1      32.208  23.249  27.357  1.00  0.00     0.001 A 
BRANCH  14  22
ATOM     22  S   UNL A   1      36.534  22.047  24.260  1.00  0.00     0.268 S 
ATOM     23  O   UNL A   1      37.028  22.366  22.941  1.00  0.00    -0.201 OA
ATOM     24  O   UNL A   1      36.108  20.702  24.623  1.00  0.00    -0.201 OA
BRANCH  22  25
ATOM     25  C   UNL A   1      37.763  22.537  25.439  1.00  0.00     0.088 A 
ATOM     26  C   UNL A   1      41.033  23.580  28.027  1.00  0.00     0.044 C 
ATOM     27  C   UNL A   1      39.875  23.214  27.147  1.00  0.00    -0.051 A 
ATOM     28  C   UNL A   1      39.791  21.926  26.606  1.00  0.00     0.005 A 
ATOM     29  C   UNL A   1      38.871  24.146  26.854  1.00  0.00     0.005 A 
ATOM     30  C   UNL A   1      38.743  21.588  25.750  1.00  0.00     0.022 A 
ATOM     31  C   UNL A   1      37.808  23.808  26.013  1.00  0.00     0.022 A 
ENDBRANCH  22  25
ENDBRANCH  14  22
ENDBRANCH  11  13
ENDBRANCH   8  11
ENDBRANCH   6   7
BRANCH   6  32
ATOM     32  C   UNL A   1      30.991  29.489  24.597  1.00  0.00     0.090 C 
BRANCH  32  33
ATOM     33  C   UNL A   1      30.187  29.499  23.347  1.00  0.00     0.037 A 
ATOM     34  C   UNL A   1      28.838  29.321  23.119  1.00  0.00     0.134 A 
ATOM     35  N   UNL A   1      30.713  29.804  22.114  1.00  0.00    -0.348 N 
ATOM     36  N   UNL A   1      28.513  29.737  21.859  1.00  0.00    -0.245 NA
ATOM     37  C   UNL A   1      29.650  30.076  21.304  1.00  0.00     0.196 A 
ATOM     38  H   UNL A   1      31.666  29.822  21.866  1.00  0.00     0.167 HD
ENDBRANCH  32  33
ENDBRANCH   6  32
ENDBRANCH   3   6
ENDBRANCH   1   2
BRANCH   1  39
ATOM     39  C   UNL A   1      33.468  30.701  27.159  1.00  0.00     0.023 C 
BRANCH  39  40
ATOM     40  C   UNL A   1      34.697  31.373  27.751  1.00  0.00     0.023 C 
BRANCH  40  41
ATOM     41  C   UNL A   1      34.473  32.772  28.305  1.00  0.00     0.116 C 
BRANCH  41  42
ATOM     42  N   UNL A   1      34.729  32.965  29.721  1.00  0.00    -0.352 N 
ATOM     43  C   UNL A   1      35.505  32.202  30.583  1.00  0.00     0.251 C 
ATOM     44  H   UNL A   1      34.289  33.747  30.127  1.00  0.00     0.163 HD
ATOM     45  O   UNL A   1      35.407  32.380  31.794  1.00  0.00    -0.269 OA
BRANCH  43  46
ATOM     46  C   UNL A   1      36.589  31.322  30.061  1.00  0.00     0.039 A 
ATOM     47  C   UNL A   1      36.671  30.019  30.579  1.00  0.00     0.014 A 
ATOM     48  C   UNL A   1      37.668  31.841  29.361  1.00  0.00     0.014 A 
ATOM     49  C   UNL A   1      37.905  29.385  30.655  1.00  0.00     0.010 A 
ATOM     50  C   UNL A   1      38.910  31.318  29.591  1.00  0.00     0.010 A 
ATOM     51  C   UNL A   1      39.024  30.113  30.277  1.00  0.00    -0.014 A 
BRANCH  51  52
ATOM     52  C   UNL A   1      40.390  29.717  30.507  1.00  0.00     0.031 A 
ATOM     53  C   UNL A   1      40.893  28.566  29.760  1.00  0.00     0.074 A 
ATOM     54  C   UNL A   1      41.173  30.550  31.221  1.00  0.00     0.049 A 
ATOM     55  N   UNL A   1      41.834  27.808  30.189  1.00  0.00    -0.248 NA
ATOM     56  C   UNL A   1      40.334  28.135  28.479  1.00  0.00     0.031 C 
ATOM     57  C   UNL A   1      42.626  30.637  31.283  1.00  0.00     0.029 A 
ATOM     58  N   UNL A   1      40.737  31.499  32.148  1.00  0.00    -0.354 N 
ATOM     59  C   UNL A   1      42.222  27.027  29.127  1.00  0.00     0.074 A 
ATOM     60  C   UNL A   1      41.183  27.160  28.137  1.00  0.00     0.031 C 
ATOM     61  C   UNL A   1      42.973  31.370  32.360  1.00  0.00     0.029 A 
ATOM     62  C   UNL A   1      41.754  31.650  33.106  1.00  0.00     0.049 A 
ATOM     63  H   UNL A   1      39.875  31.975  32.133  1.00  0.00     0.167 HD
ATOM     64  C   UNL A   1      43.483  26.521  29.128  1.00  0.00     0.037 A 
ATOM     65  C   UNL A   1      41.523  31.282  34.402  1.00  0.00     0.037 A 
ATOM     66  C   UNL A   1      44.212  27.006  30.295  1.00  0.00     0.049 A 
ATOM     67  C   UNL A   1      42.359  30.090  34.793  1.00  0.00     0.074 A 
ATOM     68  C   UNL A   1      45.049  28.099  30.455  1.00  0.00     0.029 A 
ATOM     69  N   UNL A   1      43.803  26.632  31.569  1.00  0.00    -0.354 N 
ATOM     70  N   UNL A   1      42.787  29.202  33.939  1.00  0.00    -0.248 NA
ATOM     71  C   UNL A   1      42.802  29.827  36.156  1.00  0.00     0.031 C 
ATOM     72  C   UNL A   1      45.142  28.383  31.838  1.00  0.00     0.029 A 
ATOM     73  C   UNL A   1      44.364  27.463  32.519  1.00  0.00     0.049 A 
ATOM     74  H   UNL A   1      43.199  25.880  31.766  1.00  0.00     0.167 HD
ATOM     75  C   UNL A   1      43.555  28.277  34.597  1.00  0.00     0.074 A 
ATOM     76  C   UNL A   1      43.534  28.713  35.980  1.00  0.00     0.031 C 
ATOM     77  C   UNL A   1      44.147  27.237  33.938  1.00  0.00     0.037 A 
BRANCH  64  78
ATOM     78  C   UNL A   1      44.141  25.895  27.929  1.00  0.00     0.064 A 
ATOM     79  C   UNL A   1      44.502  26.682  26.815  1.00  0.00     0.173 A 
ATOM     80  C   UNL A   1      44.447  24.526  27.820  1.00  0.00     0.173 A 
ATOM     81  F   UNL A   1      44.319  28.008  26.801  1.00  0.00    -0.203 F 
ATOM     82  C   UNL A   1      45.062  26.136  25.661  1.00  0.00     0.198 A 
ATOM     83  C   UNL A   1      44.971  23.972  26.648  1.00  0.00     0.198 A 
ATOM     84  F   UNL A   1      44.280  23.694  28.858  1.00  0.00    -0.203 F 
ATOM     85  F   UNL A   1      45.383  26.939  24.637  1.00  0.00    -0.200 F 
ATOM     86  C   UNL A   1      45.278  24.777  25.568  1.00  0.00     0.200 A 
ATOM     87  F   UNL A   1      45.183  22.651  26.572  1.00  0.00    -0.200 F 
ATOM     88  F   UNL A   1      45.797  24.252  24.451  1.00  0.00    -0.200 F 
ENDBRANCH  64  78
BRANCH  65  89
ATOM     89  C   UNL A   1      40.102  31.503  34.810  1.00  0.00     0.064 A 
ATOM     90  C   UNL A   1      39.745  32.778  35.291  1.00  0.00     0.173 A 
ATOM     91  C   UNL A   1      39.074  30.691  34.311  1.00  0.00     0.173 A 
ATOM     92  F   UNL A   1      40.689  33.579  35.808  1.00  0.00    -0.203 F 
ATOM     93  C   UNL A   1      38.452  33.278  35.126  1.00  0.00     0.198 A 
ATOM     94  C   UNL A   1      37.781  31.196  34.150  1.00  0.00     0.198 A 
ATOM     95  F   UNL A   1      39.344  29.461  33.850  1.00  0.00    -0.203 F 
ATOM     96  F   UNL A   1      38.162  34.533  35.494  1.00  0.00    -0.200 F 
ATOM     97  C   UNL A   1      37.486  32.504  34.507  1.00  0.00     0.200 A 
ATOM     98  F   UNL A   1      36.841  30.443  33.563  1.00  0.00    -0.200 F 
ATOM     99  F   UNL A   1      36.285  33.026  34.221  1.00  0.00    -0.200 F 
ENDBRANCH  65  89
BRANCH  77 100
ATOM    100  C   UNL A   1      44.693  25.971  34.561  1.00  0.00     0.064 A 
ATOM    101  C   UNL A   1      45.939  25.884  35.199  1.00  0.00     0.173 A 
ATOM    102  C   UNL A   1      43.882  24.809  34.669  1.00  0.00     0.173 A 
ATOM    103  F   UNL A   1      46.750  26.943  35.304  1.00  0.00    -0.203 F 
ATOM    104  C   UNL A   1      46.375  24.710  35.817  1.00  0.00     0.198 A 
ATOM    105  C   UNL A   1      44.286  23.670  35.359  1.00  0.00     0.198 A 
ATOM    106  F   UNL A   1      42.652  24.746  34.139  1.00  0.00    -0.203 F 
ATOM    107  F   UNL A   1      47.602  24.666  36.354  1.00  0.00    -0.200 F 
ATOM    108  C   UNL A   1      45.545  23.610  35.910  1.00  0.00     0.200 A 
ATOM    109  F   UNL A   1      43.437  22.643  35.500  1.00  0.00    -0.200 F 
ATOM    110  F   UNL A   1      45.951  22.505  36.548  1.00  0.00    -0.200 F 
ENDBRANCH  77 100
ENDBRANCH  51  52
ENDBRANCH  43  46
ENDBRANCH  41  42
ENDBRANCH  40  41
ENDBRANCH  39  40
ENDBRANCH   1  39
TORSDOF 18
ENDMDL
MODEL 3
REMARK VINA RESULT:     -12.7      3.699      9.666
REMARK SMILES Cc1ccc(S(=O)(=O)n2cc(C(=O)C(=O)N[C@@H](Cc3cnc[nH]3)C(=O)NCCCCNC(=O)c3ccc(-c4c5nc(c(-c6c(F)c(F)c(F)c(F)c6F)c6ccc([nH]6)c(-c6c(F)c(F)c(F)c(F)c6F)c6nc(c(-c7c(F)c(F)c(F)c(F)c7F)c7ccc4[nH]7)C=C6)C=C5)cc3)c3ccccc32)cc1
REMARK SMILES IDX 27 1 26 2 24 3 25 4 17 6 16 7 14 8 15 9 12 11 13 12 11 13
REMARK SMILES IDX 9 14 10 15 102 16 97 17 101 18 98 19 100 20 99 21 6 22 7 23
REMARK SMILES IDX 8 24 5 25 1 26 2 27 3 28 104 29 4 30 103 31 18 32 19 33
REMARK SMILES IDX 20 34 23 35 21 36 22 37 28 39 29 40 30 41 31 42 32 43 33 45
REMARK SMILES IDX 34 46 35 47 96 48 36 49 95 50 37 51 38 52 39 53 89 54 40 55
REMARK SMILES IDX 94 56 88 57 90 58 41 59 93 60 87 61 86 62 42 64 74 65 54 66
REMARK SMILES IDX 73 67 55 68 58 69 72 70 91 71 56 72 57 73 71 75 92 76 59 77
REMARK SMILES IDX 43 78 44 79 52 80 45 81 46 82 50 83 53 84 47 85 48 86 51 87
REMARK SMILES IDX 49 88 75 89 76 90 84 91 77 92 78 93 82 94 85 95 79 96 80 97
REMARK SMILES IDX 83 98 81 99 60 100 61 101 69 102 62 103 63 104 67 105 70 106
REMARK SMILES IDX 64 107 65 108 68 109 66 110
REMARK H PARENT 26 5 16 10 23 38 31 44 90 63 58 74
REMARK Flexibility Score: inf
ROOT
ATOM      1  C   UNL A   1      37.719  21.374  25.322  1.00  0.00     0.116 C 
ENDROOT
BRANCH   1   2
ATOM      2  N   UNL A   1      37.462  21.737  23.944  1.00  0.00    -0.354 N 
ATOM      3  C   UNL A   1      36.500  22.591  23.470  1.00  0.00     0.242 C 
ATOM      4  O   UNL A   1      36.812  23.282  22.493  1.00  0.00    -0.273 OA
ATOM      5  H   UNL A   1      38.045  21.321  23.269  1.00  0.00     0.163 HD
BRANCH   3   6
ATOM      6  C   UNL A   1      35.123  22.792  24.161  1.00  0.00     0.177 C 
BRANCH   6   7
ATOM      7  N   UNL A   1      34.418  21.525  24.410  1.00  0.00    -0.337 N 
ATOM      8  C   UNL A   1      33.301  20.976  23.827  1.00  0.00     0.293 C 
ATOM      9  O   UNL A   1      33.054  19.799  24.065  1.00  0.00    -0.265 OA
ATOM     10  H   UNL A   1      34.817  20.972  25.119  1.00  0.00     0.164 HD
BRANCH   8  11
ATOM     11  C   UNL A   1      32.359  21.820  22.938  1.00  0.00     0.252 C 
ATOM     12  O   UNL A   1      31.877  21.299  21.937  1.00  0.00    -0.283 OA
BRANCH  11  13
ATOM     13  C   UNL A   1      32.075  23.231  23.225  1.00  0.00     0.054 A 
ATOM     14  N   UNL A   1      31.909  25.451  23.097  1.00  0.00    -0.240 N 
ATOM     15  C   UNL A   1      32.469  24.346  22.511  1.00  0.00     0.117 A 
ATOM     16  C   UNL A   1      31.165  25.106  24.206  1.00  0.00     0.065 A 
ATOM     17  C   UNL A   1      31.288  23.716  24.330  1.00  0.00     0.012 A 
ATOM     18  C   UNL A   1      30.417  25.866  25.123  1.00  0.00     0.028 A 
ATOM     19  C   UNL A   1      30.658  23.078  25.421  1.00  0.00     0.011 A 
ATOM     20  C   UNL A   1      29.815  25.204  26.197  1.00  0.00     0.002 A 
ATOM     21  C   UNL A   1      29.936  23.829  26.350  1.00  0.00     0.001 A 
BRANCH  14  22
ATOM     22  S   UNL A   1      32.152  27.038  22.536  1.00  0.00     0.268 S 
ATOM     23  O   UNL A   1      30.896  27.426  21.935  1.00  0.00    -0.201 OA
ATOM     24  O   UNL A   1      33.395  27.004  21.777  1.00  0.00    -0.201 OA
BRANCH  22  25
ATOM     25  C   UNL A   1      32.432  28.080  23.941  1.00  0.00     0.088 A 
ATOM     26  C   UNL A   1      33.503  30.666  27.204  1.00  0.00     0.044 C 
ATOM     27  C   UNL A   1      33.110  29.751  26.082  1.00  0.00    -0.051 A 
ATOM     28  C   UNL A   1      33.933  28.671  25.744  1.00  0.00     0.005 A 
ATOM     29  C   UNL A   1      31.926  29.963  25.363  1.00  0.00     0.005 A 
ATOM     30  C   UNL A   1      33.600  27.841  24.674  1.00  0.00     0.022 A 
ATOM     31  C   UNL A   1      31.578  29.123  24.302  1.00  0.00     0.022 A 
ENDBRANCH  22  25
ENDBRANCH  14  22
ENDBRANCH  11  13
ENDBRANCH   8  11
ENDBRANCH   6   7
BRANCH   6  32
ATOM     32  C   UNL A   1      35.137  23.736  25.384  1.00  0.00     0.090 C 
BRANCH  32  33
ATOM     33  C   UNL A   1      34.468  23.175  26.588  1.00  0.00     0.037 A 
ATOM     34  C   UNL A   1      33.330  23.555  27.268  1.00  0.00     0.134 A 
ATOM     35  N   UNL A   1      34.883  22.025  27.214  1.00  0.00    -0.348 N 
ATOM     36  N   UNL A   1      32.928  22.557  28.109  1.00  0.00    -0.245 NA
ATOM     37  C   UNL A   1      33.848  21.630  28.009  1.00  0.00     0.196 A 
ATOM     38  H   UNL A   1      35.753  21.576  27.109  1.00  0.00     0.167 HD
ENDBRANCH  32  33
ENDBRANCH   6  32
ENDBRANCH   3   6
ENDBRANCH   1   2
BRANCH   1  39
ATOM     39  C   UNL A   1      39.153  21.008  25.675  1.00  0.00     0.023 C 
BRANCH  39  40
ATOM     40  C   UNL A   1      39.820  21.907  26.704  1.00  0.00     0.023 C 
BRANCH  40  41
ATOM     41  C   UNL A   1      41.156  22.502  26.284  1.00  0.00     0.116 C 
BRANCH  41  42
ATOM     42  N   UNL A   1      42.135  21.586  25.728  1.00  0.00    -0.352 N 
ATOM     43  C   UNL A   1      43.469  21.812  25.421  1.00  0.00     0.251 C 
ATOM     44  H   UNL A   1      41.806  20.676  25.542  1.00  0.00     0.163 HD
ATOM     45  O   UNL A   1      44.074  20.993  24.735  1.00  0.00    -0.269 OA
BRANCH  43  46
ATOM     46  C   UNL A   1      44.229  22.919  26.071  1.00  0.00     0.039 A 
ATOM     47  C   UNL A   1      44.490  22.805  27.446  1.00  0.00     0.014 A 
ATOM     48  C   UNL A   1      44.383  24.151  25.452  1.00  0.00     0.014 A 
ATOM     49  C   UNL A   1      44.599  23.953  28.223  1.00  0.00     0.010 A 
ATOM     50  C   UNL A   1      44.303  25.281  26.216  1.00  0.00     0.010 A 
ATOM     51  C   UNL A   1      44.367  25.171  27.602  1.00  0.00    -0.014 A 
BRANCH  51  52
ATOM     52  C   UNL A   1      44.201  26.431  28.280  1.00  0.00     0.031 A 
ATOM     53  C   UNL A   1      42.844  26.962  28.395  1.00  0.00     0.074 A 
ATOM     54  C   UNL A   1      45.262  26.929  28.947  1.00  0.00     0.049 A 
ATOM     55  N   UNL A   1      42.587  28.215  28.487  1.00  0.00    -0.248 NA
ATOM     56  C   UNL A   1      41.648  26.122  28.358  1.00  0.00     0.031 C 
ATOM     57  C   UNL A   1      45.309  27.919  30.014  1.00  0.00     0.029 A 
ATOM     58  N   UNL A   1      46.604  26.639  28.694  1.00  0.00    -0.354 N 
ATOM     59  C   UNL A   1      41.267  28.317  28.854  1.00  0.00     0.074 A 
ATOM     60  C   UNL A   1      40.690  27.015  28.627  1.00  0.00     0.031 C 
ATOM     61  C   UNL A   1      46.577  28.356  30.147  1.00  0.00     0.029 A 
ATOM     62  C   UNL A   1      47.355  27.767  29.067  1.00  0.00     0.049 A 
ATOM     63  H   UNL A   1      46.958  25.799  28.322  1.00  0.00     0.167 HD
ATOM     64  C   UNL A   1      40.865  29.440  29.505  1.00  0.00     0.037 A 
ATOM     65  C   UNL A   1      48.038  28.470  28.113  1.00  0.00     0.037 A 
ATOM     66  C   UNL A   1      42.010  30.311  29.745  1.00  0.00     0.049 A 
ATOM     67  C   UNL A   1      47.455  29.848  27.924  1.00  0.00     0.074 A 
ATOM     68  C   UNL A   1      42.853  30.425  30.840  1.00  0.00     0.029 A 
ATOM     69  N   UNL A   1      42.679  30.884  28.671  1.00  0.00    -0.354 N 
ATOM     70  N   UNL A   1      46.208  30.140  28.169  1.00  0.00    -0.248 NA
ATOM     71  C   UNL A   1      48.231  30.999  27.482  1.00  0.00     0.031 C 
ATOM     72  C   UNL A   1      44.037  31.072  30.417  1.00  0.00     0.029 A 
ATOM     73  C   UNL A   1      43.917  31.352  29.067  1.00  0.00     0.049 A 
ATOM     74  H   UNL A   1      42.321  30.947  27.756  1.00  0.00     0.167 HD
ATOM     75  C   UNL A   1      46.004  31.476  27.946  1.00  0.00     0.074 A 
ATOM     76  C   UNL A   1      47.300  31.969  27.518  1.00  0.00     0.031 C 
ATOM     77  C   UNL A   1      44.785  32.060  28.141  1.00  0.00     0.037 A 
BRANCH  64  78
ATOM     78  C   UNL A   1      39.543  29.578  30.210  1.00  0.00     0.064 A 
ATOM     79  C   UNL A   1      38.521  30.386  29.669  1.00  0.00     0.173 A 
ATOM     80  C   UNL A   1      39.221  28.934  31.419  1.00  0.00     0.173 A 
ATOM     81  F   UNL A   1      38.669  31.016  28.497  1.00  0.00    -0.203 F 
ATOM     82  C   UNL A   1      37.303  30.588  30.315  1.00  0.00     0.198 A 
ATOM     83  C   UNL A   1      38.015  29.167  32.088  1.00  0.00     0.198 A 
ATOM     84  F   UNL A   1      40.051  28.035  31.968  1.00  0.00    -0.203 F 
ATOM     85  F   UNL A   1      36.373  31.368  29.748  1.00  0.00    -0.200 F 
ATOM     86  C   UNL A   1      37.056  29.995  31.536  1.00  0.00     0.200 A 
ATOM     87  F   UNL A   1      37.785  28.581  33.271  1.00  0.00    -0.200 F 
ATOM     88  F   UNL A   1      35.893  30.206  32.166  1.00  0.00    -0.200 F 
ENDBRANCH  64  78
BRANCH  65  89
ATOM     89  C   UNL A   1      48.540  27.594  27.012  1.00  0.00     0.064 A 
ATOM     90  C   UNL A   1      47.822  27.584  25.799  1.00  0.00     0.173 A 
ATOM     91  C   UNL A   1      49.878  27.181  26.972  1.00  0.00     0.173 A 
ATOM     92  F   UNL A   1      46.528  27.941  25.792  1.00  0.00    -0.203 F 
ATOM     93  C   UNL A   1      48.459  27.333  24.583  1.00  0.00     0.198 A 
ATOM     94  C   UNL A   1      50.510  26.928  25.752  1.00  0.00     0.198 A 
ATOM     95  F   UNL A   1      50.614  27.154  28.093  1.00  0.00    -0.203 F 
ATOM     96  F   UNL A   1      47.781  27.433  23.432  1.00  0.00    -0.200 F 
ATOM     97  C   UNL A   1      49.815  27.057  24.558  1.00  0.00     0.200 A 
ATOM     98  F   UNL A   1      51.821  26.647  25.727  1.00  0.00    -0.200 F 
ATOM     99  F   UNL A   1      50.460  26.952  23.388  1.00  0.00    -0.200 F 
ENDBRANCH  65  89
BRANCH  77 100
ATOM    100  C   UNL A   1      44.328  33.395  27.597  1.00  0.00     0.064 A 
ATOM    101  C   UNL A   1      43.835  33.586  26.298  1.00  0.00     0.173 A 
ATOM    102  C   UNL A   1      44.227  34.528  28.449  1.00  0.00     0.173 A 
ATOM    103  F   UNL A   1      43.733  32.574  25.429  1.00  0.00    -0.203 F 
ATOM    104  C   UNL A   1      43.363  34.825  25.858  1.00  0.00     0.198 A 
ATOM    105  C   UNL A   1      43.678  35.736  28.033  1.00  0.00     0.198 A 
ATOM    106  F   UNL A   1      44.626  34.496  29.729  1.00  0.00    -0.203 F 
ATOM    107  F   UNL A   1      42.966  34.965  24.586  1.00  0.00    -0.200 F 
ATOM    108  C   UNL A   1      43.271  35.895  26.728  1.00  0.00     0.200 A 
ATOM    109  F   UNL A   1      43.529  36.736  28.913  1.00  0.00    -0.200 F 
ATOM    110  F   UNL A   1      42.770  37.065  26.314  1.00  0.00    -0.200 F 
ENDBRANCH  77 100
ENDBRANCH  51  52
ENDBRANCH  43  46
ENDBRANCH  41  42
ENDBRANCH  40  41
ENDBRANCH  39  40
ENDBRANCH   1  39
TORSDOF 18
ENDMDL
