MODEL 1
REMARK VINA RESULT:     -10.7      0.000      0.000
REMARK SMILES CC[NH2+][C@]1(C(=O)NCCCCNC(=O)c2ccc(-c3c4nc(c(-c5c(F)c(F)c(F)c(F)c5F)c5ccc([nH]5)c(-c5c(F)c(F)c(F)c(F)c5F)c5nc(c(-c6c(F)c(F)c(F)c(F)c6F)c6ccc3[nH]6)C=C5)C=C4)cc2)CC[C@H](OCC)C1
REMARK SMILES IDX 9 1 8 2 7 3 5 4 6 5 4 7 78 8 84 9 79 10 80 11 3 12 2 15 1 16
REMARK SMILES IDX 81 17 82 18 83 19 10 20 11 21 12 22 13 23 14 25 15 26 16 27
REMARK SMILES IDX 77 28 17 29 76 30 18 31 19 32 20 33 70 34 21 35 75 36 69 37
REMARK SMILES IDX 71 38 22 39 74 40 68 41 67 42 23 44 55 45 35 46 54 47 36 48
REMARK SMILES IDX 39 49 53 50 72 51 37 52 38 53 52 55 73 56 40 57 24 58 25 59
REMARK SMILES IDX 33 60 26 61 27 62 31 63 34 64 28 65 29 66 32 67 30 68 56 69
REMARK SMILES IDX 57 70 65 71 58 72 59 73 63 74 66 75 60 76 61 77 64 78 62 79
REMARK SMILES IDX 41 80 42 81 50 82 43 83 44 84 48 85 51 86 45 87 46 88 49 89
REMARK SMILES IDX 47 90
REMARK H PARENT 7 6 3 13 3 14 12 24 71 43 39 54
REMARK Flexibility Score: inf
ROOT
ATOM      1  C   UNL A   1      31.406  30.856  25.756  1.00  0.00     0.023 C 
ENDROOT
BRANCH   1   2
ATOM      2  C   UNL A   1      32.529  29.831  25.836  1.00  0.00     0.116 C 
BRANCH   2   3
ATOM      3  N   UNL A   1      33.282  29.703  24.603  1.00  0.00    -0.351 N 
ATOM      4  C   UNL A   1      33.494  28.602  23.811  1.00  0.00     0.281 C 
ATOM      5  O   UNL A   1      34.072  28.791  22.739  1.00  0.00    -0.268 OA
ATOM      6  H   UNL A   1      33.707  30.532  24.286  1.00  0.00     0.163 HD
BRANCH   4   7
ATOM      7  C   UNL A   1      33.048  27.186  24.311  1.00  0.00     0.178 C 
ATOM      8  C   UNL A   1      33.650  26.104  23.393  1.00  0.00     0.082 C 
ATOM      9  C   UNL A   1      33.744  26.844  25.652  1.00  0.00     0.111 C 
ATOM     10  C   UNL A   1      33.820  24.854  24.237  1.00  0.00     0.039 C 
ATOM     11  C   UNL A   1      33.953  25.324  25.683  1.00  0.00     0.125 C 
BRANCH   7  12
ATOM     12  N   UNL A   1      31.589  27.260  24.543  1.00  0.00    -0.334 N 
ATOM     13  H   UNL A   1      31.381  26.660  25.340  1.00  0.00     0.347 HD
ATOM     14  H   UNL A   1      31.413  28.258  24.663  1.00  0.00     0.347 HD
BRANCH  12  15
ATOM     15  C   UNL A   1      30.684  26.876  23.476  1.00  0.00     0.257 C 
ATOM     16  C   UNL A   1      29.721  28.027  23.212  1.00  0.00     0.071 C 
ENDBRANCH  12  15
ENDBRANCH   7  12
BRANCH  11  17
ATOM     17  O   UNL A   1      32.956  24.714  26.500  1.00  0.00    -0.378 OA
BRANCH  17  18
ATOM     18  C   UNL A   1      32.074  23.826  25.816  1.00  0.00     0.157 C 
ATOM     19  C   UNL A   1      30.628  23.955  26.263  1.00  0.00     0.035 C 
ENDBRANCH  17  18
ENDBRANCH  11  17
ENDBRANCH   4   7
ENDBRANCH   2   3
ENDBRANCH   1   2
BRANCH   1  20
ATOM     20  C   UNL A   1      31.361  31.867  26.898  1.00  0.00     0.023 C 
BRANCH  20  21
ATOM     21  C   UNL A   1      32.620  32.705  27.084  1.00  0.00     0.116 C 
BRANCH  21  22
ATOM     22  N   UNL A   1      32.350  34.075  27.498  1.00  0.00    -0.352 N 
ATOM     23  C   UNL A   1      32.957  34.827  28.475  1.00  0.00     0.251 C 
ATOM     24  H   UNL A   1      31.628  34.527  27.006  1.00  0.00     0.163 HD
ATOM     25  O   UNL A   1      32.528  35.944  28.752  1.00  0.00    -0.269 OA
BRANCH  23  26
ATOM     26  C   UNL A   1      34.105  34.272  29.222  1.00  0.00     0.039 A 
ATOM     27  C   UNL A   1      33.856  33.502  30.361  1.00  0.00     0.014 A 
ATOM     28  C   UNL A   1      35.414  34.478  28.783  1.00  0.00     0.014 A 
ATOM     29  C   UNL A   1      34.916  32.866  31.010  1.00  0.00     0.010 A 
ATOM     30  C   UNL A   1      36.459  33.778  29.381  1.00  0.00     0.010 A 
ATOM     31  C   UNL A   1      36.220  32.961  30.496  1.00  0.00    -0.014 A 
BRANCH  31  32
ATOM     32  C   UNL A   1      37.345  32.205  31.102  1.00  0.00     0.031 A 
ATOM     33  C   UNL A   1      37.835  32.556  32.477  1.00  0.00     0.074 A 
ATOM     34  C   UNL A   1      37.978  31.257  30.380  1.00  0.00     0.049 A 
ATOM     35  N   UNL A   1      38.859  32.079  33.140  1.00  0.00    -0.248 NA
ATOM     36  C   UNL A   1      37.095  33.606  33.195  1.00  0.00     0.031 C 
ATOM     37  C   UNL A   1      37.632  30.862  29.014  1.00  0.00     0.029 A 
ATOM     38  N   UNL A   1      39.053  30.464  30.692  1.00  0.00    -0.354 N 
ATOM     39  C   UNL A   1      38.895  32.781  34.337  1.00  0.00     0.074 A 
ATOM     40  C   UNL A   1      37.824  33.751  34.292  1.00  0.00     0.031 C 
ATOM     41  C   UNL A   1      38.466  29.889  28.613  1.00  0.00     0.029 A 
ATOM     42  C   UNL A   1      39.427  29.618  29.677  1.00  0.00     0.049 A 
ATOM     43  H   UNL A   1      39.515  30.498  31.562  1.00  0.00     0.167 HD
ATOM     44  C   UNL A   1      39.732  32.616  35.388  1.00  0.00     0.037 A 
ATOM     45  C   UNL A   1      40.437  28.728  29.610  1.00  0.00     0.037 A 
ATOM     46  C   UNL A   1      40.775  31.625  35.445  1.00  0.00     0.049 A 
ATOM     47  C   UNL A   1      41.346  28.558  30.796  1.00  0.00     0.074 A 
ATOM     48  C   UNL A   1      41.631  31.334  36.493  1.00  0.00     0.029 A 
ATOM     49  N   UNL A   1      41.103  30.764  34.409  1.00  0.00    -0.354 N 
ATOM     50  N   UNL A   1      41.325  29.179  31.951  1.00  0.00    -0.248 NA
ATOM     51  C   UNL A   1      42.417  27.558  30.674  1.00  0.00     0.031 C 
ATOM     52  C   UNL A   1      42.504  30.323  36.077  1.00  0.00     0.029 A 
ATOM     53  C   UNL A   1      42.161  29.952  34.786  1.00  0.00     0.049 A 
ATOM     54  H   UNL A   1      40.651  30.734  33.535  1.00  0.00     0.167 HD
ATOM     55  C   UNL A   1      42.356  28.628  32.699  1.00  0.00     0.074 A 
ATOM     56  C   UNL A   1      42.974  27.611  31.875  1.00  0.00     0.031 C 
ATOM     57  C   UNL A   1      42.755  28.936  33.957  1.00  0.00     0.037 A 
BRANCH  44  58
ATOM     58  C   UNL A   1      39.547  33.519  36.572  1.00  0.00     0.064 A 
ATOM     59  C   UNL A   1      38.748  33.145  37.664  1.00  0.00     0.173 A 
ATOM     60  C   UNL A   1      40.211  34.754  36.636  1.00  0.00     0.173 A 
ATOM     61  F   UNL A   1      38.083  31.980  37.646  1.00  0.00    -0.203 F 
ATOM     62  C   UNL A   1      38.600  33.986  38.762  1.00  0.00     0.198 A 
ATOM     63  C   UNL A   1      40.083  35.579  37.751  1.00  0.00     0.198 A 
ATOM     64  F   UNL A   1      40.991  35.155  35.622  1.00  0.00    -0.203 F 
ATOM     65  F   UNL A   1      37.794  33.628  39.773  1.00  0.00    -0.200 F 
ATOM     66  C   UNL A   1      39.272  35.198  38.809  1.00  0.00     0.200 A 
ATOM     67  F   UNL A   1      40.743  36.744  37.799  1.00  0.00    -0.200 F 
ATOM     68  F   UNL A   1      39.135  36.002  39.873  1.00  0.00    -0.200 F 
ENDBRANCH  44  58
BRANCH  45  69
ATOM     69  C   UNL A   1      40.631  27.912  28.384  1.00  0.00     0.064 A 
ATOM     70  C   UNL A   1      40.045  26.644  28.266  1.00  0.00     0.173 A 
ATOM     71  C   UNL A   1      41.413  28.371  27.314  1.00  0.00     0.173 A 
ATOM     72  F   UNL A   1      39.305  26.152  29.271  1.00  0.00    -0.203 F 
ATOM     73  C   UNL A   1      40.253  25.856  27.135  1.00  0.00     0.198 A 
ATOM     74  C   UNL A   1      41.598  27.594  26.173  1.00  0.00     0.198 A 
ATOM     75  F   UNL A   1      41.991  29.579  27.375  1.00  0.00    -0.203 F 
ATOM     76  F   UNL A   1      39.722  24.628  27.071  1.00  0.00    -0.200 F 
ATOM     77  C   UNL A   1      41.026  26.334  26.088  1.00  0.00     0.200 A 
ATOM     78  F   UNL A   1      42.334  28.065  25.156  1.00  0.00    -0.200 F 
ATOM     79  F   UNL A   1      41.226  25.576  25.001  1.00  0.00    -0.200 F 
ENDBRANCH  45  69
BRANCH  57  80
ATOM     80  C   UNL A   1      43.889  28.140  34.535  1.00  0.00     0.064 A 
ATOM     81  C   UNL A   1      43.671  26.922  35.194  1.00  0.00     0.173 A 
ATOM     82  C   UNL A   1      45.212  28.583  34.389  1.00  0.00     0.173 A 
ATOM     83  F   UNL A   1      42.423  26.464  35.371  1.00  0.00    -0.203 F 
ATOM     84  C   UNL A   1      44.737  26.187  35.706  1.00  0.00     0.198 A 
ATOM     85  C   UNL A   1      46.277  27.832  34.878  1.00  0.00     0.198 A 
ATOM     86  F   UNL A   1      45.472  29.740  33.761  1.00  0.00    -0.203 F 
ATOM     87  F   UNL A   1      44.503  25.047  36.372  1.00  0.00    -0.200 F 
ATOM     88  C   UNL A   1      46.037  26.638  35.542  1.00  0.00     0.200 A 
ATOM     89  F   UNL A   1      47.534  28.263  34.707  1.00  0.00    -0.200 F 
ATOM     90  F   UNL A   1      47.062  25.926  36.030  1.00  0.00    -0.200 F 
ENDBRANCH  57  80
ENDBRANCH  31  32
ENDBRANCH  23  26
ENDBRANCH  21  22
ENDBRANCH  20  21
ENDBRANCH   1  20
TORSDOF 15
ENDMDL
MODEL 2
REMARK VINA RESULT:     -10.7      0.803      7.563
REMARK SMILES CC[NH2+][C@]1(C(=O)NCCCCNC(=O)c2ccc(-c3c4nc(c(-c5c(F)c(F)c(F)c(F)c5F)c5ccc([nH]5)c(-c5c(F)c(F)c(F)c(F)c5F)c5nc(c(-c6c(F)c(F)c(F)c(F)c6F)c6ccc3[nH]6)C=C5)C=C4)cc2)CC[C@H](OCC)C1
REMARK SMILES IDX 9 1 8 2 7 3 5 4 6 5 4 7 78 8 84 9 79 10 80 11 3 12 2 15 1 16
REMARK SMILES IDX 81 17 82 18 83 19 10 20 11 21 12 22 13 23 14 25 15 26 16 27
REMARK SMILES IDX 77 28 17 29 76 30 18 31 19 32 20 33 70 34 21 35 75 36 69 37
REMARK SMILES IDX 71 38 22 39 74 40 68 41 67 42 23 44 55 45 35 46 54 47 36 48
REMARK SMILES IDX 39 49 53 50 72 51 37 52 38 53 52 55 73 56 40 57 24 58 25 59
REMARK SMILES IDX 33 60 26 61 27 62 31 63 34 64 28 65 29 66 32 67 30 68 56 69
REMARK SMILES IDX 57 70 65 71 58 72 59 73 63 74 66 75 60 76 61 77 64 78 62 79
REMARK SMILES IDX 41 80 42 81 50 82 43 83 44 84 48 85 51 86 45 87 46 88 49 89
REMARK SMILES IDX 47 90
REMARK H PARENT 7 6 3 13 3 14 12 24 71 43 39 54
REMARK Flexibility Score: inf
ROOT
ATOM      1  C   UNL A   1      31.958  30.456  26.704  1.00  0.00     0.023 C 
ENDROOT
BRANCH   1   2
ATOM      2  C   UNL A   1      31.694  29.822  25.345  1.00  0.00     0.116 C 
BRANCH   2   3
ATOM      3  N   UNL A   1      32.884  29.700  24.525  1.00  0.00    -0.351 N 
ATOM      4  C   UNL A   1      33.456  28.586  23.962  1.00  0.00     0.281 C 
ATOM      5  O   UNL A   1      34.403  28.773  23.198  1.00  0.00    -0.268 OA
ATOM      6  H   UNL A   1      33.354  30.546  24.345  1.00  0.00     0.163 HD
BRANCH   4   7
ATOM      7  C   UNL A   1      32.925  27.162  24.344  1.00  0.00     0.178 C 
ATOM      8  C   UNL A   1      33.617  26.103  23.464  1.00  0.00     0.082 C 
ATOM      9  C   UNL A   1      33.441  26.752  25.746  1.00  0.00     0.111 C 
ATOM     10  C   UNL A   1      33.656  24.817  24.269  1.00  0.00     0.039 C 
ATOM     11  C   UNL A   1      33.617  25.227  25.739  1.00  0.00     0.125 C 
BRANCH   7  12
ATOM     12  N   UNL A   1      31.450  27.262  24.396  1.00  0.00    -0.334 N 
ATOM     13  H   UNL A   1      31.147  26.786  25.245  1.00  0.00     0.347 HD
ATOM     14  H   UNL A   1      31.272  28.265  24.344  1.00  0.00     0.347 HD
BRANCH  12  15
ATOM     15  C   UNL A   1      30.666  26.716  23.303  1.00  0.00     0.257 C 
ATOM     16  C   UNL A   1      29.520  25.898  23.884  1.00  0.00     0.071 C 
ENDBRANCH  12  15
ENDBRANCH   7  12
BRANCH  11  17
ATOM     17  O   UNL A   1      32.514  24.609  26.400  1.00  0.00    -0.378 OA
BRANCH  17  18
ATOM     18  C   UNL A   1      31.944  23.496  25.714  1.00  0.00     0.157 C 
ATOM     19  C   UNL A   1      30.658  22.995  26.347  1.00  0.00     0.035 C 
ENDBRANCH  17  18
ENDBRANCH  11  17
ENDBRANCH   4   7
ENDBRANCH   2   3
ENDBRANCH   1   2
BRANCH   1  20
ATOM     20  C   UNL A   1      31.698  31.957  26.787  1.00  0.00     0.023 C 
BRANCH  20  21
ATOM     21  C   UNL A   1      32.874  32.803  27.261  1.00  0.00     0.116 C 
BRANCH  21  22
ATOM     22  N   UNL A   1      32.502  34.162  27.627  1.00  0.00    -0.352 N 
ATOM     23  C   UNL A   1      33.040  34.986  28.588  1.00  0.00     0.251 C 
ATOM     24  H   UNL A   1      31.758  34.547  27.111  1.00  0.00     0.163 HD
ATOM     25  O   UNL A   1      32.529  36.077  28.822  1.00  0.00    -0.269 OA
BRANCH  23  26
ATOM     26  C   UNL A   1      34.212  34.538  29.368  1.00  0.00     0.039 A 
ATOM     27  C   UNL A   1      34.014  34.072  30.669  1.00  0.00     0.014 A 
ATOM     28  C   UNL A   1      35.491  34.541  28.807  1.00  0.00     0.014 A 
ATOM     29  C   UNL A   1      35.087  33.528  31.379  1.00  0.00     0.010 A 
ATOM     30  C   UNL A   1      36.541  33.926  29.483  1.00  0.00     0.010 A 
ATOM     31  C   UNL A   1      36.348  33.407  30.772  1.00  0.00    -0.014 A 
BRANCH  31  32
ATOM     32  C   UNL A   1      37.476  32.733  31.464  1.00  0.00     0.031 A 
ATOM     33  C   UNL A   1      38.169  31.568  30.817  1.00  0.00     0.074 A 
ATOM     34  C   UNL A   1      37.822  33.119  32.709  1.00  0.00     0.049 A 
ATOM     35  N   UNL A   1      39.108  30.793  31.296  1.00  0.00    -0.248 NA
ATOM     36  C   UNL A   1      37.728  31.207  29.461  1.00  0.00     0.031 C 
ATOM     37  C   UNL A   1      37.190  34.200  33.467  1.00  0.00     0.029 A 
ATOM     38  N   UNL A   1      38.781  32.635  33.562  1.00  0.00    -0.354 N 
ATOM     39  C   UNL A   1      39.354  29.845  30.312  1.00  0.00     0.074 A 
ATOM     40  C   UNL A   1      38.433  30.110  29.228  1.00  0.00     0.031 C 
ATOM     41  C   UNL A   1      37.790  34.309  34.662  1.00  0.00     0.029 A 
ATOM     42  C   UNL A   1      38.823  33.285  34.772  1.00  0.00     0.049 A 
ATOM     43  H   UNL A   1      39.384  31.891  33.330  1.00  0.00     0.167 HD
ATOM     44  C   UNL A   1      40.281  28.857  30.302  1.00  0.00     0.037 A 
ATOM     45  C   UNL A   1      39.602  33.071  35.850  1.00  0.00     0.037 A 
ATOM     46  C   UNL A   1      41.220  28.618  31.366  1.00  0.00     0.049 A 
ATOM     47  C   UNL A   1      40.629  31.973  35.809  1.00  0.00     0.074 A 
ATOM     48  C   UNL A   1      42.241  27.686  31.421  1.00  0.00     0.029 A 
ATOM     49  N   UNL A   1      41.252  29.318  32.562  1.00  0.00    -0.354 N 
ATOM     50  N   UNL A   1      40.900  31.129  34.843  1.00  0.00    -0.248 NA
ATOM     51  C   UNL A   1      41.465  31.801  37.006  1.00  0.00     0.031 C 
ATOM     52  C   UNL A   1      42.867  27.794  32.667  1.00  0.00     0.029 A 
ATOM     53  C   UNL A   1      42.265  28.826  33.370  1.00  0.00     0.049 A 
ATOM     54  H   UNL A   1      40.645  30.055  32.803  1.00  0.00     0.167 HD
ATOM     55  C   UNL A   1      41.952  30.348  35.303  1.00  0.00     0.074 A 
ATOM     56  C   UNL A   1      42.280  30.828  36.628  1.00  0.00     0.031 C 
ATOM     57  C   UNL A   1      42.587  29.325  34.682  1.00  0.00     0.037 A 
BRANCH  44  58
ATOM     58  C   UNL A   1      40.333  27.966  29.097  1.00  0.00     0.064 A 
ATOM     59  C   UNL A   1      39.617  26.760  29.043  1.00  0.00     0.173 A 
ATOM     60  C   UNL A   1      41.071  28.342  27.964  1.00  0.00     0.173 A 
ATOM     61  F   UNL A   1      38.905  26.349  30.104  1.00  0.00    -0.203 F 
ATOM     62  C   UNL A   1      39.662  25.951  27.911  1.00  0.00     0.198 A 
ATOM     63  C   UNL A   1      41.089  27.544  26.823  1.00  0.00     0.198 A 
ATOM     64  F   UNL A   1      41.768  29.487  27.962  1.00  0.00    -0.203 F 
ATOM     65  F   UNL A   1      39.007  24.781  27.901  1.00  0.00    -0.200 F 
ATOM     66  C   UNL A   1      40.390  26.347  26.800  1.00  0.00     0.200 A 
ATOM     67  F   UNL A   1      41.784  27.934  25.746  1.00  0.00    -0.200 F 
ATOM     68  F   UNL A   1      40.424  25.571  25.707  1.00  0.00    -0.200 F 
ENDBRANCH  44  58
BRANCH  45  69
ATOM     69  C   UNL A   1      39.458  33.930  37.055  1.00  0.00     0.064 A 
ATOM     70  C   UNL A   1      38.711  33.498  38.158  1.00  0.00     0.173 A 
ATOM     71  C   UNL A   1      40.050  35.200  37.124  1.00  0.00     0.173 A 
ATOM     72  F   UNL A   1      38.109  32.300  38.132  1.00  0.00    -0.203 F 
ATOM     73  C   UNL A   1      38.540  34.312  39.277  1.00  0.00     0.198 A 
ATOM     74  C   UNL A   1      39.902  36.002  38.252  1.00  0.00     0.198 A 
ATOM     75  F   UNL A   1      40.779  35.657  36.095  1.00  0.00    -0.203 F 
ATOM     76  F   UNL A   1      37.779  33.894  40.297  1.00  0.00    -0.200 F 
ATOM     77  C   UNL A   1      39.139  35.562  39.324  1.00  0.00     0.200 A 
ATOM     78  F   UNL A   1      40.494  37.203  38.301  1.00  0.00    -0.200 F 
ATOM     79  F   UNL A   1      38.975  36.345  40.399  1.00  0.00    -0.200 F 
ENDBRANCH  45  69
BRANCH  57  80
ATOM     80  C   UNL A   1      43.729  28.679  35.413  1.00  0.00     0.064 A 
ATOM     81  C   UNL A   1      45.053  29.103  35.230  1.00  0.00     0.173 A 
ATOM     82  C   UNL A   1      43.487  27.652  36.337  1.00  0.00     0.173 A 
ATOM     83  F   UNL A   1      45.335  30.072  34.346  1.00  0.00    -0.203 F 
ATOM     84  C   UNL A   1      46.097  28.505  35.931  1.00  0.00     0.198 A 
ATOM     85  C   UNL A   1      44.531  27.076  37.056  1.00  0.00     0.198 A 
ATOM     86  F   UNL A   1      42.237  27.215  36.551  1.00  0.00    -0.203 F 
ATOM     87  F   UNL A   1      47.360  28.896  35.708  1.00  0.00    -0.200 F 
ATOM     88  C   UNL A   1      45.835  27.499  36.847  1.00  0.00     0.200 A 
ATOM     89  F   UNL A   1      44.274  26.113  37.951  1.00  0.00    -0.200 F 
ATOM     90  F   UNL A   1      46.841  26.931  37.526  1.00  0.00    -0.200 F 
ENDBRANCH  57  80
ENDBRANCH  31  32
ENDBRANCH  23  26
ENDBRANCH  21  22
ENDBRANCH  20  21
ENDBRANCH   1  20
TORSDOF 15
ENDMDL
MODEL 3
REMARK VINA RESULT:     -10.7      1.165      7.578
REMARK SMILES CC[NH2+][C@]1(C(=O)NCCCCNC(=O)c2ccc(-c3c4nc(c(-c5c(F)c(F)c(F)c(F)c5F)c5ccc([nH]5)c(-c5c(F)c(F)c(F)c(F)c5F)c5nc(c(-c6c(F)c(F)c(F)c(F)c6F)c6ccc3[nH]6)C=C5)C=C4)cc2)CC[C@H](OCC)C1
REMARK SMILES IDX 9 1 8 2 7 3 5 4 6 5 4 7 78 8 84 9 79 10 80 11 3 12 2 15 1 16
REMARK SMILES IDX 81 17 82 18 83 19 10 20 11 21 12 22 13 23 14 25 15 26 16 27
REMARK SMILES IDX 77 28 17 29 76 30 18 31 19 32 20 33 70 34 21 35 75 36 69 37
REMARK SMILES IDX 71 38 22 39 74 40 68 41 67 42 23 44 55 45 35 46 54 47 36 48
REMARK SMILES IDX 39 49 53 50 72 51 37 52 38 53 52 55 73 56 40 57 24 58 25 59
REMARK SMILES IDX 33 60 26 61 27 62 31 63 34 64 28 65 29 66 32 67 30 68 56 69
REMARK SMILES IDX 57 70 65 71 58 72 59 73 63 74 66 75 60 76 61 77 64 78 62 79
REMARK SMILES IDX 41 80 42 81 50 82 43 83 44 84 48 85 51 86 45 87 46 88 49 89
REMARK SMILES IDX 47 90
REMARK H PARENT 7 6 3 13 3 14 12 24 71 43 39 54
REMARK Flexibility Score: inf
ROOT
ATOM      1  C   UNL A   1      31.812  30.376  26.797  1.00  0.00     0.023 C 
ENDROOT
BRANCH   1   2
ATOM      2  C   UNL A   1      32.317  29.764  25.498  1.00  0.00     0.116 C 
BRANCH   2   3
ATOM      3  N   UNL A   1      31.313  29.720  24.453  1.00  0.00    -0.351 N 
ATOM      4  C   UNL A   1      30.721  28.640  23.844  1.00  0.00     0.281 C 
ATOM      5  O   UNL A   1      29.797  28.878  23.066  1.00  0.00    -0.268 OA
ATOM      6  H   UNL A   1      31.009  30.598  24.129  1.00  0.00     0.163 HD
BRANCH   4   7
ATOM      7  C   UNL A   1      31.264  27.197  24.121  1.00  0.00     0.178 C 
ATOM      8  C   UNL A   1      30.641  26.654  25.421  1.00  0.00     0.082 C 
ATOM      9  C   UNL A   1      30.689  26.197  23.087  1.00  0.00     0.111 C 
ATOM     10  C   UNL A   1      30.590  25.143  25.289  1.00  0.00     0.039 C 
ATOM     11  C   UNL A   1      30.548  24.841  23.794  1.00  0.00     0.125 C 
BRANCH   7  12
ATOM     12  N   UNL A   1      32.733  27.259  23.950  1.00  0.00    -0.334 N 
ATOM     13  H   UNL A   1      33.044  28.140  24.357  1.00  0.00     0.347 HD
ATOM     14  H   UNL A   1      33.066  26.405  24.396  1.00  0.00     0.347 HD
BRANCH  12  15
ATOM     15  C   UNL A   1      33.291  27.190  22.613  1.00  0.00     0.257 C 
ATOM     16  C   UNL A   1      34.112  28.448  22.360  1.00  0.00     0.071 C 
ENDBRANCH  12  15
ENDBRANCH   7  12
BRANCH  11  17
ATOM     17  O   UNL A   1      31.631  23.988  23.425  1.00  0.00    -0.378 OA
BRANCH  17  18
ATOM     18  C   UNL A   1      32.148  23.179  24.480  1.00  0.00     0.157 C 
ATOM     19  C   UNL A   1      32.878  21.943  23.984  1.00  0.00     0.035 C 
ENDBRANCH  17  18
ENDBRANCH  11  17
ENDBRANCH   4   7
ENDBRANCH   2   3
ENDBRANCH   1   2
BRANCH   1  20
ATOM     20  C   UNL A   1      31.633  31.892  26.779  1.00  0.00     0.023 C 
BRANCH  20  21
ATOM     21  C   UNL A   1      32.793  32.697  27.353  1.00  0.00     0.116 C 
BRANCH  21  22
ATOM     22  N   UNL A   1      32.442  34.074  27.671  1.00  0.00    -0.352 N 
ATOM     23  C   UNL A   1      33.005  34.929  28.590  1.00  0.00     0.251 C 
ATOM     24  H   UNL A   1      31.693  34.447  27.153  1.00  0.00     0.163 HD
ATOM     25  O   UNL A   1      32.510  36.034  28.790  1.00  0.00    -0.269 OA
BRANCH  23  26
ATOM     26  C   UNL A   1      34.185  34.497  29.368  1.00  0.00     0.039 A 
ATOM     27  C   UNL A   1      33.987  33.915  30.622  1.00  0.00     0.014 A 
ATOM     28  C   UNL A   1      35.474  34.630  28.849  1.00  0.00     0.014 A 
ATOM     29  C   UNL A   1      35.075  33.388  31.320  1.00  0.00     0.010 A 
ATOM     30  C   UNL A   1      36.546  34.032  29.506  1.00  0.00     0.010 A 
ATOM     31  C   UNL A   1      36.357  33.400  30.744  1.00  0.00    -0.014 A 
BRANCH  31  32
ATOM     32  C   UNL A   1      37.510  32.748  31.415  1.00  0.00     0.031 A 
ATOM     33  C   UNL A   1      38.213  31.596  30.756  1.00  0.00     0.074 A 
ATOM     34  C   UNL A   1      37.872  33.142  32.653  1.00  0.00     0.049 A 
ATOM     35  N   UNL A   1      39.176  30.839  31.217  1.00  0.00    -0.248 NA
ATOM     36  C   UNL A   1      37.753  31.225  29.408  1.00  0.00     0.031 C 
ATOM     37  C   UNL A   1      37.234  34.211  33.422  1.00  0.00     0.029 A 
ATOM     38  N   UNL A   1      38.856  32.676  33.488  1.00  0.00    -0.354 N 
ATOM     39  C   UNL A   1      39.421  29.895  30.229  1.00  0.00     0.074 A 
ATOM     40  C   UNL A   1      38.475  30.141  29.163  1.00  0.00     0.031 C 
ATOM     41  C   UNL A   1      37.854  34.333  34.606  1.00  0.00     0.029 A 
ATOM     42  C   UNL A   1      38.908  33.328  34.696  1.00  0.00     0.049 A 
ATOM     43  H   UNL A   1      39.469  31.944  33.244  1.00  0.00     0.167 HD
ATOM     44  C   UNL A   1      40.366  28.925  30.203  1.00  0.00     0.037 A 
ATOM     45  C   UNL A   1      39.711  33.131  35.759  1.00  0.00     0.037 A 
ATOM     46  C   UNL A   1      41.329  28.705  31.249  1.00  0.00     0.049 A 
ATOM     47  C   UNL A   1      40.758  32.052  35.700  1.00  0.00     0.074 A 
ATOM     48  C   UNL A   1      42.369  27.792  31.285  1.00  0.00     0.029 A 
ATOM     49  N   UNL A   1      41.371  29.406  32.444  1.00  0.00    -0.354 N 
ATOM     50  N   UNL A   1      41.027  31.212  34.730  1.00  0.00    -0.248 NA
ATOM     51  C   UNL A   1      41.619  31.898  36.881  1.00  0.00     0.031 C 
ATOM     52  C   UNL A   1      43.015  27.914  32.519  1.00  0.00     0.029 A 
ATOM     53  C   UNL A   1      42.408  28.935  33.233  1.00  0.00     0.049 A 
ATOM     54  H   UNL A   1      40.754  30.132  32.695  1.00  0.00     0.167 HD
ATOM     55  C   UNL A   1      42.102  30.452  35.170  1.00  0.00     0.074 A 
ATOM     56  C   UNL A   1      42.446  30.939  36.488  1.00  0.00     0.031 C 
ATOM     57  C   UNL A   1      42.745  29.440  34.538  1.00  0.00     0.037 A 
BRANCH  44  58
ATOM     58  C   UNL A   1      40.412  28.033  28.997  1.00  0.00     0.064 A 
ATOM     59  C   UNL A   1      39.688  26.832  28.943  1.00  0.00     0.173 A 
ATOM     60  C   UNL A   1      41.154  28.405  27.865  1.00  0.00     0.173 A 
ATOM     61  F   UNL A   1      38.973  26.427  30.003  1.00  0.00    -0.203 F 
ATOM     62  C   UNL A   1      39.727  26.024  27.811  1.00  0.00     0.198 A 
ATOM     63  C   UNL A   1      41.166  27.607  26.723  1.00  0.00     0.198 A 
ATOM     64  F   UNL A   1      41.859  29.545  27.863  1.00  0.00    -0.203 F 
ATOM     65  F   UNL A   1      39.064  24.858  27.800  1.00  0.00    -0.200 F 
ATOM     66  C   UNL A   1      40.459  26.415  26.700  1.00  0.00     0.200 A 
ATOM     67  F   UNL A   1      41.864  27.993  25.646  1.00  0.00    -0.200 F 
ATOM     68  F   UNL A   1      40.487  25.639  25.607  1.00  0.00    -0.200 F 
ENDBRANCH  44  58
BRANCH  45  69
ATOM     69  C   UNL A   1      39.574  33.988  36.966  1.00  0.00     0.064 A 
ATOM     70  C   UNL A   1      38.809  33.567  38.062  1.00  0.00     0.173 A 
ATOM     71  C   UNL A   1      40.190  35.245  37.045  1.00  0.00     0.173 A 
ATOM     72  F   UNL A   1      38.184  32.380  38.026  1.00  0.00    -0.203 F 
ATOM     73  C   UNL A   1      38.645  34.380  39.182  1.00  0.00     0.198 A 
ATOM     74  C   UNL A   1      40.048  36.046  38.175  1.00  0.00     0.198 A 
ATOM     75  F   UNL A   1      40.937  35.693  36.025  1.00  0.00    -0.203 F 
ATOM     76  F   UNL A   1      37.867  33.973  40.194  1.00  0.00    -0.200 F 
ATOM     77  C   UNL A   1      39.268  35.617  39.239  1.00  0.00     0.200 A 
ATOM     78  F   UNL A   1      40.663  37.236  38.234  1.00  0.00    -0.200 F 
ATOM     79  F   UNL A   1      39.110  36.400  40.316  1.00  0.00    -0.200 F 
ENDBRANCH  45  69
BRANCH  57  80
ATOM     80  C   UNL A   1      43.912  28.817  35.247  1.00  0.00     0.064 A 
ATOM     81  C   UNL A   1      43.752  27.716  36.100  1.00  0.00     0.173 A 
ATOM     82  C   UNL A   1      45.211  29.304  35.036  1.00  0.00     0.173 A 
ATOM     83  F   UNL A   1      42.528  27.225  36.345  1.00  0.00    -0.203 F 
ATOM     84  C   UNL A   1      44.848  27.139  36.736  1.00  0.00     0.198 A 
ATOM     85  C   UNL A   1      46.308  28.707  35.651  1.00  0.00     0.198 A 
ATOM     86  F   UNL A   1      45.417  30.352  34.224  1.00  0.00    -0.203 F 
ATOM     87  F   UNL A   1      44.667  26.116  37.582  1.00  0.00    -0.200 F 
ATOM     88  C   UNL A   1      46.124  27.630  36.505  1.00  0.00     0.200 A 
ATOM     89  F   UNL A   1      47.542  29.174  35.417  1.00  0.00    -0.200 F 
ATOM     90  F   UNL A   1      47.179  27.068  37.112  1.00  0.00    -0.200 F 
ENDBRANCH  57  80
ENDBRANCH  31  32
ENDBRANCH  23  26
ENDBRANCH  21  22
ENDBRANCH  20  21
ENDBRANCH   1  20
TORSDOF 15
ENDMDL
