MODEL 1
REMARK VINA RESULT:     -12.0      0.000      0.000
REMARK SMILES Cc1ccc(C(N)=O)c(NCc2ccc(C(=O)NCCCCNC(=O)c3ccc(-c4c5nc(c(-c6c(F)c(F)c(F)c(F)c6F)c6ccc([nH]6)c(-c6c(F)c(F)c(F)c(F)c6F)c6nc(c(-c7c(F)c(F)c(F)c(F)c7F)c7ccc4[nH]7)C=C6)C=C5)cc3)o2)n1
REMARK SMILES IDX 19 1 18 2 16 3 17 4 15 6 12 7 13 8 89 9 14 10 11 11 10 12
REMARK SMILES IDX 9 14 1 15 2 16 3 17 90 18 4 19 5 20 6 21 7 22 8 23 20 26
REMARK SMILES IDX 21 27 22 28 23 29 24 30 25 32 26 33 27 34 88 35 28 36 87 37
REMARK SMILES IDX 29 38 30 39 31 40 81 41 32 42 86 43 80 44 82 45 33 46 85 47
REMARK SMILES IDX 79 48 78 49 34 51 66 52 46 53 65 54 47 55 50 56 64 57 83 58
REMARK SMILES IDX 48 59 49 60 63 62 84 63 51 64 35 65 36 66 44 67 37 68 38 69
REMARK SMILES IDX 42 70 45 71 39 72 40 73 43 74 41 75 67 76 68 77 76 78 69 79
REMARK SMILES IDX 70 80 74 81 77 82 71 83 72 84 75 85 73 86 52 87 53 88 61 89
REMARK SMILES IDX 54 90 55 91 59 92 62 93 56 94 57 95 60 96 58 97
REMARK H PARENT 18 5 10 13 7 24 7 25 23 31 82 50 50 61
REMARK Flexibility Score: inf
ROOT
ATOM      1  C   UNL A   1      38.147  23.590  26.132  1.00  0.00     0.116 C 
ENDROOT
BRANCH   1   2
ATOM      2  N   UNL A   1      37.802  23.384  24.742  1.00  0.00    -0.349 N 
ATOM      3  C   UNL A   1      36.577  23.381  24.110  1.00  0.00     0.286 C 
ATOM      4  O   UNL A   1      36.614  23.258  22.884  1.00  0.00    -0.266 OA
ATOM      5  H   UNL A   1      38.569  23.217  24.148  1.00  0.00     0.163 HD
BRANCH   3   6
ATOM      6  C   UNL A   1      35.338  23.530  24.853  1.00  0.00     0.191 A 
ATOM      7  C   UNL A   1      33.578  22.700  25.919  1.00  0.00     0.124 A 
ATOM      8  C   UNL A   1      33.441  24.069  25.953  1.00  0.00     0.048 A 
ATOM      9  O   UNL A   1      34.720  22.368  25.254  1.00  0.00    -0.454 OA
ATOM     10  C   UNL A   1      34.586  24.599  25.314  1.00  0.00     0.056 A 
BRANCH   7  11
ATOM     11  C   UNL A   1      32.771  21.573  26.473  1.00  0.00     0.190 C 
BRANCH  11  12
ATOM     12  N   UNL A   1      31.877  20.974  25.492  1.00  0.00    -0.362 N 
ATOM     13  H   UNL A   1      31.001  21.388  25.316  1.00  0.00     0.162 HD
BRANCH  12  14
ATOM     14  C   UNL A   1      32.246  19.829  24.803  1.00  0.00     0.139 A 
ATOM     15  C   UNL A   1      33.055  16.368  25.785  1.00  0.00     0.067 C 
ATOM     16  C   UNL A   1      32.810  17.559  24.908  1.00  0.00     0.040 A 
ATOM     17  C   UNL A   1      32.896  17.460  23.528  1.00  0.00     0.024 A 
ATOM     18  N   UNL A   1      32.509  18.722  25.537  1.00  0.00    -0.236 NA
ATOM     19  C   UNL A   1      32.662  18.601  22.771  1.00  0.00     0.019 A 
ATOM     20  C   UNL A   1      32.343  19.809  23.405  1.00  0.00     0.081 A 
BRANCH  20  21
ATOM     21  C   UNL A   1      32.171  21.001  22.532  1.00  0.00     0.252 C 
ATOM     22  N   UNL A   1      31.489  20.844  21.359  1.00  0.00    -0.365 N 
ATOM     23  O   UNL A   1      32.584  22.106  22.866  1.00  0.00    -0.269 OA
ATOM     24  H   UNL A   1      31.160  19.954  21.097  1.00  0.00     0.159 HD
ATOM     25  H   UNL A   1      31.327  21.620  20.777  1.00  0.00     0.159 HD
ENDBRANCH  20  21
ENDBRANCH  12  14
ENDBRANCH  11  12
ENDBRANCH   7  11
ENDBRANCH   3   6
ENDBRANCH   1   2
BRANCH   1  26
ATOM     26  C   UNL A   1      39.393  22.795  26.519  1.00  0.00     0.023 C 
BRANCH  26  27
ATOM     27  C   UNL A   1      39.579  21.498  25.724  1.00  0.00     0.023 C 
BRANCH  27  28
ATOM     28  C   UNL A   1      39.761  20.241  26.570  1.00  0.00     0.116 C 
BRANCH  28  29
ATOM     29  N   UNL A   1      40.772  19.332  26.052  1.00  0.00    -0.352 N 
ATOM     30  C   UNL A   1      42.126  19.542  25.932  1.00  0.00     0.251 C 
ATOM     31  H   UNL A   1      40.445  18.454  25.750  1.00  0.00     0.163 HD
ATOM     32  O   UNL A   1      42.842  18.713  25.387  1.00  0.00    -0.269 OA
BRANCH  30  33
ATOM     33  C   UNL A   1      42.701  20.807  26.432  1.00  0.00     0.039 A 
ATOM     34  C   UNL A   1      43.265  21.700  25.517  1.00  0.00     0.014 A 
ATOM     35  C   UNL A   1      42.641  21.127  27.791  1.00  0.00     0.014 A 
ATOM     36  C   UNL A   1      43.706  22.949  25.956  1.00  0.00     0.010 A 
ATOM     37  C   UNL A   1      43.023  22.394  28.216  1.00  0.00     0.010 A 
ATOM     38  C   UNL A   1      43.552  23.319  27.302  1.00  0.00    -0.014 A 
BRANCH  38  39
ATOM     39  C   UNL A   1      43.934  24.668  27.786  1.00  0.00     0.031 A 
ATOM     40  C   UNL A   1      42.867  25.667  28.129  1.00  0.00     0.074 A 
ATOM     41  C   UNL A   1      45.233  25.021  27.825  1.00  0.00     0.049 A 
ATOM     42  N   UNL A   1      42.984  26.936  28.430  1.00  0.00    -0.248 NA
ATOM     43  C   UNL A   1      41.479  25.182  28.098  1.00  0.00     0.031 C 
ATOM     44  C   UNL A   1      46.358  24.151  27.481  1.00  0.00     0.029 A 
ATOM     45  N   UNL A   1      45.825  26.216  28.152  1.00  0.00    -0.354 N 
ATOM     46  C   UNL A   1      41.688  27.403  28.600  1.00  0.00     0.074 A 
ATOM     47  C   UNL A   1      40.798  26.295  28.326  1.00  0.00     0.031 C 
ATOM     48  C   UNL A   1      47.504  24.837  27.624  1.00  0.00     0.029 A 
ATOM     49  C   UNL A   1      47.193  26.204  28.030  1.00  0.00     0.049 A 
ATOM     50  H   UNL A   1      45.317  27.007  28.446  1.00  0.00     0.167 HD
ATOM     51  C   UNL A   1      41.280  28.641  28.968  1.00  0.00     0.037 A 
ATOM     52  C   UNL A   1      48.092  27.190  28.211  1.00  0.00     0.037 A 
ATOM     53  C   UNL A   1      42.170  29.729  29.270  1.00  0.00     0.049 A 
ATOM     54  C   UNL A   1      47.612  28.555  28.624  1.00  0.00     0.074 A 
ATOM     55  C   UNL A   1      41.857  31.006  29.702  1.00  0.00     0.029 A 
ATOM     56  N   UNL A   1      43.552  29.666  29.175  1.00  0.00    -0.354 N 
ATOM     57  N   UNL A   1      46.387  28.973  28.831  1.00  0.00    -0.248 NA
ATOM     58  C   UNL A   1      48.639  29.585  28.833  1.00  0.00     0.031 C 
ATOM     59  C   UNL A   1      43.049  31.726  29.834  1.00  0.00     0.029 A 
ATOM     60  C   UNL A   1      44.106  30.886  29.529  1.00  0.00     0.049 A 
ATOM     61  H   UNL A   1      44.065  28.873  28.896  1.00  0.00     0.167 HD
ATOM     62  C   UNL A   1      46.497  30.299  29.228  1.00  0.00     0.074 A 
ATOM     63  C   UNL A   1      47.910  30.616  29.238  1.00  0.00     0.031 C 
ATOM     64  C   UNL A   1      45.517  31.174  29.557  1.00  0.00     0.037 A 
BRANCH  51  65
ATOM     65  C   UNL A   1      39.802  28.881  29.068  1.00  0.00     0.064 A 
ATOM     66  C   UNL A   1      39.112  28.722  30.280  1.00  0.00     0.173 A 
ATOM     67  C   UNL A   1      39.073  29.308  27.948  1.00  0.00     0.173 A 
ATOM     68  F   UNL A   1      39.761  28.303  31.376  1.00  0.00    -0.203 F 
ATOM     69  C   UNL A   1      37.742  28.953  30.360  1.00  0.00     0.198 A 
ATOM     70  C   UNL A   1      37.707  29.568  28.040  1.00  0.00     0.198 A 
ATOM     71  F   UNL A   1      39.685  29.481  26.768  1.00  0.00    -0.203 F 
ATOM     72  F   UNL A   1      37.095  28.747  31.515  1.00  0.00    -0.200 F 
ATOM     73  C   UNL A   1      37.043  29.383  29.242  1.00  0.00     0.200 A 
ATOM     74  F   UNL A   1      37.035  29.994  26.961  1.00  0.00    -0.200 F 
ATOM     75  F   UNL A   1      35.724  29.611  29.322  1.00  0.00    -0.200 F 
ENDBRANCH  51  65
BRANCH  52  76
ATOM     76  C   UNL A   1      49.541  26.918  28.026  1.00  0.00     0.064 A 
ATOM     77  C   UNL A   1      50.132  27.021  26.758  1.00  0.00     0.173 A 
ATOM     78  C   UNL A   1      50.361  26.548  29.099  1.00  0.00     0.173 A 
ATOM     79  F   UNL A   1      49.382  27.351  25.696  1.00  0.00    -0.203 F 
ATOM     80  C   UNL A   1      51.483  26.743  26.569  1.00  0.00     0.198 A 
ATOM     81  C   UNL A   1      51.719  26.296  28.915  1.00  0.00     0.198 A 
ATOM     82  F   UNL A   1      49.846  26.440  30.333  1.00  0.00    -0.203 F 
ATOM     83  F   UNL A   1      52.012  26.806  25.339  1.00  0.00    -0.200 F 
ATOM     84  C   UNL A   1      52.278  26.386  27.649  1.00  0.00     0.200 A 
ATOM     85  F   UNL A   1      52.486  25.965  29.961  1.00  0.00    -0.200 F 
ATOM     86  F   UNL A   1      53.579  26.123  27.467  1.00  0.00    -0.200 F 
ENDBRANCH  52  76
BRANCH  64  87
ATOM     87  C   UNL A   1      45.935  32.541  30.012  1.00  0.00     0.064 A 
ATOM     88  C   UNL A   1      46.062  33.610  29.115  1.00  0.00     0.173 A 
ATOM     89  C   UNL A   1      46.154  32.793  31.375  1.00  0.00     0.173 A 
ATOM     90  F   UNL A   1      45.876  33.415  27.801  1.00  0.00    -0.203 F 
ATOM     91  C   UNL A   1      46.412  34.881  29.564  1.00  0.00     0.198 A 
ATOM     92  C   UNL A   1      46.478  34.070  31.823  1.00  0.00     0.198 A 
ATOM     93  F   UNL A   1      46.039  31.804  32.273  1.00  0.00    -0.203 F 
ATOM     94  F   UNL A   1      46.565  35.881  28.685  1.00  0.00    -0.200 F 
ATOM     95  C   UNL A   1      46.611  35.111  30.917  1.00  0.00     0.200 A 
ATOM     96  F   UNL A   1      46.657  34.295  33.132  1.00  0.00    -0.200 F 
ATOM     97  F   UNL A   1      46.936  36.339  31.348  1.00  0.00    -0.200 F 
ENDBRANCH  64  87
ENDBRANCH  38  39
ENDBRANCH  30  33
ENDBRANCH  28  29
ENDBRANCH  27  28
ENDBRANCH  26  27
ENDBRANCH   1  26
TORSDOF 15
ENDMDL
MODEL 2
REMARK VINA RESULT:     -12.0      1.997      3.724
REMARK SMILES Cc1ccc(C(N)=O)c(NCc2ccc(C(=O)NCCCCNC(=O)c3ccc(-c4c5nc(c(-c6c(F)c(F)c(F)c(F)c6F)c6ccc([nH]6)c(-c6c(F)c(F)c(F)c(F)c6F)c6nc(c(-c7c(F)c(F)c(F)c(F)c7F)c7ccc4[nH]7)C=C6)C=C5)cc3)o2)n1
REMARK SMILES IDX 19 1 18 2 16 3 17 4 15 6 12 7 13 8 89 9 14 10 11 11 10 12
REMARK SMILES IDX 9 14 1 15 2 16 3 17 90 18 4 19 5 20 6 21 7 22 8 23 20 26
REMARK SMILES IDX 21 27 22 28 23 29 24 30 25 32 26 33 27 34 88 35 28 36 87 37
REMARK SMILES IDX 29 38 30 39 31 40 81 41 32 42 86 43 80 44 82 45 33 46 85 47
REMARK SMILES IDX 79 48 78 49 34 51 66 52 46 53 65 54 47 55 50 56 64 57 83 58
REMARK SMILES IDX 48 59 49 60 63 62 84 63 51 64 35 65 36 66 44 67 37 68 38 69
REMARK SMILES IDX 42 70 45 71 39 72 40 73 43 74 41 75 67 76 68 77 76 78 69 79
REMARK SMILES IDX 70 80 74 81 77 82 71 83 72 84 75 85 73 86 52 87 53 88 61 89
REMARK SMILES IDX 54 90 55 91 59 92 62 93 56 94 57 95 60 96 58 97
REMARK H PARENT 18 5 10 13 7 24 7 25 23 31 82 50 50 61
REMARK Flexibility Score: inf
ROOT
ATOM      1  C   UNL A   1      35.995  21.416  25.671  1.00  0.00     0.116 C 
ENDROOT
BRANCH   1   2
ATOM      2  N   UNL A   1      34.953  20.444  25.417  1.00  0.00    -0.349 N 
ATOM      3  C   UNL A   1      33.843  20.508  24.604  1.00  0.00     0.286 C 
ATOM      4  O   UNL A   1      33.178  19.472  24.532  1.00  0.00    -0.266 OA
ATOM      5  H   UNL A   1      35.055  19.596  25.906  1.00  0.00     0.163 HD
BRANCH   3   6
ATOM      6  C   UNL A   1      33.502  21.718  23.875  1.00  0.00     0.191 A 
ATOM      7  C   UNL A   1      32.050  23.243  23.177  1.00  0.00     0.124 A 
ATOM      8  C   UNL A   1      33.269  23.596  22.645  1.00  0.00     0.048 A 
ATOM      9  O   UNL A   1      32.183  22.109  23.919  1.00  0.00    -0.454 OA
ATOM     10  C   UNL A   1      34.203  22.650  23.127  1.00  0.00     0.056 A 
BRANCH   7  11
ATOM     11  C   UNL A   1      30.691  23.857  23.125  1.00  0.00     0.190 C 
BRANCH  11  12
ATOM     12  N   UNL A   1      30.266  24.413  24.402  1.00  0.00    -0.362 N 
ATOM     13  H   UNL A   1      29.561  23.961  24.919  1.00  0.00     0.162 HD
BRANCH  12  14
ATOM     14  C   UNL A   1      30.844  25.571  24.898  1.00  0.00     0.139 A 
ATOM     15  C   UNL A   1      30.652  29.144  24.008  1.00  0.00     0.067 C 
ATOM     16  C   UNL A   1      31.043  27.899  24.746  1.00  0.00     0.040 A 
ATOM     17  C   UNL A   1      31.864  27.957  25.861  1.00  0.00     0.024 A 
ATOM     18  N   UNL A   1      30.556  26.731  24.261  1.00  0.00    -0.236 NA
ATOM     19  C   UNL A   1      32.193  26.768  26.499  1.00  0.00     0.019 A 
ATOM     20  C   UNL A   1      31.692  25.552  26.014  1.00  0.00     0.081 A 
BRANCH  20  21
ATOM     21  C   UNL A   1      32.140  24.316  26.709  1.00  0.00     0.252 C 
ATOM     22  N   UNL A   1      33.424  23.896  26.506  1.00  0.00    -0.365 N 
ATOM     23  O   UNL A   1      31.404  23.709  27.479  1.00  0.00    -0.269 OA
ATOM     24  H   UNL A   1      34.011  24.387  25.887  1.00  0.00     0.159 HD
ATOM     25  H   UNL A   1      33.763  23.102  26.979  1.00  0.00     0.159 HD
ENDBRANCH  20  21
ENDBRANCH  12  14
ENDBRANCH  11  12
ENDBRANCH   7  11
ENDBRANCH   3   6
ENDBRANCH   1   2
BRANCH   1  26
ATOM     26  C   UNL A   1      37.163  21.243  24.702  1.00  0.00     0.023 C 
BRANCH  26  27
ATOM     27  C   UNL A   1      38.043  20.022  24.994  1.00  0.00     0.023 C 
BRANCH  27  28
ATOM     28  C   UNL A   1      39.308  20.313  25.796  1.00  0.00     0.116 C 
BRANCH  28  29
ATOM     29  N   UNL A   1      40.225  19.186  25.867  1.00  0.00    -0.352 N 
ATOM     30  C   UNL A   1      41.577  19.200  26.119  1.00  0.00     0.251 C 
ATOM     31  H   UNL A   1      39.826  18.299  25.716  1.00  0.00     0.163 HD
ATOM     32  O   UNL A   1      42.237  18.173  26.054  1.00  0.00    -0.269 OA
BRANCH  30  33
ATOM     33  C   UNL A   1      42.233  20.487  26.429  1.00  0.00     0.039 A 
ATOM     34  C   UNL A   1      42.750  21.250  25.378  1.00  0.00     0.014 A 
ATOM     35  C   UNL A   1      42.295  20.955  27.743  1.00  0.00     0.014 A 
ATOM     36  C   UNL A   1      43.267  22.520  25.638  1.00  0.00     0.010 A 
ATOM     37  C   UNL A   1      42.753  22.244  27.992  1.00  0.00     0.010 A 
ATOM     38  C   UNL A   1      43.236  23.041  26.942  1.00  0.00    -0.014 A 
BRANCH  38  39
ATOM     39  C   UNL A   1      43.702  24.418  27.240  1.00  0.00     0.031 A 
ATOM     40  C   UNL A   1      42.728  25.439  27.754  1.00  0.00     0.074 A 
ATOM     41  C   UNL A   1      44.971  24.769  26.960  1.00  0.00     0.049 A 
ATOM     42  N   UNL A   1      42.895  26.724  27.940  1.00  0.00    -0.248 NA
ATOM     43  C   UNL A   1      41.376  24.956  28.070  1.00  0.00     0.031 C 
ATOM     44  C   UNL A   1      45.999  23.876  26.424  1.00  0.00     0.029 A 
ATOM     45  N   UNL A   1      45.607  25.981  27.068  1.00  0.00    -0.354 N 
ATOM     46  C   UNL A   1      41.666  27.204  28.370  1.00  0.00     0.074 A 
ATOM     47  C   UNL A   1      40.751  26.083  28.377  1.00  0.00     0.031 C 
ATOM     48  C   UNL A   1      47.139  24.567  26.259  1.00  0.00     0.029 A 
ATOM     49  C   UNL A   1      46.911  25.958  26.638  1.00  0.00     0.049 A 
ATOM     50  H   UNL A   1      45.170  26.790  27.419  1.00  0.00     0.167 HD
ATOM     51  C   UNL A   1      41.337  28.463  28.743  1.00  0.00     0.037 A 
ATOM     52  C   UNL A   1      47.816  26.952  26.547  1.00  0.00     0.037 A 
ATOM     53  C   UNL A   1      42.259  29.567  28.765  1.00  0.00     0.049 A 
ATOM     54  C   UNL A   1      47.425  28.341  26.972  1.00  0.00     0.074 A 
ATOM     55  C   UNL A   1      42.037  30.869  29.176  1.00  0.00     0.029 A 
ATOM     56  N   UNL A   1      43.584  29.495  28.362  1.00  0.00    -0.354 N 
ATOM     57  N   UNL A   1      46.275  28.775  27.425  1.00  0.00    -0.248 NA
ATOM     58  C   UNL A   1      48.461  29.381  26.876  1.00  0.00     0.031 C 
ATOM     59  C   UNL A   1      43.218  31.594  28.988  1.00  0.00     0.029 A 
ATOM     60  C   UNL A   1      44.189  30.734  28.503  1.00  0.00     0.049 A 
ATOM     61  H   UNL A   1      44.030  28.684  28.024  1.00  0.00     0.167 HD
ATOM     62  C   UNL A   1      46.456  30.123  27.703  1.00  0.00     0.074 A 
ATOM     63  C   UNL A   1      47.830  30.436  27.371  1.00  0.00     0.031 C 
ATOM     64  C   UNL A   1      45.566  31.019  28.190  1.00  0.00     0.037 A 
BRANCH  51  65
ATOM     65  C   UNL A   1      39.918  28.713  29.162  1.00  0.00     0.064 A 
ATOM     66  C   UNL A   1      38.944  29.133  28.242  1.00  0.00     0.173 A 
ATOM     67  C   UNL A   1      39.519  28.499  30.489  1.00  0.00     0.173 A 
ATOM     68  F   UNL A   1      39.278  29.365  26.964  1.00  0.00    -0.203 F 
ATOM     69  C   UNL A   1      37.630  29.356  28.643  1.00  0.00     0.198 A 
ATOM     70  C   UNL A   1      38.196  28.694  30.880  1.00  0.00     0.198 A 
ATOM     71  F   UNL A   1      40.409  28.092  31.406  1.00  0.00    -0.203 F 
ATOM     72  F   UNL A   1      36.728  29.805  27.759  1.00  0.00    -0.200 F 
ATOM     73  C   UNL A   1      37.255  29.129  29.959  1.00  0.00     0.200 A 
ATOM     74  F   UNL A   1      37.833  28.464  32.150  1.00  0.00    -0.200 F 
ATOM     75  F   UNL A   1      35.988  29.339  30.342  1.00  0.00    -0.200 F 
ENDBRANCH  51  65
BRANCH  52  76
ATOM     76  C   UNL A   1      49.187  26.665  26.054  1.00  0.00     0.064 A 
ATOM     77  C   UNL A   1      50.158  26.122  26.909  1.00  0.00     0.173 A 
ATOM     78  C   UNL A   1      49.560  26.928  24.729  1.00  0.00     0.173 A 
ATOM     79  F   UNL A   1      49.854  25.873  28.192  1.00  0.00    -0.203 F 
ATOM     80  C   UNL A   1      51.453  25.873  26.463  1.00  0.00     0.198 A 
ATOM     81  C   UNL A   1      50.849  26.654  24.275  1.00  0.00     0.198 A 
ATOM     82  F   UNL A   1      48.668  27.442  23.870  1.00  0.00    -0.203 F 
ATOM     83  F   UNL A   1      52.372  25.396  27.313  1.00  0.00    -0.200 F 
ATOM     84  C   UNL A   1      51.797  26.134  25.144  1.00  0.00     0.200 A 
ATOM     85  F   UNL A   1      51.174  26.894  22.998  1.00  0.00    -0.200 F 
ATOM     86  F   UNL A   1      53.042  25.892  24.714  1.00  0.00    -0.200 F 
ENDBRANCH  52  76
BRANCH  64  87
ATOM     87  C   UNL A   1      46.059  32.412  28.451  1.00  0.00     0.064 A 
ATOM     88  C   UNL A   1      45.961  33.422  27.485  1.00  0.00     0.173 A 
ATOM     89  C   UNL A   1      46.584  32.749  29.709  1.00  0.00     0.173 A 
ATOM     90  F   UNL A   1      45.480  33.144  26.264  1.00  0.00    -0.203 F 
ATOM     91  C   UNL A   1      46.388  34.719  27.762  1.00  0.00     0.198 A 
ATOM     92  C   UNL A   1      46.985  34.051  29.990  1.00  0.00     0.198 A 
ATOM     93  F   UNL A   1      46.692  31.819  30.668  1.00  0.00    -0.203 F 
ATOM     94  F   UNL A   1      46.321  35.661  26.812  1.00  0.00    -0.200 F 
ATOM     95  C   UNL A   1      46.891  35.033  29.016  1.00  0.00     0.200 A 
ATOM     96  F   UNL A   1      47.459  34.358  31.206  1.00  0.00    -0.200 F 
ATOM     97  F   UNL A   1      47.291  36.285  29.283  1.00  0.00    -0.200 F 
ENDBRANCH  64  87
ENDBRANCH  38  39
ENDBRANCH  30  33
ENDBRANCH  28  29
ENDBRANCH  27  28
ENDBRANCH  26  27
ENDBRANCH   1  26
TORSDOF 15
ENDMDL
MODEL 3
REMARK VINA RESULT:     -11.9      5.580     10.465
REMARK SMILES Cc1ccc(C(N)=O)c(NCc2ccc(C(=O)NCCCCNC(=O)c3ccc(-c4c5nc(c(-c6c(F)c(F)c(F)c(F)c6F)c6ccc([nH]6)c(-c6c(F)c(F)c(F)c(F)c6F)c6nc(c(-c7c(F)c(F)c(F)c(F)c7F)c7ccc4[nH]7)C=C6)C=C5)cc3)o2)n1
REMARK SMILES IDX 19 1 18 2 16 3 17 4 15 6 12 7 13 8 89 9 14 10 11 11 10 12
REMARK SMILES IDX 9 14 1 15 2 16 3 17 90 18 4 19 5 20 6 21 7 22 8 23 20 26
REMARK SMILES IDX 21 27 22 28 23 29 24 30 25 32 26 33 27 34 88 35 28 36 87 37
REMARK SMILES IDX 29 38 30 39 31 40 81 41 32 42 86 43 80 44 82 45 33 46 85 47
REMARK SMILES IDX 79 48 78 49 34 51 66 52 46 53 65 54 47 55 50 56 64 57 83 58
REMARK SMILES IDX 48 59 49 60 63 62 84 63 51 64 35 65 36 66 44 67 37 68 38 69
REMARK SMILES IDX 42 70 45 71 39 72 40 73 43 74 41 75 67 76 68 77 76 78 69 79
REMARK SMILES IDX 70 80 74 81 77 82 71 83 72 84 75 85 73 86 52 87 53 88 61 89
REMARK SMILES IDX 54 90 55 91 59 92 62 93 56 94 57 95 60 96 58 97
REMARK H PARENT 18 5 10 13 7 24 7 25 23 31 82 50 50 61
REMARK Flexibility Score: inf
ROOT
ATOM      1  C   UNL A   1      33.005  29.627  26.170  1.00  0.00     0.116 C 
ENDROOT
BRANCH   1   2
ATOM      2  N   UNL A   1      33.562  29.003  24.989  1.00  0.00    -0.349 N 
ATOM      3  C   UNL A   1      33.297  27.783  24.407  1.00  0.00     0.286 C 
ATOM      4  O   UNL A   1      33.881  27.565  23.343  1.00  0.00    -0.266 OA
ATOM      5  H   UNL A   1      34.243  29.540  24.523  1.00  0.00     0.163 HD
BRANCH   3   6
ATOM      6  C   UNL A   1      32.378  26.835  25.013  1.00  0.00     0.191 A 
ATOM      7  C   UNL A   1      31.939  24.959  26.112  1.00  0.00     0.124 A 
ATOM      8  C   UNL A   1      30.722  25.540  25.836  1.00  0.00     0.048 A 
ATOM      9  O   UNL A   1      32.942  25.734  25.617  1.00  0.00    -0.454 OA
ATOM     10  C   UNL A   1      31.004  26.758  25.176  1.00  0.00     0.056 A 
BRANCH   7  11
ATOM     11  C   UNL A   1      32.343  23.722  26.845  1.00  0.00     0.190 C 
BRANCH  11  12
ATOM     12  N   UNL A   1      32.488  22.564  25.973  1.00  0.00    -0.362 N 
ATOM     13  H   UNL A   1      31.684  22.109  25.632  1.00  0.00     0.162 HD
BRANCH  12  14
ATOM     14  C   UNL A   1      33.744  22.098  25.618  1.00  0.00     0.139 A 
ATOM     15  C   UNL A   1      37.044  23.668  25.135  1.00  0.00     0.067 C 
ATOM     16  C   UNL A   1      35.995  22.601  25.217  1.00  0.00     0.040 A 
ATOM     17  C   UNL A   1      36.313  21.268  25.010  1.00  0.00     0.024 A 
ATOM     18  N   UNL A   1      34.734  23.013  25.498  1.00  0.00    -0.236 NA
ATOM     19  C   UNL A   1      35.295  20.327  25.096  1.00  0.00     0.019 A 
ATOM     20  C   UNL A   1      33.987  20.736  25.393  1.00  0.00     0.081 A 
BRANCH  20  21
ATOM     21  C   UNL A   1      32.939  19.680  25.404  1.00  0.00     0.252 C 
ATOM     22  N   UNL A   1      32.903  18.824  26.467  1.00  0.00    -0.365 N 
ATOM     23  O   UNL A   1      32.100  19.600  24.514  1.00  0.00    -0.269 OA
ATOM     24  H   UNL A   1      33.580  18.894  27.179  1.00  0.00     0.159 HD
ATOM     25  H   UNL A   1      32.200  18.137  26.523  1.00  0.00     0.159 HD
ENDBRANCH  20  21
ENDBRANCH  12  14
ENDBRANCH  11  12
ENDBRANCH   7  11
ENDBRANCH   3   6
ENDBRANCH   1   2
BRANCH   1  26
ATOM     26  C   UNL A   1      31.856  30.568  25.811  1.00  0.00     0.023 C 
BRANCH  26  27
ATOM     27  C   UNL A   1      31.569  31.637  26.872  1.00  0.00     0.023 C 
BRANCH  27  28
ATOM     28  C   UNL A   1      32.765  32.502  27.261  1.00  0.00     0.116 C 
BRANCH  28  29
ATOM     29  N   UNL A   1      32.418  33.888  27.531  1.00  0.00    -0.352 N 
ATOM     30  C   UNL A   1      32.994  34.751  28.433  1.00  0.00     0.251 C 
ATOM     31  H   UNL A   1      31.676  34.256  26.998  1.00  0.00     0.163 HD
ATOM     32  O   UNL A   1      32.529  35.868  28.617  1.00  0.00    -0.269 OA
BRANCH  30  33
ATOM     33  C   UNL A   1      34.160  34.293  29.216  1.00  0.00     0.039 A 
ATOM     34  C   UNL A   1      33.942  33.551  30.379  1.00  0.00     0.014 A 
ATOM     35  C   UNL A   1      35.459  34.560  28.777  1.00  0.00     0.014 A 
ATOM     36  C   UNL A   1      35.031  33.011  31.066  1.00  0.00     0.010 A 
ATOM     37  C   UNL A   1      36.538  33.971  29.427  1.00  0.00     0.010 A 
ATOM     38  C   UNL A   1      36.333  33.185  30.572  1.00  0.00    -0.014 A 
BRANCH  38  39
ATOM     39  C   UNL A   1      37.505  32.557  31.231  1.00  0.00     0.031 A 
ATOM     40  C   UNL A   1      38.202  31.404  30.570  1.00  0.00     0.074 A 
ATOM     41  C   UNL A   1      37.877  32.963  32.460  1.00  0.00     0.049 A 
ATOM     42  N   UNL A   1      39.147  30.627  31.037  1.00  0.00    -0.248 NA
ATOM     43  C   UNL A   1      37.755  31.056  29.212  1.00  0.00     0.031 C 
ATOM     44  C   UNL A   1      37.254  34.048  33.219  1.00  0.00     0.029 A 
ATOM     45  N   UNL A   1      38.859  32.493  33.296  1.00  0.00    -0.354 N 
ATOM     46  C   UNL A   1      39.388  29.689  30.043  1.00  0.00     0.074 A 
ATOM     47  C   UNL A   1      38.463  29.964  28.965  1.00  0.00     0.031 C 
ATOM     48  C   UNL A   1      37.875  34.167  34.405  1.00  0.00     0.029 A 
ATOM     49  C   UNL A   1      38.910  33.143  34.505  1.00  0.00     0.049 A 
ATOM     50  H   UNL A   1      39.470  31.759  33.053  1.00  0.00     0.167 HD
ATOM     51  C   UNL A   1      40.311  28.698  30.026  1.00  0.00     0.037 A 
ATOM     52  C   UNL A   1      39.694  32.926  35.578  1.00  0.00     0.037 A 
ATOM     53  C   UNL A   1      41.250  28.449  31.086  1.00  0.00     0.049 A 
ATOM     54  C   UNL A   1      40.714  31.821  35.531  1.00  0.00     0.074 A 
ATOM     55  C   UNL A   1      42.258  27.503  31.142  1.00  0.00     0.029 A 
ATOM     56  N   UNL A   1      41.297  29.156  32.279  1.00  0.00    -0.354 N 
ATOM     57  N   UNL A   1      40.968  30.971  34.566  1.00  0.00    -0.248 NA
ATOM     58  C   UNL A   1      41.560  31.647  36.721  1.00  0.00     0.031 C 
ATOM     59  C   UNL A   1      42.893  27.615  32.384  1.00  0.00     0.029 A 
ATOM     60  C   UNL A   1      42.311  28.659  33.082  1.00  0.00     0.049 A 
ATOM     61  H   UNL A   1      40.699  29.900  32.520  1.00  0.00     0.167 HD
ATOM     62  C   UNL A   1      42.023  30.187  35.015  1.00  0.00     0.074 A 
ATOM     63  C   UNL A   1      42.366  30.666  36.338  1.00  0.00     0.031 C 
ATOM     64  C   UNL A   1      42.653  29.166  34.387  1.00  0.00     0.037 A 
BRANCH  51  65
ATOM     65  C   UNL A   1      40.352  27.811  28.817  1.00  0.00     0.064 A 
ATOM     66  C   UNL A   1      41.109  28.147  27.683  1.00  0.00     0.173 A 
ATOM     67  C   UNL A   1      39.654  26.594  28.802  1.00  0.00     0.173 A 
ATOM     68  F   UNL A   1      41.783  29.306  27.642  1.00  0.00    -0.203 F 
ATOM     69  C   UNL A   1      41.141  27.312  26.570  1.00  0.00     0.198 A 
ATOM     70  C   UNL A   1      39.713  25.747  27.698  1.00  0.00     0.198 A 
ATOM     71  F   UNL A   1      38.920  26.223  29.862  1.00  0.00    -0.203 F 
ATOM     72  F   UNL A   1      41.830  27.678  25.480  1.00  0.00    -0.200 F 
ATOM     73  C   UNL A   1      40.450  26.110  26.582  1.00  0.00     0.200 A 
ATOM     74  F   UNL A   1      39.054  24.580  27.715  1.00  0.00    -0.200 F 
ATOM     75  F   UNL A   1      40.487  25.304  25.511  1.00  0.00    -0.200 F 
ENDBRANCH  51  65
BRANCH  52  76
ATOM     76  C   UNL A   1      39.561  33.787  36.781  1.00  0.00     0.064 A 
ATOM     77  C   UNL A   1      38.749  33.396  37.856  1.00  0.00     0.173 A 
ATOM     78  C   UNL A   1      40.233  35.012  36.884  1.00  0.00     0.173 A 
ATOM     79  F   UNL A   1      38.069  32.242  37.794  1.00  0.00    -0.203 F 
ATOM     80  C   UNL A   1      38.598  34.208  38.977  1.00  0.00     0.198 A 
ATOM     81  C   UNL A   1      40.103  35.812  38.018  1.00  0.00     0.198 A 
ATOM     82  F   UNL A   1      41.027  35.429  35.886  1.00  0.00    -0.203 F 
ATOM     83  F   UNL A   1      37.781  33.830  39.970  1.00  0.00    -0.200 F 
ATOM     84  C   UNL A   1      39.280  35.413  39.060  1.00  0.00     0.200 A 
ATOM     85  F   UNL A   1      40.774  36.969  38.101  1.00  0.00    -0.200 F 
ATOM     86  F   UNL A   1      39.137  36.193  40.141  1.00  0.00    -0.200 F 
ENDBRANCH  52  76
BRANCH  64  87
ATOM     87  C   UNL A   1      43.814  28.530  35.093  1.00  0.00     0.064 A 
ATOM     88  C   UNL A   1      43.652  27.409  35.918  1.00  0.00     0.173 A 
ATOM     89  C   UNL A   1      45.114  29.020  34.892  1.00  0.00     0.173 A 
ATOM     90  F   UNL A   1      42.427  26.914  36.150  1.00  0.00    -0.203 F 
ATOM     91  C   UNL A   1      44.748  26.809  36.532  1.00  0.00     0.198 A 
ATOM     92  C   UNL A   1      46.210  28.403  35.487  1.00  0.00     0.198 A 
ATOM     93  F   UNL A   1      45.321  30.087  34.107  1.00  0.00    -0.203 F 
ATOM     94  F   UNL A   1      44.567  25.762  37.346  1.00  0.00    -0.200 F 
ATOM     95  C   UNL A   1      46.026  27.302  36.309  1.00  0.00     0.200 A 
ATOM     96  F   UNL A   1      47.446  28.871  35.261  1.00  0.00    -0.200 F 
ATOM     97  F   UNL A   1      47.081  26.715  36.892  1.00  0.00    -0.200 F 
ENDBRANCH  64  87
ENDBRANCH  38  39
ENDBRANCH  30  33
ENDBRANCH  28  29
ENDBRANCH  27  28
ENDBRANCH  26  27
ENDBRANCH   1  26
TORSDOF 15
ENDMDL
