MODEL 1
REMARK VINA RESULT:     -13.0      0.000      0.000
REMARK SMILES O=C(Cc1ccn[nH]1)Nc1sc2c(c1C(=O)NCCCCNC(=O)c1ccc(-c3c4nc(c(-c5c(F)c(F)c(F)c(F)c5F)c5ccc([nH]5)c(-c5c(F)c(F)c(F)c(F)c5F)c5nc(c(-c6c(F)c(F)c(F)c(F)c6F)c6ccc3[nH]6)C=C5)C=C4)cc1)CCC2
REMARK SMILES IDX 19 1 18 2 17 3 15 4 16 5 14 7 10 8 11 9 12 10 13 11 90 12
REMARK SMILES IDX 88 13 89 14 9 15 1 16 2 17 3 19 4 20 5 21 8 22 6 23 7 24
REMARK SMILES IDX 20 26 21 27 22 28 23 29 24 31 25 32 26 33 87 34 27 35 86 36
REMARK SMILES IDX 28 37 29 38 30 39 80 40 31 41 85 42 79 43 81 44 32 45 84 46
REMARK SMILES IDX 78 47 77 48 33 50 65 51 45 52 64 53 46 54 49 55 63 56 82 57
REMARK SMILES IDX 47 58 48 59 62 61 83 62 50 63 34 64 35 65 43 66 36 67 37 68
REMARK SMILES IDX 41 69 44 70 38 71 39 72 42 73 40 74 66 75 67 76 75 77 68 78
REMARK SMILES IDX 69 79 73 80 76 81 70 82 71 83 74 84 72 85 51 86 52 87 60 88
REMARK SMILES IDX 53 89 54 90 58 91 61 92 55 93 56 94 59 95 57 96
REMARK H PARENT 17 6 9 18 8 25 22 30 81 49 49 60
REMARK Flexibility Score: inf
ROOT
ATOM      1  C   UNL A   1      36.522  20.760  25.134  1.00  0.00     0.023 C 
ENDROOT
BRANCH   1   2
ATOM      2  C   UNL A   1      36.551  22.240  24.757  1.00  0.00     0.116 C 
BRANCH   2   3
ATOM      3  N   UNL A   1      35.668  22.576  23.674  1.00  0.00    -0.352 N 
ATOM      4  C   UNL A   1      34.591  23.413  23.551  1.00  0.00     0.254 C 
ATOM      5  O   UNL A   1      34.354  23.712  22.372  1.00  0.00    -0.269 OA
ATOM      6  H   UNL A   1      35.884  22.102  22.839  1.00  0.00     0.163 HD
BRANCH   4   7
ATOM      7  C   UNL A   1      33.805  23.993  24.662  1.00  0.00     0.078 A 
ATOM      8  C   UNL A   1      33.128  23.132  25.539  1.00  0.00     0.108 A 
ATOM      9  S   UNL A   1      31.939  23.872  26.515  1.00  0.00    -0.122 S 
ATOM     10  C   UNL A   1      32.516  25.363  26.063  1.00  0.00     0.011 A 
ATOM     11  C   UNL A   1      33.494  25.336  25.095  1.00  0.00    -0.019 A 
ATOM     12  C   UNL A   1      32.113  26.711  26.529  1.00  0.00     0.047 C 
ATOM     13  C   UNL A   1      33.870  26.745  24.782  1.00  0.00     0.038 C 
ATOM     14  C   UNL A   1      33.267  27.565  25.961  1.00  0.00     0.010 C 
BRANCH   8  15
ATOM     15  N   UNL A   1      33.206  21.781  25.791  1.00  0.00    -0.317 N 
ATOM     16  O   UNL A   1      32.083  21.097  23.868  1.00  0.00    -0.274 OA
ATOM     17  C   UNL A   1      32.617  20.851  24.948  1.00  0.00     0.230 C 
ATOM     18  H   UNL A   1      33.691  21.469  26.588  1.00  0.00     0.170 HD
BRANCH  17  19
ATOM     19  C   UNL A   1      32.742  19.426  25.464  1.00  0.00     0.155 C 
BRANCH  19  20
ATOM     20  C   UNL A   1      33.190  18.467  24.408  1.00  0.00     0.044 A 
ATOM     21  C   UNL A   1      34.344  17.737  24.201  1.00  0.00     0.045 A 
ATOM     22  N   UNL A   1      32.377  18.159  23.347  1.00  0.00    -0.282 N 
ATOM     23  C   UNL A   1      34.103  16.994  23.033  1.00  0.00     0.135 A 
ATOM     24  N   UNL A   1      32.899  17.244  22.516  1.00  0.00    -0.184 NA
ATOM     25  H   UNL A   1      31.494  18.572  23.207  1.00  0.00     0.190 HD
ENDBRANCH  19  20
ENDBRANCH  17  19
ENDBRANCH   8  15
ENDBRANCH   4   7
ENDBRANCH   2   3
ENDBRANCH   1   2
BRANCH   1  26
ATOM     26  C   UNL A   1      37.787  19.960  24.797  1.00  0.00     0.023 C 
BRANCH  26  27
ATOM     27  C   UNL A   1      39.020  20.299  25.633  1.00  0.00     0.116 C 
BRANCH  27  28
ATOM     28  N   UNL A   1      39.980  19.197  25.753  1.00  0.00    -0.352 N 
ATOM     29  C   UNL A   1      41.351  19.277  25.969  1.00  0.00     0.251 C 
ATOM     30  H   UNL A   1      39.609  18.289  25.669  1.00  0.00     0.163 HD
ATOM     31  O   UNL A   1      42.103  18.362  25.704  1.00  0.00    -0.269 OA
BRANCH  29  32
ATOM     32  C   UNL A   1      41.863  20.516  26.576  1.00  0.00     0.039 A 
ATOM     33  C   UNL A   1      42.504  21.513  25.838  1.00  0.00     0.014 A 
ATOM     34  C   UNL A   1      41.567  20.695  27.919  1.00  0.00     0.014 A 
ATOM     35  C   UNL A   1      42.760  22.739  26.452  1.00  0.00     0.010 A 
ATOM     36  C   UNL A   1      41.625  21.953  28.446  1.00  0.00     0.010 A 
ATOM     37  C   UNL A   1      42.296  22.961  27.757  1.00  0.00    -0.014 A 
BRANCH  37  38
ATOM     38  C   UNL A   1      42.463  24.243  28.435  1.00  0.00     0.031 A 
ATOM     39  C   UNL A   1      41.413  25.278  28.195  1.00  0.00     0.074 A 
ATOM     40  C   UNL A   1      43.381  24.395  29.417  1.00  0.00     0.049 A 
ATOM     41  N   UNL A   1      41.567  26.471  27.720  1.00  0.00    -0.248 NA
ATOM     42  C   UNL A   1      40.009  24.928  28.465  1.00  0.00     0.031 C 
ATOM     43  C   UNL A   1      44.288  23.393  29.999  1.00  0.00     0.029 A 
ATOM     44  N   UNL A   1      43.605  25.478  30.205  1.00  0.00    -0.354 N 
ATOM     45  C   UNL A   1      40.315  27.084  27.765  1.00  0.00     0.074 A 
ATOM     46  C   UNL A   1      39.374  26.051  28.118  1.00  0.00     0.031 C 
ATOM     47  C   UNL A   1      44.750  23.830  31.188  1.00  0.00     0.029 A 
ATOM     48  C   UNL A   1      44.349  25.212  31.345  1.00  0.00     0.049 A 
ATOM     49  H   UNL A   1      43.269  26.376  29.985  1.00  0.00     0.167 HD
ATOM     50  C   UNL A   1      40.173  28.438  27.688  1.00  0.00     0.037 A 
ATOM     51  C   UNL A   1      44.601  26.063  32.365  1.00  0.00     0.037 A 
ATOM     52  C   UNL A   1      41.371  29.065  27.197  1.00  0.00     0.049 A 
ATOM     53  C   UNL A   1      44.383  27.437  31.850  1.00  0.00     0.074 A 
ATOM     54  C   UNL A   1      42.085  29.001  26.017  1.00  0.00     0.029 A 
ATOM     55  N   UNL A   1      42.224  29.639  28.108  1.00  0.00    -0.354 N 
ATOM     56  N   UNL A   1      45.124  27.986  30.926  1.00  0.00    -0.248 NA
ATOM     57  C   UNL A   1      43.057  28.014  32.015  1.00  0.00     0.031 C 
ATOM     58  C   UNL A   1      43.454  29.041  26.417  1.00  0.00     0.029 A 
ATOM     59  C   UNL A   1      43.486  29.193  27.803  1.00  0.00     0.049 A 
ATOM     60  H   UNL A   1      41.979  30.251  28.839  1.00  0.00     0.167 HD
ATOM     61  C   UNL A   1      44.231  28.676  30.120  1.00  0.00     0.074 A 
ATOM     62  C   UNL A   1      42.988  28.727  30.887  1.00  0.00     0.031 C 
ATOM     63  C   UNL A   1      44.491  28.892  28.796  1.00  0.00     0.037 A 
BRANCH  50  64
ATOM     64  C   UNL A   1      39.080  29.237  28.351  1.00  0.00     0.064 A 
ATOM     65  C   UNL A   1      38.873  29.117  29.741  1.00  0.00     0.173 A 
ATOM     66  C   UNL A   1      38.045  29.870  27.633  1.00  0.00     0.173 A 
ATOM     67  F   UNL A   1      39.787  28.516  30.519  1.00  0.00    -0.203 F 
ATOM     68  C   UNL A   1      37.685  29.530  30.350  1.00  0.00     0.198 A 
ATOM     69  C   UNL A   1      36.882  30.327  28.252  1.00  0.00     0.198 A 
ATOM     70  F   UNL A   1      38.068  29.966  26.298  1.00  0.00    -0.203 F 
ATOM     71  F   UNL A   1      37.481  29.283  31.651  1.00  0.00    -0.200 F 
ATOM     72  C   UNL A   1      36.686  30.128  29.603  1.00  0.00     0.200 A 
ATOM     73  F   UNL A   1      35.917  30.888  27.509  1.00  0.00    -0.200 F 
ATOM     74  F   UNL A   1      35.521  30.466  30.170  1.00  0.00    -0.200 F 
ENDBRANCH  50  64
BRANCH  51  75
ATOM     75  C   UNL A   1      44.675  25.724  33.802  1.00  0.00     0.064 A 
ATOM     76  C   UNL A   1      43.520  25.548  34.573  1.00  0.00     0.173 A 
ATOM     77  C   UNL A   1      45.893  25.317  34.386  1.00  0.00     0.173 A 
ATOM     78  F   UNL A   1      42.320  25.871  34.070  1.00  0.00    -0.203 F 
ATOM     79  C   UNL A   1      43.576  24.983  35.851  1.00  0.00     0.198 A 
ATOM     80  C   UNL A   1      45.949  24.756  35.661  1.00  0.00     0.198 A 
ATOM     81  F   UNL A   1      47.039  25.373  33.690  1.00  0.00    -0.203 F 
ATOM     82  F   UNL A   1      42.446  24.782  36.544  1.00  0.00    -0.200 F 
ATOM     83  C   UNL A   1      44.788  24.579  36.390  1.00  0.00     0.200 A 
ATOM     84  F   UNL A   1      47.122  24.336  36.153  1.00  0.00    -0.200 F 
ATOM     85  F   UNL A   1      44.833  23.985  37.590  1.00  0.00    -0.200 F 
ENDBRANCH  51  75
BRANCH  63  86
ATOM     86  C   UNL A   1      45.864  28.552  28.283  1.00  0.00     0.064 A 
ATOM     87  C   UNL A   1      46.209  27.307  27.729  1.00  0.00     0.173 A 
ATOM     88  C   UNL A   1      46.818  29.573  28.198  1.00  0.00     0.173 A 
ATOM     89  F   UNL A   1      45.320  26.311  27.669  1.00  0.00    -0.203 F 
ATOM     90  C   UNL A   1      47.461  27.081  27.162  1.00  0.00     0.198 A 
ATOM     91  C   UNL A   1      48.058  29.358  27.599  1.00  0.00     0.198 A 
ATOM     92  F   UNL A   1      46.527  30.803  28.651  1.00  0.00    -0.203 F 
ATOM     93  F   UNL A   1      47.760  25.879  26.648  1.00  0.00    -0.200 F 
ATOM     94  C   UNL A   1      48.383  28.110  27.091  1.00  0.00     0.200 A 
ATOM     95  F   UNL A   1      48.928  30.370  27.487  1.00  0.00    -0.200 F 
ATOM     96  F   UNL A   1      49.573  27.909  26.507  1.00  0.00    -0.200 F 
ENDBRANCH  63  86
ENDBRANCH  37  38
ENDBRANCH  29  32
ENDBRANCH  27  28
ENDBRANCH  26  27
ENDBRANCH   1  26
TORSDOF 14
ENDMDL
MODEL 2
REMARK VINA RESULT:     -12.9      2.757      7.250
REMARK SMILES O=C(Cc1ccn[nH]1)Nc1sc2c(c1C(=O)NCCCCNC(=O)c1ccc(-c3c4nc(c(-c5c(F)c(F)c(F)c(F)c5F)c5ccc([nH]5)c(-c5c(F)c(F)c(F)c(F)c5F)c5nc(c(-c6c(F)c(F)c(F)c(F)c6F)c6ccc3[nH]6)C=C5)C=C4)cc1)CCC2
REMARK SMILES IDX 19 1 18 2 17 3 15 4 16 5 14 7 10 8 11 9 12 10 13 11 90 12
REMARK SMILES IDX 88 13 89 14 9 15 1 16 2 17 3 19 4 20 5 21 8 22 6 23 7 24
REMARK SMILES IDX 20 26 21 27 22 28 23 29 24 31 25 32 26 33 87 34 27 35 86 36
REMARK SMILES IDX 28 37 29 38 30 39 80 40 31 41 85 42 79 43 81 44 32 45 84 46
REMARK SMILES IDX 78 47 77 48 33 50 65 51 45 52 64 53 46 54 49 55 63 56 82 57
REMARK SMILES IDX 47 58 48 59 62 61 83 62 50 63 34 64 35 65 43 66 36 67 37 68
REMARK SMILES IDX 41 69 44 70 38 71 39 72 42 73 40 74 66 75 67 76 75 77 68 78
REMARK SMILES IDX 69 79 73 80 76 81 70 82 71 83 74 84 72 85 51 86 52 87 60 88
REMARK SMILES IDX 53 89 54 90 58 91 61 92 55 93 56 94 59 95 57 96
REMARK H PARENT 17 6 9 18 8 25 22 30 81 49 49 60
REMARK Flexibility Score: inf
ROOT
ATOM      1  C   UNL A   1      37.884  23.329  25.826  1.00  0.00     0.023 C 
ENDROOT
BRANCH   1   2
ATOM      2  C   UNL A   1      36.373  23.387  25.612  1.00  0.00     0.116 C 
BRANCH   2   3
ATOM      3  N   UNL A   1      35.612  23.123  26.803  1.00  0.00    -0.352 N 
ATOM      4  C   UNL A   1      34.273  23.042  27.076  1.00  0.00     0.254 C 
ATOM      5  O   UNL A   1      34.038  22.418  28.121  1.00  0.00    -0.269 OA
ATOM      6  H   UNL A   1      36.176  22.969  27.594  1.00  0.00     0.163 HD
BRANCH   4   7
ATOM      7  C   UNL A   1      33.175  23.550  26.223  1.00  0.00     0.078 A 
ATOM      8  C   UNL A   1      32.332  22.630  25.582  1.00  0.00     0.108 A 
ATOM      9  S   UNL A   1      31.377  23.273  24.320  1.00  0.00    -0.122 S 
ATOM     10  C   UNL A   1      31.791  24.807  24.808  1.00  0.00     0.011 A 
ATOM     11  C   UNL A   1      32.731  24.861  25.811  1.00  0.00    -0.019 A 
ATOM     12  C   UNL A   1      31.315  26.116  24.302  1.00  0.00     0.047 C 
ATOM     13  C   UNL A   1      33.011  26.297  26.100  1.00  0.00     0.038 C 
ATOM     14  C   UNL A   1      31.837  27.054  25.412  1.00  0.00     0.010 C 
BRANCH   8  15
ATOM     15  N   UNL A   1      32.098  21.284  25.744  1.00  0.00    -0.317 N 
ATOM     16  O   UNL A   1      34.029  20.558  24.661  1.00  0.00    -0.274 OA
ATOM     17  C   UNL A   1      32.953  20.330  25.211  1.00  0.00     0.230 C 
ATOM     18  H   UNL A   1      31.306  20.991  26.249  1.00  0.00     0.170 HD
BRANCH  17  19
ATOM     19  C   UNL A   1      32.457  18.909  25.425  1.00  0.00     0.155 C 
BRANCH  19  20
ATOM     20  C   UNL A   1      33.131  17.921  24.528  1.00  0.00     0.044 A 
ATOM     21  C   UNL A   1      33.926  16.813  24.747  1.00  0.00     0.045 A 
ATOM     22  N   UNL A   1      33.027  18.024  23.164  1.00  0.00    -0.282 N 
ATOM     23  C   UNL A   1      34.198  16.300  23.468  1.00  0.00     0.135 A 
ATOM     24  N   UNL A   1      33.643  17.032  22.502  1.00  0.00    -0.184 NA
ATOM     25  H   UNL A   1      32.548  18.756  22.714  1.00  0.00     0.190 HD
ENDBRANCH  19  20
ENDBRANCH  17  19
ENDBRANCH   8  15
ENDBRANCH   4   7
ENDBRANCH   2   3
ENDBRANCH   1   2
BRANCH   1  26
ATOM     26  C   UNL A   1      38.521  21.937  25.724  1.00  0.00     0.023 C 
BRANCH  26  27
ATOM     27  C   UNL A   1      39.660  21.663  26.705  1.00  0.00     0.116 C 
BRANCH  27  28
ATOM     28  N   UNL A   1      40.989  21.650  26.086  1.00  0.00    -0.352 N 
ATOM     29  C   UNL A   1      41.867  22.715  25.921  1.00  0.00     0.251 C 
ATOM     30  H   UNL A   1      41.298  20.780  25.744  1.00  0.00     0.163 HD
ATOM     31  O   UNL A   1      42.764  22.695  25.103  1.00  0.00    -0.269 OA
BRANCH  29  32
ATOM     32  C   UNL A   1      41.691  23.872  26.814  1.00  0.00     0.039 A 
ATOM     33  C   UNL A   1      42.288  23.955  28.073  1.00  0.00     0.014 A 
ATOM     34  C   UNL A   1      40.985  24.940  26.282  1.00  0.00     0.014 A 
ATOM     35  C   UNL A   1      42.243  25.172  28.754  1.00  0.00     0.010 A 
ATOM     36  C   UNL A   1      41.127  26.174  26.849  1.00  0.00     0.010 A 
ATOM     37  C   UNL A   1      41.676  26.289  28.124  1.00  0.00    -0.014 A 
BRANCH  37  38
ATOM     38  C   UNL A   1      41.661  27.609  28.746  1.00  0.00     0.031 A 
ATOM     39  C   UNL A   1      42.740  28.561  28.343  1.00  0.00     0.074 A 
ATOM     40  C   UNL A   1      40.590  28.030  29.457  1.00  0.00     0.049 A 
ATOM     41  N   UNL A   1      43.608  29.147  29.103  1.00  0.00    -0.248 NA
ATOM     42  C   UNL A   1      42.913  28.858  26.912  1.00  0.00     0.031 C 
ATOM     43  C   UNL A   1      39.310  27.343  29.695  1.00  0.00     0.029 A 
ATOM     44  N   UNL A   1      40.373  29.247  30.020  1.00  0.00    -0.354 N 
ATOM     45  C   UNL A   1      44.343  30.002  28.282  1.00  0.00     0.074 A 
ATOM     46  C   UNL A   1      43.954  29.695  26.928  1.00  0.00     0.031 C 
ATOM     47  C   UNL A   1      38.383  28.233  30.104  1.00  0.00     0.029 A 
ATOM     48  C   UNL A   1      39.051  29.491  30.361  1.00  0.00     0.049 A 
ATOM     49  H   UNL A   1      41.093  29.899  30.175  1.00  0.00     0.167 HD
ATOM     50  C   UNL A   1      45.084  31.028  28.791  1.00  0.00     0.037 A 
ATOM     51  C   UNL A   1      38.532  30.658  30.804  1.00  0.00     0.037 A 
ATOM     52  C   UNL A   1      45.295  30.872  30.206  1.00  0.00     0.049 A 
ATOM     53  C   UNL A   1      39.660  31.467  31.328  1.00  0.00     0.074 A 
ATOM     54  C   UNL A   1      45.927  29.929  30.993  1.00  0.00     0.029 A 
ATOM     55  N   UNL A   1      44.500  31.590  31.064  1.00  0.00    -0.354 N 
ATOM     56  N   UNL A   1      40.359  31.132  32.379  1.00  0.00    -0.248 NA
ATOM     57  C   UNL A   1      40.313  32.385  30.407  1.00  0.00     0.031 C 
ATOM     58  C   UNL A   1      45.092  29.796  32.141  1.00  0.00     0.029 A 
ATOM     59  C   UNL A   1      44.044  30.708  32.013  1.00  0.00     0.049 A 
ATOM     60  H   UNL A   1      44.296  32.552  31.011  1.00  0.00     0.167 HD
ATOM     61  C   UNL A   1      41.669  31.447  32.047  1.00  0.00     0.074 A 
ATOM     62  C   UNL A   1      41.567  32.292  30.859  1.00  0.00     0.031 C 
ATOM     63  C   UNL A   1      42.722  30.766  32.590  1.00  0.00     0.037 A 
BRANCH  50  64
ATOM     64  C   UNL A   1      45.351  32.337  28.094  1.00  0.00     0.064 A 
ATOM     65  C   UNL A   1      44.281  33.219  27.831  1.00  0.00     0.173 A 
ATOM     66  C   UNL A   1      46.552  32.614  27.409  1.00  0.00     0.173 A 
ATOM     67  F   UNL A   1      43.087  33.038  28.416  1.00  0.00    -0.203 F 
ATOM     68  C   UNL A   1      44.387  34.250  26.894  1.00  0.00     0.198 A 
ATOM     69  C   UNL A   1      46.669  33.676  26.513  1.00  0.00     0.198 A 
ATOM     70  F   UNL A   1      47.615  31.806  27.493  1.00  0.00    -0.203 F 
ATOM     71  F   UNL A   1      43.309  34.984  26.585  1.00  0.00    -0.200 F 
ATOM     72  C   UNL A   1      45.579  34.474  26.229  1.00  0.00     0.200 A 
ATOM     73  F   UNL A   1      47.827  33.866  25.864  1.00  0.00    -0.200 F 
ATOM     74  F   UNL A   1      45.666  35.418  25.285  1.00  0.00    -0.200 F 
ENDBRANCH  50  64
BRANCH  51  75
ATOM     75  C   UNL A   1      37.202  31.215  30.478  1.00  0.00     0.064 A 
ATOM     76  C   UNL A   1      36.276  31.533  31.478  1.00  0.00     0.173 A 
ATOM     77  C   UNL A   1      36.914  31.682  29.178  1.00  0.00     0.173 A 
ATOM     78  F   UNL A   1      36.503  31.162  32.747  1.00  0.00    -0.203 F 
ATOM     79  C   UNL A   1      35.133  32.289  31.200  1.00  0.00     0.198 A 
ATOM     80  C   UNL A   1      35.773  32.433  28.901  1.00  0.00     0.198 A 
ATOM     81  F   UNL A   1      37.783  31.494  28.174  1.00  0.00    -0.203 F 
ATOM     82  F   UNL A   1      34.292  32.620  32.191  1.00  0.00    -0.200 F 
ATOM     83  C   UNL A   1      34.886  32.746  29.915  1.00  0.00     0.200 A 
ATOM     84  F   UNL A   1      35.567  32.900  27.661  1.00  0.00    -0.200 F 
ATOM     85  F   UNL A   1      33.821  33.519  29.661  1.00  0.00    -0.200 F 
ENDBRANCH  51  75
BRANCH  63  86
ATOM     86  C   UNL A   1      42.437  29.811  33.718  1.00  0.00     0.064 A 
ATOM     87  C   UNL A   1      42.152  28.446  33.537  1.00  0.00     0.173 A 
ATOM     88  C   UNL A   1      42.621  30.255  35.032  1.00  0.00     0.173 A 
ATOM     89  F   UNL A   1      42.070  27.916  32.313  1.00  0.00    -0.203 F 
ATOM     90  C   UNL A   1      42.011  27.580  34.620  1.00  0.00     0.198 A 
ATOM     91  C   UNL A   1      42.514  29.382  36.113  1.00  0.00     0.198 A 
ATOM     92  F   UNL A   1      42.957  31.533  35.268  1.00  0.00    -0.203 F 
ATOM     93  F   UNL A   1      41.733  26.285  34.413  1.00  0.00    -0.200 F 
ATOM     94  C   UNL A   1      42.200  28.048  35.908  1.00  0.00     0.200 A 
ATOM     95  F   UNL A   1      42.748  29.828  37.355  1.00  0.00    -0.200 F 
ATOM     96  F   UNL A   1      42.107  27.208  36.949  1.00  0.00    -0.200 F 
ENDBRANCH  63  86
ENDBRANCH  37  38
ENDBRANCH  29  32
ENDBRANCH  27  28
ENDBRANCH  26  27
ENDBRANCH   1  26
TORSDOF 14
ENDMDL
MODEL 3
REMARK VINA RESULT:     -12.8      3.608      8.211
REMARK SMILES O=C(Cc1ccn[nH]1)Nc1sc2c(c1C(=O)NCCCCNC(=O)c1ccc(-c3c4nc(c(-c5c(F)c(F)c(F)c(F)c5F)c5ccc([nH]5)c(-c5c(F)c(F)c(F)c(F)c5F)c5nc(c(-c6c(F)c(F)c(F)c(F)c6F)c6ccc3[nH]6)C=C5)C=C4)cc1)CCC2
REMARK SMILES IDX 19 1 18 2 17 3 15 4 16 5 14 7 10 8 11 9 12 10 13 11 90 12
REMARK SMILES IDX 88 13 89 14 9 15 1 16 2 17 3 19 4 20 5 21 8 22 6 23 7 24
REMARK SMILES IDX 20 26 21 27 22 28 23 29 24 31 25 32 26 33 87 34 27 35 86 36
REMARK SMILES IDX 28 37 29 38 30 39 80 40 31 41 85 42 79 43 81 44 32 45 84 46
REMARK SMILES IDX 78 47 77 48 33 50 65 51 45 52 64 53 46 54 49 55 63 56 82 57
REMARK SMILES IDX 47 58 48 59 62 61 83 62 50 63 34 64 35 65 43 66 36 67 37 68
REMARK SMILES IDX 41 69 44 70 38 71 39 72 42 73 40 74 66 75 67 76 75 77 68 78
REMARK SMILES IDX 69 79 73 80 76 81 70 82 71 83 74 84 72 85 51 86 52 87 60 88
REMARK SMILES IDX 53 89 54 90 58 91 61 92 55 93 56 94 59 95 57 96
REMARK H PARENT 17 6 9 18 8 25 22 30 81 49 49 60
REMARK Flexibility Score: inf
ROOT
ATOM      1  C   UNL A   1      34.858  29.901  27.251  1.00  0.00     0.023 C 
ENDROOT
BRANCH   1   2
ATOM      2  C   UNL A   1      34.115  28.597  26.965  1.00  0.00     0.116 C 
BRANCH   2   3
ATOM      3  N   UNL A   1      33.910  28.347  25.565  1.00  0.00    -0.352 N 
ATOM      4  C   UNL A   1      33.376  27.305  24.854  1.00  0.00     0.254 C 
ATOM      5  O   UNL A   1      33.028  27.638  23.712  1.00  0.00    -0.269 OA
ATOM      6  H   UNL A   1      34.222  29.083  24.992  1.00  0.00     0.163 HD
BRANCH   4   7
ATOM      7  C   UNL A   1      33.141  25.934  25.358  1.00  0.00     0.078 A 
ATOM      8  C   UNL A   1      31.828  25.535  25.655  1.00  0.00     0.108 A 
ATOM      9  S   UNL A   1      31.693  24.119  26.600  1.00  0.00    -0.122 S 
ATOM     10  C   UNL A   1      33.308  23.817  26.354  1.00  0.00     0.011 A 
ATOM     11  C   UNL A   1      33.989  24.813  25.691  1.00  0.00    -0.019 A 
ATOM     12  C   UNL A   1      34.122  22.649  26.766  1.00  0.00     0.047 C 
ATOM     13  C   UNL A   1      35.419  24.402  25.588  1.00  0.00     0.038 C 
ATOM     14  C   UNL A   1      35.397  22.882  25.928  1.00  0.00     0.010 C 
BRANCH   8  15
ATOM     15  N   UNL A   1      30.588  26.048  25.349  1.00  0.00    -0.317 N 
ATOM     16  O   UNL A   1      30.459  25.142  23.207  1.00  0.00    -0.274 OA
ATOM     17  C   UNL A   1      30.011  25.855  24.103  1.00  0.00     0.230 C 
ATOM     18  H   UNL A   1      30.101  26.564  26.031  1.00  0.00     0.170 HD
BRANCH  17  19
ATOM     19  C   UNL A   1      28.687  26.586  23.948  1.00  0.00     0.155 C 
BRANCH  19  20
ATOM     20  C   UNL A   1      28.815  27.853  23.164  1.00  0.00     0.044 A 
ATOM     21  C   UNL A   1      27.960  28.903  22.891  1.00  0.00     0.045 A 
ATOM     22  N   UNL A   1      29.982  28.162  22.513  1.00  0.00    -0.282 N 
ATOM     23  C   UNL A   1      28.719  29.802  22.124  1.00  0.00     0.135 A 
ATOM     24  N   UNL A   1      29.956  29.356  21.900  1.00  0.00    -0.184 NA
ATOM     25  H   UNL A   1      30.764  27.565  22.496  1.00  0.00     0.190 HD
ENDBRANCH  19  20
ENDBRANCH  17  19
ENDBRANCH   8  15
ENDBRANCH   4   7
ENDBRANCH   2   3
ENDBRANCH   1   2
BRANCH   1  26
ATOM     26  C   UNL A   1      33.979  31.107  27.607  1.00  0.00     0.023 C 
BRANCH  26  27
ATOM     27  C   UNL A   1      34.732  32.355  28.067  1.00  0.00     0.116 C 
BRANCH  27  28
ATOM     28  N   UNL A   1      34.593  32.639  29.499  1.00  0.00    -0.352 N 
ATOM     29  C   UNL A   1      35.299  32.075  30.556  1.00  0.00     0.251 C 
ATOM     30  H   UNL A   1      33.917  33.313  29.742  1.00  0.00     0.163 HD
ATOM     31  O   UNL A   1      34.887  32.101  31.697  1.00  0.00    -0.269 OA
BRANCH  29  32
ATOM     32  C   UNL A   1      36.602  31.467  30.242  1.00  0.00     0.039 A 
ATOM     33  C   UNL A   1      37.748  32.223  29.985  1.00  0.00     0.014 A 
ATOM     34  C   UNL A   1      36.657  30.085  30.329  1.00  0.00     0.014 A 
ATOM     35  C   UNL A   1      38.977  31.567  29.912  1.00  0.00     0.010 A 
ATOM     36  C   UNL A   1      37.875  29.480  30.468  1.00  0.00     0.010 A 
ATOM     37  C   UNL A   1      39.036  30.191  30.177  1.00  0.00    -0.014 A 
BRANCH  37  38
ATOM     38  C   UNL A   1      40.296  29.454  30.191  1.00  0.00     0.031 A 
ATOM     39  C   UNL A   1      40.922  29.206  31.524  1.00  0.00     0.074 A 
ATOM     40  C   UNL A   1      40.742  28.819  29.082  1.00  0.00     0.049 A 
ATOM     41  N   UNL A   1      42.100  29.555  31.927  1.00  0.00    -0.248 NA
ATOM     42  C   UNL A   1      40.120  28.533  32.559  1.00  0.00     0.031 C 
ATOM     43  C   UNL A   1      40.098  28.698  27.764  1.00  0.00     0.029 A 
ATOM     44  N   UNL A   1      41.833  28.023  28.944  1.00  0.00    -0.354 N 
ATOM     45  C   UNL A   1      42.258  29.024  33.207  1.00  0.00     0.074 A 
ATOM     46  C   UNL A   1      40.967  28.509  33.592  1.00  0.00     0.031 C 
ATOM     47  C   UNL A   1      40.658  27.683  27.074  1.00  0.00     0.029 A 
ATOM     48  C   UNL A   1      41.825  27.234  27.804  1.00  0.00     0.049 A 
ATOM     49  H   UNL A   1      42.568  28.008  29.598  1.00  0.00     0.167 HD
ATOM     50  C   UNL A   1      43.487  28.883  33.781  1.00  0.00     0.037 A 
ATOM     51  C   UNL A   1      42.706  26.258  27.487  1.00  0.00     0.037 A 
ATOM     52  C   UNL A   1      44.482  29.661  33.092  1.00  0.00     0.049 A 
ATOM     53  C   UNL A   1      43.931  26.500  28.289  1.00  0.00     0.074 A 
ATOM     54  C   UNL A   1      44.666  31.009  32.858  1.00  0.00     0.029 A 
ATOM     55  N   UNL A   1      45.303  29.020  32.197  1.00  0.00    -0.354 N 
ATOM     56  N   UNL A   1      44.701  27.542  28.131  1.00  0.00    -0.248 NA
ATOM     57  C   UNL A   1      44.029  25.837  29.581  1.00  0.00     0.031 C 
ATOM     58  C   UNL A   1      45.160  31.082  31.522  1.00  0.00     0.029 A 
ATOM     59  C   UNL A   1      45.307  29.776  31.052  1.00  0.00     0.049 A 
ATOM     60  H   UNL A   1      45.793  28.180  32.347  1.00  0.00     0.167 HD
ATOM     61  C   UNL A   1      45.057  27.917  29.419  1.00  0.00     0.074 A 
ATOM     62  C   UNL A   1      44.684  26.783  30.261  1.00  0.00     0.031 C 
ATOM     63  C   UNL A   1      45.354  29.215  29.722  1.00  0.00     0.037 A 
BRANCH  50  64
ATOM     64  C   UNL A   1      43.870  27.804  34.762  1.00  0.00     0.064 A 
ATOM     65  C   UNL A   1      43.682  26.449  34.417  1.00  0.00     0.173 A 
ATOM     66  C   UNL A   1      44.122  28.057  36.126  1.00  0.00     0.173 A 
ATOM     67  F   UNL A   1      43.419  26.097  33.149  1.00  0.00    -0.203 F 
ATOM     68  C   UNL A   1      43.670  25.436  35.380  1.00  0.00     0.198 A 
ATOM     69  C   UNL A   1      44.160  27.037  37.077  1.00  0.00     0.198 A 
ATOM     70  F   UNL A   1      44.226  29.302  36.606  1.00  0.00    -0.203 F 
ATOM     71  F   UNL A   1      43.363  24.181  35.024  1.00  0.00    -0.200 F 
ATOM     72  C   UNL A   1      43.901  25.732  36.711  1.00  0.00     0.200 A 
ATOM     73  F   UNL A   1      44.368  27.345  38.365  1.00  0.00    -0.200 F 
ATOM     74  F   UNL A   1      43.826  24.775  37.644  1.00  0.00    -0.200 F 
ENDBRANCH  50  64
BRANCH  51  75
ATOM     75  C   UNL A   1      42.404  24.979  26.810  1.00  0.00     0.064 A 
ATOM     76  C   UNL A   1      43.105  24.571  25.670  1.00  0.00     0.173 A 
ATOM     77  C   UNL A   1      41.583  24.012  27.428  1.00  0.00     0.173 A 
ATOM     78  F   UNL A   1      43.938  25.421  25.053  1.00  0.00    -0.203 F 
ATOM     79  C   UNL A   1      43.004  23.265  25.181  1.00  0.00     0.198 A 
ATOM     80  C   UNL A   1      41.481  22.711  26.939  1.00  0.00     0.198 A 
ATOM     81  F   UNL A   1      40.937  24.289  28.571  1.00  0.00    -0.203 F 
ATOM     82  F   UNL A   1      43.728  22.891  24.116  1.00  0.00    -0.200 F 
ATOM     83  C   UNL A   1      42.201  22.333  25.821  1.00  0.00     0.200 A 
ATOM     84  F   UNL A   1      40.730  21.811  27.590  1.00  0.00    -0.200 F 
ATOM     85  F   UNL A   1      42.150  21.067  25.386  1.00  0.00    -0.200 F 
ENDBRANCH  51  75
BRANCH  63  86
ATOM     86  C   UNL A   1      45.497  30.191  28.585  1.00  0.00     0.064 A 
ATOM     87  C   UNL A   1      44.439  30.966  28.079  1.00  0.00     0.173 A 
ATOM     88  C   UNL A   1      46.780  30.470  28.100  1.00  0.00     0.173 A 
ATOM     89  F   UNL A   1      43.200  30.841  28.566  1.00  0.00    -0.203 F 
ATOM     90  C   UNL A   1      44.647  31.939  27.104  1.00  0.00     0.198 A 
ATOM     91  C   UNL A   1      46.994  31.467  27.150  1.00  0.00     0.198 A 
ATOM     92  F   UNL A   1      47.841  29.809  28.588  1.00  0.00    -0.203 F 
ATOM     93  F   UNL A   1      43.615  32.657  26.638  1.00  0.00    -0.200 F 
ATOM     94  C   UNL A   1      45.927  32.194  26.645  1.00  0.00     0.200 A 
ATOM     95  F   UNL A   1      48.241  31.745  26.745  1.00  0.00    -0.200 F 
ATOM     96  F   UNL A   1      46.137  33.158  25.738  1.00  0.00    -0.200 F 
ENDBRANCH  63  86
ENDBRANCH  37  38
ENDBRANCH  29  32
ENDBRANCH  27  28
ENDBRANCH  26  27
ENDBRANCH   1  26
TORSDOF 14
ENDMDL
