MODEL 1
REMARK VINA RESULT:     -14.7      0.000      0.000
REMARK SMILES Cc1ccccc1[C@@H]1[NH2+][C@@H](C(=O)NCCCCNC(=O)c2ccc(-c3c4nc(c(-c5c(F)c(F)c(F)c(F)c5F)c5ccc([nH]5)c(-c5c(F)c(F)c(F)c(F)c5F)c5nc(c(-c6c(F)c(F)c(F)c(F)c6F)c6ccc3[nH]6)C=C5)C=C4)cc2)CC2=c3ccccc3=N[C@H]21
REMARK SMILES IDX 16 1 15 2 14 3 13 4 11 5 12 6 10 8 8 9 9 10 93 11 85 14
REMARK SMILES IDX 92 15 84 16 86 17 91 18 87 19 90 20 88 21 89 22 7 23 1 24
REMARK SMILES IDX 2 25 3 26 4 27 6 28 5 29 17 30 18 31 19 32 20 34 21 35 22 36
REMARK SMILES IDX 83 37 23 38 82 39 24 40 25 41 26 42 76 43 27 44 81 45 75 46
REMARK SMILES IDX 77 47 28 48 80 49 74 50 73 51 29 53 61 54 41 55 60 56 42 57
REMARK SMILES IDX 45 58 59 59 78 60 43 61 44 62 58 64 79 65 46 66 30 67 31 68
REMARK SMILES IDX 39 69 32 70 33 71 37 72 40 73 34 74 35 75 38 76 36 77 62 78
REMARK SMILES IDX 63 79 71 80 64 81 65 82 69 83 72 84 66 85 67 86 70 87 68 88
REMARK SMILES IDX 47 89 48 90 56 91 49 92 50 93 54 94 57 95 51 96 52 97 55 98
REMARK SMILES IDX 53 99
REMARK H PARENT 13 7 9 12 9 13 18 33 77 52 45 63
REMARK Flexibility Score: inf
ROOT
ATOM      1  C   UNL A   1      33.829  33.472  28.285  1.00  0.00     0.023 C 
ENDROOT
BRANCH   1   2
ATOM      2  C   UNL A   1      34.329  32.076  28.646  1.00  0.00     0.023 C 
BRANCH   2   3
ATOM      3  C   UNL A   1      34.312  31.054  27.499  1.00  0.00     0.116 C 
BRANCH   3   4
ATOM      4  N   UNL A   1      33.495  29.859  27.677  1.00  0.00    -0.351 N 
ATOM      5  C   UNL A   1      33.203  28.827  26.821  1.00  0.00     0.278 C 
ATOM      6  O   UNL A   1      33.011  27.721  27.344  1.00  0.00    -0.268 OA
ATOM      7  H   UNL A   1      33.080  29.779  28.566  1.00  0.00     0.163 HD
BRANCH   5   8
ATOM      8  C   UNL A   1      32.933  29.050  25.306  1.00  0.00     0.277 C 
ATOM      9  C   UNL A   1      30.986  27.983  23.980  1.00  0.00     0.243 C 
ATOM     10  N   UNL A   1      31.468  28.927  25.025  1.00  0.00    -0.327 N 
ATOM     11  C   UNL A   1      32.026  27.304  23.035  1.00  0.00     0.196 C 
ATOM     12  H   UNL A   1      31.023  28.650  25.900  1.00  0.00     0.347 HD
ATOM     13  H   UNL A   1      31.226  29.842  24.644  1.00  0.00     0.347 HD
ATOM     14  C   UNL A   1      33.286  27.106  23.796  1.00  0.00    -0.024 C 
ATOM     15  N   UNL A   1      31.629  25.921  22.618  1.00  0.00    -0.270 NA
ATOM     16  C   UNL A   1      33.884  28.328  24.352  1.00  0.00     0.109 C 
ATOM     17  C   UNL A   1      33.618  25.831  23.913  1.00  0.00     0.002 A 
ATOM     18  C   UNL A   1      32.572  25.175  23.113  1.00  0.00     0.066 A 
ATOM     19  C   UNL A   1      34.622  25.102  24.611  1.00  0.00     0.010 A 
ATOM     20  C   UNL A   1      32.714  23.714  22.950  1.00  0.00     0.028 A 
ATOM     21  C   UNL A   1      34.648  23.767  24.472  1.00  0.00     0.001 A 
ATOM     22  C   UNL A   1      33.709  23.080  23.597  1.00  0.00     0.002 A 
BRANCH   9  23
ATOM     23  C   UNL A   1      29.885  28.638  23.130  1.00  0.00     0.015 A 
ATOM     24  C   UNL A   1      28.020  27.008  23.858  1.00  0.00     0.045 C 
ATOM     25  C   UNL A   1      28.533  28.214  23.118  1.00  0.00    -0.042 A 
ATOM     26  C   UNL A   1      27.573  28.989  22.439  1.00  0.00     0.004 A 
ATOM     27  C   UNL A   1      27.934  30.136  21.736  1.00  0.00     0.000 A 
ATOM     28  C   UNL A   1      30.229  29.786  22.384  1.00  0.00     0.010 A 
ATOM     29  C   UNL A   1      29.267  30.524  21.693  1.00  0.00     0.001 A 
ENDBRANCH   9  23
ENDBRANCH   5   8
ENDBRANCH   3   4
ENDBRANCH   2   3
ENDBRANCH   1   2
BRANCH   1  30
ATOM     30  C   UNL A   1      34.239  34.561  29.271  1.00  0.00     0.116 C 
BRANCH  30  31
ATOM     31  N   UNL A   1      33.223  34.963  30.240  1.00  0.00    -0.352 N 
ATOM     32  C   UNL A   1      33.237  34.768  31.615  1.00  0.00     0.251 C 
ATOM     33  H   UNL A   1      32.434  35.426  29.875  1.00  0.00     0.163 HD
ATOM     34  O   UNL A   1      32.304  35.140  32.319  1.00  0.00    -0.269 OA
BRANCH  32  35
ATOM     35  C   UNL A   1      34.468  34.219  32.235  1.00  0.00     0.039 A 
ATOM     36  C   UNL A   1      35.549  35.085  32.421  1.00  0.00     0.014 A 
ATOM     37  C   UNL A   1      34.641  32.842  32.332  1.00  0.00     0.014 A 
ATOM     38  C   UNL A   1      36.841  34.564  32.412  1.00  0.00     0.010 A 
ATOM     39  C   UNL A   1      35.920  32.332  32.214  1.00  0.00     0.010 A 
ATOM     40  C   UNL A   1      37.017  33.199  32.177  1.00  0.00    -0.014 A 
BRANCH  40  41
ATOM     41  C   UNL A   1      38.302  32.624  31.793  1.00  0.00     0.031 A 
ATOM     42  C   UNL A   1      38.353  31.352  31.046  1.00  0.00     0.074 A 
ATOM     43  C   UNL A   1      39.461  33.246  32.106  1.00  0.00     0.049 A 
ATOM     44  N   UNL A   1      39.301  30.483  31.174  1.00  0.00    -0.248 NA
ATOM     45  C   UNL A   1      37.315  30.946  30.111  1.00  0.00     0.031 C 
ATOM     46  C   UNL A   1      40.798  32.905  31.622  1.00  0.00     0.029 A 
ATOM     47  N   UNL A   1      39.687  34.229  33.084  1.00  0.00    -0.354 N 
ATOM     48  C   UNL A   1      39.147  29.551  30.175  1.00  0.00     0.074 A 
ATOM     49  C   UNL A   1      37.863  29.848  29.579  1.00  0.00     0.031 C 
ATOM     50  C   UNL A   1      41.711  33.411  32.466  1.00  0.00     0.029 A 
ATOM     51  C   UNL A   1      40.995  34.002  33.580  1.00  0.00     0.049 A 
ATOM     52  H   UNL A   1      39.063  34.933  33.369  1.00  0.00     0.167 HD
ATOM     53  C   UNL A   1      40.180  28.711  29.870  1.00  0.00     0.037 A 
ATOM     54  C   UNL A   1      41.238  33.756  34.900  1.00  0.00     0.037 A 
ATOM     55  C   UNL A   1      41.339  28.956  30.725  1.00  0.00     0.049 A 
ATOM     56  C   UNL A   1      41.876  32.414  35.165  1.00  0.00     0.074 A 
ATOM     57  C   UNL A   1      42.495  29.696  30.531  1.00  0.00     0.029 A 
ATOM     58  N   UNL A   1      41.279  28.673  32.085  1.00  0.00    -0.354 N 
ATOM     59  N   UNL A   1      41.953  31.465  34.276  1.00  0.00    -0.248 NA
ATOM     60  C   UNL A   1      42.405  32.009  36.464  1.00  0.00     0.031 C 
ATOM     61  C   UNL A   1      43.115  29.884  31.788  1.00  0.00     0.029 A 
ATOM     62  C   UNL A   1      42.342  29.257  32.749  1.00  0.00     0.049 A 
ATOM     63  H   UNL A   1      40.577  28.132  32.516  1.00  0.00     0.167 HD
ATOM     64  C   UNL A   1      42.437  30.328  34.867  1.00  0.00     0.074 A 
ATOM     65  C   UNL A   1      42.752  30.732  36.224  1.00  0.00     0.031 C 
ATOM     66  C   UNL A   1      42.496  29.142  34.191  1.00  0.00     0.037 A 
BRANCH  53  67
ATOM     67  C   UNL A   1      40.238  27.899  28.595  1.00  0.00     0.064 A 
ATOM     68  C   UNL A   1      39.707  26.591  28.535  1.00  0.00     0.173 A 
ATOM     69  C   UNL A   1      40.854  28.336  27.408  1.00  0.00     0.173 A 
ATOM     70  F   UNL A   1      38.981  26.081  29.538  1.00  0.00    -0.203 F 
ATOM     71  C   UNL A   1      39.906  25.748  27.438  1.00  0.00     0.198 A 
ATOM     72  C   UNL A   1      41.105  27.477  26.333  1.00  0.00     0.198 A 
ATOM     73  F   UNL A   1      41.190  29.622  27.237  1.00  0.00    -0.203 F 
ATOM     74  F   UNL A   1      39.389  24.512  27.448  1.00  0.00    -0.200 F 
ATOM     75  C   UNL A   1      40.644  26.176  26.355  1.00  0.00     0.200 A 
ATOM     76  F   UNL A   1      41.801  27.919  25.277  1.00  0.00    -0.200 F 
ATOM     77  F   UNL A   1      40.885  25.350  25.328  1.00  0.00    -0.200 F 
ENDBRANCH  53  67
BRANCH  54  78
ATOM     78  C   UNL A   1      40.247  34.420  35.787  1.00  0.00     0.064 A 
ATOM     79  C   UNL A   1      39.230  33.611  36.332  1.00  0.00     0.173 A 
ATOM     80  C   UNL A   1      40.561  35.613  36.445  1.00  0.00     0.173 A 
ATOM     81  F   UNL A   1      38.884  32.466  35.722  1.00  0.00    -0.203 F 
ATOM     82  C   UNL A   1      38.700  33.881  37.588  1.00  0.00     0.198 A 
ATOM     83  C   UNL A   1      39.996  35.899  37.688  1.00  0.00     0.198 A 
ATOM     84  F   UNL A   1      41.513  36.425  35.965  1.00  0.00    -0.203 F 
ATOM     85  F   UNL A   1      37.883  32.991  38.170  1.00  0.00    -0.200 F 
ATOM     86  C   UNL A   1      39.114  35.006  38.281  1.00  0.00     0.200 A 
ATOM     87  F   UNL A   1      40.396  36.986  38.363  1.00  0.00    -0.200 F 
ATOM     88  F   UNL A   1      38.706  35.198  39.543  1.00  0.00    -0.200 F 
ENDBRANCH  54  78
BRANCH  66  89
ATOM     89  C   UNL A   1      42.805  27.800  34.805  1.00  0.00     0.064 A 
ATOM     90  C   UNL A   1      41.878  26.749  34.903  1.00  0.00     0.173 A 
ATOM     91  C   UNL A   1      44.121  27.490  35.222  1.00  0.00     0.173 A 
ATOM     92  F   UNL A   1      40.637  26.866  34.409  1.00  0.00    -0.203 F 
ATOM     93  C   UNL A   1      42.214  25.515  35.467  1.00  0.00     0.198 A 
ATOM     94  C   UNL A   1      44.469  26.238  35.728  1.00  0.00     0.198 A 
ATOM     95  F   UNL A   1      45.114  28.387  35.130  1.00  0.00    -0.203 F 
ATOM     96  F   UNL A   1      41.275  24.566  35.592  1.00  0.00    -0.200 F 
ATOM     97  C   UNL A   1      43.509  25.258  35.874  1.00  0.00     0.200 A 
ATOM     98  F   UNL A   1      45.743  25.983  36.061  1.00  0.00    -0.200 F 
ATOM     99  F   UNL A   1      43.835  24.063  36.383  1.00  0.00    -0.200 F 
ENDBRANCH  66  89
ENDBRANCH  40  41
ENDBRANCH  32  35
ENDBRANCH  30  31
ENDBRANCH   1  30
TORSDOF 12
ENDMDL
MODEL 2
REMARK VINA RESULT:     -14.5      3.078      5.590
REMARK SMILES Cc1ccccc1[C@@H]1[NH2+][C@@H](C(=O)NCCCCNC(=O)c2ccc(-c3c4nc(c(-c5c(F)c(F)c(F)c(F)c5F)c5ccc([nH]5)c(-c5c(F)c(F)c(F)c(F)c5F)c5nc(c(-c6c(F)c(F)c(F)c(F)c6F)c6ccc3[nH]6)C=C5)C=C4)cc2)CC2=c3ccccc3=N[C@H]21
REMARK SMILES IDX 16 1 15 2 14 3 13 4 11 5 12 6 10 8 8 9 9 10 93 11 85 14
REMARK SMILES IDX 92 15 84 16 86 17 91 18 87 19 90 20 88 21 89 22 7 23 1 24
REMARK SMILES IDX 2 25 3 26 4 27 6 28 5 29 17 30 18 31 19 32 20 34 21 35 22 36
REMARK SMILES IDX 83 37 23 38 82 39 24 40 25 41 26 42 76 43 27 44 81 45 75 46
REMARK SMILES IDX 77 47 28 48 80 49 74 50 73 51 29 53 61 54 41 55 60 56 42 57
REMARK SMILES IDX 45 58 59 59 78 60 43 61 44 62 58 64 79 65 46 66 30 67 31 68
REMARK SMILES IDX 39 69 32 70 33 71 37 72 40 73 34 74 35 75 38 76 36 77 62 78
REMARK SMILES IDX 63 79 71 80 64 81 65 82 69 83 72 84 66 85 67 86 70 87 68 88
REMARK SMILES IDX 47 89 48 90 56 91 49 92 50 93 54 94 57 95 51 96 52 97 55 98
REMARK SMILES IDX 53 99
REMARK H PARENT 13 7 9 12 9 13 18 33 77 52 45 63
REMARK Flexibility Score: inf
ROOT
ATOM      1  C   UNL A   1      32.012  29.448  27.050  1.00  0.00     0.023 C 
ENDROOT
BRANCH   1   2
ATOM      2  C   UNL A   1      31.407  28.171  27.627  1.00  0.00     0.023 C 
BRANCH   2   3
ATOM      3  C   UNL A   1      31.513  26.929  26.728  1.00  0.00     0.116 C 
BRANCH   3   4
ATOM      4  N   UNL A   1      30.416  25.969  26.776  1.00  0.00    -0.351 N 
ATOM      5  C   UNL A   1      30.397  24.607  26.613  1.00  0.00     0.278 C 
ATOM      6  O   UNL A   1      29.531  23.992  27.250  1.00  0.00    -0.268 OA
ATOM      7  H   UNL A   1      29.534  26.369  26.957  1.00  0.00     0.163 HD
BRANCH   5   8
ATOM      8  C   UNL A   1      31.272  23.881  25.553  1.00  0.00     0.277 C 
ATOM      9  C   UNL A   1      33.805  24.270  25.212  1.00  0.00     0.243 C 
ATOM     10  N   UNL A   1      32.680  23.766  26.046  1.00  0.00    -0.327 N 
ATOM     11  C   UNL A   1      33.522  24.704  23.739  1.00  0.00     0.196 C 
ATOM     12  H   UNL A   1      32.723  24.267  26.933  1.00  0.00     0.347 HD
ATOM     13  H   UNL A   1      32.839  22.759  26.067  1.00  0.00     0.347 HD
ATOM     14  C   UNL A   1      32.145  25.256  23.674  1.00  0.00    -0.024 C 
ATOM     15  N   UNL A   1      34.392  25.833  23.279  1.00  0.00    -0.270 NA
ATOM     16  C   UNL A   1      31.080  24.343  24.109  1.00  0.00     0.109 C 
ATOM     17  C   UNL A   1      32.121  26.526  23.305  1.00  0.00     0.002 A 
ATOM     18  C   UNL A   1      33.543  26.785  23.030  1.00  0.00     0.066 A 
ATOM     19  C   UNL A   1      31.121  27.534  23.196  1.00  0.00     0.010 A 
ATOM     20  C   UNL A   1      33.856  28.121  22.484  1.00  0.00     0.028 A 
ATOM     21  C   UNL A   1      31.490  28.748  22.759  1.00  0.00     0.001 A 
ATOM     22  C   UNL A   1      32.864  29.022  22.360  1.00  0.00     0.002 A 
BRANCH   9  23
ATOM     23  C   UNL A   1      34.976  23.274  25.228  1.00  0.00     0.015 A 
ATOM     24  C   UNL A   1      33.625  21.303  24.253  1.00  0.00     0.045 C 
ATOM     25  C   UNL A   1      34.893  21.943  24.748  1.00  0.00    -0.042 A 
ATOM     26  C   UNL A   1      36.067  21.171  24.648  1.00  0.00     0.004 A 
ATOM     27  C   UNL A   1      37.299  21.672  25.060  1.00  0.00     0.000 A 
ATOM     28  C   UNL A   1      36.231  23.746  25.668  1.00  0.00     0.010 A 
ATOM     29  C   UNL A   1      37.379  22.954  25.589  1.00  0.00     0.001 A 
ENDBRANCH   9  23
ENDBRANCH   5   8
ENDBRANCH   3   4
ENDBRANCH   2   3
ENDBRANCH   1   2
BRANCH   1  30
ATOM     30  C   UNL A   1      33.520  29.571  27.244  1.00  0.00     0.116 C 
BRANCH  30  31
ATOM     31  N   UNL A   1      33.982  30.785  27.914  1.00  0.00    -0.352 N 
ATOM     32  C   UNL A   1      35.186  30.983  28.576  1.00  0.00     0.251 C 
ATOM     33  H   UNL A   1      33.366  31.554  27.893  1.00  0.00     0.163 HD
ATOM     34  O   UNL A   1      35.447  32.053  29.116  1.00  0.00    -0.269 OA
BRANCH  32  35
ATOM     35  C   UNL A   1      36.213  29.915  28.502  1.00  0.00     0.039 A 
ATOM     36  C   UNL A   1      36.635  29.328  29.697  1.00  0.00     0.014 A 
ATOM     37  C   UNL A   1      36.943  29.734  27.331  1.00  0.00     0.014 A 
ATOM     38  C   UNL A   1      37.927  28.813  29.779  1.00  0.00     0.010 A 
ATOM     39  C   UNL A   1      38.259  29.325  27.434  1.00  0.00     0.010 A 
ATOM     40  C   UNL A   1      38.773  28.936  28.675  1.00  0.00    -0.014 A 
BRANCH  40  41
ATOM     41  C   UNL A   1      40.220  28.767  28.768  1.00  0.00     0.031 A 
ATOM     42  C   UNL A   1      40.861  27.547  28.240  1.00  0.00     0.074 A 
ATOM     43  C   UNL A   1      40.995  29.723  29.330  1.00  0.00     0.049 A 
ATOM     44  N   UNL A   1      41.918  27.012  28.755  1.00  0.00    -0.248 NA
ATOM     45  C   UNL A   1      40.336  26.813  27.099  1.00  0.00     0.031 C 
ATOM     46  C   UNL A   1      42.454  29.789  29.314  1.00  0.00     0.029 A 
ATOM     47  N   UNL A   1      40.610  30.760  30.196  1.00  0.00    -0.354 N 
ATOM     48  C   UNL A   1      42.360  26.045  27.884  1.00  0.00     0.074 A 
ATOM     49  C   UNL A   1      41.308  25.917  26.900  1.00  0.00     0.031 C 
ATOM     50  C   UNL A   1      42.868  30.576  30.319  1.00  0.00     0.029 A 
ATOM     51  C   UNL A   1      41.697  30.958  31.084  1.00  0.00     0.049 A 
ATOM     52  H   UNL A   1      39.757  31.250  30.189  1.00  0.00     0.167 HD
ATOM     53  C   UNL A   1      43.627  25.550  28.011  1.00  0.00     0.037 A 
ATOM     54  C   UNL A   1      41.559  30.842  32.436  1.00  0.00     0.037 A 
ATOM     55  C   UNL A   1      44.332  26.164  29.133  1.00  0.00     0.049 A 
ATOM     56  C   UNL A   1      42.425  29.769  33.049  1.00  0.00     0.074 A 
ATOM     57  C   UNL A   1      45.235  27.214  29.199  1.00  0.00     0.029 A 
ATOM     58  N   UNL A   1      43.917  25.922  30.439  1.00  0.00    -0.354 N 
ATOM     59  N   UNL A   1      43.045  28.859  32.353  1.00  0.00    -0.248 NA
ATOM     60  C   UNL A   1      42.597  29.587  34.488  1.00  0.00     0.031 C 
ATOM     61  C   UNL A   1      45.338  27.624  30.548  1.00  0.00     0.029 A 
ATOM     62  C   UNL A   1      44.503  26.824  31.307  1.00  0.00     0.049 A 
ATOM     63  H   UNL A   1      43.294  25.208  30.706  1.00  0.00     0.167 HD
ATOM     64  C   UNL A   1      43.608  27.944  33.202  1.00  0.00     0.074 A 
ATOM     65  C   UNL A   1      43.343  28.469  34.528  1.00  0.00     0.031 C 
ATOM     66  C   UNL A   1      44.209  26.810  32.733  1.00  0.00     0.037 A 
BRANCH  53  67
ATOM     67  C   UNL A   1      44.317  24.752  26.926  1.00  0.00     0.064 A 
ATOM     68  C   UNL A   1      44.050  23.376  26.748  1.00  0.00     0.173 A 
ATOM     69  C   UNL A   1      45.295  25.277  26.061  1.00  0.00     0.173 A 
ATOM     70  F   UNL A   1      43.059  22.761  27.406  1.00  0.00    -0.203 F 
ATOM     71  C   UNL A   1      44.798  22.571  25.885  1.00  0.00     0.198 A 
ATOM     72  C   UNL A   1      46.083  24.463  25.240  1.00  0.00     0.198 A 
ATOM     73  F   UNL A   1      45.483  26.598  25.952  1.00  0.00    -0.203 F 
ATOM     74  F   UNL A   1      44.506  21.268  25.770  1.00  0.00    -0.200 F 
ATOM     75  C   UNL A   1      45.845  23.106  25.164  1.00  0.00     0.200 A 
ATOM     76  F   UNL A   1      47.079  25.006  24.526  1.00  0.00    -0.200 F 
ATOM     77  F   UNL A   1      46.600  22.324  24.380  1.00  0.00    -0.200 F 
ENDBRANCH  53  67
BRANCH  54  78
ATOM     78  C   UNL A   1      40.192  31.202  32.895  1.00  0.00     0.064 A 
ATOM     79  C   UNL A   1      39.776  32.533  32.691  1.00  0.00     0.173 A 
ATOM     80  C   UNL A   1      39.206  30.222  33.047  1.00  0.00     0.173 A 
ATOM     81  F   UNL A   1      40.690  33.508  32.558  1.00  0.00    -0.203 F 
ATOM     82  C   UNL A   1      38.442  32.833  32.442  1.00  0.00     0.198 A 
ATOM     83  C   UNL A   1      37.864  30.537  32.836  1.00  0.00     0.198 A 
ATOM     84  F   UNL A   1      39.545  28.942  33.254  1.00  0.00    -0.203 F 
ATOM     85  F   UNL A   1      38.102  34.071  32.055  1.00  0.00    -0.200 F 
ATOM     86  C   UNL A   1      37.493  31.826  32.478  1.00  0.00     0.200 A 
ATOM     87  F   UNL A   1      36.941  29.564  32.868  1.00  0.00    -0.200 F 
ATOM     88  F   UNL A   1      36.231  32.087  32.110  1.00  0.00    -0.200 F 
ENDBRANCH  54  78
BRANCH  66  89
ATOM     89  C   UNL A   1      44.664  25.647  33.578  1.00  0.00     0.064 A 
ATOM     90  C   UNL A   1      43.800  24.851  34.349  1.00  0.00     0.173 A 
ATOM     91  C   UNL A   1      46.013  25.220  33.542  1.00  0.00     0.173 A 
ATOM     92  F   UNL A   1      42.477  25.059  34.351  1.00  0.00    -0.203 F 
ATOM     93  C   UNL A   1      44.266  23.772  35.106  1.00  0.00     0.198 A 
ATOM     94  C   UNL A   1      46.463  24.107  34.250  1.00  0.00     0.198 A 
ATOM     95  F   UNL A   1      46.929  25.860  32.801  1.00  0.00    -0.203 F 
ATOM     96  F   UNL A   1      43.410  23.082  35.873  1.00  0.00    -0.200 F 
ATOM     97  C   UNL A   1      45.595  23.397  35.052  1.00  0.00     0.200 A 
ATOM     98  F   UNL A   1      47.742  23.719  34.139  1.00  0.00    -0.200 F 
ATOM     99  F   UNL A   1      46.031  22.343  35.753  1.00  0.00    -0.200 F 
ENDBRANCH  66  89
ENDBRANCH  40  41
ENDBRANCH  32  35
ENDBRANCH  30  31
ENDBRANCH   1  30
TORSDOF 12
ENDMDL
MODEL 3
REMARK VINA RESULT:     -14.4      4.151      9.811
REMARK SMILES Cc1ccccc1[C@@H]1[NH2+][C@@H](C(=O)NCCCCNC(=O)c2ccc(-c3c4nc(c(-c5c(F)c(F)c(F)c(F)c5F)c5ccc([nH]5)c(-c5c(F)c(F)c(F)c(F)c5F)c5nc(c(-c6c(F)c(F)c(F)c(F)c6F)c6ccc3[nH]6)C=C5)C=C4)cc2)CC2=c3ccccc3=N[C@H]21
REMARK SMILES IDX 16 1 15 2 14 3 13 4 11 5 12 6 10 8 8 9 9 10 93 11 85 14
REMARK SMILES IDX 92 15 84 16 86 17 91 18 87 19 90 20 88 21 89 22 7 23 1 24
REMARK SMILES IDX 2 25 3 26 4 27 6 28 5 29 17 30 18 31 19 32 20 34 21 35 22 36
REMARK SMILES IDX 83 37 23 38 82 39 24 40 25 41 26 42 76 43 27 44 81 45 75 46
REMARK SMILES IDX 77 47 28 48 80 49 74 50 73 51 29 53 61 54 41 55 60 56 42 57
REMARK SMILES IDX 45 58 59 59 78 60 43 61 44 62 58 64 79 65 46 66 30 67 31 68
REMARK SMILES IDX 39 69 32 70 33 71 37 72 40 73 34 74 35 75 38 76 36 77 62 78
REMARK SMILES IDX 63 79 71 80 64 81 65 82 69 83 72 84 66 85 67 86 70 87 68 88
REMARK SMILES IDX 47 89 48 90 56 91 49 92 50 93 54 94 57 95 51 96 52 97 55 98
REMARK SMILES IDX 53 99
REMARK H PARENT 13 7 9 12 9 13 18 33 77 52 45 63
REMARK Flexibility Score: inf
ROOT
ATOM      1  C   UNL A   1      40.443  21.922  27.583  1.00  0.00     0.023 C 
ENDROOT
BRANCH   1   2
ATOM      2  C   UNL A   1      40.150  21.642  26.112  1.00  0.00     0.023 C 
BRANCH   2   3
ATOM      3  C   UNL A   1      38.666  21.444  25.763  1.00  0.00     0.116 C 
BRANCH   3   4
ATOM      4  N   UNL A   1      37.919  22.614  25.316  1.00  0.00    -0.351 N 
ATOM      5  C   UNL A   1      36.732  23.149  25.749  1.00  0.00     0.278 C 
ATOM      6  O   UNL A   1      36.615  24.377  25.644  1.00  0.00    -0.268 OA
ATOM      7  H   UNL A   1      38.340  23.105  24.574  1.00  0.00     0.163 HD
BRANCH   5   8
ATOM      8  C   UNL A   1      35.522  22.267  26.168  1.00  0.00     0.277 C 
ATOM      9  C   UNL A   1      33.626  21.511  24.581  1.00  0.00     0.243 C 
ATOM     10  N   UNL A   1      35.053  21.456  25.001  1.00  0.00    -0.327 N 
ATOM     11  C   UNL A   1      32.592  22.232  25.502  1.00  0.00     0.196 C 
ATOM     12  H   UNL A   1      35.608  21.750  24.197  1.00  0.00     0.347 HD
ATOM     13  H   UNL A   1      35.166  20.495  25.323  1.00  0.00     0.347 HD
ATOM     14  C   UNL A   1      33.285  23.352  26.190  1.00  0.00    -0.024 C 
ATOM     15  N   UNL A   1      31.488  22.897  24.740  1.00  0.00    -0.270 NA
ATOM     16  C   UNL A   1      34.449  22.968  27.000  1.00  0.00     0.109 C 
ATOM     17  C   UNL A   1      32.773  24.533  25.886  1.00  0.00     0.002 A 
ATOM     18  C   UNL A   1      31.638  24.156  25.030  1.00  0.00     0.066 A 
ATOM     19  C   UNL A   1      33.112  25.888  26.160  1.00  0.00     0.010 A 
ATOM     20  C   UNL A   1      30.771  25.269  24.591  1.00  0.00     0.028 A 
ATOM     21  C   UNL A   1      32.317  26.852  25.669  1.00  0.00     0.001 A 
ATOM     22  C   UNL A   1      31.114  26.528  24.916  1.00  0.00     0.002 A 
BRANCH   9  23
ATOM     23  C   UNL A   1      33.109  20.102  24.250  1.00  0.00     0.015 A 
ATOM     24  C   UNL A   1      32.063  20.757  21.983  1.00  0.00     0.045 C 
ATOM     25  C   UNL A   1      32.440  19.763  23.047  1.00  0.00    -0.042 A 
ATOM     26  C   UNL A   1      32.162  18.410  22.770  1.00  0.00     0.004 A 
ATOM     27  C   UNL A   1      32.485  17.404  23.677  1.00  0.00     0.000 A 
ATOM     28  C   UNL A   1      33.397  19.066  25.166  1.00  0.00     0.010 A 
ATOM     29  C   UNL A   1      33.086  17.734  24.885  1.00  0.00     0.001 A 
ENDBRANCH   9  23
ENDBRANCH   5   8
ENDBRANCH   3   4
ENDBRANCH   2   3
ENDBRANCH   1   2
BRANCH   1  30
ATOM     30  C   UNL A   1      41.224  23.208  27.834  1.00  0.00     0.116 C 
BRANCH  30  31
ATOM     31  N   UNL A   1      42.098  23.648  26.749  1.00  0.00    -0.352 N 
ATOM     32  C   UNL A   1      42.025  24.834  26.029  1.00  0.00     0.251 C 
ATOM     33  H   UNL A   1      42.824  23.031  26.499  1.00  0.00     0.163 HD
ATOM     34  O   UNL A   1      42.815  25.077  25.123  1.00  0.00    -0.269 OA
BRANCH  32  35
ATOM     35  C   UNL A   1      41.053  25.865  26.468  1.00  0.00     0.039 A 
ATOM     36  C   UNL A   1      41.155  27.141  25.908  1.00  0.00     0.014 A 
ATOM     37  C   UNL A   1      40.286  25.654  27.610  1.00  0.00     0.014 A 
ATOM     38  C   UNL A   1      40.734  28.241  26.652  1.00  0.00     0.010 A 
ATOM     39  C   UNL A   1      39.967  26.745  28.396  1.00  0.00     0.010 A 
ATOM     40  C   UNL A   1      40.260  28.037  27.949  1.00  0.00    -0.014 A 
BRANCH  40  41
ATOM     41  C   UNL A   1      40.139  29.117  28.923  1.00  0.00     0.031 A 
ATOM     42  C   UNL A   1      39.046  30.102  28.809  1.00  0.00     0.074 A 
ATOM     43  C   UNL A   1      41.017  29.230  29.947  1.00  0.00     0.049 A 
ATOM     44  N   UNL A   1      39.155  31.340  29.163  1.00  0.00    -0.248 NA
ATOM     45  C   UNL A   1      37.742  29.770  28.254  1.00  0.00     0.031 C 
ATOM     46  C   UNL A   1      40.909  30.122  31.099  1.00  0.00     0.029 A 
ATOM     47  N   UNL A   1      42.298  28.667  30.062  1.00  0.00    -0.354 N 
ATOM     48  C   UNL A   1      37.897  31.893  29.134  1.00  0.00     0.074 A 
ATOM     49  C   UNL A   1      37.063  30.895  28.503  1.00  0.00     0.031 C 
ATOM     50  C   UNL A   1      42.127  30.291  31.636  1.00  0.00     0.029 A 
ATOM     51  C   UNL A   1      43.079  29.603  30.785  1.00  0.00     0.049 A 
ATOM     52  H   UNL A   1      42.595  27.797  29.711  1.00  0.00     0.167 HD
ATOM     53  C   UNL A   1      37.668  33.081  29.768  1.00  0.00     0.037 A 
ATOM     54  C   UNL A   1      44.223  30.142  30.274  1.00  0.00     0.037 A 
ATOM     55  C   UNL A   1      38.882  33.598  30.393  1.00  0.00     0.049 A 
ATOM     56  C   UNL A   1      44.181  31.644  30.134  1.00  0.00     0.074 A 
ATOM     57  C   UNL A   1      39.358  33.530  31.693  1.00  0.00     0.029 A 
ATOM     58  N   UNL A   1      39.949  34.022  29.607  1.00  0.00    -0.354 N 
ATOM     59  N   UNL A   1      43.089  32.346  30.231  1.00  0.00    -0.248 NA
ATOM     60  C   UNL A   1      45.344  32.461  29.797  1.00  0.00     0.031 C 
ATOM     61  C   UNL A   1      40.727  33.884  31.682  1.00  0.00     0.029 A 
ATOM     62  C   UNL A   1      41.087  34.173  30.377  1.00  0.00     0.049 A 
ATOM     63  H   UNL A   1      39.901  34.190  28.637  1.00  0.00     0.167 HD
ATOM     64  C   UNL A   1      43.355  33.648  29.898  1.00  0.00     0.074 A 
ATOM     65  C   UNL A   1      44.788  33.679  29.682  1.00  0.00     0.031 C 
ATOM     66  C   UNL A   1      42.357  34.575  29.790  1.00  0.00     0.037 A 
BRANCH  53  67
ATOM     67  C   UNL A   1      36.280  33.598  30.082  1.00  0.00     0.064 A 
ATOM     68  C   UNL A   1      35.427  34.071  29.061  1.00  0.00     0.173 A 
ATOM     69  C   UNL A   1      35.753  33.701  31.382  1.00  0.00     0.173 A 
ATOM     70  F   UNL A   1      35.732  33.925  27.765  1.00  0.00    -0.203 F 
ATOM     71  C   UNL A   1      34.220  34.722  29.331  1.00  0.00     0.198 A 
ATOM     72  C   UNL A   1      34.575  34.403  31.659  1.00  0.00     0.198 A 
ATOM     73  F   UNL A   1      36.340  33.085  32.417  1.00  0.00    -0.203 F 
ATOM     74  F   UNL A   1      33.460  35.162  28.319  1.00  0.00    -0.200 F 
ATOM     75  C   UNL A   1      33.816  34.928  30.633  1.00  0.00     0.200 A 
ATOM     76  F   UNL A   1      34.184  34.570  32.930  1.00  0.00    -0.200 F 
ATOM     77  F   UNL A   1      32.689  35.603  30.896  1.00  0.00    -0.200 F 
ENDBRANCH  53  67
BRANCH  54  78
ATOM     78  C   UNL A   1      44.911  29.216  29.338  1.00  0.00     0.064 A 
ATOM     79  C   UNL A   1      45.589  28.118  29.904  1.00  0.00     0.173 A 
ATOM     80  C   UNL A   1      44.516  29.124  28.000  1.00  0.00     0.173 A 
ATOM     81  F   UNL A   1      46.003  28.170  31.180  1.00  0.00    -0.203 F 
ATOM     82  C   UNL A   1      45.679  26.908  29.225  1.00  0.00     0.198 A 
ATOM     83  C   UNL A   1      44.645  27.919  27.310  1.00  0.00     0.198 A 
ATOM     84  F   UNL A   1      43.877  30.143  27.408  1.00  0.00    -0.203 F 
ATOM     85  F   UNL A   1      46.149  25.824  29.860  1.00  0.00    -0.200 F 
ATOM     86  C   UNL A   1      45.172  26.801  27.942  1.00  0.00     0.200 A 
ATOM     87  F   UNL A   1      44.153  27.810  26.067  1.00  0.00    -0.200 F 
ATOM     88  F   UNL A   1      45.138  25.605  27.337  1.00  0.00    -0.200 F 
ENDBRANCH  54  78
BRANCH  66  89
ATOM     89  C   UNL A   1      42.512  35.966  29.227  1.00  0.00     0.064 A 
ATOM     90  C   UNL A   1      41.912  36.400  28.033  1.00  0.00     0.173 A 
ATOM     91  C   UNL A   1      43.200  36.962  29.959  1.00  0.00     0.173 A 
ATOM     92  F   UNL A   1      41.112  35.594  27.321  1.00  0.00    -0.203 F 
ATOM     93  C   UNL A   1      42.071  37.704  27.555  1.00  0.00     0.198 A 
ATOM     94  C   UNL A   1      43.306  38.278  29.510  1.00  0.00     0.198 A 
ATOM     95  F   UNL A   1      43.771  36.692  31.141  1.00  0.00    -0.203 F 
ATOM     96  F   UNL A   1      41.528  38.051  26.380  1.00  0.00    -0.200 F 
ATOM     97  C   UNL A   1      42.763  38.643  28.296  1.00  0.00     0.200 A 
ATOM     98  F   UNL A   1      43.926  39.193  30.270  1.00  0.00    -0.200 F 
ATOM     99  F   UNL A   1      42.885  39.901  27.852  1.00  0.00    -0.200 F 
ENDBRANCH  66  89
ENDBRANCH  40  41
ENDBRANCH  32  35
ENDBRANCH  30  31
ENDBRANCH   1  30
TORSDOF 12
ENDMDL
