MODEL 1
REMARK VINA RESULT:     -13.1      0.000      0.000
REMARK SMILES Cc1noc2c1-c1c(c(C(=O)NCCCCNC(=O)c3ccc(-c4c5nc(c(-c6c(F)c(F)c(F)c(F)c6F)c6ccc([nH]6)c(-c6c(F)c(F)c(F)c(F)c6F)c6nc(c(-c7c(F)c(F)c(F)c(F)c7F)c7ccc4[nH]7)C=C6)C=C5)cc3)nn1C)CC2
REMARK SMILES IDX 15 1 14 2 13 3 12 4 10 5 11 6 9 8 1 9 2 10 3 11 6 12 4 13
REMARK SMILES IDX 5 14 7 15 87 16 8 17 84 18 86 19 83 20 85 21 16 22 17 23
REMARK SMILES IDX 18 24 19 26 20 27 21 28 82 29 22 30 81 31 23 32 24 33 25 34
REMARK SMILES IDX 75 35 26 36 80 37 74 38 76 39 27 40 79 41 73 42 72 43 28 45
REMARK SMILES IDX 60 46 40 47 59 48 41 49 44 50 58 51 77 52 42 53 43 54 57 56
REMARK SMILES IDX 78 57 45 58 29 59 30 60 38 61 31 62 32 63 36 64 39 65 33 66
REMARK SMILES IDX 34 67 37 68 35 69 61 70 62 71 70 72 63 73 64 74 68 75 71 76
REMARK SMILES IDX 65 77 66 78 69 79 67 80 46 81 47 82 55 83 48 84 49 85 53 86
REMARK SMILES IDX 56 87 50 88 51 89 54 90 52 91
REMARK H PARENT 12 7 17 25 76 44 44 55
REMARK Flexibility Score: inf
ROOT
ATOM      1  C   UNL A   1      38.547  21.547  25.331  1.00  0.00     0.023 C 
ENDROOT
BRANCH   1   2
ATOM      2  C   UNL A   1      37.257  22.161  25.876  1.00  0.00     0.023 C 
BRANCH   2   3
ATOM      3  C   UNL A   1      35.974  21.337  25.808  1.00  0.00     0.116 C 
BRANCH   3   4
ATOM      4  N   UNL A   1      35.039  21.480  26.894  1.00  0.00    -0.351 N 
ATOM      5  C   UNL A   1      33.996  22.382  27.035  1.00  0.00     0.272 C 
ATOM      6  O   UNL A   1      33.329  22.266  28.067  1.00  0.00    -0.267 OA
ATOM      7  H   UNL A   1      35.157  20.849  27.640  1.00  0.00     0.163 HD
BRANCH   5   8
ATOM      8  C   UNL A   1      33.730  23.460  26.041  1.00  0.00     0.154 A 
ATOM      9  C   UNL A   1      33.653  27.735  22.391  1.00  0.00     0.071 C 
ATOM     10  C   UNL A   1      33.401  26.323  22.034  1.00  0.00     0.090 A 
ATOM     11  N   UNL A   1      33.259  26.001  20.735  1.00  0.00    -0.084 NA
ATOM     12  C   UNL A   1      33.313  25.174  22.841  1.00  0.00     0.066 A 
ATOM     13  O   UNL A   1      33.060  24.627  20.692  1.00  0.00    -0.360 OA
ATOM     14  C   UNL A   1      33.092  24.154  21.953  1.00  0.00     0.146 A 
ATOM     15  C   UNL A   1      33.413  24.792  24.264  1.00  0.00     0.077 A 
ATOM     16  C   UNL A   1      32.851  22.722  22.235  1.00  0.00     0.084 C 
ATOM     17  C   UNL A   1      33.518  23.451  24.617  1.00  0.00     0.012 A 
ATOM     18  N   UNL A   1      33.418  25.501  25.418  1.00  0.00    -0.267 N 
ATOM     19  C   UNL A   1      33.487  22.338  23.594  1.00  0.00     0.048 C 
ATOM     20  N   UNL A   1      33.629  24.730  26.498  1.00  0.00    -0.167 NA
ATOM     21  C   UNL A   1      33.130  26.901  25.611  1.00  0.00     0.174 C 
ENDBRANCH   5   8
ENDBRANCH   3   4
ENDBRANCH   2   3
ENDBRANCH   1   2
BRANCH   1  22
ATOM     22  C   UNL A   1      39.714  21.474  26.305  1.00  0.00     0.116 C 
BRANCH  22  23
ATOM     23  N   UNL A   1      41.033  21.510  25.683  1.00  0.00    -0.352 N 
ATOM     24  C   UNL A   1      41.900  22.598  25.645  1.00  0.00     0.251 C 
ATOM     25  H   UNL A   1      41.341  20.683  25.247  1.00  0.00     0.163 HD
ATOM     26  O   UNL A   1      42.842  22.647  24.891  1.00  0.00    -0.269 OA
BRANCH  24  27
ATOM     27  C   UNL A   1      41.608  23.717  26.567  1.00  0.00     0.039 A 
ATOM     28  C   UNL A   1      42.138  23.738  27.859  1.00  0.00     0.014 A 
ATOM     29  C   UNL A   1      40.902  24.804  26.060  1.00  0.00     0.014 A 
ATOM     30  C   UNL A   1      42.052  24.914  28.605  1.00  0.00     0.010 A 
ATOM     31  C   UNL A   1      40.915  25.993  26.755  1.00  0.00     0.010 A 
ATOM     32  C   UNL A   1      41.471  26.058  28.037  1.00  0.00    -0.014 A 
BRANCH  32  33
ATOM     33  C   UNL A   1      41.543  27.354  28.724  1.00  0.00     0.031 A 
ATOM     34  C   UNL A   1      42.654  28.287  28.336  1.00  0.00     0.074 A 
ATOM     35  C   UNL A   1      40.518  27.836  29.459  1.00  0.00     0.049 A 
ATOM     36  N   UNL A   1      43.481  28.918  29.111  1.00  0.00    -0.248 NA
ATOM     37  C   UNL A   1      42.876  28.549  26.905  1.00  0.00     0.031 C 
ATOM     38  C   UNL A   1      39.207  27.225  29.705  1.00  0.00     0.029 A 
ATOM     39  N   UNL A   1      40.387  29.068  30.026  1.00  0.00    -0.354 N 
ATOM     40  C   UNL A   1      44.244  29.754  28.291  1.00  0.00     0.074 A 
ATOM     41  C   UNL A   1      43.884  29.424  26.936  1.00  0.00     0.031 C 
ATOM     42  C   UNL A   1      38.347  28.169  30.141  1.00  0.00     0.029 A 
ATOM     43  C   UNL A   1      39.084  29.398  30.366  1.00  0.00     0.049 A 
ATOM     44  H   UNL A   1      41.151  29.671  30.182  1.00  0.00     0.167 HD
ATOM     45  C   UNL A   1      45.013  30.766  28.791  1.00  0.00     0.037 A 
ATOM     46  C   UNL A   1      38.628  30.607  30.770  1.00  0.00     0.037 A 
ATOM     47  C   UNL A   1      45.264  30.600  30.197  1.00  0.00     0.049 A 
ATOM     48  C   UNL A   1      39.791  31.382  31.261  1.00  0.00     0.074 A 
ATOM     49  C   UNL A   1      45.861  29.621  30.969  1.00  0.00     0.029 A 
ATOM     50  N   UNL A   1      44.597  31.400  31.092  1.00  0.00    -0.354 N 
ATOM     51  N   UNL A   1      40.448  31.098  32.351  1.00  0.00    -0.248 NA
ATOM     52  C   UNL A   1      40.485  32.246  30.318  1.00  0.00     0.031 C 
ATOM     53  C   UNL A   1      45.085  29.576  32.165  1.00  0.00     0.029 A 
ATOM     54  C   UNL A   1      44.103  30.559  32.054  1.00  0.00     0.049 A 
ATOM     55  H   UNL A   1      44.495  32.378  31.050  1.00  0.00     0.167 HD
ATOM     56  C   UNL A   1      41.770  31.381  32.045  1.00  0.00     0.074 A 
ATOM     57  C   UNL A   1      41.716  32.188  30.831  1.00  0.00     0.031 C 
ATOM     58  C   UNL A   1      42.794  30.702  32.641  1.00  0.00     0.037 A 
BRANCH  45  59
ATOM     59  C   UNL A   1      45.322  32.065  28.083  1.00  0.00     0.064 A 
ATOM     60  C   UNL A   1      44.271  32.944  27.741  1.00  0.00     0.173 A 
ATOM     61  C   UNL A   1      46.561  32.337  27.468  1.00  0.00     0.173 A 
ATOM     62  F   UNL A   1      43.042  32.773  28.252  1.00  0.00    -0.203 F 
ATOM     63  C   UNL A   1      44.431  33.962  26.795  1.00  0.00     0.198 A 
ATOM     64  C   UNL A   1      46.731  33.388  26.564  1.00  0.00     0.198 A 
ATOM     65  F   UNL A   1      47.620  31.534  27.631  1.00  0.00    -0.203 F 
ATOM     66  F   UNL A   1      43.371  34.688  26.410  1.00  0.00    -0.200 F 
ATOM     67  C   UNL A   1      45.660  34.179  26.203  1.00  0.00     0.200 A 
ATOM     68  F   UNL A   1      47.927  33.574  25.987  1.00  0.00    -0.200 F 
ATOM     69  F   UNL A   1      45.803  35.112  25.253  1.00  0.00    -0.200 F 
ENDBRANCH  45  59
BRANCH  46  70
ATOM     70  C   UNL A   1      37.286  31.200  30.579  1.00  0.00     0.064 A 
ATOM     71  C   UNL A   1      36.460  31.490  31.674  1.00  0.00     0.173 A 
ATOM     72  C   UNL A   1      36.887  31.722  29.333  1.00  0.00     0.173 A 
ATOM     73  F   UNL A   1      36.792  31.067  32.902  1.00  0.00    -0.203 F 
ATOM     74  C   UNL A   1      35.312  32.275  31.535  1.00  0.00     0.198 A 
ATOM     75  C   UNL A   1      35.733  32.494  29.193  1.00  0.00     0.198 A 
ATOM     76  F   UNL A   1      37.652  31.567  28.242  1.00  0.00    -0.203 F 
ATOM     77  F   UNL A   1      34.578  32.582  32.614  1.00  0.00    -0.200 F 
ATOM     78  C   UNL A   1      34.953  32.782  30.297  1.00  0.00     0.200 A 
ATOM     79  F   UNL A   1      35.414  33.002  27.994  1.00  0.00    -0.200 F 
ATOM     80  F   UNL A   1      33.882  33.579  30.174  1.00  0.00    -0.200 F 
ENDBRANCH  46  70
BRANCH  58  81
ATOM     81  C   UNL A   1      42.473  29.815  33.809  1.00  0.00     0.064 A 
ATOM     82  C   UNL A   1      42.018  28.491  33.681  1.00  0.00     0.173 A 
ATOM     83  C   UNL A   1      42.782  30.264  35.100  1.00  0.00     0.173 A 
ATOM     84  F   UNL A   1      41.812  27.946  32.477  1.00  0.00    -0.203 F 
ATOM     85  C   UNL A   1      41.828  27.677  34.794  1.00  0.00     0.198 A 
ATOM     86  C   UNL A   1      42.629  29.436  36.209  1.00  0.00     0.198 A 
ATOM     87  F   UNL A   1      43.284  31.497  35.281  1.00  0.00    -0.203 F 
ATOM     88  F   UNL A   1      41.378  26.422  34.641  1.00  0.00    -0.200 F 
ATOM     89  C   UNL A   1      42.140  28.148  36.058  1.00  0.00     0.200 A 
ATOM     90  F   UNL A   1      42.982  29.878  37.424  1.00  0.00    -0.200 F 
ATOM     91  F   UNL A   1      41.998  27.352  37.126  1.00  0.00    -0.200 F 
ENDBRANCH  58  81
ENDBRANCH  32  33
ENDBRANCH  24  27
ENDBRANCH  22  23
ENDBRANCH   1  22
TORSDOF 11
ENDMDL
MODEL 2
REMARK VINA RESULT:     -13.1      1.163      2.001
REMARK SMILES Cc1noc2c1-c1c(c(C(=O)NCCCCNC(=O)c3ccc(-c4c5nc(c(-c6c(F)c(F)c(F)c(F)c6F)c6ccc([nH]6)c(-c6c(F)c(F)c(F)c(F)c6F)c6nc(c(-c7c(F)c(F)c(F)c(F)c7F)c7ccc4[nH]7)C=C6)C=C5)cc3)nn1C)CC2
REMARK SMILES IDX 15 1 14 2 13 3 12 4 10 5 11 6 9 8 1 9 2 10 3 11 6 12 4 13
REMARK SMILES IDX 5 14 7 15 87 16 8 17 84 18 86 19 83 20 85 21 16 22 17 23
REMARK SMILES IDX 18 24 19 26 20 27 21 28 82 29 22 30 81 31 23 32 24 33 25 34
REMARK SMILES IDX 75 35 26 36 80 37 74 38 76 39 27 40 79 41 73 42 72 43 28 45
REMARK SMILES IDX 60 46 40 47 59 48 41 49 44 50 58 51 77 52 42 53 43 54 57 56
REMARK SMILES IDX 78 57 45 58 29 59 30 60 38 61 31 62 32 63 36 64 39 65 33 66
REMARK SMILES IDX 34 67 37 68 35 69 61 70 62 71 70 72 63 73 64 74 68 75 71 76
REMARK SMILES IDX 65 77 66 78 69 79 67 80 46 81 47 82 55 83 48 84 49 85 53 86
REMARK SMILES IDX 56 87 50 88 51 89 54 90 52 91
REMARK H PARENT 12 7 17 25 76 44 44 55
REMARK Flexibility Score: inf
ROOT
ATOM      1  C   UNL A   1      39.196  21.568  25.928  1.00  0.00     0.023 C 
ENDROOT
BRANCH   1   2
ATOM      2  C   UNL A   1      38.414  22.713  26.572  1.00  0.00     0.023 C 
BRANCH   2   3
ATOM      3  C   UNL A   1      37.646  23.670  25.664  1.00  0.00     0.116 C 
BRANCH   3   4
ATOM      4  N   UNL A   1      37.379  23.231  24.318  1.00  0.00    -0.351 N 
ATOM      5  C   UNL A   1      36.213  23.347  23.577  1.00  0.00     0.272 C 
ATOM      6  O   UNL A   1      36.268  22.902  22.427  1.00  0.00    -0.267 OA
ATOM      7  H   UNL A   1      38.129  22.786  23.861  1.00  0.00     0.163 HD
BRANCH   5   8
ATOM      8  C   UNL A   1      34.957  23.916  24.143  1.00  0.00     0.154 A 
ATOM      9  C   UNL A   1      29.820  25.782  25.458  1.00  0.00     0.071 C 
ATOM     10  C   UNL A   1      30.525  24.694  26.168  1.00  0.00     0.090 A 
ATOM     11  N   UNL A   1      29.862  24.010  27.121  1.00  0.00    -0.084 NA
ATOM     12  C   UNL A   1      31.823  24.179  26.002  1.00  0.00     0.066 A 
ATOM     13  O   UNL A   1      30.743  23.047  27.594  1.00  0.00    -0.360 OA
ATOM     14  C   UNL A   1      31.904  23.165  26.921  1.00  0.00     0.146 A 
ATOM     15  C   UNL A   1      33.016  24.396  25.160  1.00  0.00     0.077 A 
ATOM     16  C   UNL A   1      33.065  22.307  27.247  1.00  0.00     0.084 C 
ATOM     17  C   UNL A   1      34.043  23.458  25.156  1.00  0.00     0.012 A 
ATOM     18  N   UNL A   1      33.392  25.388  24.318  1.00  0.00    -0.267 N 
ATOM     19  C   UNL A   1      34.016  22.222  26.028  1.00  0.00     0.048 C 
ATOM     20  N   UNL A   1      34.540  25.116  23.677  1.00  0.00    -0.167 NA
ATOM     21  C   UNL A   1      32.779  26.680  24.126  1.00  0.00     0.174 C 
ENDBRANCH   5   8
ENDBRANCH   3   4
ENDBRANCH   2   3
ENDBRANCH   1   2
BRANCH   1  22
ATOM     22  C   UNL A   1      40.515  21.204  26.595  1.00  0.00     0.116 C 
BRANCH  22  23
ATOM     23  N   UNL A   1      41.699  21.429  25.773  1.00  0.00    -0.352 N 
ATOM     24  C   UNL A   1      42.344  22.645  25.566  1.00  0.00     0.251 C 
ATOM     25  H   UNL A   1      42.080  20.643  25.320  1.00  0.00     0.163 HD
ATOM     26  O   UNL A   1      43.139  22.811  24.673  1.00  0.00    -0.269 OA
BRANCH  24  27
ATOM     27  C   UNL A   1      41.998  23.749  26.488  1.00  0.00     0.039 A 
ATOM     28  C   UNL A   1      42.505  23.780  27.790  1.00  0.00     0.014 A 
ATOM     29  C   UNL A   1      41.266  24.815  25.975  1.00  0.00     0.014 A 
ATOM     30  C   UNL A   1      42.366  24.949  28.540  1.00  0.00     0.010 A 
ATOM     31  C   UNL A   1      41.228  26.000  26.675  1.00  0.00     0.010 A 
ATOM     32  C   UNL A   1      41.758  26.077  27.968  1.00  0.00    -0.014 A 
BRANCH  32  33
ATOM     33  C   UNL A   1      41.776  27.370  28.662  1.00  0.00     0.031 A 
ATOM     34  C   UNL A   1      42.866  28.338  28.304  1.00  0.00     0.074 A 
ATOM     35  C   UNL A   1      40.720  27.817  29.376  1.00  0.00     0.049 A 
ATOM     36  N   UNL A   1      43.656  28.990  29.100  1.00  0.00    -0.248 NA
ATOM     37  C   UNL A   1      43.112  28.614  26.880  1.00  0.00     0.031 C 
ATOM     38  C   UNL A   1      39.423  27.165  29.589  1.00  0.00     0.029 A 
ATOM     39  N   UNL A   1      40.539  29.042  29.946  1.00  0.00    -0.354 N 
ATOM     40  C   UNL A   1      44.412  29.853  28.302  1.00  0.00     0.074 A 
ATOM     41  C   UNL A   1      44.092  29.519  26.938  1.00  0.00     0.031 C 
ATOM     42  C   UNL A   1      38.525  28.081  30.010  1.00  0.00     0.029 A 
ATOM     43  C   UNL A   1      39.219  29.330  30.257  1.00  0.00     0.049 A 
ATOM     44  H   UNL A   1      41.280  29.667  30.122  1.00  0.00     0.167 HD
ATOM     45  C   UNL A   1      45.137  30.885  28.825  1.00  0.00     0.037 A 
ATOM     46  C   UNL A   1      38.718  30.522  30.656  1.00  0.00     0.037 A 
ATOM     47  C   UNL A   1      45.361  30.719  30.235  1.00  0.00     0.049 A 
ATOM     48  C   UNL A   1      39.845  31.329  31.178  1.00  0.00     0.074 A 
ATOM     49  C   UNL A   1      45.971  29.755  31.016  1.00  0.00     0.029 A 
ATOM     50  N   UNL A   1      44.651  31.494  31.118  1.00  0.00    -0.354 N 
ATOM     51  N   UNL A   1      40.486  31.059  32.280  1.00  0.00    -0.248 NA
ATOM     52  C   UNL A   1      40.534  32.219  30.255  1.00  0.00     0.031 C 
ATOM     53  C   UNL A   1      45.170  29.679  32.194  1.00  0.00     0.029 A 
ATOM     54  C   UNL A   1      44.161  30.633  32.065  1.00  0.00     0.049 A 
ATOM     55  H   UNL A   1      44.521  32.469  31.079  1.00  0.00     0.167 HD
ATOM     56  C   UNL A   1      41.805  31.384  32.007  1.00  0.00     0.074 A 
ATOM     57  C   UNL A   1      41.754  32.195  30.795  1.00  0.00     0.031 C 
ATOM     58  C   UNL A   1      42.835  30.733  32.622  1.00  0.00     0.037 A 
BRANCH  45  59
ATOM     59  C   UNL A   1      45.424  32.197  28.130  1.00  0.00     0.064 A 
ATOM     60  C   UNL A   1      44.359  33.071  27.820  1.00  0.00     0.173 A 
ATOM     61  C   UNL A   1      46.648  32.487  27.496  1.00  0.00     0.173 A 
ATOM     62  F   UNL A   1      43.141  32.884  28.351  1.00  0.00    -0.203 F 
ATOM     63  C   UNL A   1      44.493  34.105  26.887  1.00  0.00     0.198 A 
ATOM     64  C   UNL A   1      46.793  33.553  26.604  1.00  0.00     0.198 A 
ATOM     65  F   UNL A   1      47.716  31.691  27.627  1.00  0.00    -0.203 F 
ATOM     66  F   UNL A   1      43.421  34.827  26.532  1.00  0.00    -0.200 F 
ATOM     67  C   UNL A   1      45.709  34.340  26.275  1.00  0.00     0.200 A 
ATOM     68  F   UNL A   1      47.976  33.757  26.008  1.00  0.00    -0.200 F 
ATOM     69  F   UNL A   1      45.827  35.288  25.336  1.00  0.00    -0.200 F 
ENDBRANCH  45  59
BRANCH  46  70
ATOM     70  C   UNL A   1      37.363  31.075  30.437  1.00  0.00     0.064 A 
ATOM     71  C   UNL A   1      36.526  31.390  31.517  1.00  0.00     0.173 A 
ATOM     72  C   UNL A   1      36.956  31.537  29.170  1.00  0.00     0.173 A 
ATOM     73  F   UNL A   1      36.863  31.025  32.763  1.00  0.00    -0.203 F 
ATOM     74  C   UNL A   1      35.361  32.142  31.343  1.00  0.00     0.198 A 
ATOM     75  C   UNL A   1      35.786  32.275  28.996  1.00  0.00     0.198 A 
ATOM     76  F   UNL A   1      37.729  31.356  28.089  1.00  0.00    -0.203 F 
ATOM     77  F   UNL A   1      34.616  32.475  32.407  1.00  0.00    -0.200 F 
ATOM     78  C   UNL A   1      34.995  32.590  30.085  1.00  0.00     0.200 A 
ATOM     79  F   UNL A   1      35.460  32.727  27.776  1.00  0.00    -0.200 F 
ATOM     80  F   UNL A   1      33.906  33.355  29.927  1.00  0.00    -0.200 F 
ENDBRANCH  46  70
BRANCH  58  81
ATOM     81  C   UNL A   1      42.515  29.831  33.779  1.00  0.00     0.064 A 
ATOM     82  C   UNL A   1      42.103  28.494  33.634  1.00  0.00     0.173 A 
ATOM     83  C   UNL A   1      42.781  30.281  35.078  1.00  0.00     0.173 A 
ATOM     84  F   UNL A   1      41.940  27.949  32.423  1.00  0.00    -0.203 F 
ATOM     85  C   UNL A   1      41.913  27.668  34.739  1.00  0.00     0.198 A 
ATOM     86  C   UNL A   1      42.628  29.443  36.179  1.00  0.00     0.198 A 
ATOM     87  F   UNL A   1      43.241  31.528  35.276  1.00  0.00    -0.203 F 
ATOM     88  F   UNL A   1      41.505  26.402  34.570  1.00  0.00    -0.200 F 
ATOM     89  C   UNL A   1      42.182  28.142  36.011  1.00  0.00     0.200 A 
ATOM     90  F   UNL A   1      42.940  29.889  37.404  1.00  0.00    -0.200 F 
ATOM     91  F   UNL A   1      42.039  27.336  37.073  1.00  0.00    -0.200 F 
ENDBRANCH  58  81
ENDBRANCH  32  33
ENDBRANCH  24  27
ENDBRANCH  22  23
ENDBRANCH   1  22
TORSDOF 11
ENDMDL
MODEL 3
REMARK VINA RESULT:     -13.0      2.358      7.115
REMARK SMILES Cc1noc2c1-c1c(c(C(=O)NCCCCNC(=O)c3ccc(-c4c5nc(c(-c6c(F)c(F)c(F)c(F)c6F)c6ccc([nH]6)c(-c6c(F)c(F)c(F)c(F)c6F)c6nc(c(-c7c(F)c(F)c(F)c(F)c7F)c7ccc4[nH]7)C=C6)C=C5)cc3)nn1C)CC2
REMARK SMILES IDX 15 1 14 2 13 3 12 4 10 5 11 6 9 8 1 9 2 10 3 11 6 12 4 13
REMARK SMILES IDX 5 14 7 15 87 16 8 17 84 18 86 19 83 20 85 21 16 22 17 23
REMARK SMILES IDX 18 24 19 26 20 27 21 28 82 29 22 30 81 31 23 32 24 33 25 34
REMARK SMILES IDX 75 35 26 36 80 37 74 38 76 39 27 40 79 41 73 42 72 43 28 45
REMARK SMILES IDX 60 46 40 47 59 48 41 49 44 50 58 51 77 52 42 53 43 54 57 56
REMARK SMILES IDX 78 57 45 58 29 59 30 60 38 61 31 62 32 63 36 64 39 65 33 66
REMARK SMILES IDX 34 67 37 68 35 69 61 70 62 71 70 72 63 73 64 74 68 75 71 76
REMARK SMILES IDX 65 77 66 78 69 79 67 80 46 81 47 82 55 83 48 84 49 85 53 86
REMARK SMILES IDX 56 87 50 88 51 89 54 90 52 91
REMARK H PARENT 12 7 17 25 76 44 44 55
REMARK Flexibility Score: inf
ROOT
ATOM      1  C   UNL A   1      38.155  19.876  25.006  1.00  0.00     0.023 C 
ENDROOT
BRANCH   1   2
ATOM      2  C   UNL A   1      37.320  21.113  24.677  1.00  0.00     0.023 C 
BRANCH   2   3
ATOM      3  C   UNL A   1      36.784  21.957  25.832  1.00  0.00     0.116 C 
BRANCH   3   4
ATOM      4  N   UNL A   1      35.614  21.470  26.517  1.00  0.00    -0.351 N 
ATOM      5  C   UNL A   1      34.324  21.977  26.510  1.00  0.00     0.272 C 
ATOM      6  O   UNL A   1      33.499  21.341  27.173  1.00  0.00    -0.267 OA
ATOM      7  H   UNL A   1      35.749  20.664  27.065  1.00  0.00     0.163 HD
BRANCH   5   8
ATOM      8  C   UNL A   1      33.963  23.238  25.801  1.00  0.00     0.154 A 
ATOM      9  C   UNL A   1      33.498  28.262  23.324  1.00  0.00     0.071 C 
ATOM     10  C   UNL A   1      33.410  26.967  22.617  1.00  0.00     0.090 A 
ATOM     11  N   UNL A   1      33.333  26.969  21.272  1.00  0.00    -0.084 NA
ATOM     12  C   UNL A   1      33.432  25.649  23.108  1.00  0.00     0.066 A 
ATOM     13  O   UNL A   1      33.288  25.638  20.881  1.00  0.00    -0.360 OA
ATOM     14  C   UNL A   1      33.344  24.868  21.986  1.00  0.00     0.146 A 
ATOM     15  C   UNL A   1      33.541  24.935  24.396  1.00  0.00     0.077 A 
ATOM     16  C   UNL A   1      33.255  23.395  21.893  1.00  0.00     0.084 C 
ATOM     17  C   UNL A   1      33.785  23.566  24.411  1.00  0.00     0.012 A 
ATOM     18  N   UNL A   1      33.443  25.328  25.689  1.00  0.00    -0.267 N 
ATOM     19  C   UNL A   1      33.899  22.748  23.144  1.00  0.00     0.048 C 
ATOM     20  N   UNL A   1      33.714  24.335  26.553  1.00  0.00    -0.167 NA
ATOM     21  C   UNL A   1      32.999  26.598  26.207  1.00  0.00     0.174 C 
ENDBRANCH   5   8
ENDBRANCH   3   4
ENDBRANCH   2   3
ENDBRANCH   1   2
BRANCH   1  22
ATOM     22  C   UNL A   1      39.404  20.118  25.842  1.00  0.00     0.116 C 
BRANCH  22  23
ATOM     23  N   UNL A   1      40.415  19.070  25.750  1.00  0.00    -0.352 N 
ATOM     24  C   UNL A   1      41.788  19.227  25.916  1.00  0.00     0.251 C 
ATOM     25  H   UNL A   1      40.094  18.161  25.552  1.00  0.00     0.163 HD
ATOM     26  O   UNL A   1      42.581  18.388  25.562  1.00  0.00    -0.269 OA
BRANCH  24  27
ATOM     27  C   UNL A   1      42.244  20.489  26.537  1.00  0.00     0.039 A 
ATOM     28  C   UNL A   1      42.614  21.582  25.750  1.00  0.00     0.014 A 
ATOM     29  C   UNL A   1      42.165  20.593  27.922  1.00  0.00     0.014 A 
ATOM     30  C   UNL A   1      42.795  22.825  26.361  1.00  0.00     0.010 A 
ATOM     31  C   UNL A   1      42.236  21.839  28.506  1.00  0.00     0.010 A 
ATOM     32  C   UNL A   1      42.569  22.962  27.739  1.00  0.00    -0.014 A 
BRANCH  32  33
ATOM     33  C   UNL A   1      42.561  24.289  28.368  1.00  0.00     0.031 A 
ATOM     34  C   UNL A   1      41.353  25.154  28.155  1.00  0.00     0.074 A 
ATOM     35  C   UNL A   1      43.445  24.633  29.330  1.00  0.00     0.049 A 
ATOM     36  N   UNL A   1      41.308  26.394  27.779  1.00  0.00    -0.248 NA
ATOM     37  C   UNL A   1      40.025  24.564  28.387  1.00  0.00     0.031 C 
ATOM     38  C   UNL A   1      44.514  23.819  29.918  1.00  0.00     0.029 A 
ATOM     39  N   UNL A   1      43.468  25.760  30.096  1.00  0.00    -0.354 N 
ATOM     40  C   UNL A   1      39.970  26.789  27.846  1.00  0.00     0.074 A 
ATOM     41  C   UNL A   1      39.216  25.598  28.147  1.00  0.00     0.031 C 
ATOM     42  C   UNL A   1      44.902  24.367  31.089  1.00  0.00     0.029 A 
ATOM     43  C   UNL A   1      44.237  25.647  31.244  1.00  0.00     0.049 A 
ATOM     44  H   UNL A   1      42.982  26.583  29.855  1.00  0.00     0.167 HD
ATOM     45  C   UNL A   1      39.589  28.100  27.796  1.00  0.00     0.037 A 
ATOM     46  C   UNL A   1      44.300  26.524  32.272  1.00  0.00     0.037 A 
ATOM     47  C   UNL A   1      40.630  28.936  27.265  1.00  0.00     0.049 A 
ATOM     48  C   UNL A   1      43.814  27.833  31.774  1.00  0.00     0.074 A 
ATOM     49  C   UNL A   1      41.327  28.982  26.071  1.00  0.00     0.029 A 
ATOM     50  N   UNL A   1      41.339  29.743  28.120  1.00  0.00    -0.354 N 
ATOM     51  N   UNL A   1      44.457  28.568  30.910  1.00  0.00    -0.248 NA
ATOM     52  C   UNL A   1      42.402  28.143  31.932  1.00  0.00     0.031 C 
ATOM     53  C   UNL A   1      42.656  29.348  26.438  1.00  0.00     0.029 A 
ATOM     54  C   UNL A   1      42.661  29.542  27.819  1.00  0.00     0.049 A 
ATOM     55  H   UNL A   1      40.972  30.342  28.809  1.00  0.00     0.167 HD
ATOM     56  C   UNL A   1      43.465  29.127  30.121  1.00  0.00     0.074 A 
ATOM     57  C   UNL A   1      42.226  28.924  30.864  1.00  0.00     0.031 C 
ATOM     58  C   UNL A   1      43.699  29.448  28.814  1.00  0.00     0.037 A 
BRANCH  45  59
ATOM     59  C   UNL A   1      38.377  28.688  28.479  1.00  0.00     0.064 A 
ATOM     60  C   UNL A   1      37.592  29.651  27.805  1.00  0.00     0.173 A 
ATOM     61  C   UNL A   1      38.132  28.570  29.862  1.00  0.00     0.173 A 
ATOM     62  F   UNL A   1      37.750  29.864  26.490  1.00  0.00    -0.203 F 
ATOM     63  C   UNL A   1      36.693  30.483  28.481  1.00  0.00     0.198 A 
ATOM     64  C   UNL A   1      37.194  29.366  30.525  1.00  0.00     0.198 A 
ATOM     65  F   UNL A   1      38.862  27.763  30.641  1.00  0.00    -0.203 F 
ATOM     66  F   UNL A   1      36.066  31.465  27.819  1.00  0.00    -0.200 F 
ATOM     67  C   UNL A   1      36.499  30.343  29.842  1.00  0.00     0.200 A 
ATOM     68  F   UNL A   1      37.031  29.228  31.848  1.00  0.00    -0.200 F 
ATOM     69  F   UNL A   1      35.687  31.177  30.503  1.00  0.00    -0.200 F 
ENDBRANCH  45  59
BRANCH  46  70
ATOM     70  C   UNL A   1      44.570  26.256  33.701  1.00  0.00     0.064 A 
ATOM     71  C   UNL A   1      45.842  26.471  34.251  1.00  0.00     0.173 A 
ATOM     72  C   UNL A   1      43.523  26.018  34.613  1.00  0.00     0.173 A 
ATOM     73  F   UNL A   1      46.885  26.746  33.455  1.00  0.00    -0.203 F 
ATOM     74  C   UNL A   1      46.051  26.469  35.633  1.00  0.00     0.198 A 
ATOM     75  C   UNL A   1      43.735  26.002  35.992  1.00  0.00     0.198 A 
ATOM     76  F   UNL A   1      42.257  25.881  34.189  1.00  0.00    -0.203 F 
ATOM     77  F   UNL A   1      47.269  26.737  36.125  1.00  0.00    -0.200 F 
ATOM     78  C   UNL A   1      44.996  26.242  36.503  1.00  0.00     0.200 A 
ATOM     79  F   UNL A   1      42.699  25.810  36.822  1.00  0.00    -0.200 F 
ATOM     80  F   UNL A   1      45.187  26.293  37.828  1.00  0.00    -0.200 F 
ENDBRANCH  46  70
BRANCH  58  81
ATOM     81  C   UNL A   1      45.115  29.413  28.317  1.00  0.00     0.064 A 
ATOM     82  C   UNL A   1      45.731  28.260  27.798  1.00  0.00     0.173 A 
ATOM     83  C   UNL A   1      45.824  30.617  28.218  1.00  0.00     0.173 A 
ATOM     84  F   UNL A   1      45.079  27.094  27.746  1.00  0.00    -0.203 F 
ATOM     85  C   UNL A   1      47.014  28.302  27.258  1.00  0.00     0.198 A 
ATOM     86  C   UNL A   1      47.092  30.664  27.643  1.00  0.00     0.198 A 
ATOM     87  F   UNL A   1      45.264  31.764  28.636  1.00  0.00    -0.203 F 
ATOM     88  F   UNL A   1      47.580  27.182  26.784  1.00  0.00    -0.200 F 
ATOM     89  C   UNL A   1      47.691  29.506  27.176  1.00  0.00     0.200 A 
ATOM     90  F   UNL A   1      47.722  31.841  27.517  1.00  0.00    -0.200 F 
ATOM     91  F   UNL A   1      48.909  29.555  26.619  1.00  0.00    -0.200 F 
ENDBRANCH  58  81
ENDBRANCH  32  33
ENDBRANCH  24  27
ENDBRANCH  22  23
ENDBRANCH   1  22
TORSDOF 11
ENDMDL
