MODEL 1
REMARK VINA RESULT:     -12.2      0.000      0.000
REMARK SMILES O=C(C[C@@H](Cc1ccc(Br)cc1)C(=O)Nc1ccccc1)NCCCCNC(=O)c1ccc(-c2c3nc(c(-c4c(F)c(F)c(F)c(F)c4F)c4ccc([nH]4)c(-c4c(F)c(F)c(F)c(F)c4F)c4nc(c(-c5c(F)c(F)c(F)c(F)c5F)c5ccc2[nH]5)C=C4)C=C3)cc1
REMARK SMILES IDX 24 1 23 2 22 3 1 4 2 5 3 7 4 8 5 9 6 10 7 11 12 12 8 13
REMARK SMILES IDX 11 14 9 15 10 16 13 17 14 18 15 19 16 21 17 22 21 23 18 24
REMARK SMILES IDX 20 25 19 26 25 27 26 28 27 29 28 30 29 32 30 33 31 34 92 35
REMARK SMILES IDX 32 36 91 37 33 38 34 39 35 40 85 41 36 42 90 43 84 44 86 45
REMARK SMILES IDX 37 46 89 47 83 48 82 49 38 51 70 52 50 53 69 54 51 55 54 56
REMARK SMILES IDX 68 57 87 58 52 59 53 60 67 62 88 63 55 64 39 65 40 66 48 67
REMARK SMILES IDX 41 68 42 69 46 70 49 71 43 72 44 73 47 74 45 75 71 76 72 77
REMARK SMILES IDX 80 78 73 79 74 80 78 81 81 82 75 83 76 84 79 85 77 86 56 87
REMARK SMILES IDX 57 88 65 89 58 90 59 91 63 92 66 93 60 94 61 95 64 96 62 97
REMARK H PARENT 22 6 15 20 27 31 86 50 54 61
REMARK Flexibility Score: inf
ROOT
ATOM      1  C   UNL A   1      31.464  30.697  26.388  1.00  0.00     0.023 C 
ENDROOT
BRANCH   1   2
ATOM      2  C   UNL A   1      31.130  30.192  24.979  1.00  0.00     0.116 C 
BRANCH   2   3
ATOM      3  N   UNL A   1      31.159  28.745  24.922  1.00  0.00    -0.356 N 
ATOM      4  O   UNL A   1      31.207  28.527  22.638  1.00  0.00    -0.275 OA
ATOM      5  C   UNL A   1      31.103  28.025  23.751  1.00  0.00     0.220 C 
ATOM      6  H   UNL A   1      31.221  28.249  25.769  1.00  0.00     0.163 HD
BRANCH   5   7
ATOM      7  C   UNL A   1      30.762  26.557  23.948  1.00  0.00     0.113 C 
BRANCH   7   8
ATOM      8  C   UNL A   1      31.719  25.746  24.807  1.00  0.00     0.092 C 
BRANCH   8   9
ATOM      9  C   UNL A   1      33.234  26.047  24.734  1.00  0.00     0.049 C 
BRANCH   9  10
ATOM     10  C   UNL A   1      34.257  24.933  24.652  1.00  0.00    -0.047 A 
ATOM     11  C   UNL A   1      35.184  24.774  25.696  1.00  0.00     0.005 A 
ATOM     12  C   UNL A   1      34.281  23.993  23.614  1.00  0.00     0.005 A 
ATOM     13  C   UNL A   1      36.106  23.721  25.693  1.00  0.00     0.016 A 
ATOM     14  C   UNL A   1      35.191  22.933  23.611  1.00  0.00     0.016 A 
ATOM     15  C   UNL A   1      36.103  22.802  24.650  1.00  0.00     0.017 A 
ATOM     16  Br  UNL A   1      37.349  21.383  24.627  1.00  0.00    -0.051 Br
ENDBRANCH   9  10
ENDBRANCH   8   9
BRANCH   8  17
ATOM     17  C   UNL A   1      31.286  25.509  26.264  1.00  0.00     0.228 C 
ATOM     18  O   UNL A   1      30.733  26.434  26.875  1.00  0.00    -0.274 OA
ATOM     19  N   UNL A   1      31.284  24.290  26.876  1.00  0.00    -0.326 N 
ATOM     20  H   UNL A   1      30.675  24.239  27.648  1.00  0.00     0.169 HD
BRANCH  19  21
ATOM     21  C   UNL A   1      31.971  23.098  26.628  1.00  0.00     0.041 A 
ATOM     22  C   UNL A   1      31.564  22.320  25.542  1.00  0.00     0.026 A 
ATOM     23  C   UNL A   1      32.967  22.611  27.470  1.00  0.00     0.026 A 
ATOM     24  C   UNL A   1      32.251  21.146  25.217  1.00  0.00     0.002 A 
ATOM     25  C   UNL A   1      33.658  21.439  27.150  1.00  0.00     0.002 A 
ATOM     26  C   UNL A   1      33.315  20.720  26.009  1.00  0.00     0.000 A 
ENDBRANCH  19  21
ENDBRANCH   8  17
ENDBRANCH   7   8
ENDBRANCH   5   7
ENDBRANCH   2   3
ENDBRANCH   1   2
BRANCH   1  27
ATOM     27  C   UNL A   1      31.402  32.217  26.594  1.00  0.00     0.023 C 
BRANCH  27  28
ATOM     28  C   UNL A   1      32.672  32.874  27.123  1.00  0.00     0.116 C 
BRANCH  28  29
ATOM     29  N   UNL A   1      32.427  34.213  27.626  1.00  0.00    -0.352 N 
ATOM     30  C   UNL A   1      33.012  34.874  28.679  1.00  0.00     0.251 C 
ATOM     31  H   UNL A   1      31.741  34.723  27.141  1.00  0.00     0.163 HD
ATOM     32  O   UNL A   1      32.544  35.943  29.058  1.00  0.00    -0.269 OA
BRANCH  30  33
ATOM     33  C   UNL A   1      34.187  34.304  29.379  1.00  0.00     0.039 A 
ATOM     34  C   UNL A   1      33.974  33.569  30.550  1.00  0.00     0.014 A 
ATOM     35  C   UNL A   1      35.492  34.519  28.924  1.00  0.00     0.014 A 
ATOM     36  C   UNL A   1      35.057  33.007  31.232  1.00  0.00     0.010 A 
ATOM     37  C   UNL A   1      36.567  33.906  29.570  1.00  0.00     0.010 A 
ATOM     38  C   UNL A   1      36.362  33.145  30.732  1.00  0.00    -0.014 A 
BRANCH  38  39
ATOM     39  C   UNL A   1      37.516  32.497  31.409  1.00  0.00     0.031 A 
ATOM     40  C   UNL A   1      38.232  31.344  30.763  1.00  0.00     0.074 A 
ATOM     41  C   UNL A   1      37.886  32.911  32.636  1.00  0.00     0.049 A 
ATOM     42  N   UNL A   1      39.213  30.610  31.228  1.00  0.00    -0.248 NA
ATOM     43  C   UNL A   1      37.772  30.949  29.423  1.00  0.00     0.031 C 
ATOM     44  C   UNL A   1      37.250  33.991  33.391  1.00  0.00     0.029 A 
ATOM     45  N   UNL A   1      38.881  32.463  33.471  1.00  0.00    -0.354 N 
ATOM     46  C   UNL A   1      39.477  29.663  30.248  1.00  0.00     0.074 A 
ATOM     47  C   UNL A   1      38.522  29.883  29.182  1.00  0.00     0.031 C 
ATOM     48  C   UNL A   1      37.876  34.132  34.570  1.00  0.00     0.029 A 
ATOM     49  C   UNL A   1      38.935  33.130  34.670  1.00  0.00     0.049 A 
ATOM     50  H   UNL A   1      39.497  31.733  33.232  1.00  0.00     0.167 HD
ATOM     51  C   UNL A   1      40.439  28.709  30.229  1.00  0.00     0.037 A 
ATOM     52  C   UNL A   1      39.738  32.950  35.737  1.00  0.00     0.037 A 
ATOM     53  C   UNL A   1      41.402  28.502  31.280  1.00  0.00     0.049 A 
ATOM     54  C   UNL A   1      40.793  31.879  35.694  1.00  0.00     0.074 A 
ATOM     55  C   UNL A   1      42.447  27.595  31.328  1.00  0.00     0.029 A 
ATOM     56  N   UNL A   1      41.436  29.211  32.472  1.00  0.00    -0.354 N 
ATOM     57  N   UNL A   1      41.072  31.028  34.736  1.00  0.00    -0.248 NA
ATOM     58  C   UNL A   1      41.652  31.747  36.880  1.00  0.00     0.031 C 
ATOM     59  C   UNL A   1      43.086  27.725  32.566  1.00  0.00     0.029 A 
ATOM     60  C   UNL A   1      42.471  28.747  33.270  1.00  0.00     0.049 A 
ATOM     61  H   UNL A   1      40.817  29.937  32.716  1.00  0.00     0.167 HD
ATOM     62  C   UNL A   1      42.149  30.280  35.190  1.00  0.00     0.074 A 
ATOM     63  C   UNL A   1      42.485  30.786  36.505  1.00  0.00     0.031 C 
ATOM     64  C   UNL A   1      42.800  29.264  34.573  1.00  0.00     0.037 A 
BRANCH  51  65
ATOM     65  C   UNL A   1      40.503  27.811  29.027  1.00  0.00     0.064 A 
ATOM     66  C   UNL A   1      41.358  28.086  27.949  1.00  0.00     0.173 A 
ATOM     67  C   UNL A   1      39.730  26.641  28.969  1.00  0.00     0.173 A 
ATOM     68  F   UNL A   1      42.112  29.195  27.951  1.00  0.00    -0.203 F 
ATOM     69  C   UNL A   1      41.415  27.239  26.845  1.00  0.00     0.198 A 
ATOM     70  C   UNL A   1      39.811  25.781  27.876  1.00  0.00     0.198 A 
ATOM     71  F   UNL A   1      38.901  26.327  29.976  1.00  0.00    -0.203 F 
ATOM     72  F   UNL A   1      42.204  27.547  25.806  1.00  0.00    -0.200 F 
ATOM     73  C   UNL A   1      40.647  26.085  26.813  1.00  0.00     0.200 A 
ATOM     74  F   UNL A   1      39.079  24.659  27.853  1.00  0.00    -0.200 F 
ATOM     75  F   UNL A   1      40.709  25.266  25.752  1.00  0.00    -0.200 F 
ENDBRANCH  51  65
BRANCH  52  76
ATOM     76  C   UNL A   1      39.585  33.818  36.932  1.00  0.00     0.064 A 
ATOM     77  C   UNL A   1      38.789  33.419  38.015  1.00  0.00     0.173 A 
ATOM     78  C   UNL A   1      40.225  35.062  37.017  1.00  0.00     0.173 A 
ATOM     79  F   UNL A   1      38.138  32.246  37.971  1.00  0.00    -0.203 F 
ATOM     80  C   UNL A   1      38.625  34.239  39.129  1.00  0.00     0.198 A 
ATOM     81  C   UNL A   1      40.083  35.869  38.143  1.00  0.00     0.198 A 
ATOM     82  F   UNL A   1      41.000  35.490  36.008  1.00  0.00    -0.203 F 
ATOM     83  F   UNL A   1      37.823  33.853  40.130  1.00  0.00    -0.200 F 
ATOM     84  C   UNL A   1      39.278  35.461  39.195  1.00  0.00     0.200 A 
ATOM     85  F   UNL A   1      40.726  37.044  38.210  1.00  0.00    -0.200 F 
ATOM     86  F   UNL A   1      39.123  36.247  40.269  1.00  0.00    -0.200 F 
ENDBRANCH  52  76
BRANCH  64  87
ATOM     87  C   UNL A   1      43.964  28.651  35.297  1.00  0.00     0.064 A 
ATOM     88  C   UNL A   1      45.268  29.147  35.150  1.00  0.00     0.173 A 
ATOM     89  C   UNL A   1      43.765  27.576  36.177  1.00  0.00     0.173 A 
ATOM     90  F   UNL A   1      45.512  30.163  34.309  1.00  0.00    -0.203 F 
ATOM     91  C   UNL A   1      46.334  28.574  35.840  1.00  0.00     0.198 A 
ATOM     92  C   UNL A   1      44.829  27.024  36.886  1.00  0.00     0.198 A 
ATOM     93  F   UNL A   1      42.538  27.067  36.357  1.00  0.00    -0.203 F 
ATOM     94  F   UNL A   1      47.577  29.036  35.650  1.00  0.00    -0.200 F 
ATOM     95  C   UNL A   1      46.112  27.519  36.712  1.00  0.00     0.200 A 
ATOM     96  F   UNL A   1      44.611  26.013  37.739  1.00  0.00    -0.200 F 
ATOM     97  F   UNL A   1      47.138  26.974  37.380  1.00  0.00    -0.200 F 
ENDBRANCH  64  87
ENDBRANCH  38  39
ENDBRANCH  30  33
ENDBRANCH  28  29
ENDBRANCH  27  28
ENDBRANCH   1  27
TORSDOF 16
ENDMDL
MODEL 2
REMARK VINA RESULT:     -12.1      0.157      1.574
REMARK SMILES O=C(C[C@@H](Cc1ccc(Br)cc1)C(=O)Nc1ccccc1)NCCCCNC(=O)c1ccc(-c2c3nc(c(-c4c(F)c(F)c(F)c(F)c4F)c4ccc([nH]4)c(-c4c(F)c(F)c(F)c(F)c4F)c4nc(c(-c5c(F)c(F)c(F)c(F)c5F)c5ccc2[nH]5)C=C4)C=C3)cc1
REMARK SMILES IDX 24 1 23 2 22 3 1 4 2 5 3 7 4 8 5 9 6 10 7 11 12 12 8 13
REMARK SMILES IDX 11 14 9 15 10 16 13 17 14 18 15 19 16 21 17 22 21 23 18 24
REMARK SMILES IDX 20 25 19 26 25 27 26 28 27 29 28 30 29 32 30 33 31 34 92 35
REMARK SMILES IDX 32 36 91 37 33 38 34 39 35 40 85 41 36 42 90 43 84 44 86 45
REMARK SMILES IDX 37 46 89 47 83 48 82 49 38 51 70 52 50 53 69 54 51 55 54 56
REMARK SMILES IDX 68 57 87 58 52 59 53 60 67 62 88 63 55 64 39 65 40 66 48 67
REMARK SMILES IDX 41 68 42 69 46 70 49 71 43 72 44 73 47 74 45 75 71 76 72 77
REMARK SMILES IDX 80 78 73 79 74 80 78 81 81 82 75 83 76 84 79 85 77 86 56 87
REMARK SMILES IDX 57 88 65 89 58 90 59 91 63 92 66 93 60 94 61 95 64 96 62 97
REMARK H PARENT 22 6 15 20 27 31 86 50 54 61
REMARK Flexibility Score: inf
ROOT
ATOM      1  C   UNL A   1      31.495  30.707  26.389  1.00  0.00     0.023 C 
ENDROOT
BRANCH   1   2
ATOM      2  C   UNL A   1      31.047  30.191  25.017  1.00  0.00     0.116 C 
BRANCH   2   3
ATOM      3  N   UNL A   1      31.105  28.745  24.957  1.00  0.00    -0.356 N 
ATOM      4  O   UNL A   1      31.203  28.532  22.675  1.00  0.00    -0.275 OA
ATOM      5  C   UNL A   1      31.087  28.026  23.785  1.00  0.00     0.220 C 
ATOM      6  H   UNL A   1      31.160  28.248  25.805  1.00  0.00     0.163 HD
BRANCH   5   7
ATOM      7  C   UNL A   1      30.771  26.552  23.972  1.00  0.00     0.113 C 
BRANCH   7   8
ATOM      8  C   UNL A   1      31.770  25.740  24.782  1.00  0.00     0.092 C 
BRANCH   8   9
ATOM      9  C   UNL A   1      33.280  26.024  24.616  1.00  0.00     0.049 C 
BRANCH   9  10
ATOM     10  C   UNL A   1      34.297  24.902  24.587  1.00  0.00    -0.047 A 
ATOM     11  C   UNL A   1      35.199  24.766  25.656  1.00  0.00     0.005 A 
ATOM     12  C   UNL A   1      34.337  23.934  23.576  1.00  0.00     0.005 A 
ATOM     13  C   UNL A   1      36.113  23.707  25.702  1.00  0.00     0.016 A 
ATOM     14  C   UNL A   1      35.239  22.868  23.622  1.00  0.00     0.016 A 
ATOM     15  C   UNL A   1      36.127  22.760  24.684  1.00  0.00     0.017 A 
ATOM     16  Br  UNL A   1      37.362  21.333  24.728  1.00  0.00    -0.051 Br
ENDBRANCH   9  10
ENDBRANCH   8   9
BRANCH   8  17
ATOM     17  C   UNL A   1      31.421  25.523  26.265  1.00  0.00     0.228 C 
ATOM     18  O   UNL A   1      30.945  26.470  26.905  1.00  0.00    -0.274 OA
ATOM     19  N   UNL A   1      31.409  24.306  26.881  1.00  0.00    -0.326 N 
ATOM     20  H   UNL A   1      30.850  24.281  27.690  1.00  0.00     0.169 HD
BRANCH  19  21
ATOM     21  C   UNL A   1      32.032  23.087  26.594  1.00  0.00     0.041 A 
ATOM     22  C   UNL A   1      31.566  22.353  25.501  1.00  0.00     0.026 A 
ATOM     23  C   UNL A   1      33.018  22.534  27.406  1.00  0.00     0.026 A 
ATOM     24  C   UNL A   1      32.188  21.154  25.139  1.00  0.00     0.002 A 
ATOM     25  C   UNL A   1      33.644  21.337  27.048  1.00  0.00     0.002 A 
ATOM     26  C   UNL A   1      33.244  20.659  25.900  1.00  0.00     0.000 A 
ENDBRANCH  19  21
ENDBRANCH   8  17
ENDBRANCH   7   8
ENDBRANCH   5   7
ENDBRANCH   2   3
ENDBRANCH   1   2
BRANCH   1  27
ATOM     27  C   UNL A   1      31.413  32.225  26.600  1.00  0.00     0.023 C 
BRANCH  27  28
ATOM     28  C   UNL A   1      32.683  32.901  27.106  1.00  0.00     0.116 C 
BRANCH  28  29
ATOM     29  N   UNL A   1      32.429  34.240  27.606  1.00  0.00    -0.352 N 
ATOM     30  C   UNL A   1      33.013  34.910  28.653  1.00  0.00     0.251 C 
ATOM     31  H   UNL A   1      31.735  34.743  27.122  1.00  0.00     0.163 HD
ATOM     32  O   UNL A   1      32.537  35.976  29.031  1.00  0.00    -0.269 OA
BRANCH  30  33
ATOM     33  C   UNL A   1      34.196  34.352  29.349  1.00  0.00     0.039 A 
ATOM     34  C   UNL A   1      33.993  33.596  30.509  1.00  0.00     0.014 A 
ATOM     35  C   UNL A   1      35.498  34.598  28.903  1.00  0.00     0.014 A 
ATOM     36  C   UNL A   1      35.084  33.045  31.186  1.00  0.00     0.010 A 
ATOM     37  C   UNL A   1      36.583  33.997  29.544  1.00  0.00     0.010 A 
ATOM     38  C   UNL A   1      36.388  33.216  30.694  1.00  0.00    -0.014 A 
BRANCH  38  39
ATOM     39  C   UNL A   1      37.552  32.580  31.366  1.00  0.00     0.031 A 
ATOM     40  C   UNL A   1      38.280  31.436  30.715  1.00  0.00     0.074 A 
ATOM     41  C   UNL A   1      37.922  32.996  32.593  1.00  0.00     0.049 A 
ATOM     42  N   UNL A   1      39.270  30.714  31.176  1.00  0.00    -0.248 NA
ATOM     43  C   UNL A   1      37.820  31.038  29.377  1.00  0.00     0.031 C 
ATOM     44  C   UNL A   1      37.275  34.068  33.351  1.00  0.00     0.029 A 
ATOM     45  N   UNL A   1      38.924  32.559  33.423  1.00  0.00    -0.354 N 
ATOM     46  C   UNL A   1      39.542  29.771  30.194  1.00  0.00     0.074 A 
ATOM     47  C   UNL A   1      38.582  29.982  29.131  1.00  0.00     0.031 C 
ATOM     48  C   UNL A   1      37.904  34.214  34.528  1.00  0.00     0.029 A 
ATOM     49  C   UNL A   1      38.974  33.224  34.624  1.00  0.00     0.049 A 
ATOM     50  H   UNL A   1      39.548  31.836  33.181  1.00  0.00     0.167 HD
ATOM     51  C   UNL A   1      40.515  28.828  30.170  1.00  0.00     0.037 A 
ATOM     52  C   UNL A   1      39.783  33.052  35.687  1.00  0.00     0.037 A 
ATOM     53  C   UNL A   1      41.484  28.631  31.218  1.00  0.00     0.049 A 
ATOM     54  C   UNL A   1      40.851  31.993  35.638  1.00  0.00     0.074 A 
ATOM     55  C   UNL A   1      42.540  27.737  31.260  1.00  0.00     0.029 A 
ATOM     56  N   UNL A   1      41.514  29.338  32.410  1.00  0.00    -0.354 N 
ATOM     57  N   UNL A   1      41.136  31.147  34.679  1.00  0.00    -0.248 NA
ATOM     58  C   UNL A   1      41.715  31.869  36.821  1.00  0.00     0.031 C 
ATOM     59  C   UNL A   1      43.181  27.872  32.496  1.00  0.00     0.029 A 
ATOM     60  C   UNL A   1      42.557  28.885  33.204  1.00  0.00     0.049 A 
ATOM     61  H   UNL A   1      40.887  30.057  32.657  1.00  0.00     0.167 HD
ATOM     62  C   UNL A   1      42.224  30.411  35.128  1.00  0.00     0.074 A 
ATOM     63  C   UNL A   1      42.558  30.920  36.442  1.00  0.00     0.031 C 
ATOM     64  C   UNL A   1      42.885  29.405  34.507  1.00  0.00     0.037 A 
BRANCH  51  65
ATOM     65  C   UNL A   1      40.585  27.933  28.966  1.00  0.00     0.064 A 
ATOM     66  C   UNL A   1      39.817  26.763  28.874  1.00  0.00     0.173 A 
ATOM     67  C   UNL A   1      41.400  28.269  27.874  1.00  0.00     0.173 A 
ATOM     68  F   UNL A   1      39.027  26.392  29.893  1.00  0.00    -0.203 F 
ATOM     69  C   UNL A   1      39.883  25.948  27.747  1.00  0.00     0.198 A 
ATOM     70  C   UNL A   1      41.443  27.467  26.737  1.00  0.00     0.198 A 
ATOM     71  F   UNL A   1      42.150  29.381  27.906  1.00  0.00    -0.203 F 
ATOM     72  F   UNL A   1      39.176  24.810  27.703  1.00  0.00    -0.200 F 
ATOM     73  C   UNL A   1      40.690  26.304  26.677  1.00  0.00     0.200 A 
ATOM     74  F   UNL A   1      42.212  27.819  25.698  1.00  0.00    -0.200 F 
ATOM     75  F   UNL A   1      40.747  25.522  25.590  1.00  0.00    -0.200 F 
ENDBRANCH  51  65
BRANCH  52  76
ATOM     76  C   UNL A   1      39.624  33.917  36.884  1.00  0.00     0.064 A 
ATOM     77  C   UNL A   1      38.849  33.499  37.975  1.00  0.00     0.173 A 
ATOM     78  C   UNL A   1      40.238  35.175  36.962  1.00  0.00     0.173 A 
ATOM     79  F   UNL A   1      38.224  32.313  37.938  1.00  0.00    -0.203 F 
ATOM     80  C   UNL A   1      38.679  34.316  39.092  1.00  0.00     0.198 A 
ATOM     81  C   UNL A   1      40.090  35.978  38.091  1.00  0.00     0.198 A 
ATOM     82  F   UNL A   1      40.991  35.619  35.945  1.00  0.00    -0.203 F 
ATOM     83  F   UNL A   1      37.898  33.911  40.101  1.00  0.00    -0.200 F 
ATOM     84  C   UNL A   1      39.306  35.551  39.151  1.00  0.00     0.200 A 
ATOM     85  F   UNL A   1      40.708  37.166  38.150  1.00  0.00    -0.200 F 
ATOM     86  F   UNL A   1      39.145  36.335  40.227  1.00  0.00    -0.200 F 
ENDBRANCH  52  76
BRANCH  64  87
ATOM     87  C   UNL A   1      44.058  28.804  35.225  1.00  0.00     0.064 A 
ATOM     88  C   UNL A   1      43.914  27.702  36.082  1.00  0.00     0.173 A 
ATOM     89  C   UNL A   1      45.350  29.315  35.025  1.00  0.00     0.173 A 
ATOM     90  F   UNL A   1      42.698  27.187  36.319  1.00  0.00    -0.203 F 
ATOM     91  C   UNL A   1      45.016  27.149  36.730  1.00  0.00     0.198 A 
ATOM     92  C   UNL A   1      46.453  28.742  35.652  1.00  0.00     0.198 A 
ATOM     93  F   UNL A   1      45.544  30.364  34.212  1.00  0.00    -0.203 F 
ATOM     94  F   UNL A   1      44.847  26.126  37.578  1.00  0.00    -0.200 F 
ATOM     95  C   UNL A   1      46.284  27.665  36.508  1.00  0.00     0.200 A 
ATOM     96  F   UNL A   1      47.680  29.232  35.427  1.00  0.00    -0.200 F 
ATOM     97  F   UNL A   1      47.344  27.127  37.127  1.00  0.00    -0.200 F 
ENDBRANCH  64  87
ENDBRANCH  38  39
ENDBRANCH  30  33
ENDBRANCH  28  29
ENDBRANCH  27  28
ENDBRANCH   1  27
TORSDOF 16
ENDMDL
MODEL 3
REMARK VINA RESULT:     -12.1      5.552     11.031
REMARK SMILES O=C(C[C@@H](Cc1ccc(Br)cc1)C(=O)Nc1ccccc1)NCCCCNC(=O)c1ccc(-c2c3nc(c(-c4c(F)c(F)c(F)c(F)c4F)c4ccc([nH]4)c(-c4c(F)c(F)c(F)c(F)c4F)c4nc(c(-c5c(F)c(F)c(F)c(F)c5F)c5ccc2[nH]5)C=C4)C=C3)cc1
REMARK SMILES IDX 24 1 23 2 22 3 1 4 2 5 3 7 4 8 5 9 6 10 7 11 12 12 8 13
REMARK SMILES IDX 11 14 9 15 10 16 13 17 14 18 15 19 16 21 17 22 21 23 18 24
REMARK SMILES IDX 20 25 19 26 25 27 26 28 27 29 28 30 29 32 30 33 31 34 92 35
REMARK SMILES IDX 32 36 91 37 33 38 34 39 35 40 85 41 36 42 90 43 84 44 86 45
REMARK SMILES IDX 37 46 89 47 83 48 82 49 38 51 70 52 50 53 69 54 51 55 54 56
REMARK SMILES IDX 68 57 87 58 52 59 53 60 67 62 88 63 55 64 39 65 40 66 48 67
REMARK SMILES IDX 41 68 42 69 46 70 49 71 43 72 44 73 47 74 45 75 71 76 72 77
REMARK SMILES IDX 80 78 73 79 74 80 78 81 81 82 75 83 76 84 79 85 77 86 56 87
REMARK SMILES IDX 57 88 65 89 58 90 59 91 63 92 66 93 60 94 61 95 64 96 62 97
REMARK H PARENT 22 6 15 20 27 31 86 50 54 61
REMARK Flexibility Score: inf
ROOT
ATOM      1  C   UNL A   1      36.507  20.352  25.001  1.00  0.00     0.023 C 
ENDROOT
BRANCH   1   2
ATOM      2  C   UNL A   1      36.332  21.777  24.462  1.00  0.00     0.116 C 
BRANCH   2   3
ATOM      3  N   UNL A   1      34.931  22.134  24.373  1.00  0.00    -0.356 N 
ATOM      4  O   UNL A   1      34.678  22.930  26.510  1.00  0.00    -0.275 OA
ATOM      5  C   UNL A   1      34.191  22.599  25.435  1.00  0.00     0.220 C 
ATOM      6  H   UNL A   1      34.482  22.038  23.502  1.00  0.00     0.163 HD
BRANCH   5   7
ATOM      7  C   UNL A   1      32.689  22.540  25.212  1.00  0.00     0.113 C 
BRANCH   7   8
ATOM      8  C   UNL A   1      31.960  23.873  25.138  1.00  0.00     0.092 C 
BRANCH   8   9
ATOM      9  C   UNL A   1      30.916  24.098  24.020  1.00  0.00     0.049 C 
BRANCH   9  10
ATOM     10  C   UNL A   1      30.583  25.487  23.518  1.00  0.00    -0.047 A 
ATOM     11  C   UNL A   1      29.363  26.077  23.890  1.00  0.00     0.005 A 
ATOM     12  C   UNL A   1      31.471  26.257  22.756  1.00  0.00     0.005 A 
ATOM     13  C   UNL A   1      29.042  27.383  23.501  1.00  0.00     0.016 A 
ATOM     14  C   UNL A   1      31.161  27.565  22.375  1.00  0.00     0.016 A 
ATOM     15  C   UNL A   1      29.945  28.123  22.747  1.00  0.00     0.017 A 
ATOM     16  Br  UNL A   1      29.520  29.881  22.207  1.00  0.00    -0.051 Br
ENDBRANCH   9  10
ENDBRANCH   8   9
BRANCH   8  17
ATOM     17  C   UNL A   1      31.451  24.441  26.474  1.00  0.00     0.228 C 
ATOM     18  O   UNL A   1      30.856  23.682  27.251  1.00  0.00    -0.274 OA
ATOM     19  N   UNL A   1      31.780  25.672  26.961  1.00  0.00    -0.326 N 
ATOM     20  H   UNL A   1      31.677  25.749  27.936  1.00  0.00     0.169 HD
BRANCH  19  21
ATOM     21  C   UNL A   1      32.235  26.846  26.353  1.00  0.00     0.041 A 
ATOM     22  C   UNL A   1      31.379  27.949  26.333  1.00  0.00     0.026 A 
ATOM     23  C   UNL A   1      33.454  26.926  25.686  1.00  0.00     0.026 A 
ATOM     24  C   UNL A   1      31.805  29.163  25.785  1.00  0.00     0.002 A 
ATOM     25  C   UNL A   1      33.885  28.138  25.138  1.00  0.00     0.002 A 
ATOM     26  C   UNL A   1      33.069  29.263  25.209  1.00  0.00     0.000 A 
ENDBRANCH  19  21
ENDBRANCH   8  17
ENDBRANCH   7   8
ENDBRANCH   5   7
ENDBRANCH   2   3
ENDBRANCH   1   2
BRANCH   1  27
ATOM     27  C   UNL A   1      37.891  19.719  24.800  1.00  0.00     0.023 C 
BRANCH  27  28
ATOM     28  C   UNL A   1      38.983  20.176  25.761  1.00  0.00     0.116 C 
BRANCH  28  29
ATOM     29  N   UNL A   1      40.035  19.187  25.905  1.00  0.00    -0.352 N 
ATOM     30  C   UNL A   1      41.380  19.364  26.125  1.00  0.00     0.251 C 
ATOM     31  H   UNL A   1      39.742  18.251  25.835  1.00  0.00     0.163 HD
ATOM     32  O   UNL A   1      42.138  18.403  26.042  1.00  0.00    -0.269 OA
BRANCH  30  33
ATOM     33  C   UNL A   1      41.932  20.703  26.437  1.00  0.00     0.039 A 
ATOM     34  C   UNL A   1      42.228  21.566  25.376  1.00  0.00     0.014 A 
ATOM     35  C   UNL A   1      42.200  21.102  27.750  1.00  0.00     0.014 A 
ATOM     36  C   UNL A   1      42.740  22.841  25.632  1.00  0.00     0.010 A 
ATOM     37  C   UNL A   1      42.654  22.397  28.008  1.00  0.00     0.010 A 
ATOM     38  C   UNL A   1      42.930  23.280  26.953  1.00  0.00    -0.014 A 
BRANCH  38  39
ATOM     39  C   UNL A   1      43.410  24.657  27.242  1.00  0.00     0.031 A 
ATOM     40  C   UNL A   1      42.471  25.694  27.792  1.00  0.00     0.074 A 
ATOM     41  C   UNL A   1      44.684  24.992  26.958  1.00  0.00     0.049 A 
ATOM     42  N   UNL A   1      42.689  26.962  28.043  1.00  0.00    -0.248 NA
ATOM     43  C   UNL A   1      41.097  25.255  28.077  1.00  0.00     0.031 C 
ATOM     44  C   UNL A   1      45.686  24.092  26.385  1.00  0.00     0.029 A 
ATOM     45  N   UNL A   1      45.350  26.184  27.100  1.00  0.00    -0.354 N 
ATOM     46  C   UNL A   1      41.482  27.472  28.502  1.00  0.00     0.074 A 
ATOM     47  C   UNL A   1      40.521  26.389  28.450  1.00  0.00     0.031 C 
ATOM     48  C   UNL A   1      46.841  24.758  26.237  1.00  0.00     0.029 A 
ATOM     49  C   UNL A   1      46.654  26.141  26.670  1.00  0.00     0.049 A 
ATOM     50  H   UNL A   1      44.933  26.994  27.475  1.00  0.00     0.167 HD
ATOM     51  C   UNL A   1      41.204  28.721  28.944  1.00  0.00     0.037 A 
ATOM     52  C   UNL A   1      47.591  27.107  26.619  1.00  0.00     0.037 A 
ATOM     53  C   UNL A   1      42.164  29.794  29.015  1.00  0.00     0.049 A 
ATOM     54  C   UNL A   1      47.254  28.489  27.110  1.00  0.00     0.074 A 
ATOM     55  C   UNL A   1      41.989  31.079  29.498  1.00  0.00     0.029 A 
ATOM     56  N   UNL A   1      43.480  29.705  28.588  1.00  0.00    -0.354 N 
ATOM     57  N   UNL A   1      46.126  28.943  27.597  1.00  0.00    -0.248 NA
ATOM     58  C   UNL A   1      48.327  29.493  27.048  1.00  0.00     0.031 C 
ATOM     59  C   UNL A   1      43.185  31.782  29.322  1.00  0.00     0.029 A 
ATOM     60  C   UNL A   1      44.122  30.919  28.776  1.00  0.00     0.049 A 
ATOM     61  H   UNL A   1      43.898  28.899  28.207  1.00  0.00     0.167 HD
ATOM     62  C   UNL A   1      46.357  30.272  27.923  1.00  0.00     0.074 A 
ATOM     63  C   UNL A   1      47.740  30.549  27.593  1.00  0.00     0.031 C 
ATOM     64  C   UNL A   1      45.501  31.181  28.450  1.00  0.00     0.037 A 
BRANCH  51  65
ATOM     65  C   UNL A   1      39.798  29.002  29.393  1.00  0.00     0.064 A 
ATOM     66  C   UNL A   1      38.819  29.460  28.498  1.00  0.00     0.173 A 
ATOM     67  C   UNL A   1      39.415  28.773  30.723  1.00  0.00     0.173 A 
ATOM     68  F   UNL A   1      39.135  29.702  27.217  1.00  0.00    -0.203 F 
ATOM     69  C   UNL A   1      37.516  29.706  28.925  1.00  0.00     0.198 A 
ATOM     70  C   UNL A   1      38.104  28.993  31.140  1.00  0.00     0.198 A 
ATOM     71  F   UNL A   1      40.310  28.329  31.618  1.00  0.00    -0.203 F 
ATOM     72  F   UNL A   1      36.610  30.188  28.063  1.00  0.00    -0.200 F 
ATOM     73  C   UNL A   1      37.159  29.466  30.243  1.00  0.00     0.200 A 
ATOM     74  F   UNL A   1      37.757  28.747  32.411  1.00  0.00    -0.200 F 
ATOM     75  F   UNL A   1      35.902  29.696  30.651  1.00  0.00    -0.200 F 
ENDBRANCH  51  65
BRANCH  52  76
ATOM     76  C   UNL A   1      48.946  26.795  26.098  1.00  0.00     0.064 A 
ATOM     77  C   UNL A   1      49.268  27.017  24.751  1.00  0.00     0.173 A 
ATOM     78  C   UNL A   1      49.944  26.267  26.929  1.00  0.00     0.173 A 
ATOM     79  F   UNL A   1      48.340  27.500  23.912  1.00  0.00    -0.203 F 
ATOM     80  C   UNL A   1      50.531  26.706  24.252  1.00  0.00     0.198 A 
ATOM     81  C   UNL A   1      51.215  25.982  26.435  1.00  0.00     0.198 A 
ATOM     82  F   UNL A   1      49.687  26.038  28.225  1.00  0.00    -0.203 F 
ATOM     83  F   UNL A   1      50.798  26.887  22.952  1.00  0.00    -0.200 F 
ATOM     84  C   UNL A   1      51.505  26.195  25.096  1.00  0.00     0.200 A 
ATOM     85  F   UNL A   1      52.159  25.501  27.256  1.00  0.00    -0.200 F 
ATOM     86  F   UNL A   1      52.722  25.900  24.617  1.00  0.00    -0.200 F 
ENDBRANCH  52  76
BRANCH  64  87
ATOM     87  C   UNL A   1      46.039  32.554  28.732  1.00  0.00     0.064 A 
ATOM     88  C   UNL A   1      46.655  32.868  29.952  1.00  0.00     0.173 A 
ATOM     89  C   UNL A   1      45.970  33.557  27.753  1.00  0.00     0.173 A 
ATOM     90  F   UNL A   1      46.731  31.948  30.925  1.00  0.00    -0.203 F 
ATOM     91  C   UNL A   1      47.161  34.143  30.191  1.00  0.00     0.198 A 
ATOM     92  C   UNL A   1      46.503  34.822  27.985  1.00  0.00     0.198 A 
ATOM     93  F   UNL A   1      45.396  33.307  26.567  1.00  0.00    -0.203 F 
ATOM     94  F   UNL A   1      47.705  34.433  31.381  1.00  0.00    -0.200 F 
ATOM     95  C   UNL A   1      47.091  35.116  29.205  1.00  0.00     0.200 A 
ATOM     96  F   UNL A   1      46.446  35.758  27.027  1.00  0.00    -0.200 F 
ATOM     97  F   UNL A   1      47.585  36.341  29.435  1.00  0.00    -0.200 F 
ENDBRANCH  64  87
ENDBRANCH  38  39
ENDBRANCH  30  33
ENDBRANCH  28  29
ENDBRANCH  27  28
ENDBRANCH   1  27
TORSDOF 16
ENDMDL
