MODEL 1
REMARK VINA RESULT:     -13.3      0.000      0.000
REMARK SMILES CC1(C)CCN(c2nc3c(cc2C(=O)NCCCCNC(=O)c2ccc(-c4c5nc(c(-c6c(F)c(F)c(F)c(F)c6F)c6ccc([nH]6)c(-c6c(F)c(F)c(F)c(F)c6F)c6nc(c(-c7c(F)c(F)c(F)c(F)c7F)c7ccc4[nH]7)C=C6)C=C5)cc2)CCC3)C1
REMARK SMILES IDX 18 1 17 2 16 3 15 4 13 5 14 6 12 8 7 9 8 10 9 11 11 12 10 13
REMARK SMILES IDX 88 14 86 15 87 16 6 17 1 18 2 19 3 20 4 21 89 22 5 23 19 24
REMARK SMILES IDX 20 25 21 26 22 28 23 29 24 30 85 31 25 32 84 33 26 34 27 35
REMARK SMILES IDX 28 36 78 37 29 38 83 39 77 40 79 41 30 42 82 43 76 44 75 45
REMARK SMILES IDX 31 47 63 48 43 49 62 50 44 51 47 52 61 53 80 54 45 55 46 56
REMARK SMILES IDX 60 58 81 59 48 60 32 61 33 62 41 63 34 64 35 65 39 66 42 67
REMARK SMILES IDX 36 68 37 69 40 70 38 71 64 72 65 73 73 74 66 75 67 76 71 77
REMARK SMILES IDX 74 78 68 79 69 80 72 81 70 82 49 83 50 84 58 85 51 86 52 87
REMARK SMILES IDX 56 88 59 89 53 90 54 91 57 92 55 93
REMARK H PARENT 15 7 20 27 79 46 47 57
REMARK Flexibility Score: inf
ROOT
ATOM      1  C   UNL A   1      33.503  31.905  28.114  1.00  0.00     0.023 C 
ENDROOT
BRANCH   1   2
ATOM      2  C   UNL A   1      34.464  30.805  27.660  1.00  0.00     0.023 C 
BRANCH   2   3
ATOM      3  C   UNL A   1      33.863  29.655  26.861  1.00  0.00     0.116 C 
BRANCH   3   4
ATOM      4  N   UNL A   1      32.636  29.105  27.388  1.00  0.00    -0.352 N 
ATOM      5  C   UNL A   1      32.015  27.918  27.059  1.00  0.00     0.255 C 
ATOM      6  O   UNL A   1      31.028  27.593  27.724  1.00  0.00    -0.269 OA
ATOM      7  H   UNL A   1      32.184  29.648  28.072  1.00  0.00     0.163 HD
BRANCH   5   8
ATOM      8  C   UNL A   1      32.394  27.075  25.891  1.00  0.00     0.082 A 
ATOM      9  C   UNL A   1      31.751  27.037  24.633  1.00  0.00     0.141 A 
ATOM     10  N   UNL A   1      32.161  26.191  23.647  1.00  0.00    -0.235 NA
ATOM     11  C   UNL A   1      33.238  25.431  23.894  1.00  0.00     0.046 A 
ATOM     12  C   UNL A   1      33.531  26.265  26.097  1.00  0.00     0.023 A 
ATOM     13  C   UNL A   1      33.949  25.436  25.078  1.00  0.00    -0.025 A 
ATOM     14  C   UNL A   1      33.878  24.528  22.880  1.00  0.00     0.057 C 
ATOM     15  C   UNL A   1      35.135  24.534  24.999  1.00  0.00     0.038 C 
ATOM     16  C   UNL A   1      34.770  23.666  23.783  1.00  0.00     0.011 C 
BRANCH   9  17
ATOM     17  N   UNL A   1      30.701  27.860  24.292  1.00  0.00    -0.355 N 
ATOM     18  C   UNL A   1      29.972  29.905  21.675  1.00  0.00     0.013 C 
ATOM     19  C   UNL A   1      29.697  29.708  23.173  1.00  0.00    -0.016 C 
ATOM     20  C   UNL A   1      29.150  31.010  23.764  1.00  0.00     0.013 C 
ATOM     21  C   UNL A   1      28.704  28.543  23.363  1.00  0.00     0.030 C 
ATOM     22  C   UNL A   1      30.978  29.246  23.927  1.00  0.00     0.124 C 
ATOM     23  C   UNL A   1      29.606  27.324  23.501  1.00  0.00     0.119 C 
ENDBRANCH   9  17
ENDBRANCH   5   8
ENDBRANCH   3   4
ENDBRANCH   2   3
ENDBRANCH   1   2
BRANCH   1  24
ATOM     24  C   UNL A   1      33.229  33.048  27.140  1.00  0.00     0.116 C 
BRANCH  24  25
ATOM     25  N   UNL A   1      32.570  34.203  27.731  1.00  0.00    -0.352 N 
ATOM     26  C   UNL A   1      32.989  35.043  28.738  1.00  0.00     0.251 C 
ATOM     27  H   UNL A   1      31.688  34.418  27.351  1.00  0.00     0.163 HD
ATOM     28  O   UNL A   1      32.325  36.023  29.050  1.00  0.00    -0.269 OA
BRANCH  26  29
ATOM     29  C   UNL A   1      34.200  34.700  29.508  1.00  0.00     0.039 A 
ATOM     30  C   UNL A   1      34.025  34.176  30.791  1.00  0.00     0.014 A 
ATOM     31  C   UNL A   1      35.474  34.791  28.942  1.00  0.00     0.014 A 
ATOM     32  C   UNL A   1      35.114  33.620  31.459  1.00  0.00     0.010 A 
ATOM     33  C   UNL A   1      36.551  34.184  29.586  1.00  0.00     0.010 A 
ATOM     34  C   UNL A   1      36.368  33.562  30.832  1.00  0.00    -0.014 A 
BRANCH  34  35
ATOM     35  C   UNL A   1      37.471  32.782  31.439  1.00  0.00     0.031 A 
ATOM     36  C   UNL A   1      37.976  33.121  32.807  1.00  0.00     0.074 A 
ATOM     37  C   UNL A   1      38.041  31.790  30.727  1.00  0.00     0.049 A 
ATOM     38  N   UNL A   1      38.932  32.552  33.495  1.00  0.00    -0.248 NA
ATOM     39  C   UNL A   1      37.331  34.252  33.487  1.00  0.00     0.031 C 
ATOM     40  C   UNL A   1      37.658  31.398  29.369  1.00  0.00     0.029 A 
ATOM     41  N   UNL A   1      39.063  30.931  31.045  1.00  0.00    -0.354 N 
ATOM     42  C   UNL A   1      39.000  33.251  34.691  1.00  0.00     0.074 A 
ATOM     43  C   UNL A   1      38.023  34.318  34.615  1.00  0.00     0.031 C 
ATOM     44  C   UNL A   1      38.414  30.359  28.982  1.00  0.00     0.029 A 
ATOM     45  C   UNL A   1      39.352  30.028  30.051  1.00  0.00     0.049 A 
ATOM     46  H   UNL A   1      39.542  30.958  31.903  1.00  0.00     0.167 HD
ATOM     47  C   UNL A   1      39.788  33.007  35.763  1.00  0.00     0.037 A 
ATOM     48  C   UNL A   1      40.267  29.042  30.010  1.00  0.00     0.037 A 
ATOM     49  C   UNL A   1      40.754  31.945  35.836  1.00  0.00     0.049 A 
ATOM     50  C   UNL A   1      41.150  28.811  31.205  1.00  0.00     0.074 A 
ATOM     51  C   UNL A   1      41.575  31.596  36.893  1.00  0.00     0.029 A 
ATOM     52  N   UNL A   1      41.029  31.059  34.804  1.00  0.00    -0.354 N 
ATOM     53  N   UNL A   1      41.166  29.442  32.352  1.00  0.00    -0.248 NA
ATOM     54  C   UNL A   1      42.143  27.732  31.098  1.00  0.00     0.031 C 
ATOM     55  C   UNL A   1      42.370  30.517  36.491  1.00  0.00     0.029 A 
ATOM     56  C   UNL A   1      42.021  30.175  35.195  1.00  0.00     0.049 A 
ATOM     57  H   UNL A   1      40.586  31.060  33.926  1.00  0.00     0.167 HD
ATOM     58  C   UNL A   1      42.151  28.829  33.112  1.00  0.00     0.074 A 
ATOM     59  C   UNL A   1      42.706  27.767  32.299  1.00  0.00     0.031 C 
ATOM     60  C   UNL A   1      42.558  29.121  34.371  1.00  0.00     0.037 A 
BRANCH  47  61
ATOM     61  C   UNL A   1      39.624  33.904  36.951  1.00  0.00     0.064 A 
ATOM     62  C   UNL A   1      40.258  35.155  37.009  1.00  0.00     0.173 A 
ATOM     63  C   UNL A   1      38.807  33.528  38.026  1.00  0.00     0.173 A 
ATOM     64  F   UNL A   1      41.060  35.551  36.009  1.00  0.00    -0.203 F 
ATOM     65  C   UNL A   1      40.096  35.987  38.112  1.00  0.00     0.198 A 
ATOM     66  C   UNL A   1      38.630  34.373  39.118  1.00  0.00     0.198 A 
ATOM     67  F   UNL A   1      38.179  32.342  38.016  1.00  0.00    -0.203 F 
ATOM     68  F   UNL A   1      40.741  37.160  38.165  1.00  0.00    -0.200 F 
ATOM     69  C   UNL A   1      39.278  35.599  39.163  1.00  0.00     0.200 A 
ATOM     70  F   UNL A   1      37.836  34.000  40.131  1.00  0.00    -0.200 F 
ATOM     71  F   UNL A   1      39.121  36.403  40.223  1.00  0.00    -0.200 F 
ENDBRANCH  47  61
BRANCH  48  72
ATOM     72  C   UNL A   1      40.363  28.173  28.811  1.00  0.00     0.064 A 
ATOM     73  C   UNL A   1      39.660  26.962  28.748  1.00  0.00     0.173 A 
ATOM     74  C   UNL A   1      41.140  28.537  27.704  1.00  0.00     0.173 A 
ATOM     75  F   UNL A   1      38.919  26.564  29.793  1.00  0.00    -0.203 F 
ATOM     76  C   UNL A   1      39.738  26.142  27.624  1.00  0.00     0.198 A 
ATOM     77  C   UNL A   1      41.203  27.726  26.572  1.00  0.00     0.198 A 
ATOM     78  F   UNL A   1      41.830  29.688  27.716  1.00  0.00    -0.203 F 
ATOM     79  F   UNL A   1      39.079  24.976  27.600  1.00  0.00    -0.200 F 
ATOM     80  C   UNL A   1      40.506  26.528  26.534  1.00  0.00     0.200 A 
ATOM     81  F   UNL A   1      41.938  28.106  25.518  1.00  0.00    -0.200 F 
ATOM     82  F   UNL A   1      40.576  25.742  25.451  1.00  0.00    -0.200 F 
ENDBRANCH  48  72
BRANCH  60  83
ATOM     83  C   UNL A   1      43.647  28.276  34.957  1.00  0.00     0.064 A 
ATOM     84  C   UNL A   1      44.992  28.664  34.877  1.00  0.00     0.173 A 
ATOM     85  C   UNL A   1      43.336  27.108  35.668  1.00  0.00     0.173 A 
ATOM     86  F   UNL A   1      45.336  29.766  34.194  1.00  0.00    -0.203 F 
ATOM     87  C   UNL A   1      45.988  27.908  35.485  1.00  0.00     0.198 A 
ATOM     88  C   UNL A   1      44.334  26.365  36.292  1.00  0.00     0.198 A 
ATOM     89  F   UNL A   1      42.063  26.700  35.773  1.00  0.00    -0.203 F 
ATOM     90  F   UNL A   1      47.271  28.283  35.379  1.00  0.00    -0.200 F 
ATOM     91  C   UNL A   1      45.659  26.765  36.199  1.00  0.00     0.200 A 
ATOM     92  F   UNL A   1      44.013  25.267  36.990  1.00  0.00    -0.200 F 
ATOM     93  F   UNL A   1      46.619  26.046  36.797  1.00  0.00    -0.200 F 
ENDBRANCH  60  83
ENDBRANCH  34  35
ENDBRANCH  26  29
ENDBRANCH  24  25
ENDBRANCH   1  24
TORSDOF 12
ENDMDL
MODEL 2
REMARK VINA RESULT:     -13.2      0.122      1.132
REMARK SMILES CC1(C)CCN(c2nc3c(cc2C(=O)NCCCCNC(=O)c2ccc(-c4c5nc(c(-c6c(F)c(F)c(F)c(F)c6F)c6ccc([nH]6)c(-c6c(F)c(F)c(F)c(F)c6F)c6nc(c(-c7c(F)c(F)c(F)c(F)c7F)c7ccc4[nH]7)C=C6)C=C5)cc2)CCC3)C1
REMARK SMILES IDX 18 1 17 2 16 3 15 4 13 5 14 6 12 8 7 9 8 10 9 11 11 12 10 13
REMARK SMILES IDX 88 14 86 15 87 16 6 17 1 18 2 19 3 20 4 21 89 22 5 23 19 24
REMARK SMILES IDX 20 25 21 26 22 28 23 29 24 30 85 31 25 32 84 33 26 34 27 35
REMARK SMILES IDX 28 36 78 37 29 38 83 39 77 40 79 41 30 42 82 43 76 44 75 45
REMARK SMILES IDX 31 47 63 48 43 49 62 50 44 51 47 52 61 53 80 54 45 55 46 56
REMARK SMILES IDX 60 58 81 59 48 60 32 61 33 62 41 63 34 64 35 65 39 66 42 67
REMARK SMILES IDX 36 68 37 69 40 70 38 71 64 72 65 73 73 74 66 75 67 76 71 77
REMARK SMILES IDX 74 78 68 79 69 80 72 81 70 82 49 83 50 84 58 85 51 86 52 87
REMARK SMILES IDX 56 88 59 89 53 90 54 91 57 92 55 93
REMARK H PARENT 15 7 20 27 79 46 47 57
REMARK Flexibility Score: inf
ROOT
ATOM      1  C   UNL A   1      33.350  31.735  27.999  1.00  0.00     0.023 C 
ENDROOT
BRANCH   1   2
ATOM      2  C   UNL A   1      34.436  30.708  27.674  1.00  0.00     0.023 C 
BRANCH   2   3
ATOM      3  C   UNL A   1      33.979  29.403  27.034  1.00  0.00     0.116 C 
BRANCH   3   4
ATOM      4  N   UNL A   1      32.693  28.912  27.471  1.00  0.00    -0.352 N 
ATOM      5  C   UNL A   1      32.010  27.792  27.047  1.00  0.00     0.255 C 
ATOM      6  O   UNL A   1      30.972  27.501  27.646  1.00  0.00    -0.269 OA
ATOM      7  H   UNL A   1      32.245  29.448  28.164  1.00  0.00     0.163 HD
BRANCH   5   8
ATOM      8  C   UNL A   1      32.389  26.989  25.850  1.00  0.00     0.082 A 
ATOM      9  C   UNL A   1      31.745  26.993  24.592  1.00  0.00     0.141 A 
ATOM     10  N   UNL A   1      32.155  26.181  23.578  1.00  0.00    -0.235 NA
ATOM     11  C   UNL A   1      33.233  25.415  23.798  1.00  0.00     0.046 A 
ATOM     12  C   UNL A   1      33.527  26.173  26.029  1.00  0.00     0.023 A 
ATOM     13  C   UNL A   1      33.945  25.379  24.981  1.00  0.00    -0.025 A 
ATOM     14  C   UNL A   1      33.872  24.546  22.754  1.00  0.00     0.057 C 
ATOM     15  C   UNL A   1      35.131  24.482  24.871  1.00  0.00     0.038 C 
ATOM     16  C   UNL A   1      34.766  23.655  23.627  1.00  0.00     0.011 C 
BRANCH   9  17
ATOM     17  N   UNL A   1      30.694  27.826  24.280  1.00  0.00    -0.355 N 
ATOM     18  C   UNL A   1      29.934  29.911  21.704  1.00  0.00     0.013 C 
ATOM     19  C   UNL A   1      29.683  29.696  23.203  1.00  0.00    -0.016 C 
ATOM     20  C   UNL A   1      29.153  30.993  23.821  1.00  0.00     0.013 C 
ATOM     21  C   UNL A   1      28.686  28.534  23.394  1.00  0.00     0.030 C 
ATOM     22  C   UNL A   1      30.973  29.216  23.930  1.00  0.00     0.124 C 
ATOM     23  C   UNL A   1      29.583  27.308  23.500  1.00  0.00     0.119 C 
ENDBRANCH   9  17
ENDBRANCH   5   8
ENDBRANCH   3   4
ENDBRANCH   2   3
ENDBRANCH   1   2
BRANCH   1  24
ATOM     24  C   UNL A   1      33.206  32.930  27.060  1.00  0.00     0.116 C 
BRANCH  24  25
ATOM     25  N   UNL A   1      32.544  34.085  27.647  1.00  0.00    -0.352 N 
ATOM     26  C   UNL A   1      32.965  34.936  28.643  1.00  0.00     0.251 C 
ATOM     27  H   UNL A   1      31.657  34.290  27.273  1.00  0.00     0.163 HD
ATOM     28  O   UNL A   1      32.297  35.914  28.953  1.00  0.00    -0.269 OA
BRANCH  26  29
ATOM     29  C   UNL A   1      34.186  34.610  29.405  1.00  0.00     0.039 A 
ATOM     30  C   UNL A   1      34.027  34.119  30.703  1.00  0.00     0.014 A 
ATOM     31  C   UNL A   1      35.452  34.682  28.820  1.00  0.00     0.014 A 
ATOM     32  C   UNL A   1      35.122  33.577  31.371  1.00  0.00     0.010 A 
ATOM     33  C   UNL A   1      36.536  34.088  29.465  1.00  0.00     0.010 A 
ATOM     34  C   UNL A   1      36.368  33.498  30.728  1.00  0.00    -0.014 A 
BRANCH  34  35
ATOM     35  C   UNL A   1      37.477  32.731  31.341  1.00  0.00     0.031 A 
ATOM     36  C   UNL A   1      37.971  33.074  32.710  1.00  0.00     0.074 A 
ATOM     37  C   UNL A   1      38.061  31.745  30.632  1.00  0.00     0.049 A 
ATOM     38  N   UNL A   1      38.931  32.516  33.403  1.00  0.00    -0.248 NA
ATOM     39  C   UNL A   1      37.311  34.199  33.388  1.00  0.00     0.031 C 
ATOM     40  C   UNL A   1      37.687  31.349  29.271  1.00  0.00     0.029 A 
ATOM     41  N   UNL A   1      39.090  30.897  30.953  1.00  0.00    -0.354 N 
ATOM     42  C   UNL A   1      38.986  33.216  34.599  1.00  0.00     0.074 A 
ATOM     43  C   UNL A   1      37.998  34.272  34.519  1.00  0.00     0.031 C 
ATOM     44  C   UNL A   1      38.457  30.318  28.888  1.00  0.00     0.029 A 
ATOM     45  C   UNL A   1      39.393  29.997  29.961  1.00  0.00     0.049 A 
ATOM     46  H   UNL A   1      39.566  30.930  31.814  1.00  0.00     0.167 HD
ATOM     47  C   UNL A   1      39.772  32.981  35.675  1.00  0.00     0.037 A 
ATOM     48  C   UNL A   1      40.319  29.021  29.924  1.00  0.00     0.037 A 
ATOM     49  C   UNL A   1      40.749  31.929  35.752  1.00  0.00     0.049 A 
ATOM     50  C   UNL A   1      41.200  28.800  31.123  1.00  0.00     0.074 A 
ATOM     51  C   UNL A   1      41.570  31.589  36.813  1.00  0.00     0.029 A 
ATOM     52  N   UNL A   1      41.039  31.046  34.722  1.00  0.00    -0.354 N 
ATOM     53  N   UNL A   1      41.203  29.431  32.270  1.00  0.00    -0.248 NA
ATOM     54  C   UNL A   1      42.205  27.732  31.020  1.00  0.00     0.031 C 
ATOM     55  C   UNL A   1      42.378  30.519  36.414  1.00  0.00     0.029 A 
ATOM     56  C   UNL A   1      42.039  30.173  35.116  1.00  0.00     0.049 A 
ATOM     57  H   UNL A   1      40.599  31.042  33.841  1.00  0.00     0.167 HD
ATOM     58  C   UNL A   1      42.192  28.829  33.034  1.00  0.00     0.074 A 
ATOM     59  C   UNL A   1      42.762  27.773  32.224  1.00  0.00     0.031 C 
ATOM     60  C   UNL A   1      42.590  29.125  34.295  1.00  0.00     0.037 A 
BRANCH  47  61
ATOM     61  C   UNL A   1      39.593  33.876  36.862  1.00  0.00     0.064 A 
ATOM     62  C   UNL A   1      40.222  35.129  36.927  1.00  0.00     0.173 A 
ATOM     63  C   UNL A   1      38.767  33.495  37.928  1.00  0.00     0.173 A 
ATOM     64  F   UNL A   1      41.032  35.529  35.936  1.00  0.00    -0.203 F 
ATOM     65  C   UNL A   1      40.045  35.959  38.030  1.00  0.00     0.198 A 
ATOM     66  C   UNL A   1      38.576  34.338  39.020  1.00  0.00     0.198 A 
ATOM     67  F   UNL A   1      38.143  32.308  37.911  1.00  0.00    -0.203 F 
ATOM     68  F   UNL A   1      40.686  37.135  38.090  1.00  0.00    -0.200 F 
ATOM     69  C   UNL A   1      39.219  35.567  39.072  1.00  0.00     0.200 A 
ATOM     70  F   UNL A   1      37.774  33.961  40.024  1.00  0.00    -0.200 F 
ATOM     71  F   UNL A   1      39.049  36.369  40.132  1.00  0.00    -0.200 F 
ENDBRANCH  47  61
BRANCH  48  72
ATOM     72  C   UNL A   1      40.431  28.153  28.725  1.00  0.00     0.064 A 
ATOM     73  C   UNL A   1      41.236  28.531  27.642  1.00  0.00     0.173 A 
ATOM     74  C   UNL A   1      39.753  26.930  28.642  1.00  0.00     0.173 A 
ATOM     75  F   UNL A   1      41.888  29.703  27.671  1.00  0.00    -0.203 F 
ATOM     76  C   UNL A   1      41.353  27.720  26.515  1.00  0.00     0.198 A 
ATOM     77  C   UNL A   1      39.885  26.110  27.522  1.00  0.00     0.198 A 
ATOM     78  F   UNL A   1      38.972  26.524  29.654  1.00  0.00    -0.203 F 
ATOM     79  F   UNL A   1      42.107  28.117  25.481  1.00  0.00    -0.200 F 
ATOM     80  C   UNL A   1      40.681  26.508  26.459  1.00  0.00     0.200 A 
ATOM     81  F   UNL A   1      39.242  24.935  27.475  1.00  0.00    -0.200 F 
ATOM     82  F   UNL A   1      40.798  25.725  25.377  1.00  0.00    -0.200 F 
ENDBRANCH  48  72
BRANCH  60  83
ATOM     83  C   UNL A   1      43.686  28.292  34.886  1.00  0.00     0.064 A 
ATOM     84  C   UNL A   1      45.027  28.693  34.807  1.00  0.00     0.173 A 
ATOM     85  C   UNL A   1      43.384  27.123  35.599  1.00  0.00     0.173 A 
ATOM     86  F   UNL A   1      45.362  29.796  34.122  1.00  0.00    -0.203 F 
ATOM     87  C   UNL A   1      46.030  27.947  35.420  1.00  0.00     0.198 A 
ATOM     88  C   UNL A   1      44.388  26.392  36.228  1.00  0.00     0.198 A 
ATOM     89  F   UNL A   1      42.115  26.704  35.703  1.00  0.00    -0.203 F 
ATOM     90  F   UNL A   1      47.309  28.334  35.315  1.00  0.00    -0.200 F 
ATOM     91  C   UNL A   1      45.709  26.803  36.136  1.00  0.00     0.200 A 
ATOM     92  F   UNL A   1      44.075  25.293  36.928  1.00  0.00    -0.200 F 
ATOM     93  F   UNL A   1      46.675  26.095  36.739  1.00  0.00    -0.200 F 
ENDBRANCH  60  83
ENDBRANCH  34  35
ENDBRANCH  26  29
ENDBRANCH  24  25
ENDBRANCH   1  24
TORSDOF 12
ENDMDL
MODEL 3
REMARK VINA RESULT:     -13.1      6.015     11.544
REMARK SMILES CC1(C)CCN(c2nc3c(cc2C(=O)NCCCCNC(=O)c2ccc(-c4c5nc(c(-c6c(F)c(F)c(F)c(F)c6F)c6ccc([nH]6)c(-c6c(F)c(F)c(F)c(F)c6F)c6nc(c(-c7c(F)c(F)c(F)c(F)c7F)c7ccc4[nH]7)C=C6)C=C5)cc2)CCC3)C1
REMARK SMILES IDX 18 1 17 2 16 3 15 4 13 5 14 6 12 8 7 9 8 10 9 11 11 12 10 13
REMARK SMILES IDX 88 14 86 15 87 16 6 17 1 18 2 19 3 20 4 21 89 22 5 23 19 24
REMARK SMILES IDX 20 25 21 26 22 28 23 29 24 30 85 31 25 32 84 33 26 34 27 35
REMARK SMILES IDX 28 36 78 37 29 38 83 39 77 40 79 41 30 42 82 43 76 44 75 45
REMARK SMILES IDX 31 47 63 48 43 49 62 50 44 51 47 52 61 53 80 54 45 55 46 56
REMARK SMILES IDX 60 58 81 59 48 60 32 61 33 62 41 63 34 64 35 65 39 66 42 67
REMARK SMILES IDX 36 68 37 69 40 70 38 71 64 72 65 73 73 74 66 75 67 76 71 77
REMARK SMILES IDX 74 78 68 79 69 80 72 81 70 82 49 83 50 84 58 85 51 86 52 87
REMARK SMILES IDX 56 88 59 89 53 90 54 91 57 92 55 93
REMARK H PARENT 15 7 20 27 79 46 47 57
REMARK Flexibility Score: inf
ROOT
ATOM      1  C   UNL A   1      39.688  21.559  25.754  1.00  0.00     0.023 C 
ENDROOT
BRANCH   1   2
ATOM      2  C   UNL A   1      38.947  22.764  26.337  1.00  0.00     0.023 C 
BRANCH   2   3
ATOM      3  C   UNL A   1      37.501  22.959  25.899  1.00  0.00     0.116 C 
BRANCH   3   4
ATOM      4  N   UNL A   1      37.247  22.775  24.489  1.00  0.00    -0.352 N 
ATOM      5  C   UNL A   1      36.114  23.094  23.770  1.00  0.00     0.255 C 
ATOM      6  O   UNL A   1      36.162  22.953  22.546  1.00  0.00    -0.269 OA
ATOM      7  H   UNL A   1      37.978  22.367  23.974  1.00  0.00     0.163 HD
BRANCH   5   8
ATOM      8  C   UNL A   1      34.817  23.488  24.390  1.00  0.00     0.082 A 
ATOM      9  C   UNL A   1      33.671  22.675  24.539  1.00  0.00     0.141 A 
ATOM     10  N   UNL A   1      32.520  23.157  25.085  1.00  0.00    -0.235 NA
ATOM     11  C   UNL A   1      32.531  24.421  25.533  1.00  0.00     0.046 A 
ATOM     12  C   UNL A   1      34.783  24.809  24.888  1.00  0.00     0.023 A 
ATOM     13  C   UNL A   1      33.619  25.270  25.465  1.00  0.00    -0.025 A 
ATOM     14  C   UNL A   1      31.383  25.066  26.253  1.00  0.00     0.057 C 
ATOM     15  C   UNL A   1      33.324  26.578  26.119  1.00  0.00     0.038 C 
ATOM     16  C   UNL A   1      31.788  26.544  26.176  1.00  0.00     0.011 C 
BRANCH   9  17
ATOM     17  N   UNL A   1      33.633  21.345  24.183  1.00  0.00    -0.355 N 
ATOM     18  C   UNL A   1      32.828  18.438  25.752  1.00  0.00     0.013 C 
ATOM     19  C   UNL A   1      33.696  19.004  24.619  1.00  0.00    -0.016 C 
ATOM     20  C   UNL A   1      34.778  17.985  24.252  1.00  0.00     0.013 C 
ATOM     21  C   UNL A   1      32.804  19.339  23.407  1.00  0.00     0.030 C 
ATOM     22  C   UNL A   1      34.327  20.369  25.019  1.00  0.00     0.124 C 
ATOM     23  C   UNL A   1      32.402  20.788  23.648  1.00  0.00     0.119 C 
ENDBRANCH   9  17
ENDBRANCH   5   8
ENDBRANCH   3   4
ENDBRANCH   2   3
ENDBRANCH   1   2
BRANCH   1  24
ATOM     24  C   UNL A   1      39.575  20.233  26.501  1.00  0.00     0.116 C 
BRANCH  24  25
ATOM     25  N   UNL A   1      40.513  19.210  26.064  1.00  0.00    -0.352 N 
ATOM     26  C   UNL A   1      41.889  19.199  26.093  1.00  0.00     0.251 C 
ATOM     27  H   UNL A   1      40.099  18.399  25.689  1.00  0.00     0.163 HD
ATOM     28  O   UNL A   1      42.513  18.202  25.751  1.00  0.00    -0.269 OA
BRANCH  26  29
ATOM     29  C   UNL A   1      42.615  20.433  26.451  1.00  0.00     0.039 A 
ATOM     30  C   UNL A   1      43.195  21.166  25.414  1.00  0.00     0.014 A 
ATOM     31  C   UNL A   1      42.632  20.914  27.763  1.00  0.00     0.014 A 
ATOM     32  C   UNL A   1      43.680  22.448  25.667  1.00  0.00     0.010 A 
ATOM     33  C   UNL A   1      43.065  22.217  28.004  1.00  0.00     0.010 A 
ATOM     34  C   UNL A   1      43.556  23.004  26.950  1.00  0.00    -0.014 A 
BRANCH  34  35
ATOM     35  C   UNL A   1      43.866  24.435  27.176  1.00  0.00     0.031 A 
ATOM     36  C   UNL A   1      45.244  24.961  26.929  1.00  0.00     0.074 A 
ATOM     37  C   UNL A   1      42.899  25.248  27.645  1.00  0.00     0.049 A 
ATOM     38  N   UNL A   1      45.699  26.179  27.075  1.00  0.00    -0.248 NA
ATOM     39  C   UNL A   1      46.249  23.991  26.470  1.00  0.00     0.031 C 
ATOM     40  C   UNL A   1      41.529  24.835  27.960  1.00  0.00     0.029 A 
ATOM     41  N   UNL A   1      42.918  26.587  27.940  1.00  0.00    -0.354 N 
ATOM     42  C   UNL A   1      47.038  26.125  26.719  1.00  0.00     0.074 A 
ATOM     43  C   UNL A   1      47.337  24.744  26.400  1.00  0.00     0.031 C 
ATOM     44  C   UNL A   1      40.833  25.905  28.375  1.00  0.00     0.029 A 
ATOM     45  C   UNL A   1      41.711  27.072  28.382  1.00  0.00     0.049 A 
ATOM     46  H   UNL A   1      43.720  27.149  27.843  1.00  0.00     0.167 HD
ATOM     47  C   UNL A   1      47.929  27.140  26.643  1.00  0.00     0.037 A 
ATOM     48  C   UNL A   1      41.354  28.317  28.747  1.00  0.00     0.037 A 
ATOM     49  C   UNL A   1      47.628  28.510  26.957  1.00  0.00     0.049 A 
ATOM     50  C   UNL A   1      42.372  29.421  28.680  1.00  0.00     0.074 A 
ATOM     51  C   UNL A   1      48.455  29.616  26.876  1.00  0.00     0.029 A 
ATOM     52  N   UNL A   1      46.398  28.961  27.416  1.00  0.00    -0.354 N 
ATOM     53  N   UNL A   1      43.620  29.368  28.288  1.00  0.00    -0.248 NA
ATOM     54  C   UNL A   1      41.931  30.757  29.107  1.00  0.00     0.031 C 
ATOM     55  C   UNL A   1      47.735  30.733  27.315  1.00  0.00     0.029 A 
ATOM     56  C   UNL A   1      46.450  30.327  27.639  1.00  0.00     0.049 A 
ATOM     57  H   UNL A   1      45.607  28.393  27.561  1.00  0.00     0.167 HD
ATOM     58  C   UNL A   1      44.111  30.661  28.400  1.00  0.00     0.074 A 
ATOM     59  C   UNL A   1      43.022  31.481  28.889  1.00  0.00     0.031 C 
ATOM     60  C   UNL A   1      45.353  31.126  28.122  1.00  0.00     0.037 A 
BRANCH  47  61
ATOM     61  C   UNL A   1      49.315  26.802  26.186  1.00  0.00     0.064 A 
ATOM     62  C   UNL A   1      50.278  26.323  27.087  1.00  0.00     0.173 A 
ATOM     63  C   UNL A   1      49.676  26.928  24.838  1.00  0.00     0.173 A 
ATOM     64  F   UNL A   1      49.981  26.198  28.389  1.00  0.00    -0.203 F 
ATOM     65  C   UNL A   1      51.562  26.003  26.656  1.00  0.00     0.198 A 
ATOM     66  C   UNL A   1      50.955  26.586  24.407  1.00  0.00     0.198 A 
ATOM     67  F   UNL A   1      48.789  27.380  23.939  1.00  0.00    -0.203 F 
ATOM     68  F   UNL A   1      52.479  25.584  27.539  1.00  0.00    -0.200 F 
ATOM     69  C   UNL A   1      51.898  26.129  25.317  1.00  0.00     0.200 A 
ATOM     70  F   UNL A   1      51.278  26.704  23.112  1.00  0.00    -0.200 F 
ATOM     71  F   UNL A   1      53.134  25.818  24.902  1.00  0.00    -0.200 F 
ENDBRANCH  47  61
BRANCH  48  72
ATOM     72  C   UNL A   1      39.957  28.591  29.169  1.00  0.00     0.064 A 
ATOM     73  C   UNL A   1      39.017  29.076  28.250  1.00  0.00     0.173 A 
ATOM     74  C   UNL A   1      39.531  28.362  30.483  1.00  0.00     0.173 A 
ATOM     75  F   UNL A   1      39.385  29.328  26.985  1.00  0.00    -0.203 F 
ATOM     76  C   UNL A   1      37.701  29.330  28.633  1.00  0.00     0.198 A 
ATOM     77  C   UNL A   1      38.210  28.598  30.861  1.00  0.00     0.198 A 
ATOM     78  F   UNL A   1      40.394  27.896  31.398  1.00  0.00    -0.203 F 
ATOM     79  F   UNL A   1      36.828  29.820  27.743  1.00  0.00    -0.200 F 
ATOM     80  C   UNL A   1      37.298  29.085  29.938  1.00  0.00     0.200 A 
ATOM     81  F   UNL A   1      37.822  28.351  32.120  1.00  0.00    -0.200 F 
ATOM     82  F   UNL A   1      36.031  29.324  30.305  1.00  0.00    -0.200 F 
ENDBRANCH  48  72
BRANCH  60  83
ATOM     83  C   UNL A   1      45.604  32.588  28.326  1.00  0.00     0.064 A 
ATOM     84  C   UNL A   1      46.133  33.075  29.530  1.00  0.00     0.173 A 
ATOM     85  C   UNL A   1      45.383  33.499  27.284  1.00  0.00     0.173 A 
ATOM     86  F   UNL A   1      46.346  32.241  30.559  1.00  0.00    -0.203 F 
ATOM     87  C   UNL A   1      46.427  34.426  29.683  1.00  0.00     0.198 A 
ATOM     88  C   UNL A   1      45.698  34.847  27.435  1.00  0.00     0.198 A 
ATOM     89  F   UNL A   1      44.880  33.078  26.114  1.00  0.00    -0.203 F 
ATOM     90  F   UNL A   1      46.912  34.876  30.849  1.00  0.00    -0.200 F 
ATOM     91  C   UNL A   1      46.218  35.309  28.634  1.00  0.00     0.200 A 
ATOM     92  F   UNL A   1      45.504  35.696  26.416  1.00  0.00    -0.200 F 
ATOM     93  F   UNL A   1      46.517  36.607  28.779  1.00  0.00    -0.200 F 
ENDBRANCH  60  83
ENDBRANCH  34  35
ENDBRANCH  26  29
ENDBRANCH  24  25
ENDBRANCH   1  24
TORSDOF 12
ENDMDL
