MODEL 1
REMARK VINA RESULT:     -11.5      0.000      0.000
REMARK SMILES C[C@H]1CC=C(C2=NN=C(C(=O)NCCCCNC(=O)c3ccc(-c4c5nc(c(-c6c(F)c(F)c(F)c(F)c6F)c6ccc([nH]6)c(-c6c(F)c(F)c(F)c(F)c6F)c6nc(c(-c7c(F)c(F)c(F)c(F)c7F)c7ccc4[nH]7)C=C6)C=C5)cc3)C2)O1
REMARK SMILES IDX 15 1 14 2 13 3 12 4 10 5 11 6 9 8 6 9 7 10 83 11 8 12 5 13
REMARK SMILES IDX 1 14 2 15 3 16 84 17 4 18 16 19 17 20 18 21 19 23 20 24
REMARK SMILES IDX 21 25 82 26 22 27 81 28 23 29 24 30 25 31 75 32 26 33 80 34
REMARK SMILES IDX 74 35 76 36 27 37 79 38 73 39 72 40 28 42 60 43 40 44 59 45
REMARK SMILES IDX 41 46 44 47 58 48 77 49 42 50 43 51 57 53 78 54 45 55 29 56
REMARK SMILES IDX 30 57 38 58 31 59 32 60 36 61 39 62 33 63 34 64 37 65 35 66
REMARK SMILES IDX 61 67 62 68 70 69 63 70 64 71 68 72 71 73 65 74 66 75 69 76
REMARK SMILES IDX 67 77 46 78 47 79 55 80 48 81 49 82 53 83 56 84 50 85 51 86
REMARK SMILES IDX 54 87 52 88
REMARK H PARENT 12 7 17 22 76 41 44 52
REMARK Flexibility Score: inf
ROOT
ATOM      1  C   UNL A   1      35.018  33.646  31.492  1.00  0.00     0.023 C 
ENDROOT
BRANCH   1   2
ATOM      2  C   UNL A   1      34.210  33.806  32.790  1.00  0.00     0.023 C 
BRANCH   2   3
ATOM      3  C   UNL A   1      34.657  34.941  33.716  1.00  0.00     0.116 C 
BRANCH   3   4
ATOM      4  N   UNL A   1      35.169  34.448  34.985  1.00  0.00    -0.351 N 
ATOM      5  C   UNL A   1      36.281  33.692  35.269  1.00  0.00     0.267 C 
ATOM      6  O   UNL A   1      36.523  33.371  36.431  1.00  0.00    -0.268 OA
ATOM      7  H   UNL A   1      34.630  34.697  35.770  1.00  0.00     0.163 HD
BRANCH   5   8
ATOM      8  C   UNL A   1      37.259  33.255  34.214  1.00  0.00     0.134 C 
ATOM      9  C   UNL A   1      38.734  33.321  32.539  1.00  0.00     0.111 C 
ATOM     10  N   UNL A   1      38.392  32.083  32.732  1.00  0.00    -0.151 NA
ATOM     11  C   UNL A   1      38.077  34.268  33.489  1.00  0.00     0.126 C 
ATOM     12  N   UNL A   1      37.461  32.040  33.808  1.00  0.00    -0.149 NA
BRANCH   9  13
ATOM     13  C   UNL A   1      39.619  33.809  31.472  1.00  0.00     0.139 C 
ATOM     14  C   UNL A   1      42.585  33.775  29.660  1.00  0.00     0.053 C 
ATOM     15  C   UNL A   1      41.487  34.460  30.459  1.00  0.00     0.174 C 
ATOM     16  C   UNL A   1      40.303  34.888  29.583  1.00  0.00     0.076 C 
ATOM     17  O   UNL A   1      40.987  33.576  31.492  1.00  0.00    -0.489 OA
ATOM     18  C   UNL A   1      39.166  34.546  30.461  1.00  0.00     0.025 C 
ENDBRANCH   9  13
ENDBRANCH   5   8
ENDBRANCH   3   4
ENDBRANCH   2   3
ENDBRANCH   1   2
BRANCH   1  19
ATOM     19  C   UNL A   1      35.138  32.214  30.985  1.00  0.00     0.116 C 
BRANCH  19  20
ATOM     20  N   UNL A   1      34.412  31.970  29.741  1.00  0.00    -0.352 N 
ATOM     21  C   UNL A   1      34.941  31.626  28.507  1.00  0.00     0.251 C 
ATOM     22  H   UNL A   1      33.432  32.060  29.784  1.00  0.00     0.163 HD
ATOM     23  O   UNL A   1      34.317  31.785  27.476  1.00  0.00    -0.269 OA
BRANCH  21  24
ATOM     24  C   UNL A   1      36.306  31.066  28.475  1.00  0.00     0.039 A 
ATOM     25  C   UNL A   1      37.407  31.821  28.884  1.00  0.00     0.014 A 
ATOM     26  C   UNL A   1      36.453  29.735  28.103  1.00  0.00     0.014 A 
ATOM     27  C   UNL A   1      38.643  31.191  29.012  1.00  0.00     0.010 A 
ATOM     28  C   UNL A   1      37.632  29.083  28.376  1.00  0.00     0.010 A 
ATOM     29  C   UNL A   1      38.747  29.806  28.793  1.00  0.00    -0.014 A 
BRANCH  29  30
ATOM     30  C   UNL A   1      39.993  29.099  29.102  1.00  0.00     0.031 A 
ATOM     31  C   UNL A   1      40.284  28.906  30.553  1.00  0.00     0.074 A 
ATOM     32  C   UNL A   1      40.752  28.481  28.170  1.00  0.00     0.049 A 
ATOM     33  N   UNL A   1      41.296  29.357  31.223  1.00  0.00    -0.248 NA
ATOM     34  C   UNL A   1      39.292  28.200  31.380  1.00  0.00     0.031 C 
ATOM     35  C   UNL A   1      40.486  28.327  26.733  1.00  0.00     0.029 A 
ATOM     36  N   UNL A   1      41.901  27.763  28.338  1.00  0.00    -0.354 N 
ATOM     37  C   UNL A   1      41.161  28.857  32.516  1.00  0.00     0.074 A 
ATOM     38  C   UNL A   1      39.852  28.259  32.589  1.00  0.00     0.031 C 
ATOM     39  C   UNL A   1      41.301  27.384  26.216  1.00  0.00     0.029 A 
ATOM     40  C   UNL A   1      42.269  27.017  27.229  1.00  0.00     0.049 A 
ATOM     41  H   UNL A   1      42.422  27.774  29.173  1.00  0.00     0.167 HD
ATOM     42  C   UNL A   1      42.227  28.781  33.361  1.00  0.00     0.037 A 
ATOM     43  C   UNL A   1      43.307  26.155  27.125  1.00  0.00     0.037 A 
ATOM     44  C   UNL A   1      43.313  29.611  32.913  1.00  0.00     0.049 A 
ATOM     45  C   UNL A   1      44.289  26.527  28.163  1.00  0.00     0.074 A 
ATOM     46  C   UNL A   1      43.520  30.965  32.758  1.00  0.00     0.029 A 
ATOM     47  N   UNL A   1      44.301  28.988  32.197  1.00  0.00    -0.354 N 
ATOM     48  N   UNL A   1      44.959  27.646  28.160  1.00  0.00    -0.248 NA
ATOM     49  C   UNL A   1      44.273  25.814  29.429  1.00  0.00     0.031 C 
ATOM     50  C   UNL A   1      44.370  31.089  31.617  1.00  0.00     0.029 A 
ATOM     51  C   UNL A   1      44.674  29.805  31.162  1.00  0.00     0.049 A 
ATOM     52  H   UNL A   1      44.680  28.101  32.394  1.00  0.00     0.167 HD
ATOM     53  C   UNL A   1      45.067  27.991  29.495  1.00  0.00     0.074 A 
ATOM     54  C   UNL A   1      44.776  26.761  30.224  1.00  0.00     0.031 C 
ATOM     55  C   UNL A   1      45.098  29.302  29.874  1.00  0.00     0.037 A 
BRANCH  42  56
ATOM     56  C   UNL A   1      42.445  27.662  34.353  1.00  0.00     0.064 A 
ATOM     57  C   UNL A   1      42.964  26.427  33.910  1.00  0.00     0.173 A 
ATOM     58  C   UNL A   1      41.867  27.651  35.641  1.00  0.00     0.173 A 
ATOM     59  F   UNL A   1      43.504  26.315  32.687  1.00  0.00    -0.203 F 
ATOM     60  C   UNL A   1      42.855  25.262  34.676  1.00  0.00     0.198 A 
ATOM     61  C   UNL A   1      41.806  26.498  36.422  1.00  0.00     0.198 A 
ATOM     62  F   UNL A   1      41.237  28.720  36.143  1.00  0.00    -0.203 F 
ATOM     63  F   UNL A   1      43.253  24.088  34.165  1.00  0.00    -0.200 F 
ATOM     64  C   UNL A   1      42.272  25.298  35.930  1.00  0.00     0.200 A 
ATOM     65  F   UNL A   1      41.212  26.547  37.623  1.00  0.00    -0.200 F 
ATOM     66  F   UNL A   1      42.110  24.173  36.639  1.00  0.00    -0.200 F 
ENDBRANCH  42  56
BRANCH  43  67
ATOM     67  C   UNL A   1      43.369  24.896  26.355  1.00  0.00     0.064 A 
ATOM     68  C   UNL A   1      44.267  24.732  25.292  1.00  0.00     0.173 A 
ATOM     69  C   UNL A   1      42.733  23.733  26.831  1.00  0.00     0.173 A 
ATOM     70  F   UNL A   1      44.942  25.786  24.810  1.00  0.00    -0.203 F 
ATOM     71  C   UNL A   1      44.537  23.470  24.752  1.00  0.00     0.198 A 
ATOM     72  C   UNL A   1      43.000  22.475  26.290  1.00  0.00     0.198 A 
ATOM     73  F   UNL A   1      41.916  23.784  27.894  1.00  0.00    -0.203 F 
ATOM     74  F   UNL A   1      45.448  23.340  23.778  1.00  0.00    -0.200 F 
ATOM     75  C   UNL A   1      43.912  22.342  25.261  1.00  0.00     0.200 A 
ATOM     76  F   UNL A   1      42.417  21.388  26.817  1.00  0.00    -0.200 F 
ATOM     77  F   UNL A   1      44.218  21.125  24.788  1.00  0.00    -0.200 F 
ENDBRANCH  43  67
BRANCH  55  78
ATOM     78  C   UNL A   1      45.389  30.315  28.800  1.00  0.00     0.064 A 
ATOM     79  C   UNL A   1      44.405  30.969  28.039  1.00  0.00     0.173 A 
ATOM     80  C   UNL A   1      46.719  30.707  28.598  1.00  0.00     0.173 A 
ATOM     81  F   UNL A   1      43.105  30.726  28.238  1.00  0.00    -0.203 F 
ATOM     82  C   UNL A   1      44.742  31.927  27.084  1.00  0.00     0.198 A 
ATOM     83  C   UNL A   1      47.051  31.691  27.671  1.00  0.00     0.198 A 
ATOM     84  F   UNL A   1      47.698  30.157  29.333  1.00  0.00    -0.203 F 
ATOM     85  F   UNL A   1      43.783  32.518  26.356  1.00  0.00    -0.200 F 
ATOM     86  C   UNL A   1      46.065  32.290  26.905  1.00  0.00     0.200 A 
ATOM     87  F   UNL A   1      48.329  32.071  27.534  1.00  0.00    -0.200 F 
ATOM     88  F   UNL A   1      46.389  33.234  26.010  1.00  0.00    -0.200 F 
ENDBRANCH  55  78
ENDBRANCH  29  30
ENDBRANCH  21  24
ENDBRANCH  19  20
ENDBRANCH   1  19
TORSDOF 12
ENDMDL
MODEL 2
REMARK VINA RESULT:     -11.5      5.404     11.381
REMARK SMILES C[C@H]1CC=C(C2=NN=C(C(=O)NCCCCNC(=O)c3ccc(-c4c5nc(c(-c6c(F)c(F)c(F)c(F)c6F)c6ccc([nH]6)c(-c6c(F)c(F)c(F)c(F)c6F)c6nc(c(-c7c(F)c(F)c(F)c(F)c7F)c7ccc4[nH]7)C=C6)C=C5)cc3)C2)O1
REMARK SMILES IDX 15 1 14 2 13 3 12 4 10 5 11 6 9 8 6 9 7 10 83 11 8 12 5 13
REMARK SMILES IDX 1 14 2 15 3 16 84 17 4 18 16 19 17 20 18 21 19 23 20 24
REMARK SMILES IDX 21 25 82 26 22 27 81 28 23 29 24 30 25 31 75 32 26 33 80 34
REMARK SMILES IDX 74 35 76 36 27 37 79 38 73 39 72 40 28 42 60 43 40 44 59 45
REMARK SMILES IDX 41 46 44 47 58 48 77 49 42 50 43 51 57 53 78 54 45 55 29 56
REMARK SMILES IDX 30 57 38 58 31 59 32 60 36 61 39 62 33 63 34 64 37 65 35 66
REMARK SMILES IDX 61 67 62 68 70 69 63 70 64 71 68 72 71 73 65 74 66 75 69 76
REMARK SMILES IDX 67 77 46 78 47 79 55 80 48 81 49 82 53 83 56 84 50 85 51 86
REMARK SMILES IDX 54 87 52 88
REMARK H PARENT 12 7 17 22 76 41 44 52
REMARK Flexibility Score: inf
ROOT
ATOM      1  C   UNL A   1      38.728  22.043  25.774  1.00  0.00     0.023 C 
ENDROOT
BRANCH   1   2
ATOM      2  C   UNL A   1      37.779  23.241  25.933  1.00  0.00     0.023 C 
BRANCH   2   3
ATOM      3  C   UNL A   1      36.467  23.160  25.146  1.00  0.00     0.116 C 
BRANCH   3   4
ATOM      4  N   UNL A   1      35.344  23.713  25.887  1.00  0.00    -0.351 N 
ATOM      5  C   UNL A   1      34.033  23.309  25.959  1.00  0.00     0.267 C 
ATOM      6  O   UNL A   1      33.234  23.941  26.647  1.00  0.00    -0.268 OA
ATOM      7  H   UNL A   1      35.559  24.508  26.425  1.00  0.00     0.163 HD
BRANCH   5   8
ATOM      8  C   UNL A   1      33.518  22.087  25.251  1.00  0.00     0.134 C 
ATOM      9  C   UNL A   1      33.191  19.953  24.680  1.00  0.00     0.111 C 
ATOM     10  N   UNL A   1      32.647  20.705  23.772  1.00  0.00    -0.151 NA
ATOM     11  C   UNL A   1      33.811  20.730  25.794  1.00  0.00     0.126 C 
ATOM     12  N   UNL A   1      32.845  22.065  24.142  1.00  0.00    -0.149 NA
BRANCH   9  13
ATOM     13  C   UNL A   1      33.277  18.486  24.639  1.00  0.00     0.139 C 
ATOM     14  C   UNL A   1      32.422  15.308  25.761  1.00  0.00     0.053 C 
ATOM     15  C   UNL A   1      33.417  16.393  25.374  1.00  0.00     0.174 C 
ATOM     16  C   UNL A   1      33.737  16.388  23.874  1.00  0.00     0.076 C 
ATOM     17  O   UNL A   1      32.898  17.701  25.719  1.00  0.00    -0.489 OA
ATOM     18  C   UNL A   1      33.772  17.837  23.590  1.00  0.00     0.025 C 
ENDBRANCH   9  13
ENDBRANCH   5   8
ENDBRANCH   3   4
ENDBRANCH   2   3
ENDBRANCH   1   2
BRANCH   1  19
ATOM     19  C   UNL A   1      39.888  22.010  26.761  1.00  0.00     0.116 C 
BRANCH  19  20
ATOM     20  N   UNL A   1      41.200  22.125  26.129  1.00  0.00    -0.352 N 
ATOM     21  C   UNL A   1      41.937  23.279  25.917  1.00  0.00     0.251 C 
ATOM     22  H   UNL A   1      41.608  21.285  25.817  1.00  0.00     0.163 HD
ATOM     23  O   UNL A   1      42.829  23.326  25.091  1.00  0.00    -0.269 OA
BRANCH  21  24
ATOM     24  C   UNL A   1      41.599  24.470  26.720  1.00  0.00     0.039 A 
ATOM     25  C   UNL A   1      42.138  24.660  27.994  1.00  0.00     0.014 A 
ATOM     26  C   UNL A   1      40.791  25.438  26.136  1.00  0.00     0.014 A 
ATOM     27  C   UNL A   1      41.938  25.882  28.632  1.00  0.00     0.010 A 
ATOM     28  C   UNL A   1      40.725  26.692  26.697  1.00  0.00     0.010 A 
ATOM     29  C   UNL A   1      41.259  26.916  27.964  1.00  0.00    -0.014 A 
BRANCH  29  30
ATOM     30  C   UNL A   1      41.203  28.261  28.543  1.00  0.00     0.031 A 
ATOM     31  C   UNL A   1      42.296  29.190  28.131  1.00  0.00     0.074 A 
ATOM     32  C   UNL A   1      40.149  28.725  29.252  1.00  0.00     0.049 A 
ATOM     33  N   UNL A   1      43.181  29.755  28.887  1.00  0.00    -0.248 NA
ATOM     34  C   UNL A   1      42.482  29.459  26.696  1.00  0.00     0.031 C 
ATOM     35  C   UNL A   1      38.870  28.056  29.528  1.00  0.00     0.029 A 
ATOM     36  N   UNL A   1      39.964  29.960  29.804  1.00  0.00    -0.354 N 
ATOM     37  C   UNL A   1      43.933  30.581  28.057  1.00  0.00     0.074 A 
ATOM     38  C   UNL A   1      43.545  30.266  26.706  1.00  0.00     0.031 C 
ATOM     39  C   UNL A   1      37.971  28.956  29.977  1.00  0.00     0.029 A 
ATOM     40  C   UNL A   1      38.661  30.209  30.208  1.00  0.00     0.049 A 
ATOM     41  H   UNL A   1      40.691  30.615  29.906  1.00  0.00     0.167 HD
ATOM     42  C   UNL A   1      44.662  31.617  28.558  1.00  0.00     0.037 A 
ATOM     43  C   UNL A   1      38.163  31.361  30.712  1.00  0.00     0.037 A 
ATOM     44  C   UNL A   1      44.862  31.479  29.977  1.00  0.00     0.049 A 
ATOM     45  C   UNL A   1      39.299  32.122  31.268  1.00  0.00     0.074 A 
ATOM     46  C   UNL A   1      45.533  30.598  30.797  1.00  0.00     0.029 A 
ATOM     47  N   UNL A   1      44.000  32.174  30.784  1.00  0.00    -0.354 N 
ATOM     48  N   UNL A   1      39.995  31.737  32.301  1.00  0.00    -0.248 NA
ATOM     49  C   UNL A   1      39.917  33.153  30.450  1.00  0.00     0.031 C 
ATOM     50  C   UNL A   1      44.744  30.512  31.984  1.00  0.00     0.029 A 
ATOM     51  C   UNL A   1      43.658  31.378  31.846  1.00  0.00     0.049 A 
ATOM     52  H   UNL A   1      43.679  33.091  30.627  1.00  0.00     0.167 HD
ATOM     53  C   UNL A   1      41.289  32.138  32.019  1.00  0.00     0.074 A 
ATOM     54  C   UNL A   1      41.150  33.134  30.962  1.00  0.00     0.031 C 
ATOM     55  C   UNL A   1      42.355  31.415  32.471  1.00  0.00     0.037 A 
BRANCH  42  56
ATOM     56  C   UNL A   1      44.842  32.944  27.860  1.00  0.00     0.064 A 
ATOM     57  C   UNL A   1      46.122  33.325  27.404  1.00  0.00     0.173 A 
ATOM     58  C   UNL A   1      43.884  33.980  27.914  1.00  0.00     0.173 A 
ATOM     59  F   UNL A   1      47.118  32.429  27.346  1.00  0.00    -0.203 F 
ATOM     60  C   UNL A   1      46.428  34.652  27.086  1.00  0.00     0.198 A 
ATOM     61  C   UNL A   1      44.180  35.292  27.547  1.00  0.00     0.198 A 
ATOM     62  F   UNL A   1      42.664  33.789  28.433  1.00  0.00    -0.203 F 
ATOM     63  F   UNL A   1      47.687  34.989  26.772  1.00  0.00    -0.200 F 
ATOM     64  C   UNL A   1      45.458  35.635  27.162  1.00  0.00     0.200 A 
ATOM     65  F   UNL A   1      43.233  36.235  27.656  1.00  0.00    -0.200 F 
ATOM     66  F   UNL A   1      45.764  36.916  26.918  1.00  0.00    -0.200 F 
ENDBRANCH  42  56
BRANCH  43  67
ATOM     67  C   UNL A   1      36.816  31.933  30.512  1.00  0.00     0.064 A 
ATOM     68  C   UNL A   1      35.932  32.119  31.583  1.00  0.00     0.173 A 
ATOM     69  C   UNL A   1      36.479  32.564  29.298  1.00  0.00     0.173 A 
ATOM     70  F   UNL A   1      36.205  31.585  32.782  1.00  0.00    -0.203 F 
ATOM     71  C   UNL A   1      34.788  32.914  31.457  1.00  0.00     0.198 A 
ATOM     72  C   UNL A   1      35.336  33.354  29.172  1.00  0.00     0.198 A 
ATOM     73  F   UNL A   1      37.303  32.504  28.242  1.00  0.00    -0.203 F 
ATOM     74  F   UNL A   1      33.997  33.121  32.519  1.00  0.00    -0.200 F 
ATOM     75  C   UNL A   1      34.499  33.540  30.255  1.00  0.00     0.200 A 
ATOM     76  F   UNL A   1      35.088  33.984  28.015  1.00  0.00    -0.200 F 
ATOM     77  F   UNL A   1      33.438  34.354  30.152  1.00  0.00    -0.200 F 
ENDBRANCH  43  67
BRANCH  55  78
ATOM     78  C   UNL A   1      42.088  30.420  33.568  1.00  0.00     0.064 A 
ATOM     79  C   UNL A   1      41.718  29.081  33.352  1.00  0.00     0.173 A 
ATOM     80  C   UNL A   1      42.306  30.817  34.894  1.00  0.00     0.173 A 
ATOM     81  F   UNL A   1      41.584  28.594  32.113  1.00  0.00    -0.203 F 
ATOM     82  C   UNL A   1      41.523  28.200  34.414  1.00  0.00     0.198 A 
ATOM     83  C   UNL A   1      42.148  29.926  35.952  1.00  0.00     0.198 A 
ATOM     84  F   UNL A   1      42.713  32.068  35.160  1.00  0.00    -0.203 F 
ATOM     85  F   UNL A   1      41.146  26.934  34.180  1.00  0.00    -0.200 F 
ATOM     86  C   UNL A   1      41.743  28.624  35.714  1.00  0.00     0.200 A 
ATOM     87  F   UNL A   1      42.407  30.328  37.204  1.00  0.00    -0.200 F 
ATOM     88  F   UNL A   1      41.587  27.770  36.736  1.00  0.00    -0.200 F 
ENDBRANCH  55  78
ENDBRANCH  29  30
ENDBRANCH  21  24
ENDBRANCH  19  20
ENDBRANCH   1  19
TORSDOF 12
ENDMDL
MODEL 3
REMARK VINA RESULT:     -11.4      1.501      2.476
REMARK SMILES C[C@H]1CC=C(C2=NN=C(C(=O)NCCCCNC(=O)c3ccc(-c4c5nc(c(-c6c(F)c(F)c(F)c(F)c6F)c6ccc([nH]6)c(-c6c(F)c(F)c(F)c(F)c6F)c6nc(c(-c7c(F)c(F)c(F)c(F)c7F)c7ccc4[nH]7)C=C6)C=C5)cc3)C2)O1
REMARK SMILES IDX 15 1 14 2 13 3 12 4 10 5 11 6 9 8 6 9 7 10 83 11 8 12 5 13
REMARK SMILES IDX 1 14 2 15 3 16 84 17 4 18 16 19 17 20 18 21 19 23 20 24
REMARK SMILES IDX 21 25 82 26 22 27 81 28 23 29 24 30 25 31 75 32 26 33 80 34
REMARK SMILES IDX 74 35 76 36 27 37 79 38 73 39 72 40 28 42 60 43 40 44 59 45
REMARK SMILES IDX 41 46 44 47 58 48 77 49 42 50 43 51 57 53 78 54 45 55 29 56
REMARK SMILES IDX 30 57 38 58 31 59 32 60 36 61 39 62 33 63 34 64 37 65 35 66
REMARK SMILES IDX 61 67 62 68 70 69 63 70 64 71 68 72 71 73 65 74 66 75 69 76
REMARK SMILES IDX 67 77 46 78 47 79 55 80 48 81 49 82 53 83 56 84 50 85 51 86
REMARK SMILES IDX 54 87 52 88
REMARK H PARENT 12 7 17 22 76 41 44 52
REMARK Flexibility Score: inf
ROOT
ATOM      1  C   UNL A   1      35.132  35.037  28.600  1.00  0.00     0.023 C 
ENDROOT
BRANCH   1   2
ATOM      2  C   UNL A   1      33.622  35.279  28.752  1.00  0.00     0.023 C 
BRANCH   2   3
ATOM      3  C   UNL A   1      33.226  36.550  29.508  1.00  0.00     0.116 C 
BRANCH   3   4
ATOM      4  N   UNL A   1      32.311  36.275  30.606  1.00  0.00    -0.351 N 
ATOM      5  C   UNL A   1      32.540  35.739  31.850  1.00  0.00     0.267 C 
ATOM      6  O   UNL A   1      31.604  35.579  32.630  1.00  0.00    -0.268 OA
ATOM      7  H   UNL A   1      31.373  36.514  30.428  1.00  0.00     0.163 HD
BRANCH   5   8
ATOM      8  C   UNL A   1      33.913  35.358  32.331  1.00  0.00     0.134 C 
ATOM      9  C   UNL A   1      35.745  34.158  32.767  1.00  0.00     0.111 C 
ATOM     10  N   UNL A   1      35.840  35.289  33.396  1.00  0.00    -0.151 NA
ATOM     11  C   UNL A   1      34.497  34.040  31.955  1.00  0.00     0.126 C 
ATOM     12  N   UNL A   1      34.678  36.060  33.109  1.00  0.00    -0.149 NA
BRANCH   9  13
ATOM     13  C   UNL A   1      36.700  33.044  32.856  1.00  0.00     0.139 C 
ATOM     14  C   UNL A   1      39.790  31.681  33.680  1.00  0.00     0.053 C 
ATOM     15  C   UNL A   1      38.629  31.948  32.733  1.00  0.00     0.174 C 
ATOM     16  C   UNL A   1      37.508  30.911  32.872  1.00  0.00     0.076 C 
ATOM     17  O   UNL A   1      38.065  33.259  32.982  1.00  0.00    -0.489 OA
ATOM     18  C   UNL A   1      36.313  31.774  32.766  1.00  0.00     0.025 C 
ENDBRANCH   9  13
ENDBRANCH   5   8
ENDBRANCH   3   4
ENDBRANCH   2   3
ENDBRANCH   1   2
BRANCH   1  19
ATOM     19  C   UNL A   1      35.504  33.736  27.898  1.00  0.00     0.116 C 
BRANCH  19  20
ATOM     20  N   UNL A   1      34.575  32.641  28.162  1.00  0.00    -0.352 N 
ATOM     21  C   UNL A   1      34.835  31.280  28.108  1.00  0.00     0.251 C 
ATOM     22  H   UNL A   1      33.658  32.898  28.409  1.00  0.00     0.163 HD
ATOM     23  O   UNL A   1      33.942  30.462  27.999  1.00  0.00    -0.269 OA
BRANCH  21  24
ATOM     24  C   UNL A   1      36.244  30.845  28.173  1.00  0.00     0.039 A 
ATOM     25  C   UNL A   1      37.166  31.500  28.992  1.00  0.00     0.014 A 
ATOM     26  C   UNL A   1      36.606  29.711  27.455  1.00  0.00     0.014 A 
ATOM     27  C   UNL A   1      38.430  30.939  29.160  1.00  0.00     0.010 A 
ATOM     28  C   UNL A   1      37.793  29.080  27.742  1.00  0.00     0.010 A 
ATOM     29  C   UNL A   1      38.732  29.703  28.561  1.00  0.00    -0.014 A 
BRANCH  29  30
ATOM     30  C   UNL A   1      39.985  29.013  28.878  1.00  0.00     0.031 A 
ATOM     31  C   UNL A   1      40.216  28.722  30.324  1.00  0.00     0.074 A 
ATOM     32  C   UNL A   1      40.807  28.489  27.941  1.00  0.00     0.049 A 
ATOM     33  N   UNL A   1      41.180  29.151  31.073  1.00  0.00    -0.248 NA
ATOM     34  C   UNL A   1      39.211  27.926  31.048  1.00  0.00     0.031 C 
ATOM     35  C   UNL A   1      40.612  28.434  26.486  1.00  0.00     0.029 A 
ATOM     36  N   UNL A   1      41.971  27.796  28.112  1.00  0.00    -0.354 N 
ATOM     37  C   UNL A   1      41.003  28.553  32.318  1.00  0.00     0.074 A 
ATOM     38  C   UNL A   1      39.713  27.913  32.284  1.00  0.00     0.031 C 
ATOM     39  C   UNL A   1      41.481  27.558  25.941  1.00  0.00     0.029 A 
ATOM     40  C   UNL A   1      42.414  27.145  26.970  1.00  0.00     0.049 A 
ATOM     41  H   UNL A   1      42.452  27.760  28.970  1.00  0.00     0.167 HD
ATOM     42  C   UNL A   1      42.031  28.447  33.205  1.00  0.00     0.037 A 
ATOM     43  C   UNL A   1      43.483  26.326  26.854  1.00  0.00     0.037 A 
ATOM     44  C   UNL A   1      43.108  29.341  32.871  1.00  0.00     0.049 A 
ATOM     45  C   UNL A   1      44.405  26.649  27.962  1.00  0.00     0.074 A 
ATOM     46  C   UNL A   1      43.276  30.708  32.826  1.00  0.00     0.029 A 
ATOM     47  N   UNL A   1      44.148  28.802  32.161  1.00  0.00    -0.354 N 
ATOM     48  N   UNL A   1      45.036  27.785  28.073  1.00  0.00    -0.248 NA
ATOM     49  C   UNL A   1      44.354  25.844  29.171  1.00  0.00     0.031 C 
ATOM     50  C   UNL A   1      44.173  30.942  31.740  1.00  0.00     0.029 A 
ATOM     51  C   UNL A   1      44.540  29.705  31.207  1.00  0.00     0.049 A 
ATOM     52  H   UNL A   1      44.548  27.916  32.310  1.00  0.00     0.167 HD
ATOM     53  C   UNL A   1      45.070  28.033  29.434  1.00  0.00     0.074 A 
ATOM     54  C   UNL A   1      44.788  26.744  30.057  1.00  0.00     0.031 C 
ATOM     55  C   UNL A   1      45.040  29.313  29.908  1.00  0.00     0.037 A 
BRANCH  42  56
ATOM     56  C   UNL A   1      42.241  27.265  34.123  1.00  0.00     0.064 A 
ATOM     57  C   UNL A   1      41.934  27.383  35.495  1.00  0.00     0.173 A 
ATOM     58  C   UNL A   1      43.026  26.146  33.770  1.00  0.00     0.173 A 
ATOM     59  F   UNL A   1      41.224  28.427  35.946  1.00  0.00    -0.203 F 
ATOM     60  C   UNL A   1      42.429  26.482  36.443  1.00  0.00     0.198 A 
ATOM     61  C   UNL A   1      43.475  25.221  34.712  1.00  0.00     0.198 A 
ATOM     62  F   UNL A   1      43.487  25.968  32.525  1.00  0.00    -0.203 F 
ATOM     63  F   UNL A   1      42.212  26.700  37.748  1.00  0.00    -0.200 F 
ATOM     64  C   UNL A   1      43.203  25.404  36.051  1.00  0.00     0.200 A 
ATOM     65  F   UNL A   1      44.247  24.199  34.316  1.00  0.00    -0.200 F 
ATOM     66  F   UNL A   1      43.729  24.575  36.962  1.00  0.00    -0.200 F 
ENDBRANCH  42  56
BRANCH  43  67
ATOM     67  C   UNL A   1      43.624  25.130  25.999  1.00  0.00     0.064 A 
ATOM     68  C   UNL A   1      44.761  24.926  25.205  1.00  0.00     0.173 A 
ATOM     69  C   UNL A   1      42.758  24.030  26.158  1.00  0.00     0.173 A 
ATOM     70  F   UNL A   1      45.653  25.913  25.040  1.00  0.00    -0.203 F 
ATOM     71  C   UNL A   1      45.034  23.683  24.625  1.00  0.00     0.198 A 
ATOM     72  C   UNL A   1      43.029  22.791  25.576  1.00  0.00     0.198 A 
ATOM     73  F   UNL A   1      41.686  24.111  26.960  1.00  0.00    -0.203 F 
ATOM     74  F   UNL A   1      46.162  23.505  23.924  1.00  0.00    -0.200 F 
ATOM     75  C   UNL A   1      44.174  22.614  24.823  1.00  0.00     0.200 A 
ATOM     76  F   UNL A   1      42.209  21.756  25.806  1.00  0.00    -0.200 F 
ATOM     77  F   UNL A   1      44.467  21.406  24.321  1.00  0.00    -0.200 F 
ENDBRANCH  43  67
BRANCH  55  78
ATOM     78  C   UNL A   1      45.345  30.411  28.926  1.00  0.00     0.064 A 
ATOM     79  C   UNL A   1      44.378  31.076  28.153  1.00  0.00     0.173 A 
ATOM     80  C   UNL A   1      46.665  30.871  28.833  1.00  0.00     0.173 A 
ATOM     81  F   UNL A   1      43.081  30.764  28.255  1.00  0.00    -0.203 F 
ATOM     82  C   UNL A   1      44.724  32.113  27.289  1.00  0.00     0.198 A 
ATOM     83  C   UNL A   1      47.005  31.932  27.998  1.00  0.00     0.198 A 
ATOM     84  F   UNL A   1      47.625  30.312  29.586  1.00  0.00    -0.203 F 
ATOM     85  F   UNL A   1      43.783  32.714  26.545  1.00  0.00    -0.200 F 
ATOM     86  C   UNL A   1      46.038  32.543  27.216  1.00  0.00     0.200 A 
ATOM     87  F   UNL A   1      48.269  32.375  27.965  1.00  0.00    -0.200 F 
ATOM     88  F   UNL A   1      46.370  33.561  26.409  1.00  0.00    -0.200 F 
ENDBRANCH  55  78
ENDBRANCH  29  30
ENDBRANCH  21  24
ENDBRANCH  19  20
ENDBRANCH   1  19
TORSDOF 12
ENDMDL
