MODEL 1
REMARK VINA RESULT:     -12.0      0.000      0.000
REMARK SMILES Cc1cc(C)cc(CSCc2cc(C(=O)NCCCCNC(=O)c3ccc(-c4c5nc(c(-c6c(F)c(F)c(F)c(F)c6F)c6ccc([nH]6)c(-c6c(F)c(F)c(F)c(F)c6F)c6nc(c(-c7c(F)c(F)c(F)c(F)c7F)c7ccc4[nH]7)C=C6)C=C5)cc3)c(C)o2)c1
REMARK SMILES IDX 17 1 16 2 14 3 15 4 13 6 11 7 12 8 89 9 87 10 88 11 10 12
REMARK SMILES IDX 9 13 8 14 7 15 1 16 2 17 3 18 90 19 4 20 5 21 6 22 18 23
REMARK SMILES IDX 19 24 20 25 21 26 22 27 23 29 24 30 25 31 86 32 26 33 85 34
REMARK SMILES IDX 27 35 28 36 29 37 79 38 30 39 84 40 78 41 80 42 31 43 83 44
REMARK SMILES IDX 77 45 76 46 32 48 64 49 44 50 63 51 45 52 48 53 62 54 81 55
REMARK SMILES IDX 46 56 47 57 61 59 82 60 49 61 33 62 34 63 42 64 35 65 36 66
REMARK SMILES IDX 40 67 43 68 37 69 38 70 41 71 39 72 65 73 66 74 74 75 67 76
REMARK SMILES IDX 68 77 72 78 75 79 69 80 70 81 73 82 71 83 50 84 51 85 59 86
REMARK SMILES IDX 52 87 53 88 57 89 60 90 54 91 55 92 58 93 56 94
REMARK H PARENT 16 5 21 28 80 47 48 58
REMARK Flexibility Score: inf
ROOT
ATOM      1  C   UNL A   1      34.325  29.159  27.398  1.00  0.00     0.116 C 
ENDROOT
BRANCH   1   2
ATOM      2  N   UNL A   1      33.080  28.661  27.947  1.00  0.00    -0.352 N 
ATOM      3  C   UNL A   1      31.930  28.232  27.297  1.00  0.00     0.254 C 
ATOM      4  O   UNL A   1      31.014  27.826  28.010  1.00  0.00    -0.269 OA
ATOM      5  H   UNL A   1      33.043  28.621  28.931  1.00  0.00     0.163 HD
BRANCH   3   6
ATOM      6  C   UNL A   1      31.822  28.248  25.835  1.00  0.00     0.081 A 
ATOM      7  C   UNL A   1      31.715  27.668  23.641  1.00  0.00     0.114 A 
ATOM      8  C   UNL A   1      32.066  27.220  24.891  1.00  0.00     0.060 A 
ATOM      9  O   UNL A   1      31.340  28.971  23.729  1.00  0.00    -0.465 OA
ATOM     10  C   UNL A   1      31.405  29.324  25.050  1.00  0.00     0.113 A 
ATOM     11  C   UNL A   1      31.029  30.732  25.320  1.00  0.00     0.088 C 
BRANCH   7  12
ATOM     12  C   UNL A   1      31.660  27.015  22.308  1.00  0.00     0.145 C 
BRANCH  12  13
ATOM     13  S   UNL A   1      33.279  26.311  21.810  1.00  0.00    -0.149 SA
BRANCH  13  14
ATOM     14  C   UNL A   1      32.899  24.533  21.727  1.00  0.00     0.105 C 
BRANCH  14  15
ATOM     15  C   UNL A   1      33.510  23.644  22.784  1.00  0.00    -0.038 A 
ATOM     16  C   UNL A   1      36.479  23.695  25.191  1.00  0.00     0.044 C 
ATOM     17  C   UNL A   1      35.247  23.259  24.460  1.00  0.00    -0.051 A 
ATOM     18  C   UNL A   1      34.662  22.035  24.781  1.00  0.00     0.006 A 
ATOM     19  C   UNL A   1      34.678  24.046  23.450  1.00  0.00     0.008 A 
ATOM     20  C   UNL A   1      33.483  21.628  24.158  1.00  0.00    -0.051 A 
ATOM     21  C   UNL A   1      32.884  20.320  24.561  1.00  0.00     0.044 C 
ATOM     22  C   UNL A   1      32.911  22.431  23.160  1.00  0.00     0.008 A 
ENDBRANCH  14  15
ENDBRANCH  13  14
ENDBRANCH  12  13
ENDBRANCH   7  12
ENDBRANCH   3   6
ENDBRANCH   1   2
BRANCH   1  23
ATOM     23  C   UNL A   1      34.720  30.597  27.724  1.00  0.00     0.023 C 
BRANCH  23  24
ATOM     24  C   UNL A   1      33.649  31.651  27.992  1.00  0.00     0.023 C 
BRANCH  24  25
ATOM     25  C   UNL A   1      33.530  32.894  27.111  1.00  0.00     0.116 C 
BRANCH  25  26
ATOM     26  N   UNL A   1      32.749  34.006  27.628  1.00  0.00    -0.352 N 
ATOM     27  C   UNL A   1      33.082  34.870  28.654  1.00  0.00     0.251 C 
ATOM     28  H   UNL A   1      31.879  34.163  27.195  1.00  0.00     0.163 HD
ATOM     29  O   UNL A   1      32.366  35.827  28.929  1.00  0.00    -0.269 OA
BRANCH  27  30
ATOM     30  C   UNL A   1      34.279  34.587  29.478  1.00  0.00     0.039 A 
ATOM     31  C   UNL A   1      34.088  34.099  30.772  1.00  0.00     0.014 A 
ATOM     32  C   UNL A   1      35.567  34.698  28.947  1.00  0.00     0.014 A 
ATOM     33  C   UNL A   1      35.177  33.602  31.490  1.00  0.00     0.010 A 
ATOM     34  C   UNL A   1      36.647  34.150  29.645  1.00  0.00     0.010 A 
ATOM     35  C   UNL A   1      36.454  33.558  30.904  1.00  0.00    -0.014 A 
BRANCH  35  36
ATOM     36  C   UNL A   1      37.556  32.795  31.553  1.00  0.00     0.031 A 
ATOM     37  C   UNL A   1      38.196  31.620  30.873  1.00  0.00     0.074 A 
ATOM     38  C   UNL A   1      37.940  33.137  32.801  1.00  0.00     0.049 A 
ATOM     39  N   UNL A   1      39.150  30.834  31.308  1.00  0.00    -0.248 NA
ATOM     40  C   UNL A   1      37.690  31.271  29.539  1.00  0.00     0.031 C 
ATOM     41  C   UNL A   1      37.364  34.227  33.591  1.00  0.00     0.029 A 
ATOM     42  N   UNL A   1      38.898  32.603  33.628  1.00  0.00    -0.354 N 
ATOM     43  C   UNL A   1      39.360  29.900  30.304  1.00  0.00     0.074 A 
ATOM     44  C   UNL A   1      38.399  30.186  29.259  1.00  0.00     0.031 C 
ATOM     45  C   UNL A   1      37.994  34.296  34.774  1.00  0.00     0.029 A 
ATOM     46  C   UNL A   1      38.990  33.232  34.846  1.00  0.00     0.049 A 
ATOM     47  H   UNL A   1      39.467  31.840  33.371  1.00  0.00     0.167 HD
ATOM     48  C   UNL A   1      40.283  28.909  30.251  1.00  0.00     0.037 A 
ATOM     49  C   UNL A   1      39.777  32.975  35.909  1.00  0.00     0.037 A 
ATOM     50  C   UNL A   1      41.238  28.625  31.292  1.00  0.00     0.049 A 
ATOM     51  C   UNL A   1      40.767  31.844  35.835  1.00  0.00     0.074 A 
ATOM     52  C   UNL A   1      42.247  27.677  31.302  1.00  0.00     0.029 A 
ATOM     53  N   UNL A   1      41.294  29.277  32.516  1.00  0.00    -0.354 N 
ATOM     54  N   UNL A   1      41.013  31.023  34.845  1.00  0.00    -0.248 NA
ATOM     55  C   UNL A   1      41.593  31.607  37.029  1.00  0.00     0.031 C 
ATOM     56  C   UNL A   1      42.872  27.712  32.554  1.00  0.00     0.029 A 
ATOM     57  C   UNL A   1      42.297  28.727  33.301  1.00  0.00     0.049 A 
ATOM     58  H   UNL A   1      40.709  30.021  32.787  1.00  0.00     0.167 HD
ATOM     59  C   UNL A   1      42.036  30.191  35.283  1.00  0.00     0.074 A 
ATOM     60  C   UNL A   1      42.380  30.622  36.621  1.00  0.00     0.031 C 
ATOM     61  C   UNL A   1      42.632  29.160  34.635  1.00  0.00     0.037 A 
BRANCH  48  62
ATOM     62  C   UNL A   1      40.306  28.044  29.021  1.00  0.00     0.064 A 
ATOM     63  C   UNL A   1      41.051  28.398  27.886  1.00  0.00     0.173 A 
ATOM     64  C   UNL A   1      39.620  26.820  28.998  1.00  0.00     0.173 A 
ATOM     65  F   UNL A   1      41.720  29.560  27.853  1.00  0.00    -0.203 F 
ATOM     66  C   UNL A   1      41.084  27.575  26.763  1.00  0.00     0.198 A 
ATOM     67  C   UNL A   1      39.682  25.983  27.886  1.00  0.00     0.198 A 
ATOM     68  F   UNL A   1      38.900  26.426  30.060  1.00  0.00    -0.203 F 
ATOM     69  F   UNL A   1      41.764  27.957  25.673  1.00  0.00    -0.200 F 
ATOM     70  C   UNL A   1      40.406  26.365  26.767  1.00  0.00     0.200 A 
ATOM     71  F   UNL A   1      39.041  24.807  27.899  1.00  0.00    -0.200 F 
ATOM     72  F   UNL A   1      40.449  25.568  25.691  1.00  0.00    -0.200 F 
ENDBRANCH  48  62
BRANCH  49  73
ATOM     73  C   UNL A   1      39.669  33.809  37.137  1.00  0.00     0.064 A 
ATOM     74  C   UNL A   1      38.839  33.428  38.200  1.00  0.00     0.173 A 
ATOM     75  C   UNL A   1      40.379  35.013  37.266  1.00  0.00     0.173 A 
ATOM     76  F   UNL A   1      38.121  32.298  38.117  1.00  0.00    -0.203 F 
ATOM     77  C   UNL A   1      38.701  34.230  39.331  1.00  0.00     0.198 A 
ATOM     78  C   UNL A   1      40.268  35.796  38.412  1.00  0.00     0.198 A 
ATOM     79  F   UNL A   1      41.192  35.423  36.281  1.00  0.00    -0.203 F 
ATOM     80  F   UNL A   1      37.858  33.868  40.308  1.00  0.00    -0.200 F 
ATOM     81  C   UNL A   1      39.422  35.410  39.440  1.00  0.00     0.200 A 
ATOM     82  F   UNL A   1      40.979  36.927  38.519  1.00  0.00    -0.200 F 
ATOM     83  F   UNL A   1      39.293  36.179  40.530  1.00  0.00    -0.200 F 
ENDBRANCH  49  73
BRANCH  61  84
ATOM     84  C   UNL A   1      43.738  28.440  35.354  1.00  0.00     0.064 A 
ATOM     85  C   UNL A   1      45.080  28.829  35.222  1.00  0.00     0.173 A 
ATOM     86  C   UNL A   1      43.450  27.367  36.211  1.00  0.00     0.173 A 
ATOM     87  F   UNL A   1      45.413  29.838  34.402  1.00  0.00    -0.203 F 
ATOM     88  C   UNL A   1      46.093  28.152  35.897  1.00  0.00     0.198 A 
ATOM     89  C   UNL A   1      44.462  26.715  36.912  1.00  0.00     0.198 A 
ATOM     90  F   UNL A   1      42.184  26.956  36.380  1.00  0.00    -0.203 F 
ATOM     91  F   UNL A   1      47.372  28.507  35.712  1.00  0.00    -0.200 F 
ATOM     92  C   UNL A   1      45.783  27.103  36.747  1.00  0.00     0.200 A 
ATOM     93  F   UNL A   1      44.158  25.711  37.746  1.00  0.00    -0.200 F 
ATOM     94  F   UNL A   1      46.758  26.458  37.403  1.00  0.00    -0.200 F 
ENDBRANCH  61  84
ENDBRANCH  35  36
ENDBRANCH  27  30
ENDBRANCH  25  26
ENDBRANCH  24  25
ENDBRANCH  23  24
ENDBRANCH   1  23
TORSDOF 15
ENDMDL
MODEL 2
REMARK VINA RESULT:     -11.9      1.825      7.688
REMARK SMILES Cc1cc(C)cc(CSCc2cc(C(=O)NCCCCNC(=O)c3ccc(-c4c5nc(c(-c6c(F)c(F)c(F)c(F)c6F)c6ccc([nH]6)c(-c6c(F)c(F)c(F)c(F)c6F)c6nc(c(-c7c(F)c(F)c(F)c(F)c7F)c7ccc4[nH]7)C=C6)C=C5)cc3)c(C)o2)c1
REMARK SMILES IDX 17 1 16 2 14 3 15 4 13 6 11 7 12 8 89 9 87 10 88 11 10 12
REMARK SMILES IDX 9 13 8 14 7 15 1 16 2 17 3 18 90 19 4 20 5 21 6 22 18 23
REMARK SMILES IDX 19 24 20 25 21 26 22 27 23 29 24 30 25 31 86 32 26 33 85 34
REMARK SMILES IDX 27 35 28 36 29 37 79 38 30 39 84 40 78 41 80 42 31 43 83 44
REMARK SMILES IDX 77 45 76 46 32 48 64 49 44 50 63 51 45 52 48 53 62 54 81 55
REMARK SMILES IDX 46 56 47 57 61 59 82 60 49 61 33 62 34 63 42 64 35 65 36 66
REMARK SMILES IDX 40 67 43 68 37 69 38 70 41 71 39 72 65 73 66 74 74 75 67 76
REMARK SMILES IDX 68 77 72 78 75 79 69 80 70 81 73 82 71 83 50 84 51 85 59 86
REMARK SMILES IDX 52 87 53 88 57 89 60 90 54 91 55 92 58 93 56 94
REMARK H PARENT 16 5 21 28 80 47 48 58
REMARK Flexibility Score: inf
ROOT
ATOM      1  C   UNL A   1      32.251  29.663  25.525  1.00  0.00     0.116 C 
ENDROOT
BRANCH   1   2
ATOM      2  N   UNL A   1      33.251  29.634  24.478  1.00  0.00    -0.352 N 
ATOM      3  C   UNL A   1      33.489  28.674  23.503  1.00  0.00     0.254 C 
ATOM      4  O   UNL A   1      34.396  28.911  22.707  1.00  0.00    -0.269 OA
ATOM      5  H   UNL A   1      33.855  30.412  24.454  1.00  0.00     0.163 HD
BRANCH   3   6
ATOM      6  C   UNL A   1      32.687  27.450  23.418  1.00  0.00     0.081 A 
ATOM      7  C   UNL A   1      31.898  25.330  23.634  1.00  0.00     0.114 A 
ATOM      8  C   UNL A   1      33.011  26.119  23.786  1.00  0.00     0.060 A 
ATOM      9  O   UNL A   1      30.897  26.077  23.100  1.00  0.00    -0.465 OA
ATOM     10  C   UNL A   1      31.370  27.355  22.967  1.00  0.00     0.113 A 
ATOM     11  C   UNL A   1      30.393  28.305  22.387  1.00  0.00     0.088 C 
BRANCH   7  12
ATOM     12  C   UNL A   1      31.614  23.906  23.949  1.00  0.00     0.145 C 
BRANCH  12  13
ATOM     13  S   UNL A   1      33.023  22.807  23.536  1.00  0.00    -0.149 SA
BRANCH  13  14
ATOM     14  C   UNL A   1      33.649  22.373  25.189  1.00  0.00     0.105 C 
BRANCH  14  15
ATOM     15  C   UNL A   1      35.145  22.241  25.352  1.00  0.00    -0.038 A 
ATOM     16  C   UNL A   1      37.858  19.611  24.769  1.00  0.00     0.044 C 
ATOM     17  C   UNL A   1      37.171  20.890  25.136  1.00  0.00    -0.051 A 
ATOM     18  C   UNL A   1      37.930  21.959  25.609  1.00  0.00     0.006 A 
ATOM     19  C   UNL A   1      35.780  21.031  25.029  1.00  0.00     0.008 A 
ATOM     20  C   UNL A   1      37.327  23.181  25.904  1.00  0.00    -0.051 A 
ATOM     21  C   UNL A   1      38.193  24.301  26.380  1.00  0.00     0.044 C 
ATOM     22  C   UNL A   1      35.936  23.319  25.779  1.00  0.00     0.008 A 
ENDBRANCH  14  15
ENDBRANCH  13  14
ENDBRANCH  12  13
ENDBRANCH   7  12
ENDBRANCH   3   6
ENDBRANCH   1   2
BRANCH   1  23
ATOM     23  C   UNL A   1      31.160  30.727  25.436  1.00  0.00     0.023 C 
BRANCH  23  24
ATOM     24  C   UNL A   1      31.240  31.990  26.288  1.00  0.00     0.023 C 
BRANCH  24  25
ATOM     25  C   UNL A   1      32.415  32.227  27.237  1.00  0.00     0.116 C 
BRANCH  25  26
ATOM     26  N   UNL A   1      32.715  33.603  27.598  1.00  0.00    -0.352 N 
ATOM     27  C   UNL A   1      33.922  34.122  28.025  1.00  0.00     0.251 C 
ATOM     28  H   UNL A   1      31.969  34.241  27.528  1.00  0.00     0.163 HD
ATOM     29  O   UNL A   1      34.059  35.326  28.210  1.00  0.00    -0.269 OA
BRANCH  27  30
ATOM     30  C   UNL A   1      35.037  33.199  28.336  1.00  0.00     0.039 A 
ATOM     31  C   UNL A   1      36.341  33.695  28.268  1.00  0.00     0.014 A 
ATOM     32  C   UNL A   1      34.797  31.901  28.792  1.00  0.00     0.014 A 
ATOM     33  C   UNL A   1      37.396  32.934  28.776  1.00  0.00     0.010 A 
ATOM     34  C   UNL A   1      35.846  31.164  29.350  1.00  0.00     0.010 A 
ATOM     35  C   UNL A   1      37.146  31.692  29.387  1.00  0.00    -0.014 A 
BRANCH  35  36
ATOM     36  C   UNL A   1      38.217  31.004  30.159  1.00  0.00     0.031 A 
ATOM     37  C   UNL A   1      38.481  31.343  31.597  1.00  0.00     0.074 A 
ATOM     38  C   UNL A   1      38.998  30.101  29.531  1.00  0.00     0.049 A 
ATOM     39  N   UNL A   1      39.388  30.855  32.407  1.00  0.00    -0.248 NA
ATOM     40  C   UNL A   1      37.627  32.374  32.201  1.00  0.00     0.031 C 
ATOM     41  C   UNL A   1      38.879  29.718  28.122  1.00  0.00     0.029 A 
ATOM     42  N   UNL A   1      40.051  29.346  29.988  1.00  0.00    -0.354 N 
ATOM     43  C   UNL A   1      39.215  31.517  33.615  1.00  0.00     0.074 A 
ATOM     44  C   UNL A   1      38.149  32.477  33.416  1.00  0.00     0.031 C 
ATOM     45  C   UNL A   1      39.801  28.785  27.838  1.00  0.00     0.029 A 
ATOM     46  C   UNL A   1      40.606  28.533  29.029  1.00  0.00     0.049 A 
ATOM     47  H   UNL A   1      40.377  29.383  30.916  1.00  0.00     0.167 HD
ATOM     48  C   UNL A   1      39.871  31.326  34.785  1.00  0.00     0.037 A 
ATOM     49  C   UNL A   1      41.654  27.687  29.093  1.00  0.00     0.037 A 
ATOM     50  C   UNL A   1      40.932  30.370  34.980  1.00  0.00     0.049 A 
ATOM     51  C   UNL A   1      42.387  27.523  30.397  1.00  0.00     0.074 A 
ATOM     52  C   UNL A   1      41.617  30.068  36.145  1.00  0.00     0.029 A 
ATOM     53  N   UNL A   1      41.474  29.572  33.983  1.00  0.00    -0.354 N 
ATOM     54  N   UNL A   1      42.156  28.094  31.554  1.00  0.00    -0.248 NA
ATOM     55  C   UNL A   1      43.526  26.593  30.405  1.00  0.00     0.031 C 
ATOM     56  C   UNL A   1      42.613  29.135  35.840  1.00  0.00     0.029 A 
ATOM     57  C   UNL A   1      42.508  28.805  34.499  1.00  0.00     0.049 A 
ATOM     58  H   UNL A   1      41.169  29.552  33.047  1.00  0.00     0.167 HD
ATOM     59  C   UNL A   1      43.100  27.575  32.431  1.00  0.00     0.074 A 
ATOM     60  C   UNL A   1      43.892  26.627  31.678  1.00  0.00     0.031 C 
ATOM     61  C   UNL A   1      43.295  27.863  33.741  1.00  0.00     0.037 A 
BRANCH  48  62
ATOM     62  C   UNL A   1      39.465  32.175  35.957  1.00  0.00     0.064 A 
ATOM     63  C   UNL A   1      40.045  33.431  36.193  1.00  0.00     0.173 A 
ATOM     64  C   UNL A   1      38.443  31.754  36.823  1.00  0.00     0.173 A 
ATOM     65  F   UNL A   1      41.029  33.879  35.399  1.00  0.00    -0.203 F 
ATOM     66  C   UNL A   1      39.640  34.219  37.268  1.00  0.00     0.198 A 
ATOM     67  C   UNL A   1      38.019  32.558  37.877  1.00  0.00     0.198 A 
ATOM     68  F   UNL A   1      37.846  30.566  36.639  1.00  0.00    -0.203 F 
ATOM     69  F   UNL A   1      40.242  35.394  37.499  1.00  0.00    -0.200 F 
ATOM     70  C   UNL A   1      38.622  33.786  38.104  1.00  0.00     0.200 A 
ATOM     71  F   UNL A   1      37.023  32.145  38.674  1.00  0.00    -0.200 F 
ATOM     72  F   UNL A   1      38.226  34.550  39.130  1.00  0.00    -0.200 F 
ENDBRANCH  48  62
BRANCH  49  73
ATOM     73  C   UNL A   1      42.070  26.922  27.888  1.00  0.00     0.064 A 
ATOM     74  C   UNL A   1      42.982  27.459  26.968  1.00  0.00     0.173 A 
ATOM     75  C   UNL A   1      41.553  25.645  27.619  1.00  0.00     0.173 A 
ATOM     76  F   UNL A   1      43.488  28.685  27.167  1.00  0.00    -0.203 F 
ATOM     77  C   UNL A   1      43.340  26.763  25.816  1.00  0.00     0.198 A 
ATOM     78  C   UNL A   1      41.939  24.935  26.484  1.00  0.00     0.198 A 
ATOM     79  F   UNL A   1      40.681  25.081  28.467  1.00  0.00    -0.203 F 
ATOM     80  F   UNL A   1      44.171  27.324  24.927  1.00  0.00    -0.200 F 
ATOM     81  C   UNL A   1      42.823  25.498  25.578  1.00  0.00     0.200 A 
ATOM     82  F   UNL A   1      41.449  23.706  26.267  1.00  0.00    -0.200 F 
ATOM     83  F   UNL A   1      43.171  24.827  24.471  1.00  0.00    -0.200 F 
ENDBRANCH  49  73
BRANCH  61  84
ATOM     84  C   UNL A   1      44.393  27.125  34.455  1.00  0.00     0.064 A 
ATOM     85  C   UNL A   1      45.683  27.663  34.580  1.00  0.00     0.173 A 
ATOM     86  C   UNL A   1      44.144  25.878  35.048  1.00  0.00     0.173 A 
ATOM     87  F   UNL A   1      45.979  28.844  34.017  1.00  0.00    -0.203 F 
ATOM     88  C   UNL A   1      46.689  26.966  35.246  1.00  0.00     0.198 A 
ATOM     89  C   UNL A   1      45.143  25.200  35.743  1.00  0.00     0.198 A 
ATOM     90  F   UNL A   1      42.927  25.319  34.964  1.00  0.00    -0.203 F 
ATOM     91  F   UNL A   1      47.928  27.475  35.305  1.00  0.00    -0.200 F 
ATOM     92  C   UNL A   1      46.416  25.741  35.834  1.00  0.00     0.200 A 
ATOM     93  F   UNL A   1      44.872  24.023  36.324  1.00  0.00    -0.200 F 
ATOM     94  F   UNL A   1      47.383  25.076  36.481  1.00  0.00    -0.200 F 
ENDBRANCH  61  84
ENDBRANCH  35  36
ENDBRANCH  27  30
ENDBRANCH  25  26
ENDBRANCH  24  25
ENDBRANCH  23  24
ENDBRANCH   1  23
TORSDOF 15
ENDMDL
MODEL 3
REMARK VINA RESULT:     -11.9      3.726      8.774
REMARK SMILES Cc1cc(C)cc(CSCc2cc(C(=O)NCCCCNC(=O)c3ccc(-c4c5nc(c(-c6c(F)c(F)c(F)c(F)c6F)c6ccc([nH]6)c(-c6c(F)c(F)c(F)c(F)c6F)c6nc(c(-c7c(F)c(F)c(F)c(F)c7F)c7ccc4[nH]7)C=C6)C=C5)cc3)c(C)o2)c1
REMARK SMILES IDX 17 1 16 2 14 3 15 4 13 6 11 7 12 8 89 9 87 10 88 11 10 12
REMARK SMILES IDX 9 13 8 14 7 15 1 16 2 17 3 18 90 19 4 20 5 21 6 22 18 23
REMARK SMILES IDX 19 24 20 25 21 26 22 27 23 29 24 30 25 31 86 32 26 33 85 34
REMARK SMILES IDX 27 35 28 36 29 37 79 38 30 39 84 40 78 41 80 42 31 43 83 44
REMARK SMILES IDX 77 45 76 46 32 48 64 49 44 50 63 51 45 52 48 53 62 54 81 55
REMARK SMILES IDX 46 56 47 57 61 59 82 60 49 61 33 62 34 63 42 64 35 65 36 66
REMARK SMILES IDX 40 67 43 68 37 69 38 70 41 71 39 72 65 73 66 74 74 75 67 76
REMARK SMILES IDX 68 77 72 78 75 79 69 80 70 81 73 82 71 83 50 84 51 85 59 86
REMARK SMILES IDX 52 87 53 88 57 89 60 90 54 91 55 92 58 93 56 94
REMARK H PARENT 16 5 21 28 80 47 48 58
REMARK Flexibility Score: inf
ROOT
ATOM      1  C   UNL A   1      32.150  28.580  23.647  1.00  0.00     0.116 C 
ENDROOT
BRANCH   1   2
ATOM      2  N   UNL A   1      32.754  27.936  22.498  1.00  0.00    -0.352 N 
ATOM      3  C   UNL A   1      33.200  26.630  22.346  1.00  0.00     0.254 C 
ATOM      4  O   UNL A   1      33.653  26.328  21.243  1.00  0.00    -0.269 OA
ATOM      5  H   UNL A   1      32.866  28.511  21.707  1.00  0.00     0.163 HD
BRANCH   3   6
ATOM      6  C   UNL A   1      33.120  25.657  23.439  1.00  0.00     0.081 A 
ATOM      7  C   UNL A   1      33.528  24.407  25.293  1.00  0.00     0.114 A 
ATOM      8  C   UNL A   1      34.101  25.262  24.384  1.00  0.00     0.060 A 
ATOM      9  O   UNL A   1      32.243  24.166  24.923  1.00  0.00    -0.465 OA
ATOM     10  C   UNL A   1      31.995  24.916  23.805  1.00  0.00     0.113 A 
ATOM     11  C   UNL A   1      30.624  24.762  23.264  1.00  0.00     0.088 C 
BRANCH   7  12
ATOM     12  C   UNL A   1      34.028  23.762  26.534  1.00  0.00     0.145 C 
BRANCH  12  13
ATOM     13  S   UNL A   1      32.953  22.381  27.083  1.00  0.00    -0.149 SA
BRANCH  13  14
ATOM     14  C   UNL A   1      33.904  20.931  26.530  1.00  0.00     0.105 C 
BRANCH  14  15
ATOM     15  C   UNL A   1      33.418  20.213  25.294  1.00  0.00    -0.038 A 
ATOM     16  C   UNL A   1      31.778  21.078  21.950  1.00  0.00     0.044 C 
ATOM     17  C   UNL A   1      32.393  20.305  23.076  1.00  0.00    -0.051 A 
ATOM     18  C   UNL A   1      32.528  18.923  22.959  1.00  0.00     0.006 A 
ATOM     19  C   UNL A   1      32.820  20.939  24.251  1.00  0.00     0.008 A 
ATOM     20  C   UNL A   1      33.148  18.184  23.966  1.00  0.00    -0.051 A 
ATOM     21  C   UNL A   1      33.292  16.709  23.776  1.00  0.00     0.044 C 
ATOM     22  C   UNL A   1      33.588  18.829  25.132  1.00  0.00     0.008 A 
ENDBRANCH  14  15
ENDBRANCH  13  14
ENDBRANCH  12  13
ENDBRANCH   7  12
ENDBRANCH   3   6
ENDBRANCH   1   2
BRANCH   1  23
ATOM     23  C   UNL A   1      33.075  29.298  24.626  1.00  0.00     0.023 C 
BRANCH  23  24
ATOM     24  C   UNL A   1      33.651  28.556  25.830  1.00  0.00     0.023 C 
BRANCH  24  25
ATOM     25  C   UNL A   1      33.282  28.964  27.256  1.00  0.00     0.116 C 
BRANCH  25  26
ATOM     26  N   UNL A   1      33.450  30.362  27.615  1.00  0.00    -0.352 N 
ATOM     27  C   UNL A   1      34.611  31.003  28.006  1.00  0.00     0.251 C 
ATOM     28  H   UNL A   1      32.640  30.921  27.573  1.00  0.00     0.163 HD
ATOM     29  O   UNL A   1      34.630  32.214  28.193  1.00  0.00    -0.269 OA
BRANCH  27  30
ATOM     30  C   UNL A   1      35.824  30.199  28.275  1.00  0.00     0.039 A 
ATOM     31  C   UNL A   1      36.781  30.089  27.263  1.00  0.00     0.014 A 
ATOM     32  C   UNL A   1      36.066  29.653  29.538  1.00  0.00     0.014 A 
ATOM     33  C   UNL A   1      38.033  29.543  27.553  1.00  0.00     0.010 A 
ATOM     34  C   UNL A   1      37.338  29.157  29.840  1.00  0.00     0.010 A 
ATOM     35  C   UNL A   1      38.346  29.139  28.863  1.00  0.00    -0.014 A 
BRANCH  35  36
ATOM     36  C   UNL A   1      39.749  28.807  29.235  1.00  0.00     0.031 A 
ATOM     37  C   UNL A   1      40.587  29.757  30.039  1.00  0.00     0.074 A 
ATOM     38  C   UNL A   1      40.288  27.655  28.786  1.00  0.00     0.049 A 
ATOM     39  N   UNL A   1      41.832  29.633  30.428  1.00  0.00    -0.248 NA
ATOM     40  C   UNL A   1      39.952  31.018  30.446  1.00  0.00     0.031 C 
ATOM     41  C   UNL A   1      39.597  26.668  27.954  1.00  0.00     0.029 A 
ATOM     42  N   UNL A   1      41.542  27.118  28.958  1.00  0.00    -0.354 N 
ATOM     43  C   UNL A   1      42.130  30.795  31.126  1.00  0.00     0.074 A 
ATOM     44  C   UNL A   1      40.951  31.634  31.063  1.00  0.00     0.031 C 
ATOM     45  C   UNL A   1      40.423  25.639  27.709  1.00  0.00     0.029 A 
ATOM     46  C   UNL A   1      41.716  25.909  28.330  1.00  0.00     0.049 A 
ATOM     47  H   UNL A   1      42.249  27.559  29.483  1.00  0.00     0.167 HD
ATOM     48  C   UNL A   1      43.274  31.122  31.775  1.00  0.00     0.037 A 
ATOM     49  C   UNL A   1      42.798  25.109  28.250  1.00  0.00     0.037 A 
ATOM     50  C   UNL A   1      44.446  30.285  31.835  1.00  0.00     0.049 A 
ATOM     51  C   UNL A   1      44.066  25.515  28.950  1.00  0.00     0.074 A 
ATOM     52  C   UNL A   1      45.630  30.509  32.517  1.00  0.00     0.029 A 
ATOM     53  N   UNL A   1      44.589  29.071  31.179  1.00  0.00    -0.354 N 
ATOM     54  N   UNL A   1      44.305  26.578  29.679  1.00  0.00    -0.248 NA
ATOM     55  C   UNL A   1      45.215  24.607  28.820  1.00  0.00     0.031 C 
ATOM     56  C   UNL A   1      46.512  29.463  32.221  1.00  0.00     0.029 A 
ATOM     57  C   UNL A   1      45.855  28.554  31.409  1.00  0.00     0.049 A 
ATOM     58  H   UNL A   1      43.894  28.641  30.630  1.00  0.00     0.167 HD
ATOM     59  C   UNL A   1      45.619  26.455  30.114  1.00  0.00     0.074 A 
ATOM     60  C   UNL A   1      46.117  25.203  29.587  1.00  0.00     0.031 C 
ATOM     61  C   UNL A   1      46.346  27.306  30.878  1.00  0.00     0.037 A 
BRANCH  48  62
ATOM     62  C   UNL A   1      43.321  32.451  32.475  1.00  0.00     0.064 A 
ATOM     63  C   UNL A   1      43.737  33.617  31.815  1.00  0.00     0.173 A 
ATOM     64  C   UNL A   1      42.893  32.571  33.807  1.00  0.00     0.173 A 
ATOM     65  F   UNL A   1      44.162  33.557  30.544  1.00  0.00    -0.203 F 
ATOM     66  C   UNL A   1      43.751  34.847  32.468  1.00  0.00     0.198 A 
ATOM     67  C   UNL A   1      42.877  33.808  34.447  1.00  0.00     0.198 A 
ATOM     68  F   UNL A   1      42.475  31.491  34.484  1.00  0.00    -0.203 F 
ATOM     69  F   UNL A   1      44.196  35.938  31.830  1.00  0.00    -0.200 F 
ATOM     70  C   UNL A   1      43.313  34.943  33.780  1.00  0.00     0.200 A 
ATOM     71  F   UNL A   1      42.437  33.901  35.710  1.00  0.00    -0.200 F 
ATOM     72  F   UNL A   1      43.316  36.129  34.404  1.00  0.00    -0.200 F 
ENDBRANCH  48  62
BRANCH  49  73
ATOM     73  C   UNL A   1      42.731  23.836  27.482  1.00  0.00     0.064 A 
ATOM     74  C   UNL A   1      42.299  22.647  28.087  1.00  0.00     0.173 A 
ATOM     75  C   UNL A   1      43.113  23.778  26.133  1.00  0.00     0.173 A 
ATOM     76  F   UNL A   1      41.945  22.645  29.380  1.00  0.00    -0.203 F 
ATOM     77  C   UNL A   1      42.278  21.446  27.382  1.00  0.00     0.198 A 
ATOM     78  C   UNL A   1      43.057  22.582  25.419  1.00  0.00     0.198 A 
ATOM     79  F   UNL A   1      43.529  24.886  25.503  1.00  0.00    -0.203 F 
ATOM     80  F   UNL A   1      41.914  20.314  28.001  1.00  0.00    -0.200 F 
ATOM     81  C   UNL A   1      42.650  21.415  26.046  1.00  0.00     0.200 A 
ATOM     82  F   UNL A   1      43.403  22.561  24.124  1.00  0.00    -0.200 F 
ATOM     83  F   UNL A   1      42.626  20.259  25.368  1.00  0.00    -0.200 F 
ENDBRANCH  49  73
BRANCH  61  84
ATOM     84  C   UNL A   1      47.754  26.901  31.214  1.00  0.00     0.064 A 
ATOM     85  C   UNL A   1      48.854  27.390  30.494  1.00  0.00     0.173 A 
ATOM     86  C   UNL A   1      48.009  26.037  32.290  1.00  0.00     0.173 A 
ATOM     87  F   UNL A   1      48.666  28.207  29.446  1.00  0.00    -0.203 F 
ATOM     88  C   UNL A   1      50.153  27.006  30.819  1.00  0.00     0.198 A 
ATOM     89  C   UNL A   1      49.311  25.682  32.634  1.00  0.00     0.198 A 
ATOM     90  F   UNL A   1      46.995  25.543  33.017  1.00  0.00    -0.203 F 
ATOM     91  F   UNL A   1      51.184  27.443  30.082  1.00  0.00    -0.200 F 
ATOM     92  C   UNL A   1      50.381  26.160  31.893  1.00  0.00     0.200 A 
ATOM     93  F   UNL A   1      49.529  24.877  33.683  1.00  0.00    -0.200 F 
ATOM     94  F   UNL A   1      51.632  25.798  32.210  1.00  0.00    -0.200 F 
ENDBRANCH  61  84
ENDBRANCH  35  36
ENDBRANCH  27  30
ENDBRANCH  25  26
ENDBRANCH  24  25
ENDBRANCH  23  24
ENDBRANCH   1  23
TORSDOF 15
ENDMDL
