MODEL 1
REMARK VINA RESULT:     -12.6      0.000      0.000
REMARK SMILES O=C(Cc1ccccc1Nc1c(Cl)cccc1C(F)(F)F)NCCCCNC(=O)c1ccc(-c2c3nc(c(-c4c(F)c(F)c(F)c(F)c4F)c4ccc([nH]4)c(-c4c(F)c(F)c(F)c(F)c4F)c4nc(c(-c5c(F)c(F)c(F)c(F)c5F)c5ccc2[nH]5)C=C4)C=C3)cc1
REMARK SMILES IDX 23 1 22 2 1 3 2 4 3 6 4 7 5 8 9 9 6 10 8 11 7 12 10 13 11 15
REMARK SMILES IDX 12 16 17 17 13 18 14 19 16 20 15 21 18 22 19 23 20 24 21 25
REMARK SMILES IDX 24 26 25 27 26 28 27 29 28 30 29 32 30 33 31 34 92 35 32 36
REMARK SMILES IDX 91 37 33 38 34 39 35 40 85 41 36 42 90 43 84 44 86 45 37 46
REMARK SMILES IDX 89 47 83 48 82 49 38 51 70 52 50 53 69 54 51 55 54 56 68 57
REMARK SMILES IDX 87 58 52 59 53 60 67 62 88 63 55 64 39 65 40 66 48 67 41 68
REMARK SMILES IDX 42 69 46 70 49 71 43 72 44 73 47 74 45 75 71 76 72 77 80 78
REMARK SMILES IDX 73 79 74 80 78 81 81 82 75 83 76 84 79 85 77 86 56 87 57 88
REMARK SMILES IDX 65 89 58 90 59 91 63 92 66 93 60 94 61 95 64 96 62 97
REMARK H PARENT 22 5 10 14 27 31 86 50 54 61
REMARK Flexibility Score: inf
ROOT
ATOM      1  C   UNL A   1      32.036  29.692  27.223  1.00  0.00     0.116 C 
ENDROOT
BRANCH   1   2
ATOM      2  N   UNL A   1      32.990  28.698  26.774  1.00  0.00    -0.356 N 
ATOM      3  O   UNL A   1      31.525  26.924  26.731  1.00  0.00    -0.275 OA
ATOM      4  C   UNL A   1      32.650  27.382  26.547  1.00  0.00     0.224 C 
ATOM      5  H   UNL A   1      33.923  28.975  26.623  1.00  0.00     0.163 HD
BRANCH   4   6
ATOM      6  C   UNL A   1      33.788  26.514  26.031  1.00  0.00     0.137 C 
BRANCH   6   7
ATOM      7  C   UNL A   1      33.589  26.111  24.585  1.00  0.00    -0.015 A 
ATOM      8  C   UNL A   1      33.464  27.129  23.620  1.00  0.00     0.006 A 
ATOM      9  C   UNL A   1      33.497  24.756  24.196  1.00  0.00     0.042 A 
ATOM     10  C   UNL A   1      33.227  26.818  22.283  1.00  0.00     0.000 A 
ATOM     11  C   UNL A   1      33.240  24.473  22.845  1.00  0.00     0.026 A 
ATOM     12  C   UNL A   1      33.104  25.490  21.898  1.00  0.00     0.002 A 
BRANCH   9  13
ATOM     13  N   UNL A   1      33.730  23.722  25.129  1.00  0.00    -0.354 N 
ATOM     14  H   UNL A   1      33.325  23.868  26.014  1.00  0.00     0.167 HD
BRANCH  13  15
ATOM     15  C   UNL A   1      34.450  22.512  25.001  1.00  0.00     0.070 A 
ATOM     16  C   UNL A   1      35.853  22.541  25.199  1.00  0.00     0.065 A 
ATOM     17  C   UNL A   1      33.839  21.264  24.758  1.00  0.00     0.080 A 
ATOM     18  Cl  UNL A   1      36.676  24.041  25.477  1.00  0.00    -0.082 Cl
ATOM     19  C   UNL A   1      36.622  21.375  25.201  1.00  0.00     0.023 A 
ATOM     20  C   UNL A   1      34.632  20.092  24.789  1.00  0.00     0.015 A 
ATOM     21  C   UNL A   1      36.007  20.145  25.010  1.00  0.00     0.002 A 
BRANCH  17  22
ATOM     22  C   UNL A   1      32.376  21.085  24.424  1.00  0.00     0.418 C 
ATOM     23  F   UNL A   1      32.001  19.768  24.490  1.00  0.00    -0.166 F 
ATOM     24  F   UNL A   1      31.558  21.721  25.312  1.00  0.00    -0.166 F 
ATOM     25  F   UNL A   1      31.993  21.487  23.183  1.00  0.00    -0.166 F 
ENDBRANCH  17  22
ENDBRANCH  13  15
ENDBRANCH   9  13
ENDBRANCH   6   7
ENDBRANCH   4   6
ENDBRANCH   1   2
BRANCH   1  26
ATOM     26  C   UNL A   1      31.623  30.640  26.098  1.00  0.00     0.023 C 
BRANCH  26  27
ATOM     27  C   UNL A   1      31.420  32.099  26.517  1.00  0.00     0.023 C 
BRANCH  27  28
ATOM     28  C   UNL A   1      32.598  32.746  27.238  1.00  0.00     0.116 C 
BRANCH  28  29
ATOM     29  N   UNL A   1      32.345  34.129  27.610  1.00  0.00    -0.352 N 
ATOM     30  C   UNL A   1      32.958  34.911  28.560  1.00  0.00     0.251 C 
ATOM     31  H   UNL A   1      31.627  34.573  27.105  1.00  0.00     0.163 HD
ATOM     32  O   UNL A   1      32.503  36.022  28.825  1.00  0.00    -0.269 OA
BRANCH  30  33
ATOM     33  C   UNL A   1      34.145  34.416  29.294  1.00  0.00     0.039 A 
ATOM     34  C   UNL A   1      33.959  33.813  30.542  1.00  0.00     0.014 A 
ATOM     35  C   UNL A   1      35.434  34.551  28.773  1.00  0.00     0.014 A 
ATOM     36  C   UNL A   1      35.054  33.282  31.230  1.00  0.00     0.010 A 
ATOM     37  C   UNL A   1      36.514  33.953  29.422  1.00  0.00     0.010 A 
ATOM     38  C   UNL A   1      36.337  33.309  30.656  1.00  0.00    -0.014 A 
BRANCH  38  39
ATOM     39  C   UNL A   1      37.494  32.658  31.325  1.00  0.00     0.031 A 
ATOM     40  C   UNL A   1      38.203  31.504  30.672  1.00  0.00     0.074 A 
ATOM     41  C   UNL A   1      37.870  33.065  32.554  1.00  0.00     0.049 A 
ATOM     42  N   UNL A   1      39.183  30.766  31.131  1.00  0.00    -0.248 NA
ATOM     43  C   UNL A   1      37.733  31.111  29.336  1.00  0.00     0.031 C 
ATOM     44  C   UNL A   1      37.239  34.143  33.317  1.00  0.00     0.029 A 
ATOM     45  N   UNL A   1      38.866  32.612  33.386  1.00  0.00    -0.354 N 
ATOM     46  C   UNL A   1      39.438  29.819  30.147  1.00  0.00     0.074 A 
ATOM     47  C   UNL A   1      38.472  30.039  29.092  1.00  0.00     0.031 C 
ATOM     48  C   UNL A   1      37.873  34.281  34.492  1.00  0.00     0.029 A 
ATOM     49  C   UNL A   1      38.926  33.276  34.587  1.00  0.00     0.049 A 
ATOM     50  H   UNL A   1      39.479  31.881  33.142  1.00  0.00     0.167 HD
ATOM     51  C   UNL A   1      40.404  28.870  30.113  1.00  0.00     0.037 A 
ATOM     52  C   UNL A   1      39.730  33.088  35.651  1.00  0.00     0.037 A 
ATOM     53  C   UNL A   1      41.373  28.661  31.159  1.00  0.00     0.049 A 
ATOM     54  C   UNL A   1      40.780  32.011  35.599  1.00  0.00     0.074 A 
ATOM     55  C   UNL A   1      42.421  27.758  31.196  1.00  0.00     0.029 A 
ATOM     56  N   UNL A   1      41.408  29.361  32.356  1.00  0.00    -0.354 N 
ATOM     57  N   UNL A   1      41.053  31.165  34.635  1.00  0.00    -0.248 NA
ATOM     58  C   UNL A   1      41.638  31.865  36.784  1.00  0.00     0.031 C 
ATOM     59  C   UNL A   1      43.055  27.872  32.437  1.00  0.00     0.029 A 
ATOM     60  C   UNL A   1      42.444  28.891  33.149  1.00  0.00     0.049 A 
ATOM     61  H   UNL A   1      40.790  30.085  32.606  1.00  0.00     0.167 HD
ATOM     62  C   UNL A   1      42.131  30.412  35.081  1.00  0.00     0.074 A 
ATOM     63  C   UNL A   1      42.472  30.910  36.397  1.00  0.00     0.031 C 
ATOM     64  C   UNL A   1      42.779  29.399  34.456  1.00  0.00     0.037 A 
BRANCH  51  65
ATOM     65  C   UNL A   1      40.462  27.979  28.905  1.00  0.00     0.064 A 
ATOM     66  C   UNL A   1      39.737  26.778  28.839  1.00  0.00     0.173 A 
ATOM     67  C   UNL A   1      41.219  28.347  27.782  1.00  0.00     0.173 A 
ATOM     68  F   UNL A   1      39.003  26.374  29.887  1.00  0.00    -0.203 F 
ATOM     69  C   UNL A   1      39.796  25.964  27.711  1.00  0.00     0.198 A 
ATOM     70  C   UNL A   1      41.247  27.548  26.642  1.00  0.00     0.198 A 
ATOM     71  F   UNL A   1      41.924  29.488  27.786  1.00  0.00    -0.203 F 
ATOM     72  F   UNL A   1      39.140  24.797  27.694  1.00  0.00    -0.200 F 
ATOM     73  C   UNL A   1      40.545  26.353  26.610  1.00  0.00     0.200 A 
ATOM     74  F   UNL A   1      41.959  27.934  25.573  1.00  0.00    -0.200 F 
ATOM     75  F   UNL A   1      40.594  25.573  25.522  1.00  0.00    -0.200 F 
ENDBRANCH  51  65
BRANCH  52  76
ATOM     76  C   UNL A   1      39.584  33.950  36.854  1.00  0.00     0.064 A 
ATOM     77  C   UNL A   1      40.222  35.196  36.933  1.00  0.00     0.173 A 
ATOM     78  C   UNL A   1      38.812  33.543  37.953  1.00  0.00     0.173 A 
ATOM     79  F   UNL A   1      40.988  35.620  35.918  1.00  0.00    -0.203 F 
ATOM     80  C   UNL A   1      40.114  35.990  38.073  1.00  0.00     0.198 A 
ATOM     81  C   UNL A   1      38.678  34.353  39.079  1.00  0.00     0.198 A 
ATOM     82  F   UNL A   1      38.176  32.363  37.927  1.00  0.00    -0.203 F 
ATOM     83  F   UNL A   1      40.777  37.152  38.142  1.00  0.00    -0.200 F 
ATOM     84  C   UNL A   1      39.336  35.571  39.141  1.00  0.00     0.200 A 
ATOM     85  F   UNL A   1      37.913  33.952  40.103  1.00  0.00    -0.200 F 
ATOM     86  F   UNL A   1      39.229  36.338  40.236  1.00  0.00    -0.200 F 
ENDBRANCH  52  76
BRANCH  64  87
ATOM     87  C   UNL A   1      43.951  28.783  35.168  1.00  0.00     0.064 A 
ATOM     88  C   UNL A   1      43.797  27.697  36.042  1.00  0.00     0.173 A 
ATOM     89  C   UNL A   1      45.250  29.264  34.942  1.00  0.00     0.173 A 
ATOM     90  F   UNL A   1      42.576  27.208  36.305  1.00  0.00    -0.203 F 
ATOM     91  C   UNL A   1      44.897  27.134  36.685  1.00  0.00     0.198 A 
ATOM     92  C   UNL A   1      46.351  28.677  35.559  1.00  0.00     0.198 A 
ATOM     93  F   UNL A   1      45.453  30.297  34.110  1.00  0.00    -0.203 F 
ATOM     94  F   UNL A   1      44.721  26.131  37.556  1.00  0.00    -0.200 F 
ATOM     95  C   UNL A   1      46.173  27.619  36.437  1.00  0.00     0.200 A 
ATOM     96  F   UNL A   1      47.584  29.137  35.306  1.00  0.00    -0.200 F 
ATOM     97  F   UNL A   1      47.231  27.070  37.050  1.00  0.00    -0.200 F 
ENDBRANCH  64  87
ENDBRANCH  38  39
ENDBRANCH  30  33
ENDBRANCH  28  29
ENDBRANCH  27  28
ENDBRANCH  26  27
ENDBRANCH   1  26
TORSDOF 15
ENDMDL
MODEL 2
REMARK VINA RESULT:     -12.6      1.171      2.105
REMARK SMILES O=C(Cc1ccccc1Nc1c(Cl)cccc1C(F)(F)F)NCCCCNC(=O)c1ccc(-c2c3nc(c(-c4c(F)c(F)c(F)c(F)c4F)c4ccc([nH]4)c(-c4c(F)c(F)c(F)c(F)c4F)c4nc(c(-c5c(F)c(F)c(F)c(F)c5F)c5ccc2[nH]5)C=C4)C=C3)cc1
REMARK SMILES IDX 23 1 22 2 1 3 2 4 3 6 4 7 5 8 9 9 6 10 8 11 7 12 10 13 11 15
REMARK SMILES IDX 12 16 17 17 13 18 14 19 16 20 15 21 18 22 19 23 20 24 21 25
REMARK SMILES IDX 24 26 25 27 26 28 27 29 28 30 29 32 30 33 31 34 92 35 32 36
REMARK SMILES IDX 91 37 33 38 34 39 35 40 85 41 36 42 90 43 84 44 86 45 37 46
REMARK SMILES IDX 89 47 83 48 82 49 38 51 70 52 50 53 69 54 51 55 54 56 68 57
REMARK SMILES IDX 87 58 52 59 53 60 67 62 88 63 55 64 39 65 40 66 48 67 41 68
REMARK SMILES IDX 42 69 46 70 49 71 43 72 44 73 47 74 45 75 71 76 72 77 80 78
REMARK SMILES IDX 73 79 74 80 78 81 81 82 75 83 76 84 79 85 77 86 56 87 57 88
REMARK SMILES IDX 65 89 58 90 59 91 63 92 66 93 60 94 61 95 64 96 62 97
REMARK H PARENT 22 5 10 14 27 31 86 50 54 61
REMARK Flexibility Score: inf
ROOT
ATOM      1  C   UNL A   1      32.106  29.770  27.199  1.00  0.00     0.116 C 
ENDROOT
BRANCH   1   2
ATOM      2  N   UNL A   1      33.050  28.802  26.678  1.00  0.00    -0.356 N 
ATOM      3  O   UNL A   1      31.536  27.095  26.372  1.00  0.00    -0.275 OA
ATOM      4  C   UNL A   1      32.681  27.532  26.288  1.00  0.00     0.224 C 
ATOM      5  H   UNL A   1      33.996  29.061  26.598  1.00  0.00     0.163 HD
BRANCH   4   6
ATOM      6  C   UNL A   1      33.814  26.690  25.723  1.00  0.00     0.137 C 
BRANCH   6   7
ATOM      7  C   UNL A   1      33.497  26.157  24.341  1.00  0.00    -0.015 A 
ATOM      8  C   UNL A   1      33.482  27.063  23.263  1.00  0.00     0.006 A 
ATOM      9  C   UNL A   1      33.189  24.796  24.120  1.00  0.00     0.042 A 
ATOM     10  C   UNL A   1      33.145  26.640  21.981  1.00  0.00     0.000 A 
ATOM     11  C   UNL A   1      32.836  24.401  22.821  1.00  0.00     0.026 A 
ATOM     12  C   UNL A   1      32.811  25.311  21.762  1.00  0.00     0.002 A 
BRANCH   9  13
ATOM     13  N   UNL A   1      33.307  23.853  25.165  1.00  0.00    -0.354 N 
ATOM     14  H   UNL A   1      33.215  24.230  26.070  1.00  0.00     0.167 HD
BRANCH  13  15
ATOM     15  C   UNL A   1      33.535  22.458  25.125  1.00  0.00     0.070 A 
ATOM     16  C   UNL A   1      32.435  21.591  25.341  1.00  0.00     0.065 A 
ATOM     17  C   UNL A   1      34.784  21.882  24.809  1.00  0.00     0.080 A 
ATOM     18  Cl  UNL A   1      30.877  22.226  25.758  1.00  0.00    -0.082 Cl
ATOM     19  C   UNL A   1      32.552  20.205  25.209  1.00  0.00     0.023 A 
ATOM     20  C   UNL A   1      34.874  20.479  24.655  1.00  0.00     0.015 A 
ATOM     21  C   UNL A   1      33.772  19.649  24.850  1.00  0.00     0.002 A 
BRANCH  17  22
ATOM     22  C   UNL A   1      36.066  22.667  24.655  1.00  0.00     0.418 C 
ATOM     23  F   UNL A   1      37.155  21.840  24.562  1.00  0.00    -0.166 F 
ATOM     24  F   UNL A   1      36.092  23.402  23.507  1.00  0.00    -0.166 F 
ATOM     25  F   UNL A   1      36.371  23.518  25.671  1.00  0.00    -0.166 F 
ENDBRANCH  17  22
ENDBRANCH  13  15
ENDBRANCH   9  13
ENDBRANCH   6   7
ENDBRANCH   4   6
ENDBRANCH   1   2
BRANCH   1  26
ATOM     26  C   UNL A   1      31.610  30.727  26.117  1.00  0.00     0.023 C 
BRANCH  26  27
ATOM     27  C   UNL A   1      31.411  32.177  26.569  1.00  0.00     0.023 C 
BRANCH  27  28
ATOM     28  C   UNL A   1      32.612  32.823  27.252  1.00  0.00     0.116 C 
BRANCH  28  29
ATOM     29  N   UNL A   1      32.367  34.201  27.647  1.00  0.00    -0.352 N 
ATOM     30  C   UNL A   1      32.972  34.958  28.620  1.00  0.00     0.251 C 
ATOM     31  H   UNL A   1      31.660  34.662  27.139  1.00  0.00     0.163 HD
ATOM     32  O   UNL A   1      32.524  36.068  28.900  1.00  0.00    -0.269 OA
BRANCH  30  33
ATOM     33  C   UNL A   1      34.143  34.438  29.363  1.00  0.00     0.039 A 
ATOM     34  C   UNL A   1      33.931  33.802  30.590  1.00  0.00     0.014 A 
ATOM     35  C   UNL A   1      35.443  34.582  28.870  1.00  0.00     0.014 A 
ATOM     36  C   UNL A   1      35.011  33.247  31.283  1.00  0.00     0.010 A 
ATOM     37  C   UNL A   1      36.507  33.961  29.522  1.00  0.00     0.010 A 
ATOM     38  C   UNL A   1      36.304  33.285  30.735  1.00  0.00    -0.014 A 
BRANCH  38  39
ATOM     39  C   UNL A   1      37.446  32.611  31.407  1.00  0.00     0.031 A 
ATOM     40  C   UNL A   1      38.133  31.442  30.756  1.00  0.00     0.074 A 
ATOM     41  C   UNL A   1      37.826  33.010  32.637  1.00  0.00     0.049 A 
ATOM     42  N   UNL A   1      39.097  30.684  31.218  1.00  0.00    -0.248 NA
ATOM     43  C   UNL A   1      37.659  31.058  29.419  1.00  0.00     0.031 C 
ATOM     44  C   UNL A   1      37.215  34.101  33.398  1.00  0.00     0.029 A 
ATOM     45  N   UNL A   1      38.811  32.537  33.472  1.00  0.00    -0.354 N 
ATOM     46  C   UNL A   1      39.335  29.732  30.235  1.00  0.00     0.074 A 
ATOM     47  C   UNL A   1      38.377  29.971  29.177  1.00  0.00     0.031 C 
ATOM     48  C   UNL A   1      37.849  34.226  34.574  1.00  0.00     0.029 A 
ATOM     49  C   UNL A   1      38.881  33.200  34.673  1.00  0.00     0.049 A 
ATOM     50  H   UNL A   1      39.409  31.793  33.230  1.00  0.00     0.167 HD
ATOM     51  C   UNL A   1      40.282  28.763  30.205  1.00  0.00     0.037 A 
ATOM     52  C   UNL A   1      39.678  32.996  35.739  1.00  0.00     0.037 A 
ATOM     53  C   UNL A   1      41.243  28.535  31.253  1.00  0.00     0.049 A 
ATOM     54  C   UNL A   1      40.706  31.897  35.691  1.00  0.00     0.074 A 
ATOM     55  C   UNL A   1      42.273  27.611  31.293  1.00  0.00     0.029 A 
ATOM     56  N   UNL A   1      41.289  29.234  32.450  1.00  0.00    -0.354 N 
ATOM     57  N   UNL A   1      40.965  31.046  34.728  1.00  0.00    -0.248 NA
ATOM     58  C   UNL A   1      41.558  31.734  36.878  1.00  0.00     0.031 C 
ATOM     59  C   UNL A   1      42.905  27.712  32.535  1.00  0.00     0.029 A 
ATOM     60  C   UNL A   1      42.313  28.744  33.246  1.00  0.00     0.049 A 
ATOM     61  H   UNL A   1      40.685  29.971  32.698  1.00  0.00     0.167 HD
ATOM     62  C   UNL A   1      42.026  30.271  35.177  1.00  0.00     0.074 A 
ATOM     63  C   UNL A   1      42.372  30.763  36.494  1.00  0.00     0.031 C 
ATOM     64  C   UNL A   1      42.654  29.245  34.554  1.00  0.00     0.037 A 
BRANCH  51  65
ATOM     65  C   UNL A   1      40.324  27.871  28.996  1.00  0.00     0.064 A 
ATOM     66  C   UNL A   1      41.091  28.197  27.866  1.00  0.00     0.173 A 
ATOM     67  C   UNL A   1      39.622  26.656  28.981  1.00  0.00     0.173 A 
ATOM     68  F   UNL A   1      41.775  29.350  27.824  1.00  0.00    -0.203 F 
ATOM     69  C   UNL A   1      41.124  27.358  26.755  1.00  0.00     0.198 A 
ATOM     70  C   UNL A   1      39.686  25.803  27.882  1.00  0.00     0.198 A 
ATOM     71  F   UNL A   1      38.881  26.289  30.036  1.00  0.00    -0.203 F 
ATOM     72  F   UNL A   1      41.819  27.718  25.667  1.00  0.00    -0.200 F 
ATOM     73  C   UNL A   1      40.429  26.159  26.766  1.00  0.00     0.200 A 
ATOM     74  F   UNL A   1      39.026  24.637  27.901  1.00  0.00    -0.200 F 
ATOM     75  F   UNL A   1      40.469  25.349  25.699  1.00  0.00    -0.200 F 
ENDBRANCH  51  65
BRANCH  52  76
ATOM     76  C   UNL A   1      39.546  33.861  36.942  1.00  0.00     0.064 A 
ATOM     77  C   UNL A   1      38.758  33.466  38.033  1.00  0.00     0.173 A 
ATOM     78  C   UNL A   1      40.197  35.101  37.024  1.00  0.00     0.173 A 
ATOM     79  F   UNL A   1      38.099  32.299  37.994  1.00  0.00    -0.203 F 
ATOM     80  C   UNL A   1      38.606  34.289  39.147  1.00  0.00     0.198 A 
ATOM     81  C   UNL A   1      40.070  35.908  38.153  1.00  0.00     0.198 A 
ATOM     82  F   UNL A   1      40.967  35.523  36.011  1.00  0.00    -0.203 F 
ATOM     83  F   UNL A   1      37.805  33.911  40.152  1.00  0.00    -0.200 F 
ATOM     84  C   UNL A   1      39.268  35.505  39.209  1.00  0.00     0.200 A 
ATOM     85  F   UNL A   1      40.724  37.076  38.215  1.00  0.00    -0.200 F 
ATOM     86  F   UNL A   1      39.125  36.295  40.283  1.00  0.00    -0.200 F 
ENDBRANCH  52  76
BRANCH  64  87
ATOM     87  C   UNL A   1      43.811  28.605  35.270  1.00  0.00     0.064 A 
ATOM     88  C   UNL A   1      43.631  27.535  36.158  1.00  0.00     0.173 A 
ATOM     89  C   UNL A   1      45.122  29.046  35.032  1.00  0.00     0.173 A 
ATOM     90  F   UNL A   1      42.397  27.085  36.432  1.00  0.00    -0.203 F 
ATOM     91  C   UNL A   1      44.717  26.950  36.804  1.00  0.00     0.198 A 
ATOM     92  C   UNL A   1      46.209  28.436  35.653  1.00  0.00     0.198 A 
ATOM     93  F   UNL A   1      45.351  30.062  34.186  1.00  0.00    -0.203 F 
ATOM     94  F   UNL A   1      44.516  25.964  37.689  1.00  0.00    -0.200 F 
ATOM     95  C   UNL A   1      46.006  27.395  36.545  1.00  0.00     0.200 A 
ATOM     96  F   UNL A   1      47.454  28.858  35.388  1.00  0.00    -0.200 F 
ATOM     97  F   UNL A   1      47.050  26.825  37.161  1.00  0.00    -0.200 F 
ENDBRANCH  64  87
ENDBRANCH  38  39
ENDBRANCH  30  33
ENDBRANCH  28  29
ENDBRANCH  27  28
ENDBRANCH  26  27
ENDBRANCH   1  26
TORSDOF 15
ENDMDL
MODEL 3
REMARK VINA RESULT:     -12.6      0.688      1.401
REMARK SMILES O=C(Cc1ccccc1Nc1c(Cl)cccc1C(F)(F)F)NCCCCNC(=O)c1ccc(-c2c3nc(c(-c4c(F)c(F)c(F)c(F)c4F)c4ccc([nH]4)c(-c4c(F)c(F)c(F)c(F)c4F)c4nc(c(-c5c(F)c(F)c(F)c(F)c5F)c5ccc2[nH]5)C=C4)C=C3)cc1
REMARK SMILES IDX 23 1 22 2 1 3 2 4 3 6 4 7 5 8 9 9 6 10 8 11 7 12 10 13 11 15
REMARK SMILES IDX 12 16 17 17 13 18 14 19 16 20 15 21 18 22 19 23 20 24 21 25
REMARK SMILES IDX 24 26 25 27 26 28 27 29 28 30 29 32 30 33 31 34 92 35 32 36
REMARK SMILES IDX 91 37 33 38 34 39 35 40 85 41 36 42 90 43 84 44 86 45 37 46
REMARK SMILES IDX 89 47 83 48 82 49 38 51 70 52 50 53 69 54 51 55 54 56 68 57
REMARK SMILES IDX 87 58 52 59 53 60 67 62 88 63 55 64 39 65 40 66 48 67 41 68
REMARK SMILES IDX 42 69 46 70 49 71 43 72 44 73 47 74 45 75 71 76 72 77 80 78
REMARK SMILES IDX 73 79 74 80 78 81 81 82 75 83 76 84 79 85 77 86 56 87 57 88
REMARK SMILES IDX 65 89 58 90 59 91 63 92 66 93 60 94 61 95 64 96 62 97
REMARK H PARENT 22 5 10 14 27 31 86 50 54 61
REMARK Flexibility Score: inf
ROOT
ATOM      1  C   UNL A   1      31.922  29.756  27.231  1.00  0.00     0.116 C 
ENDROOT
BRANCH   1   2
ATOM      2  N   UNL A   1      32.867  28.740  26.814  1.00  0.00    -0.356 N 
ATOM      3  O   UNL A   1      31.375  26.989  26.774  1.00  0.00    -0.275 OA
ATOM      4  C   UNL A   1      32.509  27.426  26.602  1.00  0.00     0.224 C 
ATOM      5  H   UNL A   1      33.807  29.000  26.675  1.00  0.00     0.163 HD
BRANCH   4   6
ATOM      6  C   UNL A   1      33.641  26.532  26.119  1.00  0.00     0.137 C 
BRANCH   6   7
ATOM      7  C   UNL A   1      33.556  26.253  24.633  1.00  0.00    -0.015 A 
ATOM      8  C   UNL A   1      33.275  27.329  23.768  1.00  0.00     0.006 A 
ATOM      9  C   UNL A   1      33.719  24.952  24.109  1.00  0.00     0.042 A 
ATOM     10  C   UNL A   1      33.133  27.123  22.399  1.00  0.00     0.000 A 
ATOM     11  C   UNL A   1      33.552  24.771  22.727  1.00  0.00     0.026 A 
ATOM     12  C   UNL A   1      33.260  25.841  21.880  1.00  0.00     0.002 A 
BRANCH   9  13
ATOM     13  N   UNL A   1      34.110  23.883  24.945  1.00  0.00    -0.354 N 
ATOM     14  H   UNL A   1      34.743  24.129  25.657  1.00  0.00     0.167 HD
BRANCH  13  15
ATOM     15  C   UNL A   1      33.742  22.518  24.926  1.00  0.00     0.070 A 
ATOM     16  C   UNL A   1      34.724  21.563  24.564  1.00  0.00     0.065 A 
ATOM     17  C   UNL A   1      32.471  22.048  25.318  1.00  0.00     0.080 A 
ATOM     18  Cl  UNL A   1      36.300  22.067  24.047  1.00  0.00    -0.082 Cl
ATOM     19  C   UNL A   1      34.476  20.189  24.628  1.00  0.00     0.023 A 
ATOM     20  C   UNL A   1      32.249  20.653  25.400  1.00  0.00     0.015 A 
ATOM     21  C   UNL A   1      33.239  19.733  25.061  1.00  0.00     0.002 A 
BRANCH  17  22
ATOM     22  C   UNL A   1      31.293  22.943  25.629  1.00  0.00     0.418 C 
ATOM     23  F   UNL A   1      30.195  22.217  26.010  1.00  0.00    -0.166 F 
ATOM     24  F   UNL A   1      31.537  23.777  26.681  1.00  0.00    -0.166 F 
ATOM     25  F   UNL A   1      30.849  23.722  24.607  1.00  0.00    -0.166 F 
ENDBRANCH  17  22
ENDBRANCH  13  15
ENDBRANCH   9  13
ENDBRANCH   6   7
ENDBRANCH   4   6
ENDBRANCH   1   2
BRANCH   1  26
ATOM     26  C   UNL A   1      31.582  30.723  26.098  1.00  0.00     0.023 C 
BRANCH  26  27
ATOM     27  C   UNL A   1      31.403  32.185  26.520  1.00  0.00     0.023 C 
BRANCH  27  28
ATOM     28  C   UNL A   1      32.582  32.803  27.265  1.00  0.00     0.116 C 
BRANCH  28  29
ATOM     29  N   UNL A   1      32.360  34.195  27.623  1.00  0.00    -0.352 N 
ATOM     30  C   UNL A   1      32.987  34.970  28.568  1.00  0.00     0.251 C 
ATOM     31  H   UNL A   1      31.654  34.650  27.111  1.00  0.00     0.163 HD
ATOM     32  O   UNL A   1      32.557  36.094  28.821  1.00  0.00    -0.269 OA
BRANCH  30  33
ATOM     33  C   UNL A   1      34.159  34.455  29.311  1.00  0.00     0.039 A 
ATOM     34  C   UNL A   1      33.957  33.882  30.571  1.00  0.00     0.014 A 
ATOM     35  C   UNL A   1      35.452  34.542  28.788  1.00  0.00     0.014 A 
ATOM     36  C   UNL A   1      35.036  33.332  31.268  1.00  0.00     0.010 A 
ATOM     37  C   UNL A   1      36.514  33.926  29.448  1.00  0.00     0.010 A 
ATOM     38  C   UNL A   1      36.319  33.311  30.694  1.00  0.00    -0.014 A 
BRANCH  38  39
ATOM     39  C   UNL A   1      37.457  32.640  31.376  1.00  0.00     0.031 A 
ATOM     40  C   UNL A   1      38.157  31.478  30.726  1.00  0.00     0.074 A 
ATOM     41  C   UNL A   1      37.822  33.035  32.611  1.00  0.00     0.049 A 
ATOM     42  N   UNL A   1      39.120  30.723  31.194  1.00  0.00    -0.248 NA
ATOM     43  C   UNL A   1      37.699  31.098  29.381  1.00  0.00     0.031 C 
ATOM     44  C   UNL A   1      37.197  34.118  33.371  1.00  0.00     0.029 A 
ATOM     45  N   UNL A   1      38.800  32.563  33.454  1.00  0.00    -0.354 N 
ATOM     46  C   UNL A   1      39.374  29.777  30.209  1.00  0.00     0.074 A 
ATOM     47  C   UNL A   1      38.426  30.017  29.142  1.00  0.00     0.031 C 
ATOM     48  C   UNL A   1      37.817  34.241  34.555  1.00  0.00     0.029 A 
ATOM     49  C   UNL A   1      38.854  33.220  34.659  1.00  0.00     0.049 A 
ATOM     50  H   UNL A   1      39.405  31.823  33.215  1.00  0.00     0.167 HD
ATOM     51  C   UNL A   1      40.326  28.813  30.184  1.00  0.00     0.037 A 
ATOM     52  C   UNL A   1      39.640  33.015  35.733  1.00  0.00     0.037 A 
ATOM     53  C   UNL A   1      41.278  28.585  31.241  1.00  0.00     0.049 A 
ATOM     54  C   UNL A   1      40.675  31.922  35.690  1.00  0.00     0.074 A 
ATOM     55  C   UNL A   1      42.311  27.666  31.288  1.00  0.00     0.029 A 
ATOM     56  N   UNL A   1      41.307  29.278  32.442  1.00  0.00    -0.354 N 
ATOM     57  N   UNL A   1      40.948  31.077  34.725  1.00  0.00    -0.248 NA
ATOM     58  C   UNL A   1      41.515  31.758  36.885  1.00  0.00     0.031 C 
ATOM     59  C   UNL A   1      42.930  27.765  32.537  1.00  0.00     0.029 A 
ATOM     60  C   UNL A   1      42.325  28.789  33.246  1.00  0.00     0.049 A 
ATOM     61  H   UNL A   1      40.696  30.011  32.687  1.00  0.00     0.167 HD
ATOM     62  C   UNL A   1      42.009  30.305  35.182  1.00  0.00     0.074 A 
ATOM     63  C   UNL A   1      42.339  30.792  36.505  1.00  0.00     0.031 C 
ATOM     64  C   UNL A   1      42.649  29.286  34.560  1.00  0.00     0.037 A 
BRANCH  51  65
ATOM     65  C   UNL A   1      40.386  27.927  28.971  1.00  0.00     0.064 A 
ATOM     66  C   UNL A   1      39.665  26.725  28.901  1.00  0.00     0.173 A 
ATOM     67  C   UNL A   1      41.143  28.302  27.851  1.00  0.00     0.173 A 
ATOM     68  F   UNL A   1      38.931  26.315  29.946  1.00  0.00    -0.203 F 
ATOM     69  C   UNL A   1      39.726  25.916  27.769  1.00  0.00     0.198 A 
ATOM     70  C   UNL A   1      41.175  27.508  26.708  1.00  0.00     0.198 A 
ATOM     71  F   UNL A   1      41.846  29.445  27.860  1.00  0.00    -0.203 F 
ATOM     72  F   UNL A   1      39.073  24.747  27.747  1.00  0.00    -0.200 F 
ATOM     73  C   UNL A   1      40.475  26.311  26.670  1.00  0.00     0.200 A 
ATOM     74  F   UNL A   1      41.886  27.900  25.641  1.00  0.00    -0.200 F 
ATOM     75  F   UNL A   1      40.526  25.536  25.579  1.00  0.00    -0.200 F 
ENDBRANCH  51  65
BRANCH  52  76
ATOM     76  C   UNL A   1      39.491  33.873  36.939  1.00  0.00     0.064 A 
ATOM     77  C   UNL A   1      40.132  35.117  37.025  1.00  0.00     0.173 A 
ATOM     78  C   UNL A   1      38.713  33.464  38.033  1.00  0.00     0.173 A 
ATOM     79  F   UNL A   1      40.903  35.543  36.014  1.00  0.00    -0.203 F 
ATOM     80  C   UNL A   1      40.020  35.908  38.167  1.00  0.00     0.198 A 
ATOM     81  C   UNL A   1      38.577  34.271  39.161  1.00  0.00     0.198 A 
ATOM     82  F   UNL A   1      38.075  32.285  38.000  1.00  0.00    -0.203 F 
ATOM     83  F   UNL A   1      40.685  37.068  38.242  1.00  0.00    -0.200 F 
ATOM     84  C   UNL A   1      39.237  35.487  39.230  1.00  0.00     0.200 A 
ATOM     85  F   UNL A   1      37.806  33.867  40.181  1.00  0.00    -0.200 F 
ATOM     86  F   UNL A   1      39.127  36.250  40.326  1.00  0.00    -0.200 F 
ENDBRANCH  52  76
BRANCH  64  87
ATOM     87  C   UNL A   1      43.802  28.649  35.285  1.00  0.00     0.064 A 
ATOM     88  C   UNL A   1      45.121  29.093  35.111  1.00  0.00     0.173 A 
ATOM     89  C   UNL A   1      43.577  27.605  36.196  1.00  0.00     0.173 A 
ATOM     90  F   UNL A   1      45.394  30.077  34.241  1.00  0.00    -0.203 F 
ATOM     91  C   UNL A   1      46.175  28.496  35.800  1.00  0.00     0.198 A 
ATOM     92  C   UNL A   1      44.628  27.034  36.909  1.00  0.00     0.198 A 
ATOM     93  F   UNL A   1      42.333  27.147  36.406  1.00  0.00    -0.203 F 
ATOM     94  F   UNL A   1      47.432  28.901  35.578  1.00  0.00    -0.200 F 
ATOM     95  C   UNL A   1      45.926  27.472  36.703  1.00  0.00     0.200 A 
ATOM     96  F   UNL A   1      44.383  26.056  37.793  1.00  0.00    -0.200 F 
ATOM     97  F   UNL A   1      46.940  26.905  37.372  1.00  0.00    -0.200 F 
ENDBRANCH  64  87
ENDBRANCH  38  39
ENDBRANCH  30  33
ENDBRANCH  28  29
ENDBRANCH  27  28
ENDBRANCH  26  27
ENDBRANCH   1  26
TORSDOF 15
ENDMDL
