MODEL 1
REMARK VINA RESULT:     -10.6      0.000      0.000
REMARK SMILES COC[C@@H](C)[C@@](O)(C(=O)NCCCCNC(=O)c1ccc(-c2c3nc(c(-c4c(F)c(F)c(F)c(F)c4F)c4ccc([nH]4)c(-c4c(F)c(F)c(F)c(F)c4F)c4nc(c(-c5c(F)c(F)c(F)c(F)c5F)c5ccc2[nH]5)C=C4)C=C3)cc1)C(C)C
REMARK SMILES IDX 12 1 11 2 10 3 8 4 9 5 6 7 4 8 5 9 3 10 2 11 1 12 7 13 81 15
REMARK SMILES IDX 82 16 83 17 13 18 14 19 15 20 16 21 17 23 18 24 19 25 80 26
REMARK SMILES IDX 20 27 79 28 21 29 22 30 23 31 73 32 24 33 78 34 72 35 74 36
REMARK SMILES IDX 25 37 77 38 71 39 70 40 26 42 58 43 38 44 57 45 39 46 42 47
REMARK SMILES IDX 56 48 75 49 40 50 41 51 55 53 76 54 43 55 27 56 28 57 36 58
REMARK SMILES IDX 29 59 30 60 34 61 37 62 31 63 32 64 35 65 33 66 59 67 60 68
REMARK SMILES IDX 68 69 61 70 62 71 66 72 69 73 63 74 64 75 67 76 65 77 44 78
REMARK SMILES IDX 45 79 53 80 46 81 47 82 51 83 54 84 48 85 49 86 52 87 50 88
REMARK H PARENT 10 6 7 14 15 22 74 41 42 52
REMARK Flexibility Score: inf
ROOT
ATOM      1  C   UNL A   1      32.130  30.082  27.191  1.00  0.00     0.023 C 
ENDROOT
BRANCH   1   2
ATOM      2  C   UNL A   1      31.765  29.107  26.070  1.00  0.00     0.116 C 
BRANCH   2   3
ATOM      3  N   UNL A   1      32.552  29.336  24.873  1.00  0.00    -0.354 N 
ATOM      4  C   UNL A   1      32.409  28.868  23.598  1.00  0.00     0.252 C 
ATOM      5  O   UNL A   1      33.230  29.301  22.780  1.00  0.00    -0.272 OA
ATOM      6  H   UNL A   1      33.325  29.931  25.004  1.00  0.00     0.163 HD
BRANCH   4   7
ATOM      7  C   UNL A   1      31.299  27.819  23.197  1.00  0.00     0.150 C 
BRANCH   7   8
ATOM      8  C   UNL A   1      29.885  28.334  23.629  1.00  0.00     0.053 C 
ATOM      9  C   UNL A   1      28.767  27.289  23.500  1.00  0.00     0.014 C 
BRANCH   8  10
ATOM     10  C   UNL A   1      29.464  29.677  23.005  1.00  0.00     0.166 C 
BRANCH  10  11
ATOM     11  O   UNL A   1      29.020  29.519  21.653  1.00  0.00    -0.384 OA
ATOM     12  C   UNL A   1      28.028  30.453  21.251  1.00  0.00     0.194 C 
ENDBRANCH  10  11
ENDBRANCH   8  10
ENDBRANCH   7   8
BRANCH   7  13
ATOM     13  O   UNL A   1      31.375  27.805  21.751  1.00  0.00    -0.379 OA
ATOM     14  H   UNL A   1      30.695  27.210  21.396  1.00  0.00     0.212 HD
ENDBRANCH   7  13
BRANCH   7  15
ATOM     15  C   UNL A   1      31.748  26.393  23.696  1.00  0.00     0.025 C 
ATOM     16  C   UNL A   1      31.403  25.230  22.757  1.00  0.00     0.011 C 
ATOM     17  C   UNL A   1      33.223  26.252  24.107  1.00  0.00     0.011 C 
ENDBRANCH   7  15
ENDBRANCH   4   7
ENDBRANCH   2   3
ENDBRANCH   1   2
BRANCH   1  18
ATOM     18  C   UNL A   1      31.882  31.556  26.876  1.00  0.00     0.023 C 
BRANCH  18  19
ATOM     19  C   UNL A   1      33.027  32.491  27.233  1.00  0.00     0.116 C 
BRANCH  19  20
ATOM     20  N   UNL A   1      32.586  33.836  27.571  1.00  0.00    -0.352 N 
ATOM     21  C   UNL A   1      33.069  34.674  28.552  1.00  0.00     0.251 C 
ATOM     22  H   UNL A   1      31.847  34.194  27.029  1.00  0.00     0.163 HD
ATOM     23  O   UNL A   1      32.528  35.741  28.790  1.00  0.00    -0.269 OA
BRANCH  21  24
ATOM     24  C   UNL A   1      34.237  34.238  29.346  1.00  0.00     0.039 A 
ATOM     25  C   UNL A   1      34.027  33.477  30.498  1.00  0.00     0.014 A 
ATOM     26  C   UNL A   1      35.532  34.542  28.920  1.00  0.00     0.014 A 
ATOM     27  C   UNL A   1      35.123  32.959  31.190  1.00  0.00     0.010 A 
ATOM     28  C   UNL A   1      36.618  33.966  29.567  1.00  0.00     0.010 A 
ATOM     29  C   UNL A   1      36.423  33.170  30.707  1.00  0.00    -0.014 A 
BRANCH  29  30
ATOM     30  C   UNL A   1      37.613  32.593  31.380  1.00  0.00     0.031 A 
ATOM     31  C   UNL A   1      38.340  31.448  30.736  1.00  0.00     0.074 A 
ATOM     32  C   UNL A   1      37.967  33.021  32.606  1.00  0.00     0.049 A 
ATOM     33  N   UNL A   1      39.285  30.685  31.222  1.00  0.00    -0.248 NA
ATOM     34  C   UNL A   1      37.919  31.092  29.372  1.00  0.00     0.031 C 
ATOM     35  C   UNL A   1      37.314  34.098  33.350  1.00  0.00     0.029 A 
ATOM     36  N   UNL A   1      38.950  32.577  33.454  1.00  0.00    -0.354 N 
ATOM     37  C   UNL A   1      39.543  29.738  30.241  1.00  0.00     0.074 A 
ATOM     38  C   UNL A   1      38.631  29.997  29.148  1.00  0.00     0.031 C 
ATOM     39  C   UNL A   1      37.918  34.236  34.541  1.00  0.00     0.029 A 
ATOM     40  C   UNL A   1      38.972  33.232  34.661  1.00  0.00     0.049 A 
ATOM     41  H   UNL A   1      39.581  31.858  33.221  1.00  0.00     0.167 HD
ATOM     42  C   UNL A   1      40.470  28.752  30.245  1.00  0.00     0.037 A 
ATOM     43  C   UNL A   1      39.742  33.032  35.747  1.00  0.00     0.037 A 
ATOM     44  C   UNL A   1      41.401  28.525  31.318  1.00  0.00     0.049 A 
ATOM     45  C   UNL A   1      40.780  31.943  35.721  1.00  0.00     0.074 A 
ATOM     46  C   UNL A   1      42.422  27.594  31.394  1.00  0.00     0.029 A 
ATOM     47  N   UNL A   1      41.427  29.245  32.504  1.00  0.00    -0.354 N 
ATOM     48  N   UNL A   1      41.052  31.083  34.769  1.00  0.00    -0.248 NA
ATOM     49  C   UNL A   1      41.622  31.799  36.917  1.00  0.00     0.031 C 
ATOM     50  C   UNL A   1      43.043  27.728  32.640  1.00  0.00     0.029 A 
ATOM     51  C   UNL A   1      42.438  28.771  33.322  1.00  0.00     0.049 A 
ATOM     52  H   UNL A   1      40.815  29.983  32.730  1.00  0.00     0.167 HD
ATOM     53  C   UNL A   1      42.112  30.319  35.236  1.00  0.00     0.074 A 
ATOM     54  C   UNL A   1      42.438  30.819  36.556  1.00  0.00     0.031 C 
ATOM     55  C   UNL A   1      42.758  29.296  34.625  1.00  0.00     0.037 A 
BRANCH  42  56
ATOM     56  C   UNL A   1      40.514  27.843  29.052  1.00  0.00     0.064 A 
ATOM     57  C   UNL A   1      41.350  28.105  27.956  1.00  0.00     0.173 A 
ATOM     58  C   UNL A   1      39.717  26.690  29.008  1.00  0.00     0.173 A 
ATOM     59  F   UNL A   1      42.121  29.203  27.943  1.00  0.00    -0.203 F 
ATOM     60  C   UNL A   1      41.357  27.268  26.844  1.00  0.00     0.198 A 
ATOM     61  C   UNL A   1      39.750  25.838  27.907  1.00  0.00     0.198 A 
ATOM     62  F   UNL A   1      38.903  26.390  30.032  1.00  0.00    -0.203 F 
ATOM     63  F   UNL A   1      42.119  27.571  25.785  1.00  0.00    -0.200 F 
ATOM     64  C   UNL A   1      40.561  26.132  26.823  1.00  0.00     0.200 A 
ATOM     65  F   UNL A   1      38.988  24.735  27.893  1.00  0.00    -0.200 F 
ATOM     66  F   UNL A   1      40.570  25.328  25.752  1.00  0.00    -0.200 F 
ENDBRANCH  42  56
BRANCH  43  67
ATOM     67  C   UNL A   1      39.576  33.901  36.939  1.00  0.00     0.064 A 
ATOM     68  C   UNL A   1      38.791  33.486  38.024  1.00  0.00     0.173 A 
ATOM     69  C   UNL A   1      40.208  35.149  37.028  1.00  0.00     0.173 A 
ATOM     70  F   UNL A   1      38.152  32.308  37.975  1.00  0.00    -0.203 F 
ATOM     71  C   UNL A   1      38.635  34.293  39.149  1.00  0.00     0.198 A 
ATOM     72  C   UNL A   1      40.069  35.945  38.164  1.00  0.00     0.198 A 
ATOM     73  F   UNL A   1      40.974  35.589  36.018  1.00  0.00    -0.203 F 
ATOM     74  F   UNL A   1      37.852  33.888  40.158  1.00  0.00    -0.200 F 
ATOM     75  C   UNL A   1      39.278  35.519  39.220  1.00  0.00     0.200 A 
ATOM     76  F   UNL A   1      40.704  37.123  38.235  1.00  0.00    -0.200 F 
ATOM     77  F   UNL A   1      39.134  36.291  40.306  1.00  0.00    -0.200 F 
ENDBRANCH  43  67
BRANCH  55  78
ATOM     78  C   UNL A   1      43.917  28.679  35.351  1.00  0.00     0.064 A 
ATOM     79  C   UNL A   1      43.747  27.596  36.225  1.00  0.00     0.173 A 
ATOM     80  C   UNL A   1      45.221  29.143  35.119  1.00  0.00     0.173 A 
ATOM     81  F   UNL A   1      42.518  27.130  36.489  1.00  0.00    -0.203 F 
ATOM     82  C   UNL A   1      44.842  27.007  36.851  1.00  0.00     0.198 A 
ATOM     83  C   UNL A   1      46.315  28.535  35.728  1.00  0.00     0.198 A 
ATOM     84  F   UNL A   1      45.435  30.174  34.287  1.00  0.00    -0.203 F 
ATOM     85  F   UNL A   1      44.655  25.995  37.709  1.00  0.00    -0.200 F 
ATOM     86  C   UNL A   1      46.124  27.471  36.595  1.00  0.00     0.200 A 
ATOM     87  F   UNL A   1      47.554  28.976  35.471  1.00  0.00    -0.200 F 
ATOM     88  F   UNL A   1      47.177  26.894  37.191  1.00  0.00    -0.200 F 
ENDBRANCH  55  78
ENDBRANCH  29  30
ENDBRANCH  21  24
ENDBRANCH  19  20
ENDBRANCH  18  19
ENDBRANCH   1  18
TORSDOF 16
ENDMDL
MODEL 2
REMARK VINA RESULT:     -10.6      0.671      1.504
REMARK SMILES COC[C@@H](C)[C@@](O)(C(=O)NCCCCNC(=O)c1ccc(-c2c3nc(c(-c4c(F)c(F)c(F)c(F)c4F)c4ccc([nH]4)c(-c4c(F)c(F)c(F)c(F)c4F)c4nc(c(-c5c(F)c(F)c(F)c(F)c5F)c5ccc2[nH]5)C=C4)C=C3)cc1)C(C)C
REMARK SMILES IDX 12 1 11 2 10 3 8 4 9 5 6 7 4 8 5 9 3 10 2 11 1 12 7 13 81 15
REMARK SMILES IDX 82 16 83 17 13 18 14 19 15 20 16 21 17 23 18 24 19 25 80 26
REMARK SMILES IDX 20 27 79 28 21 29 22 30 23 31 73 32 24 33 78 34 72 35 74 36
REMARK SMILES IDX 25 37 77 38 71 39 70 40 26 42 58 43 38 44 57 45 39 46 42 47
REMARK SMILES IDX 56 48 75 49 40 50 41 51 55 53 76 54 43 55 27 56 28 57 36 58
REMARK SMILES IDX 29 59 30 60 34 61 37 62 31 63 32 64 35 65 33 66 59 67 60 68
REMARK SMILES IDX 68 69 61 70 62 71 66 72 69 73 63 74 64 75 67 76 65 77 44 78
REMARK SMILES IDX 45 79 53 80 46 81 47 82 51 83 54 84 48 85 49 86 52 87 50 88
REMARK H PARENT 10 6 7 14 15 22 74 41 42 52
REMARK Flexibility Score: inf
ROOT
ATOM      1  C   UNL A   1      32.052  30.359  26.640  1.00  0.00     0.023 C 
ENDROOT
BRANCH   1   2
ATOM      2  C   UNL A   1      31.600  29.754  25.309  1.00  0.00     0.116 C 
BRANCH   2   3
ATOM      3  N   UNL A   1      32.701  29.608  24.377  1.00  0.00    -0.354 N 
ATOM      4  C   UNL A   1      33.217  28.504  23.758  1.00  0.00     0.252 C 
ATOM      5  O   UNL A   1      34.139  28.725  22.964  1.00  0.00    -0.272 OA
ATOM      6  H   UNL A   1      33.158  30.450  24.152  1.00  0.00     0.163 HD
BRANCH   4   7
ATOM      7  C   UNL A   1      32.701  27.042  24.059  1.00  0.00     0.150 C 
BRANCH   7   8
ATOM      8  C   UNL A   1      31.235  26.866  23.537  1.00  0.00     0.053 C 
ATOM      9  C   UNL A   1      30.674  25.446  23.702  1.00  0.00     0.014 C 
BRANCH   8  10
ATOM     10  C   UNL A   1      30.982  27.401  22.116  1.00  0.00     0.166 C 
BRANCH  10  11
ATOM     11  O   UNL A   1      30.131  28.552  22.125  1.00  0.00    -0.384 OA
ATOM     12  C   UNL A   1      29.037  28.464  23.026  1.00  0.00     0.194 C 
ENDBRANCH  10  11
ENDBRANCH   8  10
ENDBRANCH   7   8
BRANCH   7  13
ATOM     13  O   UNL A   1      33.587  26.217  23.265  1.00  0.00    -0.379 OA
ATOM     14  H   UNL A   1      33.062  25.603  22.726  1.00  0.00     0.212 HD
ENDBRANCH   7  13
BRANCH   7  15
ATOM     15  C   UNL A   1      32.990  26.706  25.572  1.00  0.00     0.025 C 
ATOM     16  C   UNL A   1      31.752  26.611  26.471  1.00  0.00     0.011 C 
ATOM     17  C   UNL A   1      33.867  25.472  25.836  1.00  0.00     0.011 C 
ENDBRANCH   7  15
ENDBRANCH   4   7
ENDBRANCH   2   3
ENDBRANCH   1   2
BRANCH   1  18
ATOM     18  C   UNL A   1      31.714  31.837  26.828  1.00  0.00     0.023 C 
BRANCH  18  19
ATOM     19  C   UNL A   1      32.864  32.703  27.317  1.00  0.00     0.116 C 
BRANCH  19  20
ATOM     20  N   UNL A   1      32.464  34.066  27.634  1.00  0.00    -0.352 N 
ATOM     21  C   UNL A   1      32.996  34.917  28.576  1.00  0.00     0.251 C 
ATOM     22  H   UNL A   1      31.716  34.426  27.105  1.00  0.00     0.163 HD
ATOM     23  O   UNL A   1      32.486  36.002  28.802  1.00  0.00    -0.269 OA
BRANCH  21  24
ATOM     24  C   UNL A   1      34.180  34.476  29.343  1.00  0.00     0.039 A 
ATOM     25  C   UNL A   1      33.992  33.853  30.579  1.00  0.00     0.014 A 
ATOM     26  C   UNL A   1      35.463  34.636  28.815  1.00  0.00     0.014 A 
ATOM     27  C   UNL A   1      35.091  33.325  31.258  1.00  0.00     0.010 A 
ATOM     28  C   UNL A   1      36.546  34.047  29.456  1.00  0.00     0.010 A 
ATOM     29  C   UNL A   1      36.369  33.387  30.683  1.00  0.00    -0.014 A 
BRANCH  29  30
ATOM     30  C   UNL A   1      37.557  32.792  31.344  1.00  0.00     0.031 A 
ATOM     31  C   UNL A   1      38.271  31.649  30.684  1.00  0.00     0.074 A 
ATOM     32  C   UNL A   1      37.918  33.201  32.574  1.00  0.00     0.049 A 
ATOM     33  N   UNL A   1      39.212  30.872  31.157  1.00  0.00    -0.248 NA
ATOM     34  C   UNL A   1      37.843  31.313  29.317  1.00  0.00     0.031 C 
ATOM     35  C   UNL A   1      37.277  34.274  33.334  1.00  0.00     0.029 A 
ATOM     36  N   UNL A   1      38.901  32.739  33.413  1.00  0.00    -0.354 N 
ATOM     37  C   UNL A   1      39.459  29.935  30.163  1.00  0.00     0.074 A 
ATOM     38  C   UNL A   1      38.544  30.216  29.077  1.00  0.00     0.031 C 
ATOM     39  C   UNL A   1      37.886  34.392  34.525  1.00  0.00     0.029 A 
ATOM     40  C   UNL A   1      38.932  33.379  34.628  1.00  0.00     0.049 A 
ATOM     41  H   UNL A   1      39.525  32.017  33.168  1.00  0.00     0.167 HD
ATOM     42  C   UNL A   1      40.378  28.941  30.151  1.00  0.00     0.037 A 
ATOM     43  C   UNL A   1      39.705  33.158  35.709  1.00  0.00     0.037 A 
ATOM     44  C   UNL A   1      41.310  28.693  31.218  1.00  0.00     0.049 A 
ATOM     45  C   UNL A   1      40.733  32.061  35.665  1.00  0.00     0.074 A 
ATOM     46  C   UNL A   1      42.323  27.754  31.278  1.00  0.00     0.029 A 
ATOM     47  N   UNL A   1      41.346  29.399  32.412  1.00  0.00    -0.354 N 
ATOM     48  N   UNL A   1      40.994  31.211  34.702  1.00  0.00    -0.248 NA
ATOM     49  C   UNL A   1      41.578  31.895  36.856  1.00  0.00     0.031 C 
ATOM     50  C   UNL A   1      42.950  27.866  32.523  1.00  0.00     0.029 A 
ATOM     51  C   UNL A   1      42.356  28.906  33.221  1.00  0.00     0.049 A 
ATOM     52  H   UNL A   1      40.741  30.139  32.650  1.00  0.00     0.167 HD
ATOM     53  C   UNL A   1      42.050  30.432  35.156  1.00  0.00     0.074 A 
ATOM     54  C   UNL A   1      42.385  30.913  36.481  1.00  0.00     0.031 C 
ATOM     55  C   UNL A   1      42.685  29.411  34.529  1.00  0.00     0.037 A 
BRANCH  42  56
ATOM     56  C   UNL A   1      40.409  28.047  28.947  1.00  0.00     0.064 A 
ATOM     57  C   UNL A   1      41.176  28.363  27.815  1.00  0.00     0.173 A 
ATOM     58  C   UNL A   1      39.671  26.855  28.928  1.00  0.00     0.173 A 
ATOM     59  F   UNL A   1      41.888  29.499  27.777  1.00  0.00    -0.203 F 
ATOM     60  C   UNL A   1      41.172  27.537  26.694  1.00  0.00     0.198 A 
ATOM     61  C   UNL A   1      39.694  26.016  27.816  1.00  0.00     0.198 A 
ATOM     62  F   UNL A   1      38.925  26.503  29.986  1.00  0.00    -0.203 F 
ATOM     63  F   UNL A   1      41.864  27.890  25.602  1.00  0.00    -0.200 F 
ATOM     64  C   UNL A   1      40.435  26.362  26.697  1.00  0.00     0.200 A 
ATOM     65  F   UNL A   1      38.991  24.875  27.826  1.00  0.00    -0.200 F 
ATOM     66  F   UNL A   1      40.432  25.569  25.618  1.00  0.00    -0.200 F 
ENDBRANCH  42  56
BRANCH  43  67
ATOM     67  C   UNL A   1      39.550  34.014  36.912  1.00  0.00     0.064 A 
ATOM     68  C   UNL A   1      38.766  33.591  37.995  1.00  0.00     0.173 A 
ATOM     69  C   UNL A   1      40.192  35.255  37.015  1.00  0.00     0.173 A 
ATOM     70  F   UNL A   1      38.117  32.419  37.933  1.00  0.00    -0.203 F 
ATOM     71  C   UNL A   1      38.620  34.386  39.130  1.00  0.00     0.198 A 
ATOM     72  C   UNL A   1      40.064  36.038  38.160  1.00  0.00     0.198 A 
ATOM     73  F   UNL A   1      40.958  35.701  36.008  1.00  0.00    -0.203 F 
ATOM     74  F   UNL A   1      37.837  33.974  40.137  1.00  0.00    -0.200 F 
ATOM     75  C   UNL A   1      39.274  35.605  39.215  1.00  0.00     0.200 A 
ATOM     76  F   UNL A   1      40.709  37.210  38.245  1.00  0.00    -0.200 F 
ATOM     77  F   UNL A   1      39.140  36.365  40.311  1.00  0.00    -0.200 F 
ENDBRANCH  43  67
BRANCH  55  78
ATOM     78  C   UNL A   1      43.841  28.776  35.243  1.00  0.00     0.064 A 
ATOM     79  C   UNL A   1      45.158  29.216  35.050  1.00  0.00     0.173 A 
ATOM     80  C   UNL A   1      43.617  27.753  36.178  1.00  0.00     0.173 A 
ATOM     81  F   UNL A   1      45.423  30.180  34.156  1.00  0.00    -0.203 F 
ATOM     82  C   UNL A   1      46.212  28.646  35.759  1.00  0.00     0.198 A 
ATOM     83  C   UNL A   1      44.670  27.204  36.902  1.00  0.00     0.198 A 
ATOM     84  F   UNL A   1      42.373  27.302  36.401  1.00  0.00    -0.203 F 
ATOM     85  F   UNL A   1      47.467  29.058  35.535  1.00  0.00    -0.200 F 
ATOM     86  C   UNL A   1      45.966  27.647  36.690  1.00  0.00     0.200 A 
ATOM     87  F   UNL A   1      44.430  26.247  37.810  1.00  0.00    -0.200 F 
ATOM     88  F   UNL A   1      46.981  27.108  37.379  1.00  0.00    -0.200 F 
ENDBRANCH  55  78
ENDBRANCH  29  30
ENDBRANCH  21  24
ENDBRANCH  19  20
ENDBRANCH  18  19
ENDBRANCH   1  18
TORSDOF 16
ENDMDL
MODEL 3
REMARK VINA RESULT:     -10.6      6.287     11.539
REMARK SMILES COC[C@@H](C)[C@@](O)(C(=O)NCCCCNC(=O)c1ccc(-c2c3nc(c(-c4c(F)c(F)c(F)c(F)c4F)c4ccc([nH]4)c(-c4c(F)c(F)c(F)c(F)c4F)c4nc(c(-c5c(F)c(F)c(F)c(F)c5F)c5ccc2[nH]5)C=C4)C=C3)cc1)C(C)C
REMARK SMILES IDX 12 1 11 2 10 3 8 4 9 5 6 7 4 8 5 9 3 10 2 11 1 12 7 13 81 15
REMARK SMILES IDX 82 16 83 17 13 18 14 19 15 20 16 21 17 23 18 24 19 25 80 26
REMARK SMILES IDX 20 27 79 28 21 29 22 30 23 31 73 32 24 33 78 34 72 35 74 36
REMARK SMILES IDX 25 37 77 38 71 39 70 40 26 42 58 43 38 44 57 45 39 46 42 47
REMARK SMILES IDX 56 48 75 49 40 50 41 51 55 53 76 54 43 55 27 56 28 57 36 58
REMARK SMILES IDX 29 59 30 60 34 61 37 62 31 63 32 64 35 65 33 66 59 67 60 68
REMARK SMILES IDX 68 69 61 70 62 71 66 72 69 73 63 74 64 75 67 76 65 77 44 78
REMARK SMILES IDX 45 79 53 80 46 81 47 82 51 83 54 84 48 85 49 86 52 87 50 88
REMARK H PARENT 10 6 7 14 15 22 74 41 42 52
REMARK Flexibility Score: inf
ROOT
ATOM      1  C   UNL A   1      37.206  21.077  24.824  1.00  0.00     0.023 C 
ENDROOT
BRANCH   1   2
ATOM      2  C   UNL A   1      35.709  20.762  24.846  1.00  0.00     0.116 C 
BRANCH   2   3
ATOM      3  N   UNL A   1      35.128  20.974  26.158  1.00  0.00    -0.354 N 
ATOM      4  C   UNL A   1      33.879  21.379  26.535  1.00  0.00     0.252 C 
ATOM      5  O   UNL A   1      33.679  21.409  27.755  1.00  0.00    -0.272 OA
ATOM      6  H   UNL A   1      35.741  20.795  26.906  1.00  0.00     0.163 HD
BRANCH   4   7
ATOM      7  C   UNL A   1      32.777  21.818  25.492  1.00  0.00     0.150 C 
BRANCH   7   8
ATOM      8  C   UNL A   1      32.948  21.021  24.155  1.00  0.00     0.053 C 
ATOM      9  C   UNL A   1      32.542  21.804  22.898  1.00  0.00     0.014 C 
BRANCH   8  10
ATOM     10  C   UNL A   1      32.331  19.611  24.154  1.00  0.00     0.166 C 
BRANCH  10  11
ATOM     11  O   UNL A   1      32.479  18.964  25.423  1.00  0.00    -0.384 OA
ATOM     12  C   UNL A   1      32.586  17.550  25.349  1.00  0.00     0.194 C 
ENDBRANCH  10  11
ENDBRANCH   8  10
ENDBRANCH   7   8
BRANCH   7  13
ATOM     13  O   UNL A   1      31.545  21.405  26.132  1.00  0.00    -0.379 OA
ATOM     14  H   UNL A   1      31.736  20.716  26.789  1.00  0.00     0.212 HD
ENDBRANCH   7  13
BRANCH   7  15
ATOM     15  C   UNL A   1      32.752  23.392  25.415  1.00  0.00     0.025 C 
ATOM     16  C   UNL A   1      31.878  24.086  26.466  1.00  0.00     0.011 C 
ATOM     17  C   UNL A   1      34.121  24.090  25.395  1.00  0.00     0.011 C 
ENDBRANCH   7  15
ENDBRANCH   4   7
ENDBRANCH   2   3
ENDBRANCH   1   2
BRANCH   1  18
ATOM     18  C   UNL A   1      38.126  19.861  24.932  1.00  0.00     0.023 C 
BRANCH  18  19
ATOM     19  C   UNL A   1      39.117  19.904  26.085  1.00  0.00     0.116 C 
BRANCH  19  20
ATOM     20  N   UNL A   1      40.284  19.062  25.872  1.00  0.00    -0.352 N 
ATOM     21  C   UNL A   1      41.614  19.410  25.942  1.00  0.00     0.251 C 
ATOM     22  H   UNL A   1      40.098  18.122  25.650  1.00  0.00     0.163 HD
ATOM     23  O   UNL A   1      42.489  18.616  25.634  1.00  0.00    -0.269 OA
BRANCH  21  24
ATOM     24  C   UNL A   1      41.968  20.783  26.360  1.00  0.00     0.039 A 
ATOM     25  C   UNL A   1      42.231  21.032  27.709  1.00  0.00     0.014 A 
ATOM     26  C   UNL A   1      42.085  21.801  25.412  1.00  0.00     0.014 A 
ATOM     27  C   UNL A   1      42.682  22.295  28.100  1.00  0.00     0.010 A 
ATOM     28  C   UNL A   1      42.602  23.034  25.791  1.00  0.00     0.010 A 
ATOM     29  C   UNL A   1      42.904  23.291  27.138  1.00  0.00    -0.014 A 
BRANCH  29  30
ATOM     30  C   UNL A   1      43.433  24.629  27.502  1.00  0.00     0.031 A 
ATOM     31  C   UNL A   1      42.502  25.659  28.071  1.00  0.00     0.074 A 
ATOM     32  C   UNL A   1      44.710  24.947  27.221  1.00  0.00     0.049 A 
ATOM     33  N   UNL A   1      42.706  26.932  28.294  1.00  0.00    -0.248 NA
ATOM     34  C   UNL A   1      41.143  25.201  28.399  1.00  0.00     0.031 C 
ATOM     35  C   UNL A   1      45.700  24.044  26.633  1.00  0.00     0.029 A 
ATOM     36  N   UNL A   1      45.386  26.132  27.370  1.00  0.00    -0.354 N 
ATOM     37  C   UNL A   1      41.495  27.432  28.751  1.00  0.00     0.074 A 
ATOM     38  C   UNL A   1      40.550  26.336  28.737  1.00  0.00     0.031 C 
ATOM     39  C   UNL A   1      46.858  24.706  26.476  1.00  0.00     0.029 A 
ATOM     40  C   UNL A   1      46.680  26.088  26.914  1.00  0.00     0.049 A 
ATOM     41  H   UNL A   1      44.982  26.938  27.767  1.00  0.00     0.167 HD
ATOM     42  C   UNL A   1      41.202  28.688  29.161  1.00  0.00     0.037 A 
ATOM     43  C   UNL A   1      47.612  27.058  26.840  1.00  0.00     0.037 A 
ATOM     44  C   UNL A   1      42.157  29.763  29.210  1.00  0.00     0.049 A 
ATOM     45  C   UNL A   1      47.270  28.442  27.321  1.00  0.00     0.074 A 
ATOM     46  C   UNL A   1      41.980  31.055  29.669  1.00  0.00     0.029 A 
ATOM     47  N   UNL A   1      43.476  29.664  28.788  1.00  0.00    -0.354 N 
ATOM     48  N   UNL A   1      46.136  28.895  27.798  1.00  0.00    -0.248 NA
ATOM     49  C   UNL A   1      48.339  29.449  27.258  1.00  0.00     0.031 C 
ATOM     50  C   UNL A   1      43.181  31.750  29.493  1.00  0.00     0.029 A 
ATOM     51  C   UNL A   1      44.119  30.877  28.965  1.00  0.00     0.049 A 
ATOM     52  H   UNL A   1      43.891  28.852  28.417  1.00  0.00     0.167 HD
ATOM     53  C   UNL A   1      46.362  30.226  28.120  1.00  0.00     0.074 A 
ATOM     54  C   UNL A   1      47.743  30.508  27.788  1.00  0.00     0.031 C 
ATOM     55  C   UNL A   1      45.501  31.132  28.646  1.00  0.00     0.037 A 
BRANCH  42  56
ATOM     56  C   UNL A   1      39.789  28.963  29.581  1.00  0.00     0.064 A 
ATOM     57  C   UNL A   1      39.366  28.780  30.907  1.00  0.00     0.173 A 
ATOM     58  C   UNL A   1      38.848  29.426  28.650  1.00  0.00     0.173 A 
ATOM     59  F   UNL A   1      40.223  28.325  31.833  1.00  0.00    -0.203 F 
ATOM     60  C   UNL A   1      38.043  29.012  31.275  1.00  0.00     0.198 A 
ATOM     61  C   UNL A   1      37.533  29.687  29.030  1.00  0.00     0.198 A 
ATOM     62  F   UNL A   1      39.201  29.623  27.371  1.00  0.00    -0.203 F 
ATOM     63  F   UNL A   1      37.649  28.771  32.533  1.00  0.00    -0.200 F 
ATOM     64  C   UNL A   1      37.130  29.470  30.338  1.00  0.00     0.200 A 
ATOM     65  F   UNL A   1      36.655  30.141  28.125  1.00  0.00    -0.200 F 
ATOM     66  F   UNL A   1      35.858  29.692  30.694  1.00  0.00    -0.200 F 
ENDBRANCH  42  56
BRANCH  43  67
ATOM     67  C   UNL A   1      48.963  26.743  26.312  1.00  0.00     0.064 A 
ATOM     68  C   UNL A   1      49.954  26.217  27.152  1.00  0.00     0.173 A 
ATOM     69  C   UNL A   1      49.287  26.941  24.963  1.00  0.00     0.173 A 
ATOM     70  F   UNL A   1      49.696  26.029  28.455  1.00  0.00    -0.203 F 
ATOM     71  C   UNL A   1      51.223  25.914  26.665  1.00  0.00     0.198 A 
ATOM     72  C   UNL A   1      50.549  26.615  24.472  1.00  0.00     0.198 A 
ATOM     73  F   UNL A   1      48.371  27.437  24.118  1.00  0.00    -0.203 F 
ATOM     74  F   UNL A   1      52.164  25.444  27.496  1.00  0.00    -0.200 F 
ATOM     75  C   UNL A   1      51.518  26.107  25.324  1.00  0.00     0.200 A 
ATOM     76  F   UNL A   1      50.826  26.790  23.172  1.00  0.00    -0.200 F 
ATOM     77  F   UNL A   1      52.737  25.806  24.854  1.00  0.00    -0.200 F 
ENDBRANCH  43  67
BRANCH  55  78
ATOM     78  C   UNL A   1      46.037  32.500  28.945  1.00  0.00     0.064 A 
ATOM     79  C   UNL A   1      45.959  33.543  28.010  1.00  0.00     0.173 A 
ATOM     80  C   UNL A   1      46.580  32.784  30.208  1.00  0.00     0.173 A 
ATOM     81  F   UNL A   1      45.463  33.314  26.786  1.00  0.00    -0.203 F 
ATOM     82  C   UNL A   1      46.419  34.818  28.325  1.00  0.00     0.198 A 
ATOM     83  C   UNL A   1      47.015  34.067  30.527  1.00  0.00     0.198 A 
ATOM     84  F   UNL A   1      46.671  31.821  31.137  1.00  0.00    -0.203 F 
ATOM     85  F   UNL A   1      46.366  35.792  27.407  1.00  0.00    -0.200 F 
ATOM     86  C   UNL A   1      46.937  35.081  29.585  1.00  0.00     0.200 A 
ATOM     87  F   UNL A   1      47.505  34.323  31.748  1.00  0.00    -0.200 F 
ATOM     88  F   UNL A   1      47.368  36.313  29.889  1.00  0.00    -0.200 F 
ENDBRANCH  55  78
ENDBRANCH  29  30
ENDBRANCH  21  24
ENDBRANCH  19  20
ENDBRANCH  18  19
ENDBRANCH   1  18
TORSDOF 16
ENDMDL
