MODEL 1
REMARK VINA RESULT:     -12.9      0.000      0.000
REMARK SMILES O=C(CSc1cc(-c2ccccc2)nc(-c2ccccc2F)n1)NCCCCNC(=O)c1ccc(-c2c3nc(c(-c4c(F)c(F)c(F)c(F)c4F)c4ccc([nH]4)c(-c4c(F)c(F)c(F)c(F)c4F)c4nc(c(-c5c(F)c(F)c(F)c(F)c5F)c5ccc2[nH]5)C=C4)C=C3)cc1
REMARK SMILES IDX 26 1 25 2 24 3 1 4 2 5 3 7 4 8 5 9 6 10 23 11 7 12 15 13
REMARK SMILES IDX 14 14 8 15 9 16 13 17 10 18 12 19 11 20 16 21 17 22 21 23
REMARK SMILES IDX 18 24 20 25 22 26 19 27 27 28 28 29 29 30 30 31 31 33 32 34
REMARK SMILES IDX 33 35 94 36 34 37 93 38 35 39 36 40 37 41 87 42 38 43 92 44
REMARK SMILES IDX 86 45 88 46 39 47 91 48 85 49 84 50 40 52 72 53 52 54 71 55
REMARK SMILES IDX 53 56 56 57 70 58 89 59 54 60 55 61 69 63 90 64 57 65 41 66
REMARK SMILES IDX 42 67 50 68 43 69 44 70 48 71 51 72 45 73 46 74 49 75 47 76
REMARK SMILES IDX 73 77 74 78 82 79 75 80 76 81 80 82 83 83 77 84 78 85 81 86
REMARK SMILES IDX 79 87 58 88 59 89 67 90 60 91 61 92 65 93 68 94 62 95 63 96
REMARK SMILES IDX 66 97 64 98
REMARK H PARENT 24 6 29 32 88 51 56 62
REMARK Flexibility Score: inf
ROOT
ATOM      1  C   UNL A   1      33.843  27.560  24.930  1.00  0.00     0.023 C 
ENDROOT
BRANCH   1   2
ATOM      2  C   UNL A   1      33.125  27.275  23.610  1.00  0.00     0.116 C 
BRANCH   2   3
ATOM      3  N   UNL A   1      33.079  25.857  23.308  1.00  0.00    -0.355 N 
ATOM      4  O   UNL A   1      33.338  26.072  21.031  1.00  0.00    -0.274 OA
ATOM      5  C   UNL A   1      33.189  25.366  22.025  1.00  0.00     0.230 C 
ATOM      6  H   UNL A   1      32.965  25.221  24.050  1.00  0.00     0.163 HD
BRANCH   5   7
ATOM      7  C   UNL A   1      33.038  23.860  21.907  1.00  0.00     0.176 C 
BRANCH   7   8
ATOM      8  S   UNL A   1      32.061  23.153  23.267  1.00  0.00    -0.096 SA
BRANCH   8   9
ATOM      9  C   UNL A   1      33.170  21.924  23.929  1.00  0.00     0.101 A 
ATOM     10  C   UNL A   1      32.858  20.586  23.997  1.00  0.00     0.064 A 
ATOM     11  N   UNL A   1      34.324  22.425  24.400  1.00  0.00    -0.222 NA
ATOM     12  C   UNL A   1      33.805  19.761  24.574  1.00  0.00     0.075 A 
ATOM     13  C   UNL A   1      35.193  21.546  24.928  1.00  0.00     0.163 A 
ATOM     14  N   UNL A   1      34.970  20.230  25.058  1.00  0.00    -0.228 NA
BRANCH  12  15
ATOM     15  C   UNL A   1      33.596  18.312  24.705  1.00  0.00     0.000 A 
ATOM     16  C   UNL A   1      34.302  17.407  23.896  1.00  0.00     0.010 A 
ATOM     17  C   UNL A   1      32.680  17.791  25.636  1.00  0.00     0.010 A 
ATOM     18  C   UNL A   1      34.112  16.028  24.021  1.00  0.00     0.001 A 
ATOM     19  C   UNL A   1      32.482  16.414  25.756  1.00  0.00     0.001 A 
ATOM     20  C   UNL A   1      33.201  15.532  24.951  1.00  0.00     0.000 A 
ENDBRANCH  12  15
BRANCH  13  21
ATOM     21  C   UNL A   1      36.462  22.079  25.407  1.00  0.00     0.055 A 
ATOM     22  C   UNL A   1      36.568  23.403  25.871  1.00  0.00     0.015 A 
ATOM     23  C   UNL A   1      37.625  21.301  25.391  1.00  0.00     0.134 A 
ATOM     24  C   UNL A   1      37.793  23.921  26.304  1.00  0.00     0.001 A 
ATOM     25  C   UNL A   1      38.853  21.813  25.813  1.00  0.00     0.040 A 
ATOM     26  F   UNL A   1      37.595  20.043  24.925  1.00  0.00    -0.206 F 
ATOM     27  C   UNL A   1      38.937  23.125  26.272  1.00  0.00     0.003 A 
ENDBRANCH  13  21
ENDBRANCH   8   9
ENDBRANCH   7   8
ENDBRANCH   5   7
ENDBRANCH   2   3
ENDBRANCH   1   2
BRANCH   1  28
ATOM     28  C   UNL A   1      33.052  28.405  25.933  1.00  0.00     0.023 C 
BRANCH  28  29
ATOM     29  C   UNL A   1      33.735  28.641  27.277  1.00  0.00     0.116 C 
BRANCH  29  30
ATOM     30  N   UNL A   1      33.690  30.032  27.703  1.00  0.00    -0.352 N 
ATOM     31  C   UNL A   1      34.641  30.781  28.354  1.00  0.00     0.251 C 
ATOM     32  H   UNL A   1      32.854  30.507  27.493  1.00  0.00     0.163 HD
ATOM     33  O   UNL A   1      34.364  31.910  28.751  1.00  0.00    -0.269 OA
BRANCH  31  34
ATOM     34  C   UNL A   1      35.988  30.226  28.618  1.00  0.00     0.039 A 
ATOM     35  C   UNL A   1      36.975  30.362  27.636  1.00  0.00     0.014 A 
ATOM     36  C   UNL A   1      36.285  29.569  29.815  1.00  0.00     0.014 A 
ATOM     37  C   UNL A   1      38.273  29.909  27.886  1.00  0.00     0.010 A 
ATOM     38  C   UNL A   1      37.597  29.189  30.093  1.00  0.00     0.010 A 
ATOM     39  C   UNL A   1      38.608  29.359  29.133  1.00  0.00    -0.014 A 
BRANCH  39  40
ATOM     40  C   UNL A   1      40.007  28.969  29.454  1.00  0.00     0.031 A 
ATOM     41  C   UNL A   1      40.891  29.889  30.252  1.00  0.00     0.074 A 
ATOM     42  C   UNL A   1      40.504  27.813  28.972  1.00  0.00     0.049 A 
ATOM     43  N   UNL A   1      42.153  29.753  30.575  1.00  0.00    -0.248 NA
ATOM     44  C   UNL A   1      40.283  31.139  30.733  1.00  0.00     0.031 C 
ATOM     45  C   UNL A   1      39.766  26.853  28.151  1.00  0.00     0.029 A 
ATOM     46  N   UNL A   1      41.753  27.252  29.095  1.00  0.00    -0.354 N 
ATOM     47  C   UNL A   1      42.491  30.900  31.279  1.00  0.00     0.074 A 
ATOM     48  C   UNL A   1      41.318  31.746  31.292  1.00  0.00     0.031 C 
ATOM     49  C   UNL A   1      40.564  25.812  27.865  1.00  0.00     0.029 A 
ATOM     50  C   UNL A   1      41.884  26.050  28.441  1.00  0.00     0.049 A 
ATOM     51  H   UNL A   1      42.485  27.673  29.602  1.00  0.00     0.167 HD
ATOM     52  C   UNL A   1      43.666  31.211  31.878  1.00  0.00     0.037 A 
ATOM     53  C   UNL A   1      42.951  25.238  28.312  1.00  0.00     0.037 A 
ATOM     54  C   UNL A   1      44.826  30.359  31.880  1.00  0.00     0.049 A 
ATOM     55  C   UNL A   1      44.252  25.619  28.967  1.00  0.00     0.074 A 
ATOM     56  C   UNL A   1      46.042  30.558  32.511  1.00  0.00     0.029 A 
ATOM     57  N   UNL A   1      44.920  29.146  31.211  1.00  0.00    -0.354 N 
ATOM     58  N   UNL A   1      44.536  26.673  29.693  1.00  0.00    -0.248 NA
ATOM     59  C   UNL A   1      45.379  24.692  28.790  1.00  0.00     0.031 C 
ATOM     60  C   UNL A   1      46.890  29.497  32.175  1.00  0.00     0.029 A 
ATOM     61  C   UNL A   1      46.183  28.603  31.389  1.00  0.00     0.049 A 
ATOM     62  H   UNL A   1      44.196  28.733  30.687  1.00  0.00     0.167 HD
ATOM     63  C   UNL A   1      45.859  26.520  30.086  1.00  0.00     0.074 A 
ATOM     64  C   UNL A   1      46.317  25.264  29.530  1.00  0.00     0.031 C 
ATOM     65  C   UNL A   1      46.625  27.347  30.840  1.00  0.00     0.037 A 
BRANCH  52  66
ATOM     66  C   UNL A   1      43.761  32.535  32.582  1.00  0.00     0.064 A 
ATOM     67  C   UNL A   1      43.432  32.676  33.939  1.00  0.00     0.173 A 
ATOM     68  C   UNL A   1      44.231  33.670  31.903  1.00  0.00     0.173 A 
ATOM     69  F   UNL A   1      42.969  31.626  34.634  1.00  0.00    -0.203 F 
ATOM     70  C   UNL A   1      43.539  33.908  34.580  1.00  0.00     0.198 A 
ATOM     71  C   UNL A   1      44.370  34.892  32.556  1.00  0.00     0.198 A 
ATOM     72  F   UNL A   1      44.569  33.592  30.607  1.00  0.00    -0.203 F 
ATOM     73  F   UNL A   1      43.169  34.029  35.862  1.00  0.00    -0.200 F 
ATOM     74  C   UNL A   1      44.016  35.013  33.890  1.00  0.00     0.200 A 
ATOM     75  F   UNL A   1      44.847  35.954  31.891  1.00  0.00    -0.200 F 
ATOM     76  F   UNL A   1      44.128  36.195  34.511  1.00  0.00    -0.200 F 
ENDBRANCH  52  66
BRANCH  53  77
ATOM     77  C   UNL A   1      42.833  23.970  27.542  1.00  0.00     0.064 A 
ATOM     78  C   UNL A   1      43.156  23.923  26.178  1.00  0.00     0.173 A 
ATOM     79  C   UNL A   1      42.378  22.788  28.144  1.00  0.00     0.173 A 
ATOM     80  F   UNL A   1      43.574  25.033  25.551  1.00  0.00    -0.203 F 
ATOM     81  C   UNL A   1      43.006  22.751  25.441  1.00  0.00     0.198 A 
ATOM     82  C   UNL A   1      42.258  21.607  27.413  1.00  0.00     0.198 A 
ATOM     83  F   UNL A   1      42.057  22.776  29.446  1.00  0.00    -0.203 F 
ATOM     84  F   UNL A   1      43.269  22.749  24.128  1.00  0.00    -0.200 F 
ATOM     85  C   UNL A   1      42.562  21.592  26.061  1.00  0.00     0.200 A 
ATOM     86  F   UNL A   1      41.845  20.486  28.019  1.00  0.00    -0.200 F 
ATOM     87  F   UNL A   1      42.419  20.464  25.352  1.00  0.00    -0.200 F 
ENDBRANCH  53  77
BRANCH  65  88
ATOM     88  C   UNL A   1      48.027  26.901  31.148  1.00  0.00     0.064 A 
ATOM     89  C   UNL A   1      48.310  26.030  32.211  1.00  0.00     0.173 A 
ATOM     90  C   UNL A   1      49.096  27.322  30.343  1.00  0.00     0.173 A 
ATOM     91  F   UNL A   1      47.327  25.610  33.020  1.00  0.00    -0.203 F 
ATOM     92  C   UNL A   1      49.616  25.623  32.474  1.00  0.00     0.198 A 
ATOM     93  C   UNL A   1      50.395  26.884  30.586  1.00  0.00     0.198 A 
ATOM     94  F   UNL A   1      48.881  28.149  29.308  1.00  0.00    -0.203 F 
ATOM     95  F   UNL A   1      49.870  24.833  33.527  1.00  0.00    -0.200 F 
ATOM     96  C   UNL A   1      50.655  26.042  31.657  1.00  0.00     0.200 A 
ATOM     97  F   UNL A   1      51.395  27.277  29.785  1.00  0.00    -0.200 F 
ATOM     98  F   UNL A   1      51.909  25.640  31.906  1.00  0.00    -0.200 F 
ENDBRANCH  65  88
ENDBRANCH  39  40
ENDBRANCH  31  34
ENDBRANCH  29  30
ENDBRANCH  28  29
ENDBRANCH   1  28
TORSDOF 15
ENDMDL
MODEL 2
REMARK VINA RESULT:     -12.8      2.602      3.704
REMARK SMILES O=C(CSc1cc(-c2ccccc2)nc(-c2ccccc2F)n1)NCCCCNC(=O)c1ccc(-c2c3nc(c(-c4c(F)c(F)c(F)c(F)c4F)c4ccc([nH]4)c(-c4c(F)c(F)c(F)c(F)c4F)c4nc(c(-c5c(F)c(F)c(F)c(F)c5F)c5ccc2[nH]5)C=C4)C=C3)cc1
REMARK SMILES IDX 26 1 25 2 24 3 1 4 2 5 3 7 4 8 5 9 6 10 23 11 7 12 15 13
REMARK SMILES IDX 14 14 8 15 9 16 13 17 10 18 12 19 11 20 16 21 17 22 21 23
REMARK SMILES IDX 18 24 20 25 22 26 19 27 27 28 28 29 29 30 30 31 31 33 32 34
REMARK SMILES IDX 33 35 94 36 34 37 93 38 35 39 36 40 37 41 87 42 38 43 92 44
REMARK SMILES IDX 86 45 88 46 39 47 91 48 85 49 84 50 40 52 72 53 52 54 71 55
REMARK SMILES IDX 53 56 56 57 70 58 89 59 54 60 55 61 69 63 90 64 57 65 41 66
REMARK SMILES IDX 42 67 50 68 43 69 44 70 48 71 51 72 45 73 46 74 49 75 47 76
REMARK SMILES IDX 73 77 74 78 82 79 75 80 76 81 80 82 83 83 77 84 78 85 81 86
REMARK SMILES IDX 79 87 58 88 59 89 67 90 60 91 61 92 65 93 68 94 62 95 63 96
REMARK SMILES IDX 66 97 64 98
REMARK H PARENT 24 6 29 32 88 51 56 62
REMARK Flexibility Score: inf
ROOT
ATOM      1  C   UNL A   1      31.166  27.787  24.882  1.00  0.00     0.023 C 
ENDROOT
BRANCH   1   2
ATOM      2  C   UNL A   1      31.978  27.569  23.605  1.00  0.00     0.116 C 
BRANCH   2   3
ATOM      3  N   UNL A   1      32.174  26.161  23.315  1.00  0.00    -0.355 N 
ATOM      4  O   UNL A   1      33.666  26.459  21.589  1.00  0.00    -0.274 OA
ATOM      5  C   UNL A   1      33.012  25.716  22.316  1.00  0.00     0.230 C 
ATOM      6  H   UNL A   1      31.688  25.497  23.856  1.00  0.00     0.163 HD
BRANCH   5   7
ATOM      7  C   UNL A   1      33.021  24.211  22.119  1.00  0.00     0.176 C 
BRANCH   7   8
ATOM      8  S   UNL A   1      31.986  23.346  23.338  1.00  0.00    -0.096 SA
BRANCH   8   9
ATOM      9  C   UNL A   1      33.103  22.109  23.970  1.00  0.00     0.101 A 
ATOM     10  C   UNL A   1      32.792  20.769  24.026  1.00  0.00     0.064 A 
ATOM     11  N   UNL A   1      34.264  22.602  24.430  1.00  0.00    -0.222 NA
ATOM     12  C   UNL A   1      33.745  19.937  24.580  1.00  0.00     0.075 A 
ATOM     13  C   UNL A   1      35.140  21.717  24.935  1.00  0.00     0.163 A 
ATOM     14  N   UNL A   1      34.918  20.400  25.052  1.00  0.00    -0.228 NA
BRANCH  12  15
ATOM     15  C   UNL A   1      33.537  18.488  24.697  1.00  0.00     0.000 A 
ATOM     16  C   UNL A   1      32.640  17.962  25.642  1.00  0.00     0.010 A 
ATOM     17  C   UNL A   1      34.233  17.585  23.873  1.00  0.00     0.010 A 
ATOM     18  C   UNL A   1      32.433  16.585  25.752  1.00  0.00     0.001 A 
ATOM     19  C   UNL A   1      34.034  16.207  23.990  1.00  0.00     0.001 A 
ATOM     20  C   UNL A   1      33.132  15.707  24.926  1.00  0.00     0.000 A 
ENDBRANCH  12  15
BRANCH  13  21
ATOM     21  C   UNL A   1      36.417  22.243  25.402  1.00  0.00     0.055 A 
ATOM     22  C   UNL A   1      36.528  23.557  25.892  1.00  0.00     0.015 A 
ATOM     23  C   UNL A   1      37.581  21.468  25.348  1.00  0.00     0.134 A 
ATOM     24  C   UNL A   1      37.760  24.069  26.314  1.00  0.00     0.001 A 
ATOM     25  C   UNL A   1      38.815  21.975  25.759  1.00  0.00     0.040 A 
ATOM     26  F   UNL A   1      37.546  20.221  24.856  1.00  0.00    -0.206 F 
ATOM     27  C   UNL A   1      38.905  23.277  26.244  1.00  0.00     0.003 A 
ENDBRANCH  13  21
ENDBRANCH   8   9
ENDBRANCH   7   8
ENDBRANCH   5   7
ENDBRANCH   2   3
ENDBRANCH   1   2
BRANCH   1  28
ATOM     28  C   UNL A   1      31.943  28.397  26.052  1.00  0.00     0.023 C 
BRANCH  28  29
ATOM     29  C   UNL A   1      32.996  29.434  25.674  1.00  0.00     0.116 C 
BRANCH  29  30
ATOM     30  N   UNL A   1      32.700  30.762  26.189  1.00  0.00    -0.352 N 
ATOM     31  C   UNL A   1      33.349  31.496  27.152  1.00  0.00     0.251 C 
ATOM     32  H   UNL A   1      31.916  31.201  25.786  1.00  0.00     0.163 HD
ATOM     33  O   UNL A   1      32.864  32.553  27.548  1.00  0.00    -0.269 OA
BRANCH  31  34
ATOM     34  C   UNL A   1      34.614  31.006  27.748  1.00  0.00     0.039 A 
ATOM     35  C   UNL A   1      35.668  31.908  27.922  1.00  0.00     0.014 A 
ATOM     36  C   UNL A   1      34.772  29.670  28.127  1.00  0.00     0.014 A 
ATOM     37  C   UNL A   1      36.847  31.489  28.545  1.00  0.00     0.010 A 
ATOM     38  C   UNL A   1      35.916  29.274  28.817  1.00  0.00     0.010 A 
ATOM     39  C   UNL A   1      36.966  30.180  29.038  1.00  0.00    -0.014 A 
BRANCH  39  40
ATOM     40  C   UNL A   1      38.170  29.747  29.796  1.00  0.00     0.031 A 
ATOM     41  C   UNL A   1      38.435  30.282  31.177  1.00  0.00     0.074 A 
ATOM     42  C   UNL A   1      39.062  28.920  29.215  1.00  0.00     0.049 A 
ATOM     43  N   UNL A   1      39.461  30.073  31.965  1.00  0.00    -0.248 NA
ATOM     44  C   UNL A   1      37.425  31.190  31.740  1.00  0.00     0.031 C 
ATOM     45  C   UNL A   1      38.945  28.364  27.867  1.00  0.00     0.029 A 
ATOM     46  N   UNL A   1      40.250  28.409  29.682  1.00  0.00    -0.354 N 
ATOM     47  C   UNL A   1      39.226  30.832  33.103  1.00  0.00     0.074 A 
ATOM     48  C   UNL A   1      37.989  31.548  32.884  1.00  0.00     0.031 C 
ATOM     49  C   UNL A   1      40.001  27.572  27.624  1.00  0.00     0.029 A 
ATOM     50  C   UNL A   1      40.894  27.598  28.779  1.00  0.00     0.049 A 
ATOM     51  H   UNL A   1      40.605  28.607  30.579  1.00  0.00     0.167 HD
ATOM     52  C   UNL A   1      39.965  30.910  34.236  1.00  0.00     0.037 A 
ATOM     53  C   UNL A   1      42.075  26.957  28.867  1.00  0.00     0.037 A 
ATOM     54  C   UNL A   1      41.187  30.182  34.460  1.00  0.00     0.049 A 
ATOM     55  C   UNL A   1      42.888  27.080  30.128  1.00  0.00     0.074 A 
ATOM     56  C   UNL A   1      41.974  30.146  35.598  1.00  0.00     0.029 A 
ATOM     57  N   UNL A   1      41.805  29.366  33.524  1.00  0.00    -0.354 N 
ATOM     58  N   UNL A   1      42.618  27.743  31.226  1.00  0.00    -0.248 NA
ATOM     59  C   UNL A   1      44.168  26.358  30.164  1.00  0.00     0.031 C 
ATOM     60  C   UNL A   1      43.098  29.358  35.331  1.00  0.00     0.029 A 
ATOM     61  C   UNL A   1      42.980  28.848  34.048  1.00  0.00     0.049 A 
ATOM     62  H   UNL A   1      41.462  29.182  32.619  1.00  0.00     0.167 HD
ATOM     63  C   UNL A   1      43.674  27.492  32.093  1.00  0.00     0.074 A 
ATOM     64  C   UNL A   1      44.581  26.604  31.398  1.00  0.00     0.031 C 
ATOM     65  C   UNL A   1      43.872  27.956  33.351  1.00  0.00     0.037 A 
BRANCH  52  66
ATOM     66  C   UNL A   1      39.476  31.820  35.328  1.00  0.00     0.064 A 
ATOM     67  C   UNL A   1      39.872  33.164  35.402  1.00  0.00     0.173 A 
ATOM     68  C   UNL A   1      38.563  31.354  36.287  1.00  0.00     0.173 A 
ATOM     69  F   UNL A   1      40.749  33.660  34.516  1.00  0.00    -0.203 F 
ATOM     70  C   UNL A   1      39.398  33.997  36.413  1.00  0.00     0.198 A 
ATOM     71  C   UNL A   1      38.064  32.199  37.275  1.00  0.00     0.198 A 
ATOM     72  F   UNL A   1      38.143  30.080  36.259  1.00  0.00    -0.203 F 
ATOM     73  F   UNL A   1      39.832  35.264  36.493  1.00  0.00    -0.200 F 
ATOM     74  C   UNL A   1      38.488  33.517  37.343  1.00  0.00     0.200 A 
ATOM     75  F   UNL A   1      37.173  31.737  38.162  1.00  0.00    -0.200 F 
ATOM     76  F   UNL A   1      38.026  34.323  38.308  1.00  0.00    -0.200 F 
ENDBRANCH  52  66
BRANCH  53  77
ATOM     77  C   UNL A   1      42.558  26.125  27.732  1.00  0.00     0.064 A 
ATOM     78  C   UNL A   1      43.450  26.648  26.783  1.00  0.00     0.173 A 
ATOM     79  C   UNL A   1      42.127  24.802  27.559  1.00  0.00     0.173 A 
ATOM     80  F   UNL A   1      43.874  27.917  26.892  1.00  0.00    -0.203 F 
ATOM     81  C   UNL A   1      43.871  25.889  25.694  1.00  0.00     0.198 A 
ATOM     82  C   UNL A   1      42.575  24.033  26.486  1.00  0.00     0.198 A 
ATOM     83  F   UNL A   1      41.277  24.251  28.438  1.00  0.00    -0.203 F 
ATOM     84  F   UNL A   1      44.679  26.433  24.774  1.00  0.00    -0.200 F 
ATOM     85  C   UNL A   1      43.437  24.580  25.550  1.00  0.00     0.200 A 
ATOM     86  F   UNL A   1      42.166  22.763  26.359  1.00  0.00    -0.200 F 
ATOM     87  F   UNL A   1      43.844  23.850  24.502  1.00  0.00    -0.200 F 
ENDBRANCH  53  77
BRANCH  65  88
ATOM     88  C   UNL A   1      45.096  27.478  34.080  1.00  0.00     0.064 A 
ATOM     89  C   UNL A   1      46.308  28.183  34.035  1.00  0.00     0.173 A 
ATOM     90  C   UNL A   1      45.042  26.317  34.867  1.00  0.00     0.173 A 
ATOM     91  F   UNL A   1      46.417  29.290  33.286  1.00  0.00    -0.203 F 
ATOM     92  C   UNL A   1      47.428  27.726  34.725  1.00  0.00     0.198 A 
ATOM     93  C   UNL A   1      46.153  25.883  35.585  1.00  0.00     0.198 A 
ATOM     94  F   UNL A   1      43.906  25.608  34.953  1.00  0.00    -0.203 F 
ATOM     95  F   UNL A   1      48.590  28.387  34.624  1.00  0.00    -0.200 F 
ATOM     96  C   UNL A   1      47.348  26.583  35.506  1.00  0.00     0.200 A 
ATOM     97  F   UNL A   1      46.068  24.788  36.352  1.00  0.00    -0.200 F 
ATOM     98  F   UNL A   1      48.424  26.151  36.177  1.00  0.00    -0.200 F 
ENDBRANCH  65  88
ENDBRANCH  39  40
ENDBRANCH  31  34
ENDBRANCH  29  30
ENDBRANCH  28  29
ENDBRANCH   1  28
TORSDOF 15
ENDMDL
MODEL 3
REMARK VINA RESULT:     -12.8      3.770      9.442
REMARK SMILES O=C(CSc1cc(-c2ccccc2)nc(-c2ccccc2F)n1)NCCCCNC(=O)c1ccc(-c2c3nc(c(-c4c(F)c(F)c(F)c(F)c4F)c4ccc([nH]4)c(-c4c(F)c(F)c(F)c(F)c4F)c4nc(c(-c5c(F)c(F)c(F)c(F)c5F)c5ccc2[nH]5)C=C4)C=C3)cc1
REMARK SMILES IDX 26 1 25 2 24 3 1 4 2 5 3 7 4 8 5 9 6 10 23 11 7 12 15 13
REMARK SMILES IDX 14 14 8 15 9 16 13 17 10 18 12 19 11 20 16 21 17 22 21 23
REMARK SMILES IDX 18 24 20 25 22 26 19 27 27 28 28 29 29 30 30 31 31 33 32 34
REMARK SMILES IDX 33 35 94 36 34 37 93 38 35 39 36 40 37 41 87 42 38 43 92 44
REMARK SMILES IDX 86 45 88 46 39 47 91 48 85 49 84 50 40 52 72 53 52 54 71 55
REMARK SMILES IDX 53 56 56 57 70 58 89 59 54 60 55 61 69 63 90 64 57 65 41 66
REMARK SMILES IDX 42 67 50 68 43 69 44 70 48 71 51 72 45 73 46 74 49 75 47 76
REMARK SMILES IDX 73 77 74 78 82 79 75 80 76 81 80 82 83 83 77 84 78 85 81 86
REMARK SMILES IDX 79 87 58 88 59 89 67 90 60 91 61 92 65 93 68 94 62 95 63 96
REMARK SMILES IDX 66 97 64 98
REMARK H PARENT 24 6 29 32 88 51 56 62
REMARK Flexibility Score: inf
ROOT
ATOM      1  C   UNL A   1      34.671  22.881  24.905  1.00  0.00     0.023 C 
ENDROOT
BRANCH   1   2
ATOM      2  C   UNL A   1      34.259  23.741  26.100  1.00  0.00     0.116 C 
BRANCH   2   3
ATOM      3  N   UNL A   1      33.002  24.428  25.872  1.00  0.00    -0.355 N 
ATOM      4  O   UNL A   1      31.774  23.231  27.406  1.00  0.00    -0.274 OA
ATOM      5  C   UNL A   1      31.846  24.110  26.552  1.00  0.00     0.230 C 
ATOM      6  H   UNL A   1      32.975  25.151  25.205  1.00  0.00     0.163 HD
BRANCH   5   7
ATOM      7  C   UNL A   1      30.619  24.890  26.117  1.00  0.00     0.176 C 
BRANCH   7   8
ATOM      8  S   UNL A   1      30.649  25.296  24.345  1.00  0.00    -0.096 SA
BRANCH   8   9
ATOM      9  C   UNL A   1      30.710  27.077  24.367  1.00  0.00     0.101 A 
ATOM     10  C   UNL A   1      29.882  27.870  23.606  1.00  0.00     0.064 A 
ATOM     11  N   UNL A   1      31.668  27.583  25.161  1.00  0.00    -0.222 NA
ATOM     12  C   UNL A   1      30.076  29.235  23.700  1.00  0.00     0.075 A 
ATOM     13  C   UNL A   1      31.773  28.922  25.205  1.00  0.00     0.163 A 
ATOM     14  N   UNL A   1      31.028  29.774  24.485  1.00  0.00    -0.228 NA
BRANCH  12  15
ATOM     15  C   UNL A   1      29.257  30.190  22.942  1.00  0.00     0.000 A 
ATOM     16  C   UNL A   1      28.866  31.414  23.510  1.00  0.00     0.010 A 
ATOM     17  C   UNL A   1      28.836  29.905  21.631  1.00  0.00     0.010 A 
ATOM     18  C   UNL A   1      28.093  32.328  22.790  1.00  0.00     0.001 A 
ATOM     19  C   UNL A   1      28.054  30.814  20.914  1.00  0.00     0.001 A 
ATOM     20  C   UNL A   1      27.686  32.028  21.492  1.00  0.00     0.000 A 
ENDBRANCH  12  15
BRANCH  13  21
ATOM     21  C   UNL A   1      32.786  29.477  26.093  1.00  0.00     0.055 A 
ATOM     22  C   UNL A   1      33.988  28.790  26.346  1.00  0.00     0.015 A 
ATOM     23  C   UNL A   1      32.584  30.697  26.749  1.00  0.00     0.134 A 
ATOM     24  C   UNL A   1      34.948  29.312  27.220  1.00  0.00     0.001 A 
ATOM     25  C   UNL A   1      33.532  31.219  27.629  1.00  0.00     0.040 A 
ATOM     26  F   UNL A   1      31.442  31.380  26.576  1.00  0.00    -0.206 F 
ATOM     27  C   UNL A   1      34.717  30.526  27.865  1.00  0.00     0.003 A 
ENDBRANCH  13  21
ENDBRANCH   8   9
ENDBRANCH   7   8
ENDBRANCH   5   7
ENDBRANCH   2   3
ENDBRANCH   1   2
BRANCH   1  28
ATOM     28  C   UNL A   1      36.076  23.151  24.359  1.00  0.00     0.023 C 
BRANCH  28  29
ATOM     29  C   UNL A   1      37.077  23.708  25.366  1.00  0.00     0.116 C 
BRANCH  29  30
ATOM     30  N   UNL A   1      38.213  22.825  25.590  1.00  0.00    -0.352 N 
ATOM     31  C   UNL A   1      39.421  23.085  26.189  1.00  0.00     0.251 C 
ATOM     32  H   UNL A   1      38.097  21.905  25.262  1.00  0.00     0.163 HD
ATOM     33  O   UNL A   1      40.312  22.239  26.163  1.00  0.00    -0.269 OA
BRANCH  31  34
ATOM     34  C   UNL A   1      39.677  24.393  26.836  1.00  0.00     0.039 A 
ATOM     35  C   UNL A   1      39.230  24.593  28.146  1.00  0.00     0.014 A 
ATOM     36  C   UNL A   1      40.344  25.420  26.164  1.00  0.00     0.014 A 
ATOM     37  C   UNL A   1      39.518  25.792  28.804  1.00  0.00     0.010 A 
ATOM     38  C   UNL A   1      40.698  26.583  26.847  1.00  0.00     0.010 A 
ATOM     39  C   UNL A   1      40.292  26.780  28.177  1.00  0.00    -0.014 A 
BRANCH  39  40
ATOM     40  C   UNL A   1      40.698  28.017  28.899  1.00  0.00     0.031 A 
ATOM     41  C   UNL A   1      42.100  28.168  29.423  1.00  0.00     0.074 A 
ATOM     42  C   UNL A   1      39.785  28.978  29.140  1.00  0.00     0.049 A 
ATOM     43  N   UNL A   1      42.621  29.140  30.131  1.00  0.00    -0.248 NA
ATOM     44  C   UNL A   1      43.037  27.072  29.133  1.00  0.00     0.031 C 
ATOM     45  C   UNL A   1      38.383  28.935  28.723  1.00  0.00     0.029 A 
ATOM     46  N   UNL A   1      39.897  30.176  29.804  1.00  0.00    -0.354 N 
ATOM     47  C   UNL A   1      43.933  28.765  30.382  1.00  0.00     0.074 A 
ATOM     48  C   UNL A   1      44.117  27.455  29.797  1.00  0.00     0.031 C 
ATOM     49  C   UNL A   1      37.772  30.063  29.117  1.00  0.00     0.029 A 
ATOM     50  C   UNL A   1      38.723  30.890  29.854  1.00  0.00     0.049 A 
ATOM     51  H   UNL A   1      40.738  30.493  30.206  1.00  0.00     0.167 HD
ATOM     52  C   UNL A   1      44.904  29.460  31.024  1.00  0.00     0.037 A 
ATOM     53  C   UNL A   1      38.443  32.071  30.438  1.00  0.00     0.037 A 
ATOM     54  C   UNL A   1      44.725  30.773  31.588  1.00  0.00     0.049 A 
ATOM     55  C   UNL A   1      39.534  32.811  31.165  1.00  0.00     0.074 A 
ATOM     56  C   UNL A   1      45.664  31.583  32.203  1.00  0.00     0.029 A 
ATOM     57  N   UNL A   1      43.523  31.466  31.615  1.00  0.00    -0.354 N 
ATOM     58  N   UNL A   1      40.791  32.479  31.331  1.00  0.00    -0.248 NA
ATOM     59  C   UNL A   1      39.167  34.094  31.781  1.00  0.00     0.031 C 
ATOM     60  C   UNL A   1      45.018  32.739  32.654  1.00  0.00     0.029 A 
ATOM     61  C   UNL A   1      43.690  32.680  32.264  1.00  0.00     0.049 A 
ATOM     62  H   UNL A   1      42.676  31.142  31.231  1.00  0.00     0.167 HD
ATOM     63  C   UNL A   1      41.371  33.525  32.038  1.00  0.00     0.074 A 
ATOM     64  C   UNL A   1      40.332  34.507  32.257  1.00  0.00     0.031 C 
ATOM     65  C   UNL A   1      42.651  33.656  32.467  1.00  0.00     0.037 A 
BRANCH  52  66
ATOM     66  C   UNL A   1      46.254  28.813  31.156  1.00  0.00     0.064 A 
ATOM     67  C   UNL A   1      47.248  28.970  30.178  1.00  0.00     0.173 A 
ATOM     68  C   UNL A   1      46.574  28.063  32.297  1.00  0.00     0.173 A 
ATOM     69  F   UNL A   1      46.993  29.670  29.062  1.00  0.00    -0.203 F 
ATOM     70  C   UNL A   1      48.499  28.375  30.322  1.00  0.00     0.198 A 
ATOM     71  C   UNL A   1      47.838  27.498  32.455  1.00  0.00     0.198 A 
ATOM     72  F   UNL A   1      45.666  27.887  33.269  1.00  0.00    -0.203 F 
ATOM     73  F   UNL A   1      49.414  28.496  29.350  1.00  0.00    -0.200 F 
ATOM     74  C   UNL A   1      48.795  27.646  31.464  1.00  0.00     0.200 A 
ATOM     75  F   UNL A   1      48.127  26.808  33.567  1.00  0.00    -0.200 F 
ATOM     76  F   UNL A   1      50.003  27.083  31.607  1.00  0.00    -0.200 F 
ENDBRANCH  52  66
BRANCH  53  77
ATOM     77  C   UNL A   1      37.071  32.641  30.345  1.00  0.00     0.064 A 
ATOM     78  C   UNL A   1      36.689  33.422  29.244  1.00  0.00     0.173 A 
ATOM     79  C   UNL A   1      36.123  32.436  31.358  1.00  0.00     0.173 A 
ATOM     80  F   UNL A   1      37.568  33.666  28.259  1.00  0.00    -0.203 F 
ATOM     81  C   UNL A   1      35.422  33.995  29.172  1.00  0.00     0.198 A 
ATOM     82  C   UNL A   1      34.845  32.984  31.269  1.00  0.00     0.198 A 
ATOM     83  F   UNL A   1      36.436  31.696  32.431  1.00  0.00    -0.203 F 
ATOM     84  F   UNL A   1      35.103  34.781  28.135  1.00  0.00    -0.200 F 
ATOM     85  C   UNL A   1      34.499  33.771  30.182  1.00  0.00     0.200 A 
ATOM     86  F   UNL A   1      33.951  32.752  32.240  1.00  0.00    -0.200 F 
ATOM     87  F   UNL A   1      33.279  34.321  30.112  1.00  0.00    -0.200 F 
ENDBRANCH  53  77
BRANCH  65  88
ATOM     88  C   UNL A   1      43.014  34.929  33.179  1.00  0.00     0.064 A 
ATOM     89  C   UNL A   1      43.002  35.025  34.578  1.00  0.00     0.173 A 
ATOM     90  C   UNL A   1      43.417  36.058  32.448  1.00  0.00     0.173 A 
ATOM     91  F   UNL A   1      42.610  33.981  35.323  1.00  0.00    -0.203 F 
ATOM     92  C   UNL A   1      43.350  36.213  35.217  1.00  0.00     0.198 A 
ATOM     93  C   UNL A   1      43.800  37.231  33.091  1.00  0.00     0.198 A 
ATOM     94  F   UNL A   1      43.455  36.019  31.107  1.00  0.00    -0.203 F 
ATOM     95  F   UNL A   1      43.280  36.297  36.553  1.00  0.00    -0.200 F 
ATOM     96  C   UNL A   1      43.758  37.310  34.475  1.00  0.00     0.200 A 
ATOM     97  F   UNL A   1      44.209  38.285  32.372  1.00  0.00    -0.200 F 
ATOM     98  F   UNL A   1      44.102  38.449  35.093  1.00  0.00    -0.200 F 
ENDBRANCH  65  88
ENDBRANCH  39  40
ENDBRANCH  31  34
ENDBRANCH  29  30
ENDBRANCH  28  29
ENDBRANCH   1  28
TORSDOF 15
ENDMDL
