MODEL 1
REMARK VINA RESULT:     -11.4      0.000      0.000
REMARK SMILES [NH3+]CCOCC(=O)Nc1cc(C(=O)NCCCCNC(=O)c2ccc(-c3c4nc(c(-c5c(F)c(F)c(F)c(F)c5F)c5ccc([nH]5)c(-c5c(F)c(F)c(F)c(F)c5F)c5nc(c(-c6c(F)c(F)c(F)c(F)c6F)c6ccc3[nH]6)C=C5)C=C4)cc2)ccc1Cl
REMARK SMILES IDX 12 1 13 2 14 3 11 5 9 6 10 7 87 8 86 9 88 10 85 11 8 12 6 13
REMARK SMILES IDX 7 14 5 16 4 17 3 18 2 19 1 20 15 24 16 25 17 26 18 27 19 28
REMARK SMILES IDX 20 29 21 31 22 32 23 33 84 34 24 35 83 36 25 37 26 38 27 39
REMARK SMILES IDX 77 40 28 41 82 42 76 43 78 44 29 45 81 46 75 47 74 48 30 50
REMARK SMILES IDX 62 51 42 52 61 53 43 54 46 55 60 56 79 57 44 58 45 59 59 61
REMARK SMILES IDX 80 62 47 63 31 64 32 65 40 66 33 67 34 68 38 69 41 70 35 71
REMARK SMILES IDX 36 72 39 73 37 74 63 75 64 76 72 77 65 78 66 79 70 80 73 81
REMARK SMILES IDX 67 82 68 83 71 84 69 85 48 86 49 87 57 88 50 89 51 90 55 91
REMARK SMILES IDX 58 92 52 93 53 94 56 95 54 96
REMARK H PARENT 14 4 8 15 1 21 1 22 1 23 19 30 78 49 46 60
REMARK Flexibility Score: inf
ROOT
ATOM      1  C   UNL A   1      33.675  28.622  26.315  1.00  0.00     0.251 C 
ATOM      2  O   UNL A   1      34.671  28.671  27.038  1.00  0.00    -0.269 OA
ATOM      3  N   UNL A   1      32.885  29.746  26.234  1.00  0.00    -0.352 N 
ATOM      4  H   UNL A   1      33.206  30.491  26.791  1.00  0.00     0.163 HD
ENDROOT
BRANCH   1   5
ATOM      5  C   UNL A   1      33.340  27.334  25.646  1.00  0.00     0.041 A 
ATOM      6  C   UNL A   1      33.633  25.877  23.739  1.00  0.00     0.060 A 
ATOM      7  C   UNL A   1      33.833  27.115  24.349  1.00  0.00     0.041 A 
ATOM      8  C   UNL A   1      33.198  24.804  24.522  1.00  0.00     0.064 A 
ATOM      9  C   UNL A   1      32.566  25.047  25.728  1.00  0.00     0.023 A 
ATOM     10  Cl  UNL A   1      33.624  23.177  24.133  1.00  0.00    -0.082 Cl
ATOM     11  C   UNL A   1      32.540  26.345  26.223  1.00  0.00     0.015 A 
BRANCH   6  12
ATOM     12  N   UNL A   1      33.779  25.776  22.347  1.00  0.00    -0.323 N 
ATOM     13  C   UNL A   1      32.738  25.764  21.439  1.00  0.00     0.250 C 
ATOM     14  O   UNL A   1      32.976  25.585  20.241  1.00  0.00    -0.272 OA
ATOM     15  H   UNL A   1      34.694  25.709  21.990  1.00  0.00     0.170 HD
BRANCH  13  16
ATOM     16  C   UNL A   1      31.297  26.117  21.909  1.00  0.00     0.260 C 
BRANCH  16  17
ATOM     17  O   UNL A   1      30.826  27.448  21.955  1.00  0.00    -0.366 OA
BRANCH  17  18
ATOM     18  C   UNL A   1      29.974  27.761  23.057  1.00  0.00     0.222 C 
BRANCH  18  19
ATOM     19  C   UNL A   1      29.518  26.539  23.858  1.00  0.00     0.287 C 
BRANCH  19  20
ATOM     20  N   UNL A   1      28.072  26.321  23.851  1.00  0.00    -0.356 N 
ATOM     21  H   UNL A   1      27.670  26.737  23.011  1.00  0.00     0.344 HD
ATOM     22  H   UNL A   1      27.660  26.755  24.677  1.00  0.00     0.344 HD
ATOM     23  H   UNL A   1      27.879  25.320  23.861  1.00  0.00     0.344 HD
ENDBRANCH  19  20
ENDBRANCH  18  19
ENDBRANCH  17  18
ENDBRANCH  16  17
ENDBRANCH  13  16
ENDBRANCH   6  12
ENDBRANCH   1   5
BRANCH   3  24
ATOM     24  C   UNL A   1      31.673  30.058  25.494  1.00  0.00     0.116 C 
BRANCH  24  25
ATOM     25  C   UNL A   1      31.083  31.427  25.798  1.00  0.00     0.023 C 
BRANCH  25  26
ATOM     26  C   UNL A   1      31.473  32.028  27.142  1.00  0.00     0.023 C 
BRANCH  26  27
ATOM     27  C   UNL A   1      32.640  33.008  27.114  1.00  0.00     0.116 C 
BRANCH  27  28
ATOM     28  N   UNL A   1      32.332  34.328  27.646  1.00  0.00    -0.352 N 
ATOM     29  C   UNL A   1      32.981  35.029  28.633  1.00  0.00     0.251 C 
ATOM     30  H   UNL A   1      31.553  34.778  27.244  1.00  0.00     0.163 HD
ATOM     31  O   UNL A   1      32.554  36.119  29.004  1.00  0.00    -0.269 OA
BRANCH  29  32
ATOM     32  C   UNL A   1      34.172  34.442  29.282  1.00  0.00     0.039 A 
ATOM     33  C   UNL A   1      33.998  33.675  30.436  1.00  0.00     0.014 A 
ATOM     34  C   UNL A   1      35.447  34.617  28.739  1.00  0.00     0.014 A 
ATOM     35  C   UNL A   1      35.096  33.033  31.010  1.00  0.00     0.010 A 
ATOM     36  C   UNL A   1      36.523  33.907  29.259  1.00  0.00     0.010 A 
ATOM     37  C   UNL A   1      36.363  33.120  30.408  1.00  0.00    -0.014 A 
BRANCH  37  38
ATOM     38  C   UNL A   1      37.532  32.416  30.991  1.00  0.00     0.031 A 
ATOM     39  C   UNL A   1      38.020  32.782  32.366  1.00  0.00     0.074 A 
ATOM     40  C   UNL A   1      38.174  31.475  30.273  1.00  0.00     0.049 A 
ATOM     41  N   UNL A   1      39.024  32.289  33.047  1.00  0.00    -0.248 NA
ATOM     42  C   UNL A   1      37.303  33.866  33.058  1.00  0.00     0.031 C 
ATOM     43  C   UNL A   1      37.834  31.075  28.906  1.00  0.00     0.029 A 
ATOM     44  N   UNL A   1      39.246  30.681  30.593  1.00  0.00    -0.354 N 
ATOM     45  C   UNL A   1      39.060  33.005  34.237  1.00  0.00     0.074 A 
ATOM     46  C   UNL A   1      38.027  34.014  34.156  1.00  0.00     0.031 C 
ATOM     47  C   UNL A   1      38.656  30.086  28.520  1.00  0.00     0.029 A 
ATOM     48  C   UNL A   1      39.597  29.801  29.598  1.00  0.00     0.049 A 
ATOM     49  H   UNL A   1      39.720  30.737  31.454  1.00  0.00     0.167 HD
ATOM     50  C   UNL A   1      39.856  32.816  35.315  1.00  0.00     0.037 A 
ATOM     51  C   UNL A   1      40.564  28.864  29.568  1.00  0.00     0.037 A 
ATOM     52  C   UNL A   1      40.864  31.794  35.404  1.00  0.00     0.049 A 
ATOM     53  C   UNL A   1      41.436  28.674  30.781  1.00  0.00     0.074 A 
ATOM     54  C   UNL A   1      41.691  31.485  36.470  1.00  0.00     0.029 A 
ATOM     55  N   UNL A   1      41.183  30.912  34.380  1.00  0.00    -0.354 N 
ATOM     56  N   UNL A   1      41.407  29.305  31.930  1.00  0.00    -0.248 NA
ATOM     57  C   UNL A   1      42.467  27.631  30.695  1.00  0.00     0.031 C 
ATOM     58  C   UNL A   1      42.538  30.443  36.076  1.00  0.00     0.029 A 
ATOM     59  C   UNL A   1      42.206  30.070  34.783  1.00  0.00     0.049 A 
ATOM     60  H   UNL A   1      40.746  30.889  33.498  1.00  0.00     0.167 HD
ATOM     61  C   UNL A   1      42.393  28.718  32.713  1.00  0.00     0.074 A 
ATOM     62  C   UNL A   1      42.986  27.665  31.913  1.00  0.00     0.031 C 
ATOM     63  C   UNL A   1      42.778  29.023  33.977  1.00  0.00     0.037 A 
BRANCH  50  64
ATOM     64  C   UNL A   1      39.651  33.724  36.493  1.00  0.00     0.064 A 
ATOM     65  C   UNL A   1      38.834  33.354  37.573  1.00  0.00     0.173 A 
ATOM     66  C   UNL A   1      40.296  34.968  36.558  1.00  0.00     0.173 A 
ATOM     67  F   UNL A   1      38.183  32.180  37.554  1.00  0.00    -0.203 F 
ATOM     68  C   UNL A   1      38.643  34.207  38.657  1.00  0.00     0.198 A 
ATOM     69  C   UNL A   1      40.129  35.805  37.660  1.00  0.00     0.198 A 
ATOM     70  F   UNL A   1      41.091  35.372  35.556  1.00  0.00    -0.203 F 
ATOM     71  F   UNL A   1      37.814  33.853  39.648  1.00  0.00    -0.200 F 
ATOM     72  C   UNL A   1      39.297  35.428  38.702  1.00  0.00     0.200 A 
ATOM     73  F   UNL A   1      40.771  36.981  37.708  1.00  0.00    -0.200 F 
ATOM     74  F   UNL A   1      39.118  36.246  39.748  1.00  0.00    -0.200 F 
ENDBRANCH  50  64
BRANCH  51  75
ATOM     75  C   UNL A   1      40.737  28.005  28.368  1.00  0.00     0.064 A 
ATOM     76  C   UNL A   1      40.135  26.740  28.298  1.00  0.00     0.173 A 
ATOM     77  C   UNL A   1      41.521  28.413  27.280  1.00  0.00     0.173 A 
ATOM     78  F   UNL A   1      39.391  26.296  29.321  1.00  0.00    -0.203 F 
ATOM     79  C   UNL A   1      40.333  25.906  27.199  1.00  0.00     0.198 A 
ATOM     80  C   UNL A   1      41.695  27.591  26.168  1.00  0.00     0.198 A 
ATOM     81  F   UNL A   1      42.115  29.615  27.293  1.00  0.00    -0.203 F 
ATOM     82  F   UNL A   1      39.790  24.682  27.184  1.00  0.00    -0.200 F 
ATOM     83  C   UNL A   1      41.110  26.334  26.133  1.00  0.00     0.200 A 
ATOM     84  F   UNL A   1      42.435  28.013  25.134  1.00  0.00    -0.200 F 
ATOM     85  F   UNL A   1      41.302  25.531  25.078  1.00  0.00    -0.200 F 
ENDBRANCH  51  75
BRANCH  63  86
ATOM     86  C   UNL A   1      43.868  28.188  34.581  1.00  0.00     0.064 A 
ATOM     87  C   UNL A   1      45.223  28.502  34.399  1.00  0.00     0.173 A 
ATOM     88  C   UNL A   1      43.552  27.072  35.372  1.00  0.00     0.173 A 
ATOM     89  F   UNL A   1      45.577  29.549  33.640  1.00  0.00    -0.203 F 
ATOM     90  C   UNL A   1      46.222  27.710  34.959  1.00  0.00     0.198 A 
ATOM     91  C   UNL A   1      44.553  26.302  35.956  1.00  0.00     0.198 A 
ATOM     92  F   UNL A   1      42.271  26.733  35.583  1.00  0.00    -0.203 F 
ATOM     93  F   UNL A   1      47.510  27.995  34.725  1.00  0.00    -0.200 F 
ATOM     94  C   UNL A   1      45.886  26.616  35.742  1.00  0.00     0.200 A 
ATOM     95  F   UNL A   1      44.227  25.253  36.725  1.00  0.00    -0.200 F 
ATOM     96  F   UNL A   1      46.849  25.856  36.282  1.00  0.00    -0.200 F 
ENDBRANCH  63  86
ENDBRANCH  37  38
ENDBRANCH  29  32
ENDBRANCH  27  28
ENDBRANCH  26  27
ENDBRANCH  25  26
ENDBRANCH  24  25
ENDBRANCH   3  24
TORSDOF 17
ENDMDL
MODEL 2
REMARK VINA RESULT:     -11.1      1.197      2.313
REMARK SMILES [NH3+]CCOCC(=O)Nc1cc(C(=O)NCCCCNC(=O)c2ccc(-c3c4nc(c(-c5c(F)c(F)c(F)c(F)c5F)c5ccc([nH]5)c(-c5c(F)c(F)c(F)c(F)c5F)c5nc(c(-c6c(F)c(F)c(F)c(F)c6F)c6ccc3[nH]6)C=C5)C=C4)cc2)ccc1Cl
REMARK SMILES IDX 12 1 13 2 14 3 11 5 9 6 10 7 87 8 86 9 88 10 85 11 8 12 6 13
REMARK SMILES IDX 7 14 5 16 4 17 3 18 2 19 1 20 15 24 16 25 17 26 18 27 19 28
REMARK SMILES IDX 20 29 21 31 22 32 23 33 84 34 24 35 83 36 25 37 26 38 27 39
REMARK SMILES IDX 77 40 28 41 82 42 76 43 78 44 29 45 81 46 75 47 74 48 30 50
REMARK SMILES IDX 62 51 42 52 61 53 43 54 46 55 60 56 79 57 44 58 45 59 59 61
REMARK SMILES IDX 80 62 47 63 31 64 32 65 40 66 33 67 34 68 38 69 41 70 35 71
REMARK SMILES IDX 36 72 39 73 37 74 63 75 64 76 72 77 65 78 66 79 70 80 73 81
REMARK SMILES IDX 67 82 68 83 71 84 69 85 48 86 49 87 57 88 50 89 51 90 55 91
REMARK SMILES IDX 58 92 52 93 53 94 56 95 54 96
REMARK H PARENT 14 4 8 15 1 21 1 22 1 23 19 30 78 49 46 60
REMARK Flexibility Score: inf
ROOT
ATOM      1  C   UNL A   1      33.182  28.607  23.932  1.00  0.00     0.251 C 
ATOM      2  O   UNL A   1      34.101  28.780  23.131  1.00  0.00    -0.269 OA
ATOM      3  N   UNL A   1      32.515  29.717  24.397  1.00  0.00    -0.352 N 
ATOM      4  H   UNL A   1      32.865  30.563  24.034  1.00  0.00     0.163 HD
ENDROOT
BRANCH   1   5
ATOM      5  C   UNL A   1      32.905  27.224  24.413  1.00  0.00     0.041 A 
ATOM      6  C   UNL A   1      33.766  25.169  25.353  1.00  0.00     0.060 A 
ATOM      7  C   UNL A   1      33.997  26.426  24.792  1.00  0.00     0.041 A 
ATOM      8  C   UNL A   1      32.473  24.849  25.777  1.00  0.00     0.064 A 
ATOM      9  C   UNL A   1      31.392  25.545  25.266  1.00  0.00     0.023 A 
ATOM     10  Cl  UNL A   1      32.202  23.760  27.087  1.00  0.00    -0.082 Cl
ATOM     11  C   UNL A   1      31.626  26.668  24.482  1.00  0.00     0.015 A 
BRANCH   6  12
ATOM     12  N   UNL A   1      34.814  24.236  25.380  1.00  0.00    -0.323 N 
ATOM     13  C   UNL A   1      34.927  23.145  24.541  1.00  0.00     0.250 C 
ATOM     14  O   UNL A   1      35.847  22.340  24.708  1.00  0.00    -0.272 OA
ATOM     15  H   UNL A   1      35.524  24.370  26.049  1.00  0.00     0.170 HD
BRANCH  13  16
ATOM     16  C   UNL A   1      33.985  23.016  23.309  1.00  0.00     0.260 C 
BRANCH  16  17
ATOM     17  O   UNL A   1      33.990  23.958  22.256  1.00  0.00    -0.366 OA
BRANCH  17  18
ATOM     18  C   UNL A   1      32.706  24.418  21.836  1.00  0.00     0.222 C 
BRANCH  18  19
ATOM     19  C   UNL A   1      32.741  25.732  21.050  1.00  0.00     0.287 C 
BRANCH  19  20
ATOM     20  N   UNL A   1      32.519  25.579  19.613  1.00  0.00    -0.356 N 
ATOM     21  H   UNL A   1      31.542  25.337  19.444  1.00  0.00     0.344 HD
ATOM     22  H   UNL A   1      33.119  24.837  19.254  1.00  0.00     0.344 HD
ATOM     23  H   UNL A   1      32.739  26.455  19.140  1.00  0.00     0.344 HD
ENDBRANCH  19  20
ENDBRANCH  18  19
ENDBRANCH  17  18
ENDBRANCH  16  17
ENDBRANCH  13  16
ENDBRANCH   6  12
ENDBRANCH   1   5
BRANCH   3  24
ATOM     24  C   UNL A   1      31.401  29.899  25.313  1.00  0.00     0.116 C 
BRANCH  24  25
ATOM     25  C   UNL A   1      31.787  30.462  26.672  1.00  0.00     0.023 C 
BRANCH  25  26
ATOM     26  C   UNL A   1      31.498  31.944  26.876  1.00  0.00     0.023 C 
BRANCH  26  27
ATOM     27  C   UNL A   1      32.718  32.829  27.103  1.00  0.00     0.116 C 
BRANCH  27  28
ATOM     28  N   UNL A   1      32.412  34.153  27.625  1.00  0.00    -0.352 N 
ATOM     29  C   UNL A   1      33.047  34.851  28.623  1.00  0.00     0.251 C 
ATOM     30  H   UNL A   1      31.647  34.610  27.205  1.00  0.00     0.163 HD
ATOM     31  O   UNL A   1      32.624  35.946  28.981  1.00  0.00    -0.269 OA
BRANCH  29  32
ATOM     32  C   UNL A   1      34.218  34.254  29.299  1.00  0.00     0.039 A 
ATOM     33  C   UNL A   1      34.004  33.289  30.286  1.00  0.00     0.014 A 
ATOM     34  C   UNL A   1      35.519  34.617  28.940  1.00  0.00     0.014 A 
ATOM     35  C   UNL A   1      35.095  32.644  30.868  1.00  0.00     0.010 A 
ATOM     36  C   UNL A   1      36.600  33.912  29.456  1.00  0.00     0.010 A 
ATOM     37  C   UNL A   1      36.402  32.929  30.436  1.00  0.00    -0.014 A 
BRANCH  37  38
ATOM     38  C   UNL A   1      37.568  32.227  31.026  1.00  0.00     0.031 A 
ATOM     39  C   UNL A   1      38.047  32.592  32.405  1.00  0.00     0.074 A 
ATOM     40  C   UNL A   1      38.217  31.288  30.310  1.00  0.00     0.049 A 
ATOM     41  N   UNL A   1      39.047  32.100  33.091  1.00  0.00    -0.248 NA
ATOM     42  C   UNL A   1      37.324  33.674  33.093  1.00  0.00     0.031 C 
ATOM     43  C   UNL A   1      37.887  30.890  28.941  1.00  0.00     0.029 A 
ATOM     44  N   UNL A   1      39.288  30.496  30.637  1.00  0.00    -0.354 N 
ATOM     45  C   UNL A   1      39.074  32.814  34.282  1.00  0.00     0.074 A 
ATOM     46  C   UNL A   1      38.040  33.822  34.196  1.00  0.00     0.031 C 
ATOM     47  C   UNL A   1      38.713  29.902  28.559  1.00  0.00     0.029 A 
ATOM     48  C   UNL A   1      39.648  29.617  29.643  1.00  0.00     0.049 A 
ATOM     49  H   UNL A   1      39.757  30.552  31.501  1.00  0.00     0.167 HD
ATOM     50  C   UNL A   1      39.863  32.626  35.366  1.00  0.00     0.037 A 
ATOM     51  C   UNL A   1      40.617  28.683  29.618  1.00  0.00     0.037 A 
ATOM     52  C   UNL A   1      40.874  31.606  35.459  1.00  0.00     0.049 A 
ATOM     53  C   UNL A   1      41.482  28.493  30.836  1.00  0.00     0.074 A 
ATOM     54  C   UNL A   1      41.693  31.297  36.530  1.00  0.00     0.029 A 
ATOM     55  N   UNL A   1      41.201  30.726  34.437  1.00  0.00    -0.354 N 
ATOM     56  N   UNL A   1      41.444  29.122  31.986  1.00  0.00    -0.248 NA
ATOM     57  C   UNL A   1      42.515  27.452  30.756  1.00  0.00     0.031 C 
ATOM     58  C   UNL A   1      42.545  30.257  36.141  1.00  0.00     0.029 A 
ATOM     59  C   UNL A   1      42.223  29.885  34.846  1.00  0.00     0.049 A 
ATOM     60  H   UNL A   1      40.769  30.703  33.552  1.00  0.00     0.167 HD
ATOM     61  C   UNL A   1      42.426  28.536  32.774  1.00  0.00     0.074 A 
ATOM     62  C   UNL A   1      43.026  27.485  31.978  1.00  0.00     0.031 C 
ATOM     63  C   UNL A   1      42.801  28.841  34.041  1.00  0.00     0.037 A 
BRANCH  50  64
ATOM     64  C   UNL A   1      39.650  33.532  36.543  1.00  0.00     0.064 A 
ATOM     65  C   UNL A   1      38.809  33.168  37.608  1.00  0.00     0.173 A 
ATOM     66  C   UNL A   1      40.308  34.768  36.624  1.00  0.00     0.173 A 
ATOM     67  F   UNL A   1      38.145  32.002  37.573  1.00  0.00    -0.203 F 
ATOM     68  C   UNL A   1      38.610  34.020  38.691  1.00  0.00     0.198 A 
ATOM     69  C   UNL A   1      40.132  35.604  37.725  1.00  0.00     0.198 A 
ATOM     70  F   UNL A   1      41.125  35.166  35.637  1.00  0.00    -0.203 F 
ATOM     71  F   UNL A   1      37.760  33.672  39.667  1.00  0.00    -0.200 F 
ATOM     72  C   UNL A   1      39.278  35.233  38.752  1.00  0.00     0.200 A 
ATOM     73  F   UNL A   1      40.787  36.771  37.789  1.00  0.00    -0.200 F 
ATOM     74  F   UNL A   1      39.090  36.049  39.798  1.00  0.00    -0.200 F 
ENDBRANCH  50  64
BRANCH  51  75
ATOM     75  C   UNL A   1      40.799  27.825  28.418  1.00  0.00     0.064 A 
ATOM     76  C   UNL A   1      41.620  28.238  27.358  1.00  0.00     0.173 A 
ATOM     77  C   UNL A   1      40.146  26.592  28.292  1.00  0.00     0.173 A 
ATOM     78  F   UNL A   1      42.251  29.420  27.422  1.00  0.00    -0.203 F 
ATOM     79  C   UNL A   1      41.756  27.465  26.207  1.00  0.00     0.198 A 
ATOM     80  C   UNL A   1      40.306  25.804  27.153  1.00  0.00     0.198 A 
ATOM     81  F   UNL A   1      39.355  26.146  29.279  1.00  0.00    -0.203 F 
ATOM     82  F   UNL A   1      42.502  27.911  25.188  1.00  0.00    -0.200 F 
ATOM     83  C   UNL A   1      41.102  26.246  26.107  1.00  0.00     0.200 A 
ATOM     84  F   UNL A   1      39.684  24.621  27.066  1.00  0.00    -0.200 F 
ATOM     85  F   UNL A   1      41.232  25.504  25.000  1.00  0.00    -0.200 F 
ENDBRANCH  51  75
BRANCH  63  86
ATOM     86  C   UNL A   1      43.890  28.007  34.651  1.00  0.00     0.064 A 
ATOM     87  C   UNL A   1      43.610  26.806  35.320  1.00  0.00     0.173 A 
ATOM     88  C   UNL A   1      45.232  28.403  34.544  1.00  0.00     0.173 A 
ATOM     89  F   UNL A   1      42.343  26.392  35.462  1.00  0.00    -0.203 F 
ATOM     90  C   UNL A   1      44.631  26.049  35.888  1.00  0.00     0.198 A 
ATOM     91  C   UNL A   1      46.253  27.627  35.085  1.00  0.00     0.198 A 
ATOM     92  F   UNL A   1      45.554  29.539  33.907  1.00  0.00    -0.203 F 
ATOM     93  F   UNL A   1      44.336  24.936  36.572  1.00  0.00    -0.200 F 
ATOM     94  C   UNL A   1      45.951  26.456  35.764  1.00  0.00     0.200 A 
ATOM     95  F   UNL A   1      47.529  28.014  34.952  1.00  0.00    -0.200 F 
ATOM     96  F   UNL A   1      46.933  25.726  36.310  1.00  0.00    -0.200 F 
ENDBRANCH  63  86
ENDBRANCH  37  38
ENDBRANCH  29  32
ENDBRANCH  27  28
ENDBRANCH  26  27
ENDBRANCH  25  26
ENDBRANCH  24  25
ENDBRANCH   3  24
TORSDOF 17
ENDMDL
MODEL 3
REMARK VINA RESULT:     -11.0      3.166      4.630
REMARK SMILES [NH3+]CCOCC(=O)Nc1cc(C(=O)NCCCCNC(=O)c2ccc(-c3c4nc(c(-c5c(F)c(F)c(F)c(F)c5F)c5ccc([nH]5)c(-c5c(F)c(F)c(F)c(F)c5F)c5nc(c(-c6c(F)c(F)c(F)c(F)c6F)c6ccc3[nH]6)C=C5)C=C4)cc2)ccc1Cl
REMARK SMILES IDX 12 1 13 2 14 3 11 5 9 6 10 7 87 8 86 9 88 10 85 11 8 12 6 13
REMARK SMILES IDX 7 14 5 16 4 17 3 18 2 19 1 20 15 24 16 25 17 26 18 27 19 28
REMARK SMILES IDX 20 29 21 31 22 32 23 33 84 34 24 35 83 36 25 37 26 38 27 39
REMARK SMILES IDX 77 40 28 41 82 42 76 43 78 44 29 45 81 46 75 47 74 48 30 50
REMARK SMILES IDX 62 51 42 52 61 53 43 54 46 55 60 56 79 57 44 58 45 59 59 61
REMARK SMILES IDX 80 62 47 63 31 64 32 65 40 66 33 67 34 68 38 69 41 70 35 71
REMARK SMILES IDX 36 72 39 73 37 74 63 75 64 76 72 77 65 78 66 79 70 80 73 81
REMARK SMILES IDX 67 82 68 83 71 84 69 85 48 86 49 87 57 88 50 89 51 90 55 91
REMARK SMILES IDX 58 92 52 93 53 94 56 95 54 96
REMARK H PARENT 14 4 8 15 1 21 1 22 1 23 19 30 78 49 46 60
REMARK Flexibility Score: inf
ROOT
ATOM      1  C   UNL A   1      33.445  23.754  22.441  1.00  0.00     0.251 C 
ATOM      2  O   UNL A   1      33.336  23.378  21.274  1.00  0.00    -0.269 OA
ATOM      3  N   UNL A   1      32.836  24.937  22.795  1.00  0.00    -0.352 N 
ATOM      4  H   UNL A   1      32.371  25.376  22.047  1.00  0.00     0.163 HD
ENDROOT
BRANCH   1   5
ATOM      5  C   UNL A   1      34.295  22.960  23.372  1.00  0.00     0.041 A 
ATOM      6  C   UNL A   1      34.515  21.017  24.794  1.00  0.00     0.060 A 
ATOM      7  C   UNL A   1      33.718  21.847  24.006  1.00  0.00     0.041 A 
ATOM      8  C   UNL A   1      35.905  21.146  24.716  1.00  0.00     0.064 A 
ATOM      9  C   UNL A   1      36.458  22.320  24.237  1.00  0.00     0.023 A 
ATOM     10  Cl  UNL A   1      36.949  19.800  24.991  1.00  0.00    -0.082 Cl
ATOM     11  C   UNL A   1      35.621  23.275  23.673  1.00  0.00     0.015 A 
BRANCH   6  12
ATOM     12  N   UNL A   1      33.896  20.153  25.711  1.00  0.00    -0.323 N 
ATOM     13  C   UNL A   1      33.091  19.083  25.372  1.00  0.00     0.250 C 
ATOM     14  O   UNL A   1      32.527  18.439  26.262  1.00  0.00    -0.272 OA
ATOM     15  H   UNL A   1      34.047  20.322  26.669  1.00  0.00     0.170 HD
BRANCH  13  16
ATOM     16  C   UNL A   1      33.015  18.609  23.892  1.00  0.00     0.260 C 
BRANCH  16  17
ATOM     17  O   UNL A   1      33.150  17.250  23.530  1.00  0.00    -0.366 OA
BRANCH  17  18
ATOM     18  C   UNL A   1      34.452  16.692  23.708  1.00  0.00     0.222 C 
BRANCH  18  19
ATOM     19  C   UNL A   1      34.615  15.892  25.003  1.00  0.00     0.287 C 
BRANCH  19  20
ATOM     20  N   UNL A   1      35.833  16.200  25.751  1.00  0.00    -0.356 N 
ATOM     21  H   UNL A   1      35.648  16.963  26.403  1.00  0.00     0.344 HD
ATOM     22  H   UNL A   1      36.569  16.477  25.102  1.00  0.00     0.344 HD
ATOM     23  H   UNL A   1      36.130  15.374  26.270  1.00  0.00     0.344 HD
ENDBRANCH  19  20
ENDBRANCH  18  19
ENDBRANCH  17  18
ENDBRANCH  16  17
ENDBRANCH  13  16
ENDBRANCH   6  12
ENDBRANCH   1   5
BRANCH   3  24
ATOM     24  C   UNL A   1      32.738  25.671  24.046  1.00  0.00     0.116 C 
BRANCH  24  25
ATOM     25  C   UNL A   1      33.536  26.966  24.083  1.00  0.00     0.023 C 
BRANCH  25  26
ATOM     26  C   UNL A   1      32.846  28.143  24.760  1.00  0.00     0.023 C 
BRANCH  26  27
ATOM     27  C   UNL A   1      33.762  29.098  25.517  1.00  0.00     0.116 C 
BRANCH  27  28
ATOM     28  N   UNL A   1      33.124  30.339  25.934  1.00  0.00    -0.352 N 
ATOM     29  C   UNL A   1      33.486  31.192  26.949  1.00  0.00     0.251 C 
ATOM     30  H   UNL A   1      32.327  30.602  25.419  1.00  0.00     0.163 HD
ATOM     31  O   UNL A   1      32.801  32.178  27.204  1.00  0.00    -0.269 OA
BRANCH  29  32
ATOM     32  C   UNL A   1      34.681  30.890  27.764  1.00  0.00     0.039 A 
ATOM     33  C   UNL A   1      34.737  29.673  28.447  1.00  0.00     0.014 A 
ATOM     34  C   UNL A   1      35.753  31.784  27.828  1.00  0.00     0.014 A 
ATOM     35  C   UNL A   1      35.895  29.326  29.145  1.00  0.00     0.010 A 
ATOM     36  C   UNL A   1      36.936  31.400  28.449  1.00  0.00     0.010 A 
ATOM     37  C   UNL A   1      37.015  30.174  29.126  1.00  0.00    -0.014 A 
BRANCH  37  38
ATOM     38  C   UNL A   1      38.263  29.802  29.837  1.00  0.00     0.031 A 
ATOM     39  C   UNL A   1      38.540  30.355  31.209  1.00  0.00     0.074 A 
ATOM     40  C   UNL A   1      39.161  28.997  29.238  1.00  0.00     0.049 A 
ATOM     41  N   UNL A   1      39.571  30.155  31.990  1.00  0.00    -0.248 NA
ATOM     42  C   UNL A   1      37.539  31.280  31.764  1.00  0.00     0.031 C 
ATOM     43  C   UNL A   1      39.036  28.446  27.887  1.00  0.00     0.029 A 
ATOM     44  N   UNL A   1      40.357  28.498  29.689  1.00  0.00    -0.354 N 
ATOM     45  C   UNL A   1      39.343  30.930  33.120  1.00  0.00     0.074 A 
ATOM     46  C   UNL A   1      38.116  31.661  32.893  1.00  0.00     0.031 C 
ATOM     47  C   UNL A   1      40.091  27.655  27.635  1.00  0.00     0.029 A 
ATOM     48  C   UNL A   1      40.982  27.666  28.792  1.00  0.00     0.049 A 
ATOM     49  H   UNL A   1      40.733  28.716  30.573  1.00  0.00     0.167 HD
ATOM     50  C   UNL A   1      40.070  31.000  34.260  1.00  0.00     0.037 A 
ATOM     51  C   UNL A   1      42.137  26.983  28.899  1.00  0.00     0.037 A 
ATOM     52  C   UNL A   1      41.276  30.251  34.494  1.00  0.00     0.049 A 
ATOM     53  C   UNL A   1      42.927  27.078  30.177  1.00  0.00     0.074 A 
ATOM     54  C   UNL A   1      42.061  30.211  35.632  1.00  0.00     0.029 A 
ATOM     55  N   UNL A   1      41.872  29.409  33.566  1.00  0.00    -0.354 N 
ATOM     56  N   UNL A   1      42.660  27.753  31.269  1.00  0.00    -0.248 NA
ATOM     57  C   UNL A   1      44.174  26.303  30.241  1.00  0.00     0.031 C 
ATOM     58  C   UNL A   1      43.154  29.375  35.378  1.00  0.00     0.029 A 
ATOM     59  C   UNL A   1      43.025  28.857  34.100  1.00  0.00     0.049 A 
ATOM     60  H   UNL A   1      41.525  29.229  32.662  1.00  0.00     0.167 HD
ATOM     61  C   UNL A   1      43.686  27.463  32.158  1.00  0.00     0.074 A 
ATOM     62  C   UNL A   1      44.569  26.532  31.484  1.00  0.00     0.031 C 
ATOM     63  C   UNL A   1      43.886  27.927  33.417  1.00  0.00     0.037 A 
BRANCH  50  64
ATOM     64  C   UNL A   1      39.567  31.905  35.347  1.00  0.00     0.064 A 
ATOM     65  C   UNL A   1      39.984  33.242  35.441  1.00  0.00     0.173 A 
ATOM     66  C   UNL A   1      38.640  31.441  36.293  1.00  0.00     0.173 A 
ATOM     67  F   UNL A   1      40.879  33.732  34.569  1.00  0.00    -0.203 F 
ATOM     68  C   UNL A   1      39.518  34.071  36.458  1.00  0.00     0.198 A 
ATOM     69  C   UNL A   1      38.152  32.283  37.290  1.00  0.00     0.198 A 
ATOM     70  F   UNL A   1      38.205  30.173  36.249  1.00  0.00    -0.203 F 
ATOM     71  F   UNL A   1      39.974  35.327  36.558  1.00  0.00    -0.200 F 
ATOM     72  C   UNL A   1      38.597  33.592  37.376  1.00  0.00     0.200 A 
ATOM     73  F   UNL A   1      37.252  31.822  38.170  1.00  0.00    -0.200 F 
ATOM     74  F   UNL A   1      38.145  34.393  38.351  1.00  0.00    -0.200 F 
ENDBRANCH  50  64
BRANCH  51  75
ATOM     75  C   UNL A   1      42.601  26.117  27.783  1.00  0.00     0.064 A 
ATOM     76  C   UNL A   1      43.559  26.576  26.868  1.00  0.00     0.173 A 
ATOM     77  C   UNL A   1      42.086  24.827  27.593  1.00  0.00     0.173 A 
ATOM     78  F   UNL A   1      44.069  27.810  26.996  1.00  0.00    -0.203 F 
ATOM     79  C   UNL A   1      43.962  25.791  25.789  1.00  0.00     0.198 A 
ATOM     80  C   UNL A   1      42.511  24.031  26.532  1.00  0.00     0.198 A 
ATOM     81  F   UNL A   1      41.171  24.337  28.443  1.00  0.00    -0.203 F 
ATOM     82  F   UNL A   1      44.838  26.277  24.900  1.00  0.00    -0.200 F 
ATOM     83  C   UNL A   1      43.440  24.517  25.625  1.00  0.00     0.200 A 
ATOM     84  F   UNL A   1      42.015  22.795  26.383  1.00  0.00    -0.200 F 
ATOM     85  F   UNL A   1      43.826  23.763  24.587  1.00  0.00    -0.200 F 
ENDBRANCH  51  75
BRANCH  63  86
ATOM     86  C   UNL A   1      45.086  27.409  34.154  1.00  0.00     0.064 A 
ATOM     87  C   UNL A   1      46.329  28.055  34.084  1.00  0.00     0.173 A 
ATOM     88  C   UNL A   1      44.984  26.265  34.962  1.00  0.00     0.173 A 
ATOM     89  F   UNL A   1      46.481  29.143  33.314  1.00  0.00    -0.203 F 
ATOM     90  C   UNL A   1      47.434  27.556  34.767  1.00  0.00     0.198 A 
ATOM     91  C   UNL A   1      46.083  25.789  35.670  1.00  0.00     0.198 A 
ATOM     92  F   UNL A   1      43.815  25.616  35.071  1.00  0.00    -0.203 F 
ATOM     93  F   UNL A   1      48.625  28.156  34.639  1.00  0.00    -0.200 F 
ATOM     94  C   UNL A   1      47.309  26.428  35.564  1.00  0.00     0.200 A 
ATOM     95  F   UNL A   1      45.957  24.707  36.452  1.00  0.00    -0.200 F 
ATOM     96  F   UNL A   1      48.373  25.950  36.224  1.00  0.00    -0.200 F 
ENDBRANCH  63  86
ENDBRANCH  37  38
ENDBRANCH  29  32
ENDBRANCH  27  28
ENDBRANCH  26  27
ENDBRANCH  25  26
ENDBRANCH  24  25
ENDBRANCH   3  24
TORSDOF 17
ENDMDL
