MODEL 1
REMARK VINA RESULT:     -13.0      0.000      0.000
REMARK SMILES O=C(NCCCCNC(=O)[C@@H]1CC=CC[C@@H]1C(=O)Nc1ccc(Br)cc1Cl)c1ccc(-c2c3nc(c(-c4c(F)c(F)c(F)c(F)c4F)c4ccc([nH]4)c(-c4c(F)c(F)c(F)c(F)c4F)c4nc(c(-c5c(F)c(F)c(F)c(F)c5F)c5ccc2[nH]5)C=C4)C=C3)cc1
REMARK SMILES IDX 5 1 4 2 3 3 1 4 2 5 28 7 29 8 90 9 30 10 89 11 31 12 32 13
REMARK SMILES IDX 33 14 83 15 34 16 88 17 82 18 84 19 35 20 87 21 81 22 80 23
REMARK SMILES IDX 36 25 68 26 48 27 67 28 49 29 52 30 66 31 85 32 50 33 51 34
REMARK SMILES IDX 65 36 86 37 53 38 37 39 38 40 46 41 39 42 40 43 44 44 47 45
REMARK SMILES IDX 41 46 42 47 45 48 43 49 69 50 70 51 78 52 71 53 72 54 76 55
REMARK SMILES IDX 79 56 73 57 74 58 77 59 75 60 54 61 55 62 63 63 56 64 57 65
REMARK SMILES IDX 61 66 64 67 58 68 59 69 62 70 60 71 6 72 7 73 8 74 9 75
REMARK SMILES IDX 10 77 11 78 12 79 16 80 13 81 15 82 14 83 17 84 18 85 19 86
REMARK SMILES IDX 20 88 21 89 26 90 22 91 25 92 27 93 23 94 24 95
REMARK H PARENT 3 6 84 24 52 35 8 76 19 87
REMARK Flexibility Score: inf
ROOT
ATOM      1  C   UNL A   1      31.285  32.113  26.499  1.00  0.00     0.023 C 
ENDROOT
BRANCH   1   2
ATOM      2  C   UNL A   1      32.505  32.682  27.211  1.00  0.00     0.116 C 
BRANCH   2   3
ATOM      3  N   UNL A   1      32.348  34.064  27.626  1.00  0.00    -0.352 N 
ATOM      4  O   UNL A   1      32.735  35.932  28.828  1.00  0.00    -0.269 OA
ATOM      5  C   UNL A   1      33.074  34.792  28.543  1.00  0.00     0.251 C 
ATOM      6  H   UNL A   1      31.615  34.554  27.187  1.00  0.00     0.163 HD
BRANCH   5   7
ATOM      7  C   UNL A   1      34.244  34.180  29.216  1.00  0.00     0.039 A 
ATOM      8  C   UNL A   1      35.548  34.465  28.807  1.00  0.00     0.014 A 
ATOM      9  C   UNL A   1      34.025  33.304  30.284  1.00  0.00     0.014 A 
ATOM     10  C   UNL A   1      36.616  33.761  29.355  1.00  0.00     0.010 A 
ATOM     11  C   UNL A   1      35.107  32.662  30.895  1.00  0.00     0.010 A 
ATOM     12  C   UNL A   1      36.409  32.860  30.411  1.00  0.00    -0.014 A 
BRANCH  12  13
ATOM     13  C   UNL A   1      37.577  32.182  31.030  1.00  0.00     0.031 A 
ATOM     14  C   UNL A   1      38.029  32.520  32.423  1.00  0.00     0.074 A 
ATOM     15  C   UNL A   1      38.216  31.227  30.326  1.00  0.00     0.049 A 
ATOM     16  N   UNL A   1      39.016  32.008  33.116  1.00  0.00    -0.248 NA
ATOM     17  C   UNL A   1      37.286  33.573  33.129  1.00  0.00     0.031 C 
ATOM     18  C   UNL A   1      37.877  30.822  28.961  1.00  0.00     0.029 A 
ATOM     19  N   UNL A   1      39.269  30.415  30.661  1.00  0.00    -0.354 N 
ATOM     20  C   UNL A   1      39.022  32.684  34.329  1.00  0.00     0.074 A 
ATOM     21  C   UNL A   1      37.958  33.664  34.269  1.00  0.00     0.031 C 
ATOM     22  C   UNL A   1      38.676  29.812  28.590  1.00  0.00     0.029 A 
ATOM     23  C   UNL A   1      39.620  29.536  29.667  1.00  0.00     0.049 A 
ATOM     24  H   UNL A   1      39.729  30.459  31.531  1.00  0.00     0.167 HD
ATOM     25  C   UNL A   1      39.837  32.497  35.396  1.00  0.00     0.037 A 
ATOM     26  C   UNL A   1      40.603  28.619  29.619  1.00  0.00     0.037 A 
ATOM     27  C   UNL A   1      40.885  31.509  35.457  1.00  0.00     0.049 A 
ATOM     28  C   UNL A   1      41.502  28.449  30.808  1.00  0.00     0.074 A 
ATOM     29  C   UNL A   1      41.734  31.215  36.510  1.00  0.00     0.029 A 
ATOM     30  N   UNL A   1      41.230  30.656  34.418  1.00  0.00    -0.354 N 
ATOM     31  N   UNL A   1      41.473  29.069  31.962  1.00  0.00    -0.248 NA
ATOM     32  C   UNL A   1      42.575  27.453  30.687  1.00  0.00     0.031 C 
ATOM     33  C   UNL A   1      42.622  30.217  36.094  1.00  0.00     0.029 A 
ATOM     34  C   UNL A   1      42.295  29.854  34.797  1.00  0.00     0.049 A 
ATOM     35  H   UNL A   1      40.783  30.625  33.541  1.00  0.00     0.167 HD
ATOM     36  C   UNL A   1      42.510  28.532  32.709  1.00  0.00     0.074 A 
ATOM     37  C   UNL A   1      43.137  27.518  31.885  1.00  0.00     0.031 C 
ATOM     38  C   UNL A   1      42.910  28.853  33.963  1.00  0.00     0.037 A 
BRANCH  25  39
ATOM     39  C   UNL A   1      39.643  33.389  36.588  1.00  0.00     0.064 A 
ATOM     40  C   UNL A   1      40.279  34.636  36.689  1.00  0.00     0.173 A 
ATOM     41  C   UNL A   1      38.764  33.017  37.618  1.00  0.00     0.173 A 
ATOM     42  F   UNL A   1      41.134  35.036  35.737  1.00  0.00    -0.203 F 
ATOM     43  C   UNL A   1      40.059  35.466  37.787  1.00  0.00     0.198 A 
ATOM     44  C   UNL A   1      38.527  33.861  38.701  1.00  0.00     0.198 A 
ATOM     45  F   UNL A   1      38.124  31.839  37.567  1.00  0.00    -0.203 F 
ATOM     46  F   UNL A   1      40.707  36.635  37.881  1.00  0.00    -0.200 F 
ATOM     47  C   UNL A   1      39.179  35.081  38.786  1.00  0.00     0.200 A 
ATOM     48  F   UNL A   1      37.666  33.492  39.659  1.00  0.00    -0.200 F 
ATOM     49  F   UNL A   1      38.961  35.885  39.836  1.00  0.00    -0.200 F 
ENDBRANCH  25  39
BRANCH  26  50
ATOM     50  C   UNL A   1      40.779  27.797  28.395  1.00  0.00     0.064 A 
ATOM     51  C   UNL A   1      41.591  28.235  27.342  1.00  0.00     0.173 A 
ATOM     52  C   UNL A   1      40.155  26.547  28.265  1.00  0.00     0.173 A 
ATOM     53  F   UNL A   1      42.193  29.432  27.412  1.00  0.00    -0.203 F 
ATOM     54  C   UNL A   1      41.763  27.459  26.197  1.00  0.00     0.198 A 
ATOM     55  C   UNL A   1      40.352  25.759  27.134  1.00  0.00     0.198 A 
ATOM     56  F   UNL A   1      39.372  26.082  29.249  1.00  0.00    -0.203 F 
ATOM     57  F   UNL A   1      42.515  27.917  25.187  1.00  0.00    -0.200 F 
ATOM     58  C   UNL A   1      41.150  26.219  26.098  1.00  0.00     0.200 A 
ATOM     59  F   UNL A   1      39.771  24.555  27.050  1.00  0.00    -0.200 F 
ATOM     60  F   UNL A   1      41.325  25.469  25.001  1.00  0.00    -0.200 F 
ENDBRANCH  26  50
BRANCH  38  61
ATOM     61  C   UNL A   1      44.071  28.085  34.525  1.00  0.00     0.064 A 
ATOM     62  C   UNL A   1      45.387  28.556  34.408  1.00  0.00     0.173 A 
ATOM     63  C   UNL A   1      43.862  26.877  35.206  1.00  0.00     0.173 A 
ATOM     64  F   UNL A   1      45.639  29.698  33.749  1.00  0.00    -0.203 F 
ATOM     65  C   UNL A   1      46.454  27.832  34.931  1.00  0.00     0.198 A 
ATOM     66  C   UNL A   1      44.929  26.169  35.752  1.00  0.00     0.198 A 
ATOM     67  F   UNL A   1      42.622  26.386  35.349  1.00  0.00    -0.203 F 
ATOM     68  F   UNL A   1      47.708  28.275  34.764  1.00  0.00    -0.200 F 
ATOM     69  C   UNL A   1      46.224  26.643  35.607  1.00  0.00     0.200 A 
ATOM     70  F   UNL A   1      44.704  25.026  36.414  1.00  0.00    -0.200 F 
ATOM     71  F   UNL A   1      47.253  25.948  36.111  1.00  0.00    -0.200 F 
ENDBRANCH  38  61
ENDBRANCH  12  13
ENDBRANCH   5   7
ENDBRANCH   2   3
ENDBRANCH   1   2
BRANCH   1  72
ATOM     72  C   UNL A   1      31.415  30.679  25.992  1.00  0.00     0.023 C 
BRANCH  72  73
ATOM     73  C   UNL A   1      32.790  30.037  26.144  1.00  0.00     0.116 C 
BRANCH  73  74
ATOM     74  N   UNL A   1      33.346  29.530  24.904  1.00  0.00    -0.356 N 
ATOM     75  C   UNL A   1      33.514  28.257  24.446  1.00  0.00     0.224 C 
ATOM     76  H   UNL A   1      33.658  30.228  24.284  1.00  0.00     0.163 HD
ATOM     77  O   UNL A   1      34.105  28.117  23.375  1.00  0.00    -0.275 OA
BRANCH  75  78
ATOM     78  C   UNL A   1      33.099  27.077  25.312  1.00  0.00     0.095 C 
ATOM     79  C   UNL A   1      34.073  25.884  25.138  1.00  0.00     0.041 C 
ATOM     80  C   UNL A   1      31.629  26.569  25.181  1.00  0.00     0.095 C 
ATOM     81  C   UNL A   1      33.642  24.666  25.914  1.00  0.00    -0.030 C 
ATOM     82  C   UNL A   1      31.437  25.683  26.427  1.00  0.00     0.041 C 
ATOM     83  C   UNL A   1      32.452  24.584  26.526  1.00  0.00    -0.030 C 
BRANCH  80  84
ATOM     84  C   UNL A   1      31.390  25.979  23.773  1.00  0.00     0.228 C 
ATOM     85  O   UNL A   1      31.903  24.895  23.467  1.00  0.00    -0.274 OA
ATOM     86  N   UNL A   1      30.653  26.568  22.790  1.00  0.00    -0.324 N 
ATOM     87  H   UNL A   1      30.546  26.024  21.977  1.00  0.00     0.169 HD
BRANCH  86  88
ATOM     88  C   UNL A   1      30.024  27.814  22.745  1.00  0.00     0.060 A 
ATOM     89  C   UNL A   1      30.795  28.877  22.262  1.00  0.00     0.029 A 
ATOM     90  C   UNL A   1      28.690  28.040  23.126  1.00  0.00     0.065 A 
ATOM     91  C   UNL A   1      30.200  30.115  22.018  1.00  0.00     0.018 A 
ATOM     92  C   UNL A   1      28.101  29.285  22.897  1.00  0.00     0.038 A 
ATOM     93  Cl  UNL A   1      27.733  26.813  23.876  1.00  0.00    -0.082 Cl
ATOM     94  C   UNL A   1      28.852  30.304  22.312  1.00  0.00     0.019 A 
ATOM     95  Br  UNL A   1      28.028  31.950  21.885  1.00  0.00    -0.051 Br
ENDBRANCH  86  88
ENDBRANCH  80  84
ENDBRANCH  75  78
ENDBRANCH  73  74
ENDBRANCH  72  73
ENDBRANCH   1  72
TORSDOF 13
ENDMDL
MODEL 2
REMARK VINA RESULT:     -13.0      0.114      1.125
REMARK SMILES O=C(NCCCCNC(=O)[C@@H]1CC=CC[C@@H]1C(=O)Nc1ccc(Br)cc1Cl)c1ccc(-c2c3nc(c(-c4c(F)c(F)c(F)c(F)c4F)c4ccc([nH]4)c(-c4c(F)c(F)c(F)c(F)c4F)c4nc(c(-c5c(F)c(F)c(F)c(F)c5F)c5ccc2[nH]5)C=C4)C=C3)cc1
REMARK SMILES IDX 5 1 4 2 3 3 1 4 2 5 28 7 29 8 90 9 30 10 89 11 31 12 32 13
REMARK SMILES IDX 33 14 83 15 34 16 88 17 82 18 84 19 35 20 87 21 81 22 80 23
REMARK SMILES IDX 36 25 68 26 48 27 67 28 49 29 52 30 66 31 85 32 50 33 51 34
REMARK SMILES IDX 65 36 86 37 53 38 37 39 38 40 46 41 39 42 40 43 44 44 47 45
REMARK SMILES IDX 41 46 42 47 45 48 43 49 69 50 70 51 78 52 71 53 72 54 76 55
REMARK SMILES IDX 79 56 73 57 74 58 77 59 75 60 54 61 55 62 63 63 56 64 57 65
REMARK SMILES IDX 61 66 64 67 58 68 59 69 62 70 60 71 6 72 7 73 8 74 9 75
REMARK SMILES IDX 10 77 11 78 12 79 16 80 13 81 15 82 14 83 17 84 18 85 19 86
REMARK SMILES IDX 20 88 21 89 26 90 22 91 25 92 27 93 23 94 24 95
REMARK H PARENT 3 6 84 24 52 35 8 76 19 87
REMARK Flexibility Score: inf
ROOT
ATOM      1  C   UNL A   1      31.306  32.159  26.508  1.00  0.00     0.023 C 
ENDROOT
BRANCH   1   2
ATOM      2  C   UNL A   1      32.533  32.766  27.174  1.00  0.00     0.116 C 
BRANCH   2   3
ATOM      3  N   UNL A   1      32.339  34.132  27.625  1.00  0.00    -0.352 N 
ATOM      4  O   UNL A   1      32.666  35.973  28.884  1.00  0.00    -0.269 OA
ATOM      5  C   UNL A   1      33.035  34.851  28.572  1.00  0.00     0.251 C 
ATOM      6  H   UNL A   1      31.599  34.616  27.191  1.00  0.00     0.163 HD
BRANCH   5   7
ATOM      7  C   UNL A   1      34.212  34.247  29.242  1.00  0.00     0.039 A 
ATOM      8  C   UNL A   1      35.511  34.516  28.808  1.00  0.00     0.014 A 
ATOM      9  C   UNL A   1      34.003  33.397  30.333  1.00  0.00     0.014 A 
ATOM     10  C   UNL A   1      36.583  33.819  29.358  1.00  0.00     0.010 A 
ATOM     11  C   UNL A   1      35.090  32.764  30.943  1.00  0.00     0.010 A 
ATOM     12  C   UNL A   1      36.386  32.943  30.437  1.00  0.00    -0.014 A 
BRANCH  12  13
ATOM     13  C   UNL A   1      37.559  32.273  31.055  1.00  0.00     0.031 A 
ATOM     14  C   UNL A   1      38.018  32.624  32.443  1.00  0.00     0.074 A 
ATOM     15  C   UNL A   1      38.197  31.314  30.356  1.00  0.00     0.049 A 
ATOM     16  N   UNL A   1      39.011  32.120  33.135  1.00  0.00    -0.248 NA
ATOM     17  C   UNL A   1      37.277  33.682  33.143  1.00  0.00     0.031 C 
ATOM     18  C   UNL A   1      37.850  30.897  28.996  1.00  0.00     0.029 A 
ATOM     19  N   UNL A   1      39.253  30.507  30.692  1.00  0.00    -0.354 N 
ATOM     20  C   UNL A   1      39.022  32.807  34.342  1.00  0.00     0.074 A 
ATOM     21  C   UNL A   1      37.955  33.783  34.279  1.00  0.00     0.031 C 
ATOM     22  C   UNL A   1      38.650  29.885  28.630  1.00  0.00     0.029 A 
ATOM     23  C   UNL A   1      39.601  29.621  29.703  1.00  0.00     0.049 A 
ATOM     24  H   UNL A   1      39.718  30.560  31.558  1.00  0.00     0.167 HD
ATOM     25  C   UNL A   1      39.843  32.631  35.405  1.00  0.00     0.037 A 
ATOM     26  C   UNL A   1      40.586  28.705  29.657  1.00  0.00     0.037 A 
ATOM     27  C   UNL A   1      40.893  31.646  35.469  1.00  0.00     0.049 A 
ATOM     28  C   UNL A   1      41.492  28.547  30.843  1.00  0.00     0.074 A 
ATOM     29  C   UNL A   1      41.749  31.362  36.520  1.00  0.00     0.029 A 
ATOM     30  N   UNL A   1      41.234  30.784  34.435  1.00  0.00    -0.354 N 
ATOM     31  N   UNL A   1      41.467  29.178  31.992  1.00  0.00    -0.248 NA
ATOM     32  C   UNL A   1      42.566  27.553  30.724  1.00  0.00     0.031 C 
ATOM     33  C   UNL A   1      42.637  30.363  36.107  1.00  0.00     0.029 A 
ATOM     34  C   UNL A   1      42.304  29.989  34.815  1.00  0.00     0.049 A 
ATOM     35  H   UNL A   1      40.783  30.745  33.562  1.00  0.00     0.167 HD
ATOM     36  C   UNL A   1      42.510  28.649  32.738  1.00  0.00     0.074 A 
ATOM     37  C   UNL A   1      43.134  27.630  31.919  1.00  0.00     0.031 C 
ATOM     38  C   UNL A   1      42.916  28.982  33.987  1.00  0.00     0.037 A 
BRANCH  25  39
ATOM     39  C   UNL A   1      39.653  33.532  36.591  1.00  0.00     0.064 A 
ATOM     40  C   UNL A   1      40.257  34.797  36.662  1.00  0.00     0.173 A 
ATOM     41  C   UNL A   1      38.810  33.150  37.646  1.00  0.00     0.173 A 
ATOM     42  F   UNL A   1      41.078  35.208  35.683  1.00  0.00    -0.203 F 
ATOM     43  C   UNL A   1      40.041  35.635  37.754  1.00  0.00     0.198 A 
ATOM     44  C   UNL A   1      38.576  34.001  38.724  1.00  0.00     0.198 A 
ATOM     45  F   UNL A   1      38.201  31.954  37.626  1.00  0.00    -0.203 F 
ATOM     46  F   UNL A   1      40.658  36.823  37.817  1.00  0.00    -0.200 F 
ATOM     47  C   UNL A   1      39.196  35.239  38.779  1.00  0.00     0.200 A 
ATOM     48  F   UNL A   1      37.749  33.622  39.708  1.00  0.00    -0.200 F 
ATOM     49  F   UNL A   1      38.983  36.051  39.824  1.00  0.00    -0.200 F 
ENDBRANCH  25  39
BRANCH  26  50
ATOM     50  C   UNL A   1      40.757  27.873  28.440  1.00  0.00     0.064 A 
ATOM     51  C   UNL A   1      40.120  26.632  28.319  1.00  0.00     0.173 A 
ATOM     52  C   UNL A   1      41.545  28.312  27.366  1.00  0.00     0.173 A 
ATOM     53  F   UNL A   1      39.372  26.161  29.328  1.00  0.00    -0.203 F 
ATOM     54  C   UNL A   1      40.274  25.854  27.173  1.00  0.00     0.198 A 
ATOM     55  C   UNL A   1      41.674  27.548  26.209  1.00  0.00     0.198 A 
ATOM     56  F   UNL A   1      42.172  29.496  27.433  1.00  0.00    -0.203 F 
ATOM     57  F   UNL A   1      39.684  24.653  27.097  1.00  0.00    -0.200 F 
ATOM     58  C   UNL A   1      41.044  26.316  26.116  1.00  0.00     0.200 A 
ATOM     59  F   UNL A   1      42.406  28.007  25.185  1.00  0.00    -0.200 F 
ATOM     60  F   UNL A   1      41.183  25.573  25.010  1.00  0.00    -0.200 F 
ENDBRANCH  26  50
BRANCH  38  61
ATOM     61  C   UNL A   1      44.083  28.222  34.548  1.00  0.00     0.064 A 
ATOM     62  C   UNL A   1      45.397  28.692  34.417  1.00  0.00     0.173 A 
ATOM     63  C   UNL A   1      43.879  27.021  35.244  1.00  0.00     0.173 A 
ATOM     64  F   UNL A   1      45.643  29.827  33.744  1.00  0.00    -0.203 F 
ATOM     65  C   UNL A   1      46.469  27.975  34.940  1.00  0.00     0.198 A 
ATOM     66  C   UNL A   1      44.951  26.319  35.790  1.00  0.00     0.198 A 
ATOM     67  F   UNL A   1      42.641  26.530  35.401  1.00  0.00    -0.203 F 
ATOM     68  F   UNL A   1      47.721  28.418  34.760  1.00  0.00    -0.200 F 
ATOM     69  C   UNL A   1      46.245  26.793  35.630  1.00  0.00     0.200 A 
ATOM     70  F   UNL A   1      44.733  25.183  36.466  1.00  0.00    -0.200 F 
ATOM     71  F   UNL A   1      47.278  26.105  36.135  1.00  0.00    -0.200 F 
ENDBRANCH  38  61
ENDBRANCH  12  13
ENDBRANCH   5   7
ENDBRANCH   2   3
ENDBRANCH   1   2
BRANCH   1  72
ATOM     72  C   UNL A   1      31.437  30.705  26.062  1.00  0.00     0.023 C 
BRANCH  72  73
ATOM     73  C   UNL A   1      32.830  30.093  26.175  1.00  0.00     0.116 C 
BRANCH  73  74
ATOM     74  N   UNL A   1      33.354  29.579  24.925  1.00  0.00    -0.356 N 
ATOM     75  C   UNL A   1      33.497  28.304  24.464  1.00  0.00     0.224 C 
ATOM     76  H   UNL A   1      33.660  30.273  24.297  1.00  0.00     0.163 HD
ATOM     77  O   UNL A   1      34.064  28.156  23.381  1.00  0.00    -0.275 OA
BRANCH  75  78
ATOM     78  C   UNL A   1      33.088  27.129  25.340  1.00  0.00     0.095 C 
ATOM     79  C   UNL A   1      34.071  25.942  25.181  1.00  0.00     0.041 C 
ATOM     80  C   UNL A   1      31.622  26.609  25.209  1.00  0.00     0.095 C 
ATOM     81  C   UNL A   1      33.646  24.727  25.967  1.00  0.00    -0.030 C 
ATOM     82  C   UNL A   1      31.433  25.734  26.464  1.00  0.00     0.041 C 
ATOM     83  C   UNL A   1      32.455  24.643  26.577  1.00  0.00    -0.030 C 
BRANCH  80  84
ATOM     84  C   UNL A   1      31.392  26.003  23.807  1.00  0.00     0.228 C 
ATOM     85  O   UNL A   1      31.909  24.917  23.515  1.00  0.00    -0.274 OA
ATOM     86  N   UNL A   1      30.659  26.580  22.814  1.00  0.00    -0.324 N 
ATOM     87  H   UNL A   1      30.558  26.028  22.005  1.00  0.00     0.169 HD
BRANCH  86  88
ATOM     88  C   UNL A   1      30.028  27.824  22.752  1.00  0.00     0.060 A 
ATOM     89  C   UNL A   1      30.800  28.884  22.264  1.00  0.00     0.029 A 
ATOM     90  C   UNL A   1      28.691  28.050  23.121  1.00  0.00     0.065 A 
ATOM     91  C   UNL A   1      30.204  30.118  22.004  1.00  0.00     0.018 A 
ATOM     92  C   UNL A   1      28.101  29.292  22.876  1.00  0.00     0.038 A 
ATOM     93  Cl  UNL A   1      27.731  26.828  23.876  1.00  0.00    -0.082 Cl
ATOM     94  C   UNL A   1      28.853  30.307  22.286  1.00  0.00     0.019 A 
ATOM     95  Br  UNL A   1      28.028  31.947  21.838  1.00  0.00    -0.051 Br
ENDBRANCH  86  88
ENDBRANCH  80  84
ENDBRANCH  75  78
ENDBRANCH  73  74
ENDBRANCH  72  73
ENDBRANCH   1  72
TORSDOF 13
ENDMDL
MODEL 3
REMARK VINA RESULT:     -12.9      0.455      7.282
REMARK SMILES O=C(NCCCCNC(=O)[C@@H]1CC=CC[C@@H]1C(=O)Nc1ccc(Br)cc1Cl)c1ccc(-c2c3nc(c(-c4c(F)c(F)c(F)c(F)c4F)c4ccc([nH]4)c(-c4c(F)c(F)c(F)c(F)c4F)c4nc(c(-c5c(F)c(F)c(F)c(F)c5F)c5ccc2[nH]5)C=C4)C=C3)cc1
REMARK SMILES IDX 5 1 4 2 3 3 1 4 2 5 28 7 29 8 90 9 30 10 89 11 31 12 32 13
REMARK SMILES IDX 33 14 83 15 34 16 88 17 82 18 84 19 35 20 87 21 81 22 80 23
REMARK SMILES IDX 36 25 68 26 48 27 67 28 49 29 52 30 66 31 85 32 50 33 51 34
REMARK SMILES IDX 65 36 86 37 53 38 37 39 38 40 46 41 39 42 40 43 44 44 47 45
REMARK SMILES IDX 41 46 42 47 45 48 43 49 69 50 70 51 78 52 71 53 72 54 76 55
REMARK SMILES IDX 79 56 73 57 74 58 77 59 75 60 54 61 55 62 63 63 56 64 57 65
REMARK SMILES IDX 61 66 64 67 58 68 59 69 62 70 60 71 6 72 7 73 8 74 9 75
REMARK SMILES IDX 10 77 11 78 12 79 16 80 13 81 15 82 14 83 17 84 18 85 19 86
REMARK SMILES IDX 20 88 21 89 26 90 22 91 25 92 27 93 23 94 24 95
REMARK H PARENT 3 6 84 24 52 35 8 76 19 87
REMARK Flexibility Score: inf
ROOT
ATOM      1  C   UNL A   1      31.287  32.137  26.481  1.00  0.00     0.023 C 
ENDROOT
BRANCH   1   2
ATOM      2  C   UNL A   1      32.503  32.754  27.157  1.00  0.00     0.116 C 
BRANCH   2   3
ATOM      3  N   UNL A   1      32.301  34.127  27.586  1.00  0.00    -0.352 N 
ATOM      4  O   UNL A   1      32.612  35.987  28.821  1.00  0.00    -0.269 OA
ATOM      5  C   UNL A   1      32.987  34.861  28.529  1.00  0.00     0.251 C 
ATOM      6  H   UNL A   1      31.566  34.603  27.137  1.00  0.00     0.163 HD
BRANCH   5   7
ATOM      7  C   UNL A   1      34.158  34.270  29.221  1.00  0.00     0.039 A 
ATOM      8  C   UNL A   1      35.459  34.510  28.778  1.00  0.00     0.014 A 
ATOM      9  C   UNL A   1      33.940  33.460  30.341  1.00  0.00     0.014 A 
ATOM     10  C   UNL A   1      36.524  33.822  29.351  1.00  0.00     0.010 A 
ATOM     11  C   UNL A   1      35.021  32.838  30.973  1.00  0.00     0.010 A 
ATOM     12  C   UNL A   1      36.319  32.987  30.461  1.00  0.00    -0.014 A 
BRANCH  12  13
ATOM     13  C   UNL A   1      37.486  32.327  31.102  1.00  0.00     0.031 A 
ATOM     14  C   UNL A   1      38.274  31.265  30.386  1.00  0.00     0.074 A 
ATOM     15  C   UNL A   1      37.849  32.719  32.338  1.00  0.00     0.049 A 
ATOM     16  N   UNL A   1      39.329  30.605  30.796  1.00  0.00    -0.248 NA
ATOM     17  C   UNL A   1      37.817  30.887  29.042  1.00  0.00     0.031 C 
ATOM     18  C   UNL A   1      37.153  33.730  33.136  1.00  0.00     0.029 A 
ATOM     19  N   UNL A   1      38.896  32.330  33.134  1.00  0.00    -0.354 N 
ATOM     20  C   UNL A   1      39.652  29.727  29.771  1.00  0.00     0.074 A 
ATOM     21  C   UNL A   1      38.666  29.916  28.729  1.00  0.00     0.031 C 
ATOM     22  C   UNL A   1      37.815  33.913  34.288  1.00  0.00     0.029 A 
ATOM     23  C   UNL A   1      38.946  32.993  34.335  1.00  0.00     0.049 A 
ATOM     24  H   UNL A   1      39.548  31.642  32.869  1.00  0.00     0.167 HD
ATOM     25  C   UNL A   1      40.683  28.849  29.705  1.00  0.00     0.037 A 
ATOM     26  C   UNL A   1      39.797  32.866  35.369  1.00  0.00     0.037 A 
ATOM     27  C   UNL A   1      41.672  28.676  30.738  1.00  0.00     0.049 A 
ATOM     28  C   UNL A   1      40.917  31.871  35.274  1.00  0.00     0.074 A 
ATOM     29  C   UNL A   1      42.779  27.843  30.743  1.00  0.00     0.029 A 
ATOM     30  N   UNL A   1      41.673  29.345  31.954  1.00  0.00    -0.354 N 
ATOM     31  N   UNL A   1      41.233  31.074  34.283  1.00  0.00    -0.248 NA
ATOM     32  C   UNL A   1      41.797  31.756  36.444  1.00  0.00     0.031 C 
ATOM     33  C   UNL A   1      43.422  27.974  31.979  1.00  0.00     0.029 A 
ATOM     34  C   UNL A   1      42.744  28.925  32.726  1.00  0.00     0.049 A 
ATOM     35  H   UNL A   1      41.009  30.019  32.227  1.00  0.00     0.167 HD
ATOM     36  C   UNL A   1      42.354  30.373  34.702  1.00  0.00     0.074 A 
ATOM     37  C   UNL A   1      42.676  30.855  36.029  1.00  0.00     0.031 C 
ATOM     38  C   UNL A   1      43.049  29.411  34.047  1.00  0.00     0.037 A 
BRANCH  25  39
ATOM     39  C   UNL A   1      40.793  27.992  28.477  1.00  0.00     0.064 A 
ATOM     40  C   UNL A   1      41.551  28.388  27.364  1.00  0.00     0.173 A 
ATOM     41  C   UNL A   1      40.177  26.732  28.433  1.00  0.00     0.173 A 
ATOM     42  F   UNL A   1      42.154  29.586  27.352  1.00  0.00    -0.203 F 
ATOM     43  C   UNL A   1      41.670  27.564  26.247  1.00  0.00     0.198 A 
ATOM     44  C   UNL A   1      40.319  25.900  27.325  1.00  0.00     0.198 A 
ATOM     45  F   UNL A   1      39.446  26.300  29.472  1.00  0.00    -0.203 F 
ATOM     46  F   UNL A   1      42.369  27.979  25.182  1.00  0.00    -0.200 F 
ATOM     47  C   UNL A   1      41.061  26.319  26.232  1.00  0.00     0.200 A 
ATOM     48  F   UNL A   1      39.740  24.691  27.317  1.00  0.00    -0.200 F 
ATOM     49  F   UNL A   1      41.184  25.524  25.160  1.00  0.00    -0.200 F 
ENDBRANCH  25  39
BRANCH  26  50
ATOM     50  C   UNL A   1      39.614  33.707  36.578  1.00  0.00     0.064 A 
ATOM     51  C   UNL A   1      40.187  34.982  36.664  1.00  0.00     0.173 A 
ATOM     52  C   UNL A   1      38.845  33.260  37.663  1.00  0.00     0.173 A 
ATOM     53  F   UNL A   1      40.946  35.444  35.660  1.00  0.00    -0.203 F 
ATOM     54  C   UNL A   1      40.008  35.775  37.795  1.00  0.00     0.198 A 
ATOM     55  C   UNL A   1      38.642  34.065  38.781  1.00  0.00     0.198 A 
ATOM     56  F   UNL A   1      38.272  32.048  37.626  1.00  0.00    -0.203 F 
ATOM     57  F   UNL A   1      40.597  36.976  37.869  1.00  0.00    -0.200 F 
ATOM     58  C   UNL A   1      39.229  35.319  38.849  1.00  0.00     0.200 A 
ATOM     59  F   UNL A   1      37.876  33.627  39.788  1.00  0.00    -0.200 F 
ATOM     60  F   UNL A   1      39.049  36.087  39.933  1.00  0.00    -0.200 F 
ENDBRANCH  26  50
BRANCH  38  61
ATOM     61  C   UNL A   1      44.240  28.832  34.754  1.00  0.00     0.064 A 
ATOM     62  C   UNL A   1      44.134  27.681  35.547  1.00  0.00     0.173 A 
ATOM     63  C   UNL A   1      45.504  29.425  34.618  1.00  0.00     0.173 A 
ATOM     64  F   UNL A   1      42.942  27.090  35.722  1.00  0.00    -0.203 F 
ATOM     65  C   UNL A   1      45.247  27.157  36.199  1.00  0.00     0.198 A 
ATOM     66  C   UNL A   1      46.621  28.882  35.249  1.00  0.00     0.198 A 
ATOM     67  F   UNL A   1      45.660  30.525  33.866  1.00  0.00    -0.203 F 
ATOM     68  F   UNL A   1      45.112  26.085  36.992  1.00  0.00    -0.200 F 
ATOM     69  C   UNL A   1      46.489  27.754  36.045  1.00  0.00     0.200 A 
ATOM     70  F   UNL A   1      47.822  29.453  35.091  1.00  0.00    -0.200 F 
ATOM     71  F   UNL A   1      47.559  27.246  36.672  1.00  0.00    -0.200 F 
ENDBRANCH  38  61
ENDBRANCH  12  13
ENDBRANCH   5   7
ENDBRANCH   2   3
ENDBRANCH   1   2
BRANCH   1  72
ATOM     72  C   UNL A   1      31.452  30.703  25.987  1.00  0.00     0.023 C 
BRANCH  72  73
ATOM     73  C   UNL A   1      32.834  30.086  26.172  1.00  0.00     0.116 C 
BRANCH  73  74
ATOM     74  N   UNL A   1      33.431  29.594  24.945  1.00  0.00    -0.356 N 
ATOM     75  C   UNL A   1      33.636  28.326  24.488  1.00  0.00     0.224 C 
ATOM     76  H   UNL A   1      33.743  30.300  24.334  1.00  0.00     0.163 HD
ATOM     77  O   UNL A   1      34.256  28.202  23.431  1.00  0.00    -0.275 OA
BRANCH  75  78
ATOM     78  C   UNL A   1      33.225  27.135  25.341  1.00  0.00     0.095 C 
ATOM     79  C   UNL A   1      34.227  25.963  25.186  1.00  0.00     0.041 C 
ATOM     80  C   UNL A   1      31.769  26.598  25.174  1.00  0.00     0.095 C 
ATOM     81  C   UNL A   1      33.802  24.733  25.948  1.00  0.00    -0.030 C 
ATOM     82  C   UNL A   1      31.567  25.705  26.413  1.00  0.00     0.041 C 
ATOM     83  C   UNL A   1      32.601  24.626  26.533  1.00  0.00    -0.030 C 
BRANCH  80  84
ATOM     84  C   UNL A   1      31.575  26.008  23.760  1.00  0.00     0.228 C 
ATOM     85  O   UNL A   1      32.138  24.948  23.455  1.00  0.00    -0.274 OA
ATOM     86  N   UNL A   1      30.828  26.571  22.770  1.00  0.00    -0.324 N 
ATOM     87  H   UNL A   1      30.755  26.029  21.952  1.00  0.00     0.169 HD
BRANCH  86  88
ATOM     88  C   UNL A   1      30.147  27.791  22.723  1.00  0.00     0.060 A 
ATOM     89  C   UNL A   1      30.862  28.876  22.207  1.00  0.00     0.029 A 
ATOM     90  C   UNL A   1      28.815  27.967  23.135  1.00  0.00     0.065 A 
ATOM     91  C   UNL A   1      30.212  30.085  21.960  1.00  0.00     0.018 A 
ATOM     92  C   UNL A   1      28.171  29.184  22.903  1.00  0.00     0.038 A 
ATOM     93  Cl  UNL A   1      27.927  26.714  23.925  1.00  0.00    -0.082 Cl
ATOM     94  C   UNL A   1      28.864  30.224  22.285  1.00  0.00     0.019 A 
ATOM     95  Br  UNL A   1      27.964  31.829  21.857  1.00  0.00    -0.051 Br
ENDBRANCH  86  88
ENDBRANCH  80  84
ENDBRANCH  75  78
ENDBRANCH  73  74
ENDBRANCH  72  73
ENDBRANCH   1  72
TORSDOF 13
ENDMDL
