MODEL 1
REMARK VINA RESULT:     -13.7      0.000      0.000
REMARK SMILES Cc1ccc(NC(=O)C[N@H+]2CCC[C@@H](C(=O)NCCCCNC(=O)c3ccc(-c4c5nc(c(-c6c(F)c(F)c(F)c(F)c6F)c6ccc([nH]6)c(-c6c(F)c(F)c(F)c(F)c6F)c6nc(c(-c7c(F)c(F)c(F)c(F)c7F)c7ccc4[nH]7)C=C6)C=C5)cc3)C2)cc1F
REMARK SMILES IDX 19 1 18 2 17 3 15 4 16 5 14 7 10 8 11 9 88 10 12 12 13 13
REMARK SMILES IDX 9 14 7 15 6 16 8 18 5 19 1 20 2 21 3 22 90 23 4 24 89 25
REMARK SMILES IDX 91 26 20 27 21 28 22 29 23 30 24 32 25 33 26 34 87 35 27 36
REMARK SMILES IDX 86 37 28 38 29 39 30 40 80 41 31 42 85 43 79 44 81 45 32 46
REMARK SMILES IDX 84 47 78 48 77 49 33 51 65 52 45 53 64 54 46 55 49 56 63 57
REMARK SMILES IDX 82 58 47 59 48 60 62 62 83 63 50 64 34 65 35 66 43 67 36 68
REMARK SMILES IDX 37 69 41 70 44 71 38 72 39 73 42 74 40 75 66 76 67 77 75 78
REMARK SMILES IDX 68 79 69 80 73 81 76 82 70 83 71 84 74 85 72 86 51 87 52 88
REMARK SMILES IDX 60 89 53 90 54 91 58 92 61 93 55 94 56 95 59 96 57 97
REMARK H PARENT 17 6 10 11 6 17 22 31 81 50 49 61
REMARK Flexibility Score: inf
ROOT
ATOM      1  C   UNL A   1      31.784  29.454  26.404  1.00  0.00     0.023 C 
ENDROOT
BRANCH   1   2
ATOM      2  C   UNL A   1      32.301  29.744  24.989  1.00  0.00     0.116 C 
BRANCH   2   3
ATOM      3  N   UNL A   1      31.348  29.377  23.955  1.00  0.00    -0.356 N 
ATOM      4  C   UNL A   1      31.112  28.163  23.371  1.00  0.00     0.228 C 
ATOM      5  O   UNL A   1      30.195  28.091  22.552  1.00  0.00    -0.275 OA
ATOM      6  H   UNL A   1      30.787  30.115  23.624  1.00  0.00     0.163 HD
BRANCH   4   7
ATOM      7  C   UNL A   1      31.946  26.948  23.763  1.00  0.00     0.133 C 
ATOM      8  N   UNL A   1      31.779  24.621  24.660  1.00  0.00    -0.326 N 
ATOM      9  C   UNL A   1      32.687  24.146  23.595  1.00  0.00     0.262 C 
ATOM     10  C   UNL A   1      31.019  25.802  24.209  1.00  0.00     0.276 C 
ATOM     11  H   UNL A   1      32.289  24.963  25.474  1.00  0.00     0.348 HD
ATOM     12  C   UNL A   1      33.610  25.238  23.051  1.00  0.00     0.062 C 
ATOM     13  C   UNL A   1      32.817  26.461  22.604  1.00  0.00     0.025 C 
BRANCH   8  14
ATOM     14  C   UNL A   1      30.967  23.460  25.138  1.00  0.00     0.363 C 
BRANCH  14  15
ATOM     15  C   UNL A   1      31.106  23.062  26.606  1.00  0.00     0.279 C 
ATOM     16  N   UNL A   1      32.221  22.490  27.142  1.00  0.00    -0.321 N 
ATOM     17  H   UNL A   1      32.140  22.296  28.105  1.00  0.00     0.170 HD
ATOM     18  O   UNL A   1      30.173  23.290  27.389  1.00  0.00    -0.268 OA
BRANCH  16  19
ATOM     19  C   UNL A   1      33.460  22.121  26.600  1.00  0.00     0.044 A 
ATOM     20  C   UNL A   1      37.203  21.497  24.548  1.00  0.00     0.047 C 
ATOM     21  C   UNL A   1      35.943  21.680  25.333  1.00  0.00    -0.015 A 
ATOM     22  C   UNL A   1      35.718  22.842  26.071  1.00  0.00     0.008 A 
ATOM     23  C   UNL A   1      34.935  20.723  25.298  1.00  0.00     0.128 A 
ATOM     24  C   UNL A   1      34.490  23.065  26.699  1.00  0.00     0.026 A 
ATOM     25  C   UNL A   1      33.715  20.925  25.936  1.00  0.00     0.065 A 
ATOM     26  F   UNL A   1      35.121  19.580  24.624  1.00  0.00    -0.207 F 
ENDBRANCH  16  19
ENDBRANCH  14  15
ENDBRANCH   8  14
ENDBRANCH   4   7
ENDBRANCH   2   3
ENDBRANCH   1   2
BRANCH   1  27
ATOM     27  C   UNL A   1      32.660  28.541  27.277  1.00  0.00     0.023 C 
BRANCH  27  28
ATOM     28  C   UNL A   1      34.125  28.950  27.351  1.00  0.00     0.116 C 
BRANCH  28  29
ATOM     29  N   UNL A   1      34.316  30.269  27.957  1.00  0.00    -0.352 N 
ATOM     30  C   UNL A   1      35.373  30.721  28.731  1.00  0.00     0.251 C 
ATOM     31  H   UNL A   1      33.598  30.922  27.794  1.00  0.00     0.163 HD
ATOM     32  O   UNL A   1      35.258  31.701  29.444  1.00  0.00    -0.269 OA
BRANCH  30  33
ATOM     33  C   UNL A   1      36.670  30.030  28.623  1.00  0.00     0.039 A 
ATOM     34  C   UNL A   1      37.460  30.062  27.464  1.00  0.00     0.014 A 
ATOM     35  C   UNL A   1      37.066  29.283  29.723  1.00  0.00     0.014 A 
ATOM     36  C   UNL A   1      38.689  29.397  27.454  1.00  0.00     0.010 A 
ATOM     37  C   UNL A   1      38.298  28.710  29.755  1.00  0.00     0.010 A 
ATOM     38  C   UNL A   1      39.095  28.737  28.614  1.00  0.00    -0.014 A 
BRANCH  38  39
ATOM     39  C   UNL A   1      40.373  28.085  28.830  1.00  0.00     0.031 A 
ATOM     40  C   UNL A   1      40.488  26.639  28.610  1.00  0.00     0.074 A 
ATOM     41  C   UNL A   1      41.432  28.918  28.905  1.00  0.00     0.049 A 
ATOM     42  N   UNL A   1      41.468  25.916  29.015  1.00  0.00    -0.248 NA
ATOM     43  C   UNL A   1      39.468  25.878  27.895  1.00  0.00     0.031 C 
ATOM     44  C   UNL A   1      42.850  28.660  28.720  1.00  0.00     0.029 A 
ATOM     45  N   UNL A   1      41.381  30.265  29.300  1.00  0.00    -0.354 N 
ATOM     46  C   UNL A   1      41.388  24.705  28.356  1.00  0.00     0.074 A 
ATOM     47  C   UNL A   1      40.065  24.686  27.780  1.00  0.00     0.031 C 
ATOM     48  C   UNL A   1      43.541  29.653  29.315  1.00  0.00     0.029 A 
ATOM     49  C   UNL A   1      42.568  30.479  30.022  1.00  0.00     0.049 A 
ATOM     50  H   UNL A   1      40.669  30.918  29.112  1.00  0.00     0.167 HD
ATOM     51  C   UNL A   1      42.527  23.959  28.236  1.00  0.00     0.037 A 
ATOM     52  C   UNL A   1      42.476  30.609  31.381  1.00  0.00     0.037 A 
ATOM     53  C   UNL A   1      43.625  24.627  28.945  1.00  0.00     0.049 A 
ATOM     54  C   UNL A   1      43.172  29.471  32.083  1.00  0.00     0.074 A 
ATOM     55  C   UNL A   1      44.642  25.456  28.498  1.00  0.00     0.029 A 
ATOM     56  N   UNL A   1      43.542  24.814  30.323  1.00  0.00    -0.354 N 
ATOM     57  N   UNL A   1      43.281  28.263  31.594  1.00  0.00    -0.248 NA
ATOM     58  C   UNL A   1      43.870  29.638  33.350  1.00  0.00     0.031 C 
ATOM     59  C   UNL A   1      45.099  26.220  29.604  1.00  0.00     0.029 A 
ATOM     60  C   UNL A   1      44.381  25.838  30.726  1.00  0.00     0.049 A 
ATOM     61  H   UNL A   1      42.967  24.290  30.927  1.00  0.00     0.167 HD
ATOM     62  C   UNL A   1      44.093  27.522  32.410  1.00  0.00     0.074 A 
ATOM     63  C   UNL A   1      44.424  28.423  33.502  1.00  0.00     0.031 C 
ATOM     64  C   UNL A   1      44.465  26.238  32.124  1.00  0.00     0.037 A 
BRANCH  51  65
ATOM     65  C   UNL A   1      42.744  22.837  27.231  1.00  0.00     0.064 A 
ATOM     66  C   UNL A   1      42.098  21.590  27.400  1.00  0.00     0.173 A 
ATOM     67  C   UNL A   1      43.602  22.892  26.115  1.00  0.00     0.173 A 
ATOM     68  F   UNL A   1      41.174  21.403  28.351  1.00  0.00    -0.203 F 
ATOM     69  C   UNL A   1      42.369  20.477  26.595  1.00  0.00     0.198 A 
ATOM     70  C   UNL A   1      43.905  21.769  25.333  1.00  0.00     0.198 A 
ATOM     71  F   UNL A   1      44.133  24.043  25.694  1.00  0.00    -0.203 F 
ATOM     72  F   UNL A   1      41.728  19.321  26.820  1.00  0.00    -0.200 F 
ATOM     73  C   UNL A   1      43.296  20.557  25.579  1.00  0.00     0.200 A 
ATOM     74  F   UNL A   1      44.789  21.878  24.330  1.00  0.00    -0.200 F 
ATOM     75  F   UNL A   1      43.577  19.487  24.824  1.00  0.00    -0.200 F 
ENDBRANCH  51  65
BRANCH  52  76
ATOM     76  C   UNL A   1      41.177  31.243  31.789  1.00  0.00     0.064 A 
ATOM     77  C   UNL A   1      40.237  30.419  32.449  1.00  0.00     0.173 A 
ATOM     78  C   UNL A   1      41.055  32.627  31.981  1.00  0.00     0.173 A 
ATOM     79  F   UNL A   1      40.299  29.085  32.300  1.00  0.00    -0.203 F 
ATOM     80  C   UNL A   1      39.348  30.936  33.390  1.00  0.00     0.198 A 
ATOM     81  C   UNL A   1      40.136  33.144  32.904  1.00  0.00     0.198 A 
ATOM     82  F   UNL A   1      41.896  33.475  31.373  1.00  0.00    -0.203 F 
ATOM     83  F   UNL A   1      38.590  30.103  34.120  1.00  0.00    -0.200 F 
ATOM     84  C   UNL A   1      39.322  32.296  33.642  1.00  0.00     0.200 A 
ATOM     85  F   UNL A   1      40.100  34.464  33.144  1.00  0.00    -0.200 F 
ATOM     86  F   UNL A   1      38.543  32.782  34.618  1.00  0.00    -0.200 F 
ENDBRANCH  52  76
BRANCH  64  87
ATOM     87  C   UNL A   1      45.056  25.268  33.118  1.00  0.00     0.064 A 
ATOM     88  C   UNL A   1      46.427  24.966  33.183  1.00  0.00     0.173 A 
ATOM     89  C   UNL A   1      44.266  24.734  34.164  1.00  0.00     0.173 A 
ATOM     90  F   UNL A   1      47.308  25.518  32.338  1.00  0.00    -0.203 F 
ATOM     91  C   UNL A   1      46.953  24.131  34.170  1.00  0.00     0.198 A 
ATOM     92  C   UNL A   1      44.808  23.963  35.190  1.00  0.00     0.198 A 
ATOM     93  F   UNL A   1      42.948  24.971  34.247  1.00  0.00    -0.203 F 
ATOM     94  F   UNL A   1      48.259  23.829  34.151  1.00  0.00    -0.200 F 
ATOM     95  C   UNL A   1      46.149  23.642  35.181  1.00  0.00     0.200 A 
ATOM     96  F   UNL A   1      44.026  23.555  36.199  1.00  0.00    -0.200 F 
ATOM     97  F   UNL A   1      46.669  22.887  36.156  1.00  0.00    -0.200 F 
ENDBRANCH  64  87
ENDBRANCH  38  39
ENDBRANCH  30  33
ENDBRANCH  28  29
ENDBRANCH  27  28
ENDBRANCH   1  27
TORSDOF 14
ENDMDL
MODEL 2
REMARK VINA RESULT:     -13.6      3.725      9.894
REMARK SMILES Cc1ccc(NC(=O)C[N@H+]2CCC[C@@H](C(=O)NCCCCNC(=O)c3ccc(-c4c5nc(c(-c6c(F)c(F)c(F)c(F)c6F)c6ccc([nH]6)c(-c6c(F)c(F)c(F)c(F)c6F)c6nc(c(-c7c(F)c(F)c(F)c(F)c7F)c7ccc4[nH]7)C=C6)C=C5)cc3)C2)cc1F
REMARK SMILES IDX 19 1 18 2 17 3 15 4 16 5 14 7 10 8 11 9 88 10 12 12 13 13
REMARK SMILES IDX 9 14 7 15 6 16 8 18 5 19 1 20 2 21 3 22 90 23 4 24 89 25
REMARK SMILES IDX 91 26 20 27 21 28 22 29 23 30 24 32 25 33 26 34 87 35 27 36
REMARK SMILES IDX 86 37 28 38 29 39 30 40 80 41 31 42 85 43 79 44 81 45 32 46
REMARK SMILES IDX 84 47 78 48 77 49 33 51 65 52 45 53 64 54 46 55 49 56 63 57
REMARK SMILES IDX 82 58 47 59 48 60 62 62 83 63 50 64 34 65 35 66 43 67 36 68
REMARK SMILES IDX 37 69 41 70 44 71 38 72 39 73 42 74 40 75 66 76 67 77 75 78
REMARK SMILES IDX 68 79 69 80 73 81 76 82 70 83 71 84 74 85 72 86 51 87 52 88
REMARK SMILES IDX 60 89 53 90 54 91 58 92 61 93 55 94 56 95 59 96 57 97
REMARK H PARENT 17 6 10 11 6 17 22 31 81 50 49 61
REMARK Flexibility Score: inf
ROOT
ATOM      1  C   UNL A   1      36.942  21.965  24.656  1.00  0.00     0.023 C 
ENDROOT
BRANCH   1   2
ATOM      2  C   UNL A   1      36.051  21.238  25.671  1.00  0.00     0.116 C 
BRANCH   2   3
ATOM      3  N   UNL A   1      34.949  20.528  25.045  1.00  0.00    -0.356 N 
ATOM      4  C   UNL A   1      33.737  20.993  24.616  1.00  0.00     0.228 C 
ATOM      5  O   UNL A   1      32.985  20.197  24.053  1.00  0.00    -0.275 OA
ATOM      6  H   UNL A   1      35.097  19.564  24.910  1.00  0.00     0.163 HD
BRANCH   4   7
ATOM      7  C   UNL A   1      33.365  22.459  24.810  1.00  0.00     0.133 C 
ATOM      8  N   UNL A   1      32.420  24.449  23.630  1.00  0.00    -0.326 N 
ATOM      9  C   UNL A   1      31.513  24.694  24.771  1.00  0.00     0.262 C 
ATOM     10  C   UNL A   1      32.741  23.014  23.517  1.00  0.00     0.276 C 
ATOM     11  H   UNL A   1      33.331  24.886  23.764  1.00  0.00     0.348 HD
ATOM     12  C   UNL A   1      32.030  24.125  26.092  1.00  0.00     0.062 C 
ATOM     13  C   UNL A   1      32.375  22.646  25.961  1.00  0.00     0.025 C 
BRANCH   8  14
ATOM     14  C   UNL A   1      31.830  25.089  22.414  1.00  0.00     0.363 C 
BRANCH  14  15
ATOM     15  C   UNL A   1      32.707  26.071  21.641  1.00  0.00     0.279 C 
ATOM     16  N   UNL A   1      33.082  27.296  22.108  1.00  0.00    -0.321 N 
ATOM     17  H   UNL A   1      33.647  27.801  21.480  1.00  0.00     0.170 HD
ATOM     18  O   UNL A   1      33.146  25.749  20.528  1.00  0.00    -0.268 OA
BRANCH  16  19
ATOM     19  C   UNL A   1      32.825  27.981  23.305  1.00  0.00     0.044 A 
ATOM     20  C   UNL A   1      31.979  30.611  26.617  1.00  0.00     0.047 C 
ATOM     21  C   UNL A   1      32.231  29.634  25.513  1.00  0.00    -0.015 A 
ATOM     22  C   UNL A   1      31.295  29.442  24.497  1.00  0.00     0.008 A 
ATOM     23  C   UNL A   1      33.431  28.936  25.436  1.00  0.00     0.128 A 
ATOM     24  C   UNL A   1      31.586  28.625  23.401  1.00  0.00     0.026 A 
ATOM     25  C   UNL A   1      33.724  28.105  24.359  1.00  0.00     0.065 A 
ATOM     26  F   UNL A   1      34.346  29.071  26.406  1.00  0.00    -0.207 F 
ENDBRANCH  16  19
ENDBRANCH  14  15
ENDBRANCH   8  14
ENDBRANCH   4   7
ENDBRANCH   2   3
ENDBRANCH   1   2
BRANCH   1  27
ATOM     27  C   UNL A   1      36.961  23.500  24.740  1.00  0.00     0.023 C 
BRANCH  27  28
ATOM     28  C   UNL A   1      37.631  24.058  25.988  1.00  0.00     0.116 C 
BRANCH  28  29
ATOM     29  N   UNL A   1      38.975  23.519  26.201  1.00  0.00    -0.352 N 
ATOM     30  C   UNL A   1      40.111  24.177  26.643  1.00  0.00     0.251 C 
ATOM     31  H   UNL A   1      39.086  22.561  26.003  1.00  0.00     0.163 HD
ATOM     32  O   UNL A   1      41.221  23.712  26.457  1.00  0.00    -0.269 OA
BRANCH  30  33
ATOM     33  C   UNL A   1      39.949  25.426  27.409  1.00  0.00     0.039 A 
ATOM     34  C   UNL A   1      39.341  25.474  28.672  1.00  0.00     0.014 A 
ATOM     35  C   UNL A   1      40.385  26.590  26.793  1.00  0.00     0.014 A 
ATOM     36  C   UNL A   1      39.247  26.698  29.340  1.00  0.00     0.010 A 
ATOM     37  C   UNL A   1      40.381  27.767  27.471  1.00  0.00     0.010 A 
ATOM     38  C   UNL A   1      39.785  27.831  28.728  1.00  0.00    -0.014 A 
BRANCH  38  39
ATOM     39  C   UNL A   1      39.877  29.159  29.304  1.00  0.00     0.031 A 
ATOM     40  C   UNL A   1      38.847  30.154  28.986  1.00  0.00     0.074 A 
ATOM     41  C   UNL A   1      40.730  29.270  30.345  1.00  0.00     0.049 A 
ATOM     42  N   UNL A   1      38.956  31.413  29.211  1.00  0.00    -0.248 NA
ATOM     43  C   UNL A   1      37.577  29.787  28.367  1.00  0.00     0.031 C 
ATOM     44  C   UNL A   1      40.808  30.268  31.398  1.00  0.00     0.029 A 
ATOM     45  N   UNL A   1      41.845  28.447  30.574  1.00  0.00    -0.354 N 
ATOM     46  C   UNL A   1      37.697  31.965  29.085  1.00  0.00     0.074 A 
ATOM     47  C   UNL A   1      36.910  30.945  28.436  1.00  0.00     0.031 C 
ATOM     48  C   UNL A   1      42.047  30.225  31.928  1.00  0.00     0.029 A 
ATOM     49  C   UNL A   1      42.825  29.299  31.112  1.00  0.00     0.049 A 
ATOM     50  H   UNL A   1      41.924  27.481  30.397  1.00  0.00     0.167 HD
ATOM     51  C   UNL A   1      37.446  33.150  29.718  1.00  0.00     0.037 A 
ATOM     52  C   UNL A   1      43.883  29.640  30.315  1.00  0.00     0.037 A 
ATOM     53  C   UNL A   1      38.674  33.629  30.364  1.00  0.00     0.049 A 
ATOM     54  C   UNL A   1      43.878  31.116  30.010  1.00  0.00     0.074 A 
ATOM     55  C   UNL A   1      39.129  33.528  31.670  1.00  0.00     0.029 A 
ATOM     56  N   UNL A   1      39.786  33.943  29.584  1.00  0.00    -0.354 N 
ATOM     57  N   UNL A   1      42.796  31.846  29.928  1.00  0.00    -0.248 NA
ATOM     58  C   UNL A   1      45.102  31.892  29.860  1.00  0.00     0.031 C 
ATOM     59  C   UNL A   1      40.541  33.681  31.653  1.00  0.00     0.029 A 
ATOM     60  C   UNL A   1      40.941  33.901  30.345  1.00  0.00     0.049 A 
ATOM     61  H   UNL A   1      39.753  34.163  28.625  1.00  0.00     0.167 HD
ATOM     62  C   UNL A   1      43.153  33.160  29.787  1.00  0.00     0.074 A 
ATOM     63  C   UNL A   1      44.606  33.135  29.736  1.00  0.00     0.031 C 
ATOM     64  C   UNL A   1      42.243  34.179  29.754  1.00  0.00     0.037 A 
BRANCH  51  65
ATOM     65  C   UNL A   1      36.065  33.703  30.041  1.00  0.00     0.064 A 
ATOM     66  C   UNL A   1      35.222  34.173  29.007  1.00  0.00     0.173 A 
ATOM     67  C   UNL A   1      35.524  33.848  31.334  1.00  0.00     0.173 A 
ATOM     68  F   UNL A   1      35.543  34.015  27.716  1.00  0.00    -0.203 F 
ATOM     69  C   UNL A   1      34.007  34.822  29.252  1.00  0.00     0.198 A 
ATOM     70  C   UNL A   1      34.327  34.533  31.584  1.00  0.00     0.198 A 
ATOM     71  F   UNL A   1      36.092  33.281  32.401  1.00  0.00    -0.203 F 
ATOM     72  F   UNL A   1      33.263  35.253  28.223  1.00  0.00    -0.200 F 
ATOM     73  C   UNL A   1      33.572  35.030  30.543  1.00  0.00     0.200 A 
ATOM     74  F   UNL A   1      33.909  34.699  32.847  1.00  0.00    -0.200 F 
ATOM     75  F   UNL A   1      32.423  35.675  30.782  1.00  0.00    -0.200 F 
ENDBRANCH  51  65
BRANCH  52  76
ATOM     76  C   UNL A   1      44.234  28.535  29.360  1.00  0.00     0.064 A 
ATOM     77  C   UNL A   1      43.935  28.746  27.994  1.00  0.00     0.173 A 
ATOM     78  C   UNL A   1      45.222  27.584  29.655  1.00  0.00     0.173 A 
ATOM     79  F   UNL A   1      42.995  29.641  27.648  1.00  0.00    -0.203 F 
ATOM     80  C   UNL A   1      44.707  28.177  26.982  1.00  0.00     0.198 A 
ATOM     81  C   UNL A   1      45.973  26.990  28.633  1.00  0.00     0.198 A 
ATOM     82  F   UNL A   1      45.548  27.315  30.927  1.00  0.00    -0.203 F 
ATOM     83  F   UNL A   1      44.501  28.533  25.705  1.00  0.00    -0.200 F 
ATOM     84  C   UNL A   1      45.748  27.325  27.305  1.00  0.00     0.200 A 
ATOM     85  F   UNL A   1      46.978  26.155  28.940  1.00  0.00    -0.200 F 
ATOM     86  F   UNL A   1      46.555  26.859  26.341  1.00  0.00    -0.200 F 
ENDBRANCH  52  76
BRANCH  64  87
ATOM     87  C   UNL A   1      42.530  35.579  29.266  1.00  0.00     0.064 A 
ATOM     88  C   UNL A   1      41.949  36.131  28.112  1.00  0.00     0.173 A 
ATOM     89  C   UNL A   1      43.282  36.480  30.058  1.00  0.00     0.173 A 
ATOM     90  F   UNL A   1      41.102  35.428  27.348  1.00  0.00    -0.203 F 
ATOM     91  C   UNL A   1      42.168  37.457  27.736  1.00  0.00     0.198 A 
ATOM     92  C   UNL A   1      43.435  37.822  29.719  1.00  0.00     0.198 A 
ATOM     93  F   UNL A   1      43.863  36.098  31.205  1.00  0.00    -0.203 F 
ATOM     94  F   UNL A   1      41.637  37.916  26.595  1.00  0.00    -0.200 F 
ATOM     95  C   UNL A   1      42.898  38.306  28.546  1.00  0.00     0.200 A 
ATOM     96  F   UNL A   1      44.088  38.647  30.550  1.00  0.00    -0.200 F 
ATOM     97  F   UNL A   1      43.058  39.592  28.210  1.00  0.00    -0.200 F 
ENDBRANCH  64  87
ENDBRANCH  38  39
ENDBRANCH  30  33
ENDBRANCH  28  29
ENDBRANCH  27  28
ENDBRANCH   1  27
TORSDOF 14
ENDMDL
MODEL 3
REMARK VINA RESULT:     -13.2      1.518      2.378
REMARK SMILES Cc1ccc(NC(=O)C[N@H+]2CCC[C@@H](C(=O)NCCCCNC(=O)c3ccc(-c4c5nc(c(-c6c(F)c(F)c(F)c(F)c6F)c6ccc([nH]6)c(-c6c(F)c(F)c(F)c(F)c6F)c6nc(c(-c7c(F)c(F)c(F)c(F)c7F)c7ccc4[nH]7)C=C6)C=C5)cc3)C2)cc1F
REMARK SMILES IDX 19 1 18 2 17 3 15 4 16 5 14 7 10 8 11 9 88 10 12 12 13 13
REMARK SMILES IDX 9 14 7 15 6 16 8 18 5 19 1 20 2 21 3 22 90 23 4 24 89 25
REMARK SMILES IDX 91 26 20 27 21 28 22 29 23 30 24 32 25 33 26 34 87 35 27 36
REMARK SMILES IDX 86 37 28 38 29 39 30 40 80 41 31 42 85 43 79 44 81 45 32 46
REMARK SMILES IDX 84 47 78 48 77 49 33 51 65 52 45 53 64 54 46 55 49 56 63 57
REMARK SMILES IDX 82 58 47 59 48 60 62 62 83 63 50 64 34 65 35 66 43 67 36 68
REMARK SMILES IDX 37 69 41 70 44 71 38 72 39 73 42 74 40 75 66 76 67 77 75 78
REMARK SMILES IDX 68 79 69 80 73 81 76 82 70 83 71 84 74 85 72 86 51 87 52 88
REMARK SMILES IDX 60 89 53 90 54 91 58 92 61 93 55 94 56 95 59 96 57 97
REMARK H PARENT 17 6 10 11 6 17 22 31 81 50 49 61
REMARK Flexibility Score: inf
ROOT
ATOM      1  C   UNL A   1      32.188  27.993  27.111  1.00  0.00     0.023 C 
ENDROOT
BRANCH   1   2
ATOM      2  C   UNL A   1      31.235  27.124  26.280  1.00  0.00     0.116 C 
BRANCH   2   3
ATOM      3  N   UNL A   1      30.996  25.822  26.877  1.00  0.00    -0.356 N 
ATOM      4  C   UNL A   1      31.281  24.572  26.399  1.00  0.00     0.228 C 
ATOM      5  O   UNL A   1      31.036  23.611  27.129  1.00  0.00    -0.275 OA
ATOM      6  H   UNL A   1      30.564  25.841  27.761  1.00  0.00     0.163 HD
BRANCH   4   7
ATOM      7  C   UNL A   1      31.910  24.403  25.020  1.00  0.00     0.133 C 
ATOM      8  N   UNL A   1      34.050  23.830  23.862  1.00  0.00    -0.326 N 
ATOM      9  C   UNL A   1      33.320  22.896  22.978  1.00  0.00     0.262 C 
ATOM     10  C   UNL A   1      33.373  23.948  25.167  1.00  0.00     0.276 C 
ATOM     11  H   UNL A   1      34.040  24.784  23.502  1.00  0.00     0.348 HD
ATOM     12  C   UNL A   1      31.839  23.241  22.819  1.00  0.00     0.062 C 
ATOM     13  C   UNL A   1      31.153  23.378  24.174  1.00  0.00     0.025 C 
BRANCH   8  14
ATOM     14  C   UNL A   1      35.485  23.417  23.899  1.00  0.00     0.363 C 
BRANCH  14  15
ATOM     15  C   UNL A   1      36.072  23.033  25.256  1.00  0.00     0.279 C 
ATOM     16  N   UNL A   1      35.961  21.794  25.815  1.00  0.00    -0.321 N 
ATOM     17  H   UNL A   1      36.397  21.720  26.695  1.00  0.00     0.170 HD
ATOM     18  O   UNL A   1      36.722  23.870  25.897  1.00  0.00    -0.268 OA
BRANCH  16  19
ATOM     19  C   UNL A   1      35.351  20.606  25.390  1.00  0.00     0.044 A 
ATOM     20  C   UNL A   1      33.778  17.048  23.524  1.00  0.00     0.047 C 
ATOM     21  C   UNL A   1      34.323  18.239  24.249  1.00  0.00    -0.015 A 
ATOM     22  C   UNL A   1      35.696  18.398  24.437  1.00  0.00     0.008 A 
ATOM     23  C   UNL A   1      33.480  19.248  24.699  1.00  0.00     0.128 A 
ATOM     24  C   UNL A   1      36.210  19.569  25.001  1.00  0.00     0.026 A 
ATOM     25  C   UNL A   1      33.979  20.410  25.279  1.00  0.00     0.065 A 
ATOM     26  F   UNL A   1      32.153  19.122  24.562  1.00  0.00    -0.207 F 
ENDBRANCH  16  19
ENDBRANCH  14  15
ENDBRANCH   8  14
ENDBRANCH   4   7
ENDBRANCH   2   3
ENDBRANCH   1   2
BRANCH   1  27
ATOM     27  C   UNL A   1      33.282  28.742  26.333  1.00  0.00     0.023 C 
BRANCH  27  28
ATOM     28  C   UNL A   1      34.629  28.808  27.039  1.00  0.00     0.116 C 
BRANCH  28  29
ATOM     29  N   UNL A   1      34.869  30.099  27.686  1.00  0.00    -0.352 N 
ATOM     30  C   UNL A   1      35.918  30.471  28.512  1.00  0.00     0.251 C 
ATOM     31  H   UNL A   1      34.195  30.795  27.513  1.00  0.00     0.163 HD
ATOM     32  O   UNL A   1      35.829  31.439  29.246  1.00  0.00    -0.269 OA
BRANCH  30  33
ATOM     33  C   UNL A   1      37.178  29.712  28.436  1.00  0.00     0.039 A 
ATOM     34  C   UNL A   1      37.997  29.702  27.297  1.00  0.00     0.014 A 
ATOM     35  C   UNL A   1      37.505  28.943  29.544  1.00  0.00     0.014 A 
ATOM     36  C   UNL A   1      39.189  28.971  27.317  1.00  0.00     0.010 A 
ATOM     37  C   UNL A   1      38.702  28.304  29.606  1.00  0.00     0.010 A 
ATOM     38  C   UNL A   1      39.529  28.290  28.486  1.00  0.00    -0.014 A 
BRANCH  38  39
ATOM     39  C   UNL A   1      40.763  27.569  28.733  1.00  0.00     0.031 A 
ATOM     40  C   UNL A   1      40.816  26.125  28.478  1.00  0.00     0.074 A 
ATOM     41  C   UNL A   1      41.859  28.345  28.872  1.00  0.00     0.049 A 
ATOM     42  N   UNL A   1      41.743  25.343  28.899  1.00  0.00    -0.248 NA
ATOM     43  C   UNL A   1      39.790  25.435  27.702  1.00  0.00     0.031 C 
ATOM     44  C   UNL A   1      43.268  28.022  28.736  1.00  0.00     0.029 A 
ATOM     45  N   UNL A   1      41.857  29.683  29.303  1.00  0.00    -0.354 N 
ATOM     46  C   UNL A   1      41.630  24.156  28.205  1.00  0.00     0.074 A 
ATOM     47  C   UNL A   1      40.333  24.218  27.577  1.00  0.00     0.031 C 
ATOM     48  C   UNL A   1      43.982  28.964  29.385  1.00  0.00     0.029 A 
ATOM     49  C   UNL A   1      43.023  29.819  30.076  1.00  0.00     0.049 A 
ATOM     50  H   UNL A   1      41.186  30.375  29.106  1.00  0.00     0.167 HD
ATOM     51  C   UNL A   1      42.736  23.358  28.108  1.00  0.00     0.037 A 
ATOM     52  C   UNL A   1      42.883  29.917  31.434  1.00  0.00     0.037 A 
ATOM     53  C   UNL A   1      43.836  23.951  28.877  1.00  0.00     0.049 A 
ATOM     54  C   UNL A   1      43.494  28.728  32.130  1.00  0.00     0.074 A 
ATOM     55  C   UNL A   1      44.909  24.740  28.494  1.00  0.00     0.029 A 
ATOM     56  N   UNL A   1      43.706  24.106  30.256  1.00  0.00    -0.354 N 
ATOM     57  N   UNL A   1      43.563  27.530  31.612  1.00  0.00    -0.248 NA
ATOM     58  C   UNL A   1      44.147  28.827  33.428  1.00  0.00     0.031 C 
ATOM     59  C   UNL A   1      45.358  25.451  29.638  1.00  0.00     0.029 A 
ATOM     60  C   UNL A   1      44.577  25.076  30.720  1.00  0.00     0.049 A 
ATOM     61  H   UNL A   1      43.082  23.596  30.822  1.00  0.00     0.167 HD
ATOM     62  C   UNL A   1      44.305  26.728  32.438  1.00  0.00     0.074 A 
ATOM     63  C   UNL A   1      44.635  27.583  33.567  1.00  0.00     0.031 C 
ATOM     64  C   UNL A   1      44.624  25.435  32.131  1.00  0.00     0.037 A 
BRANCH  51  65
ATOM     65  C   UNL A   1      42.938  22.252  27.081  1.00  0.00     0.064 A 
ATOM     66  C   UNL A   1      42.181  21.059  27.155  1.00  0.00     0.173 A 
ATOM     67  C   UNL A   1      43.882  22.269  26.036  1.00  0.00     0.173 A 
ATOM     68  F   UNL A   1      41.173  20.922  28.027  1.00  0.00    -0.203 F 
ATOM     69  C   UNL A   1      42.423  19.953  26.332  1.00  0.00     0.198 A 
ATOM     70  C   UNL A   1      44.152  21.150  25.238  1.00  0.00     0.198 A 
ATOM     71  F   UNL A   1      44.536  23.384  25.698  1.00  0.00    -0.203 F 
ATOM     72  F   UNL A   1      41.674  18.849  26.465  1.00  0.00    -0.200 F 
ATOM     73  C   UNL A   1      43.429  19.986  25.392  1.00  0.00     0.200 A 
ATOM     74  F   UNL A   1      45.118  21.214  24.309  1.00  0.00    -0.200 F 
ATOM     75  F   UNL A   1      43.680  18.920  24.621  1.00  0.00    -0.200 F 
ENDBRANCH  51  65
BRANCH  52  76
ATOM     76  C   UNL A   1      41.601  30.605  31.808  1.00  0.00     0.064 A 
ATOM     77  C   UNL A   1      40.618  29.824  32.459  1.00  0.00     0.173 A 
ATOM     78  C   UNL A   1      41.527  31.995  31.982  1.00  0.00     0.173 A 
ATOM     79  F   UNL A   1      40.633  28.488  32.327  1.00  0.00    -0.203 F 
ATOM     80  C   UNL A   1      39.731  30.386  33.376  1.00  0.00     0.198 A 
ATOM     81  C   UNL A   1      40.611  32.557  32.880  1.00  0.00     0.198 A 
ATOM     82  F   UNL A   1      42.412  32.803  31.381  1.00  0.00    -0.203 F 
ATOM     83  F   UNL A   1      38.928  29.591  34.100  1.00  0.00    -0.200 F 
ATOM     84  C   UNL A   1      39.752  31.749  33.612  1.00  0.00     0.200 A 
ATOM     85  F   UNL A   1      40.620  33.880  33.105  1.00  0.00    -0.200 F 
ATOM     86  F   UNL A   1      38.972  32.276  34.567  1.00  0.00    -0.200 F 
ENDBRANCH  52  76
BRANCH  64  87
ATOM     87  C   UNL A   1      45.127  24.411  33.120  1.00  0.00     0.064 A 
ATOM     88  C   UNL A   1      44.390  23.278  33.504  1.00  0.00     0.173 A 
ATOM     89  C   UNL A   1      46.464  24.453  33.587  1.00  0.00     0.173 A 
ATOM     90  F   UNL A   1      43.163  23.043  33.021  1.00  0.00    -0.203 F 
ATOM     91  C   UNL A   1      44.919  22.306  34.354  1.00  0.00     0.198 A 
ATOM     92  C   UNL A   1      47.011  23.442  34.372  1.00  0.00     0.198 A 
ATOM     93  F   UNL A   1      47.293  25.458  33.268  1.00  0.00    -0.203 F 
ATOM     94  F   UNL A   1      44.152  21.275  34.735  1.00  0.00    -0.200 F 
ATOM     95  C   UNL A   1      46.233  22.379  34.775  1.00  0.00     0.200 A 
ATOM     96  F   UNL A   1      48.306  23.495  34.716  1.00  0.00    -0.200 F 
ATOM     97  F   UNL A   1      46.752  21.414  35.545  1.00  0.00    -0.200 F 
ENDBRANCH  64  87
ENDBRANCH  38  39
ENDBRANCH  30  33
ENDBRANCH  28  29
ENDBRANCH  27  28
ENDBRANCH   1  27
TORSDOF 14
ENDMDL
