MODEL 1
REMARK VINA RESULT:     -13.3      0.000      0.000
REMARK SMILES O=C(NCCCCNC(=O)c1c(F)cccc1NC(=O)C1CCCCC1)c1ccc(-c2c3nc(c(-c4c(F)c(F)c(F)c(F)c4F)c4ccc([nH]4)c(-c4c(F)c(F)c(F)c(F)c4F)c4nc(c(-c5c(F)c(F)c(F)c(F)c5F)c5ccc2[nH]5)C=C4)C=C3)cc1
REMARK SMILES IDX 5 1 4 2 3 3 1 4 2 5 27 7 28 8 89 9 29 10 88 11 30 12 31 13
REMARK SMILES IDX 32 14 82 15 33 16 87 17 81 18 83 19 34 20 86 21 80 22 79 23
REMARK SMILES IDX 35 25 67 26 47 27 66 28 48 29 51 30 65 31 84 32 49 33 50 34
REMARK SMILES IDX 64 36 85 37 52 38 36 39 37 40 45 41 38 42 39 43 43 44 46 45
REMARK SMILES IDX 40 46 41 47 44 48 42 49 68 50 69 51 77 52 70 53 71 54 75 55
REMARK SMILES IDX 78 56 72 57 73 58 76 59 74 60 53 61 54 62 62 63 55 64 56 65
REMARK SMILES IDX 60 66 63 67 57 68 58 69 61 70 59 71 6 72 7 73 8 74 9 75
REMARK SMILES IDX 10 77 11 78 12 79 17 80 13 81 14 82 16 83 15 84 18 85 19 86
REMARK SMILES IDX 20 88 21 89 22 90 26 91 23 92 25 93 24 94
REMARK H PARENT 3 6 83 24 51 35 8 76 18 87
REMARK Flexibility Score: inf
ROOT
ATOM      1  C   UNL A   1      31.357  32.129  26.554  1.00  0.00     0.023 C 
ENDROOT
BRANCH   1   2
ATOM      2  C   UNL A   1      32.499  32.792  27.315  1.00  0.00     0.116 C 
BRANCH   2   3
ATOM      3  N   UNL A   1      32.237  34.185  27.644  1.00  0.00    -0.352 N 
ATOM      4  O   UNL A   1      32.417  36.131  28.769  1.00  0.00    -0.269 OA
ATOM      5  C   UNL A   1      32.870  35.018  28.540  1.00  0.00     0.251 C 
ATOM      6  H   UNL A   1      31.492  34.596  27.150  1.00  0.00     0.163 HD
BRANCH   5   7
ATOM      7  C   UNL A   1      34.077  34.552  29.259  1.00  0.00     0.039 A 
ATOM      8  C   UNL A   1      35.346  34.690  28.695  1.00  0.00     0.014 A 
ATOM      9  C   UNL A   1      33.932  33.947  30.511  1.00  0.00     0.014 A 
ATOM     10  C   UNL A   1      36.433  34.059  29.286  1.00  0.00     0.010 A 
ATOM     11  C   UNL A   1      35.046  33.395  31.152  1.00  0.00     0.010 A 
ATOM     12  C   UNL A   1      36.297  33.397  30.518  1.00  0.00    -0.014 A 
BRANCH  12  13
ATOM     13  C   UNL A   1      37.481  32.722  31.111  1.00  0.00     0.031 A 
ATOM     14  C   UNL A   1      37.947  33.054  32.503  1.00  0.00     0.074 A 
ATOM     15  C   UNL A   1      38.097  31.750  30.411  1.00  0.00     0.049 A 
ATOM     16  N   UNL A   1      38.922  32.517  33.196  1.00  0.00    -0.248 NA
ATOM     17  C   UNL A   1      37.236  34.129  33.210  1.00  0.00     0.031 C 
ATOM     18  C   UNL A   1      37.741  31.342  29.052  1.00  0.00     0.029 A 
ATOM     19  N   UNL A   1      39.124  30.908  30.754  1.00  0.00    -0.354 N 
ATOM     20  C   UNL A   1      38.951  33.198  34.407  1.00  0.00     0.074 A 
ATOM     21  C   UNL A   1      37.915  34.207  34.347  1.00  0.00     0.031 C 
ATOM     22  C   UNL A   1      38.489  30.288  28.700  1.00  0.00     0.029 A 
ATOM     23  C   UNL A   1      39.415  29.979  29.785  1.00  0.00     0.049 A 
ATOM     24  H   UNL A   1      39.605  30.964  31.611  1.00  0.00     0.167 HD
ATOM     25  C   UNL A   1      39.759  32.991  35.474  1.00  0.00     0.037 A 
ATOM     26  C   UNL A   1      40.324  28.987  29.770  1.00  0.00     0.037 A 
ATOM     27  C   UNL A   1      40.773  31.970  35.543  1.00  0.00     0.049 A 
ATOM     28  C   UNL A   1      41.204  28.776  30.966  1.00  0.00     0.074 A 
ATOM     29  C   UNL A   1      41.634  31.678  36.586  1.00  0.00     0.029 A 
ATOM     30  N   UNL A   1      41.054  31.067  34.528  1.00  0.00    -0.354 N 
ATOM     31  N   UNL A   1      41.218  29.426  32.103  1.00  0.00    -0.248 NA
ATOM     32  C   UNL A   1      42.194  27.694  30.879  1.00  0.00     0.031 C 
ATOM     33  C   UNL A   1      42.460  30.622  36.192  1.00  0.00     0.029 A 
ATOM     34  C   UNL A   1      42.083  30.224  34.919  1.00  0.00     0.049 A 
ATOM     35  H   UNL A   1      40.593  31.030  33.659  1.00  0.00     0.167 HD
ATOM     36  C   UNL A   1      42.207  28.830  32.872  1.00  0.00     0.074 A 
ATOM     37  C   UNL A   1      42.759  27.751  32.078  1.00  0.00     0.031 C 
ATOM     38  C   UNL A   1      42.621  29.153  34.120  1.00  0.00     0.037 A 
BRANCH  25  39
ATOM     39  C   UNL A   1      39.591  33.891  36.663  1.00  0.00     0.064 A 
ATOM     40  C   UNL A   1      40.278  35.112  36.735  1.00  0.00     0.173 A 
ATOM     41  C   UNL A   1      38.802  33.517  37.761  1.00  0.00     0.173 A 
ATOM     42  F   UNL A   1      41.053  35.513  35.715  1.00  0.00    -0.203 F 
ATOM     43  C   UNL A   1      40.190  35.921  37.866  1.00  0.00     0.198 A 
ATOM     44  C   UNL A   1      38.695  34.341  38.880  1.00  0.00     0.198 A 
ATOM     45  F   UNL A   1      38.115  32.365  37.738  1.00  0.00    -0.203 F 
ATOM     46  F   UNL A   1      40.877  37.070  37.921  1.00  0.00    -0.200 F 
ATOM     47  C   UNL A   1      39.396  35.536  38.935  1.00  0.00     0.200 A 
ATOM     48  F   UNL A   1      37.909  33.978  39.904  1.00  0.00    -0.200 F 
ATOM     49  F   UNL A   1      39.302  36.321  40.017  1.00  0.00    -0.200 F 
ENDBRANCH  25  39
BRANCH  26  50
ATOM     50  C   UNL A   1      40.414  28.106  28.578  1.00  0.00     0.064 A 
ATOM     51  C   UNL A   1      39.758  26.866  28.540  1.00  0.00     0.173 A 
ATOM     52  C   UNL A   1      41.204  28.463  27.479  1.00  0.00     0.173 A 
ATOM     53  F   UNL A   1      38.996  26.478  29.573  1.00  0.00    -0.203 F 
ATOM     54  C   UNL A   1      39.915  26.005  27.457  1.00  0.00     0.198 A 
ATOM     55  C   UNL A   1      41.339  27.612  26.384  1.00  0.00     0.198 A 
ATOM     56  F   UNL A   1      41.836  29.647  27.464  1.00  0.00    -0.203 F 
ATOM     57  F   UNL A   1      39.313  24.808  27.464  1.00  0.00    -0.200 F 
ATOM     58  C   UNL A   1      40.702  26.379  26.379  1.00  0.00     0.200 A 
ATOM     59  F   UNL A   1      42.085  27.984  25.336  1.00  0.00    -0.200 F 
ATOM     60  F   UNL A   1      40.849  25.551  25.336  1.00  0.00    -0.200 F 
ENDBRANCH  26  50
BRANCH  38  61
ATOM     61  C   UNL A   1      43.712  28.319  34.722  1.00  0.00     0.064 A 
ATOM     62  C   UNL A   1      43.400  27.174  35.470  1.00  0.00     0.173 A 
ATOM     63  C   UNL A   1      45.061  28.687  34.609  1.00  0.00     0.173 A 
ATOM     64  F   UNL A   1      42.125  26.785  35.612  1.00  0.00    -0.203 F 
ATOM     65  C   UNL A   1      44.401  26.432  36.091  1.00  0.00     0.198 A 
ATOM     66  C   UNL A   1      46.061  27.929  35.212  1.00  0.00     0.198 A 
ATOM     67  F   UNL A   1      45.408  29.767  33.893  1.00  0.00    -0.203 F 
ATOM     68  F   UNL A   1      44.079  25.355  36.822  1.00  0.00    -0.200 F 
ATOM     69  C   UNL A   1      45.730  26.807  35.958  1.00  0.00     0.200 A 
ATOM     70  F   UNL A   1      47.345  28.279  35.065  1.00  0.00    -0.200 F 
ATOM     71  F   UNL A   1      46.693  26.084  36.546  1.00  0.00    -0.200 F 
ENDBRANCH  38  61
ENDBRANCH  12  13
ENDBRANCH   5   7
ENDBRANCH   2   3
ENDBRANCH   1   2
BRANCH   1  72
ATOM     72  C   UNL A   1      31.613  30.689  26.114  1.00  0.00     0.023 C 
BRANCH  72  73
ATOM     73  C   UNL A   1      32.142  29.756  27.199  1.00  0.00     0.116 C 
BRANCH  73  74
ATOM     74  N   UNL A   1      31.500  28.453  27.182  1.00  0.00    -0.352 N 
ATOM     75  C   UNL A   1      31.443  27.545  26.155  1.00  0.00     0.256 C 
ATOM     76  H   UNL A   1      31.048  28.187  28.015  1.00  0.00     0.163 HD
ATOM     77  O   UNL A   1      30.758  26.530  26.262  1.00  0.00    -0.269 OA
BRANCH  75  78
ATOM     78  C   UNL A   1      32.126  27.816  24.879  1.00  0.00     0.099 A 
ATOM     79  C   UNL A   1      33.519  27.946  24.879  1.00  0.00     0.138 A 
ATOM     80  C   UNL A   1      31.385  27.960  23.684  1.00  0.00     0.057 A 
ATOM     81  F   UNL A   1      34.227  27.782  26.007  1.00  0.00    -0.206 F 
ATOM     82  C   UNL A   1      34.204  28.279  23.720  1.00  0.00     0.040 A 
ATOM     83  C   UNL A   1      32.103  28.255  22.520  1.00  0.00     0.027 A 
ATOM     84  C   UNL A   1      33.493  28.436  22.538  1.00  0.00     0.005 A 
BRANCH  80  85
ATOM     85  N   UNL A   1      29.977  27.791  23.735  1.00  0.00    -0.325 N 
ATOM     86  C   UNL A   1      28.891  28.505  23.311  1.00  0.00     0.227 C 
ATOM     87  H   UNL A   1      29.719  26.955  24.186  1.00  0.00     0.169 HD
ATOM     88  O   UNL A   1      27.778  27.995  23.474  1.00  0.00    -0.274 OA
BRANCH  86  89
ATOM     89  C   UNL A   1      29.024  29.896  22.707  1.00  0.00     0.079 C 
ATOM     90  C   UNL A   1      28.091  30.120  21.506  1.00  0.00     0.013 C 
ATOM     91  C   UNL A   1      28.747  30.990  23.745  1.00  0.00     0.013 C 
ATOM     92  C   UNL A   1      28.359  31.490  20.877  1.00  0.00     0.001 C 
ATOM     93  C   UNL A   1      29.061  32.363  23.159  1.00  0.00     0.001 C 
ATOM     94  C   UNL A   1      28.252  32.627  21.892  1.00  0.00     0.000 C 
ENDBRANCH  86  89
ENDBRANCH  80  85
ENDBRANCH  75  78
ENDBRANCH  73  74
ENDBRANCH  72  73
ENDBRANCH   1  72
TORSDOF 13
ENDMDL
MODEL 2
REMARK VINA RESULT:     -13.3      0.171      1.138
REMARK SMILES O=C(NCCCCNC(=O)c1c(F)cccc1NC(=O)C1CCCCC1)c1ccc(-c2c3nc(c(-c4c(F)c(F)c(F)c(F)c4F)c4ccc([nH]4)c(-c4c(F)c(F)c(F)c(F)c4F)c4nc(c(-c5c(F)c(F)c(F)c(F)c5F)c5ccc2[nH]5)C=C4)C=C3)cc1
REMARK SMILES IDX 5 1 4 2 3 3 1 4 2 5 27 7 28 8 89 9 29 10 88 11 30 12 31 13
REMARK SMILES IDX 32 14 82 15 33 16 87 17 81 18 83 19 34 20 86 21 80 22 79 23
REMARK SMILES IDX 35 25 67 26 47 27 66 28 48 29 51 30 65 31 84 32 49 33 50 34
REMARK SMILES IDX 64 36 85 37 52 38 36 39 37 40 45 41 38 42 39 43 43 44 46 45
REMARK SMILES IDX 40 46 41 47 44 48 42 49 68 50 69 51 77 52 70 53 71 54 75 55
REMARK SMILES IDX 78 56 72 57 73 58 76 59 74 60 53 61 54 62 62 63 55 64 56 65
REMARK SMILES IDX 60 66 63 67 57 68 58 69 61 70 59 71 6 72 7 73 8 74 9 75
REMARK SMILES IDX 10 77 11 78 12 79 17 80 13 81 14 82 16 83 15 84 18 85 19 86
REMARK SMILES IDX 20 88 21 89 22 90 26 91 23 92 25 93 24 94
REMARK H PARENT 3 6 83 24 51 35 8 76 18 87
REMARK Flexibility Score: inf
ROOT
ATOM      1  C   UNL A   1      31.402  32.097  26.672  1.00  0.00     0.023 C 
ENDROOT
BRANCH   1   2
ATOM      2  C   UNL A   1      32.590  32.807  27.310  1.00  0.00     0.116 C 
BRANCH   2   3
ATOM      3  N   UNL A   1      32.320  34.201  27.632  1.00  0.00    -0.352 N 
ATOM      4  O   UNL A   1      32.477  36.149  28.757  1.00  0.00    -0.269 OA
ATOM      5  C   UNL A   1      32.935  35.036  28.539  1.00  0.00     0.251 C 
ATOM      6  H   UNL A   1      31.584  34.611  27.123  1.00  0.00     0.163 HD
BRANCH   5   7
ATOM      7  C   UNL A   1      34.129  34.572  29.281  1.00  0.00     0.039 A 
ATOM      8  C   UNL A   1      35.406  34.689  28.731  1.00  0.00     0.014 A 
ATOM      9  C   UNL A   1      33.962  33.992  30.542  1.00  0.00     0.014 A 
ATOM     10  C   UNL A   1      36.480  34.059  29.347  1.00  0.00     0.010 A 
ATOM     11  C   UNL A   1      35.063  33.441  31.207  1.00  0.00     0.010 A 
ATOM     12  C   UNL A   1      36.322  33.421  30.589  1.00  0.00    -0.014 A 
BRANCH  12  13
ATOM     13  C   UNL A   1      37.492  32.746  31.209  1.00  0.00     0.031 A 
ATOM     14  C   UNL A   1      37.932  33.085  32.608  1.00  0.00     0.074 A 
ATOM     15  C   UNL A   1      38.120  31.770  30.526  1.00  0.00     0.049 A 
ATOM     16  N   UNL A   1      38.891  32.549  33.323  1.00  0.00    -0.248 NA
ATOM     17  C   UNL A   1      37.209  34.165  33.295  1.00  0.00     0.031 C 
ATOM     18  C   UNL A   1      37.790  31.355  29.163  1.00  0.00     0.029 A 
ATOM     19  N   UNL A   1      39.138  30.927  30.894  1.00  0.00    -0.354 N 
ATOM     20  C   UNL A   1      38.898  33.237  34.530  1.00  0.00     0.074 A 
ATOM     21  C   UNL A   1      37.866  34.248  34.444  1.00  0.00     0.031 C 
ATOM     22  C   UNL A   1      38.542  30.297  28.831  1.00  0.00     0.029 A 
ATOM     23  C   UNL A   1      39.445  29.992  29.936  1.00  0.00     0.049 A 
ATOM     24  H   UNL A   1      39.602  30.986  31.760  1.00  0.00     0.167 HD
ATOM     25  C   UNL A   1      39.684  33.034  35.614  1.00  0.00     0.037 A 
ATOM     26  C   UNL A   1      40.352  28.997  29.944  1.00  0.00     0.037 A 
ATOM     27  C   UNL A   1      40.694  32.011  35.709  1.00  0.00     0.049 A 
ATOM     28  C   UNL A   1      41.208  28.791  31.159  1.00  0.00     0.074 A 
ATOM     29  C   UNL A   1      41.534  31.723  36.771  1.00  0.00     0.029 A 
ATOM     30  N   UNL A   1      40.993  31.101  34.705  1.00  0.00    -0.354 N 
ATOM     31  N   UNL A   1      41.201  29.447  32.293  1.00  0.00    -0.248 NA
ATOM     32  C   UNL A   1      42.197  27.706  31.097  1.00  0.00     0.031 C 
ATOM     33  C   UNL A   1      42.365  30.663  36.398  1.00  0.00     0.029 A 
ATOM     34  C   UNL A   1      42.012  30.259  35.121  1.00  0.00     0.049 A 
ATOM     35  H   UNL A   1      40.549  31.061  33.828  1.00  0.00     0.167 HD
ATOM     36  C   UNL A   1      42.173  28.853  33.084  1.00  0.00     0.074 A 
ATOM     37  C   UNL A   1      42.738  27.769  32.307  1.00  0.00     0.031 C 
ATOM     38  C   UNL A   1      42.563  29.182  34.339  1.00  0.00     0.037 A 
BRANCH  25  39
ATOM     39  C   UNL A   1      39.495  33.941  36.795  1.00  0.00     0.064 A 
ATOM     40  C   UNL A   1      40.159  35.175  36.859  1.00  0.00     0.173 A 
ATOM     41  C   UNL A   1      38.709  33.562  37.893  1.00  0.00     0.173 A 
ATOM     42  F   UNL A   1      40.929  35.582  35.838  1.00  0.00    -0.203 F 
ATOM     43  C   UNL A   1      40.051  35.992  37.983  1.00  0.00     0.198 A 
ATOM     44  C   UNL A   1      38.582  34.393  39.005  1.00  0.00     0.198 A 
ATOM     45  F   UNL A   1      38.044  32.397  37.878  1.00  0.00    -0.203 F 
ATOM     46  F   UNL A   1      40.716  37.154  38.030  1.00  0.00    -0.200 F 
ATOM     47  C   UNL A   1      39.260  35.602  39.052  1.00  0.00     0.200 A 
ATOM     48  F   UNL A   1      37.800  34.024  40.029  1.00  0.00    -0.200 F 
ATOM     49  F   UNL A   1      39.147  36.393  40.127  1.00  0.00    -0.200 F 
ENDBRANCH  25  39
BRANCH  26  50
ATOM     50  C   UNL A   1      40.464  28.110  28.760  1.00  0.00     0.064 A 
ATOM     51  C   UNL A   1      41.235  28.477  27.647  1.00  0.00     0.173 A 
ATOM     52  C   UNL A   1      39.754  26.905  28.695  1.00  0.00     0.173 A 
ATOM     53  F   UNL A   1      41.926  29.627  27.659  1.00  0.00    -0.203 F 
ATOM     54  C   UNL A   1      41.268  27.683  26.503  1.00  0.00     0.198 A 
ATOM     55  C   UNL A   1      39.808  26.099  27.560  1.00  0.00     0.198 A 
ATOM     56  F   UNL A   1      39.016  26.505  29.743  1.00  0.00    -0.203 F 
ATOM     57  F   UNL A   1      41.977  28.078  25.437  1.00  0.00    -0.200 F 
ATOM     58  C   UNL A   1      40.557  26.494  26.462  1.00  0.00     0.200 A 
ATOM     59  F   UNL A   1      39.135  24.940  27.530  1.00  0.00    -0.200 F 
ATOM     60  F   UNL A   1      40.592  25.729  25.362  1.00  0.00    -0.200 F 
ENDBRANCH  26  50
BRANCH  38  61
ATOM     61  C   UNL A   1      43.640  28.349  34.966  1.00  0.00     0.064 A 
ATOM     62  C   UNL A   1      43.310  27.223  35.736  1.00  0.00     0.173 A 
ATOM     63  C   UNL A   1      44.993  28.699  34.857  1.00  0.00     0.173 A 
ATOM     64  F   UNL A   1      42.029  26.851  35.875  1.00  0.00    -0.203 F 
ATOM     65  C   UNL A   1      44.297  26.483  36.380  1.00  0.00     0.198 A 
ATOM     66  C   UNL A   1      45.980  27.943  35.484  1.00  0.00     0.198 A 
ATOM     67  F   UNL A   1      45.358  29.760  34.121  1.00  0.00    -0.203 F 
ATOM     68  F   UNL A   1      43.957  25.425  37.130  1.00  0.00    -0.200 F 
ATOM     69  C   UNL A   1      45.631  26.840  36.250  1.00  0.00     0.200 A 
ATOM     70  F   UNL A   1      47.270  28.276  35.339  1.00  0.00    -0.200 F 
ATOM     71  F   UNL A   1      46.581  26.119  36.860  1.00  0.00    -0.200 F 
ENDBRANCH  38  61
ENDBRANCH  12  13
ENDBRANCH   5   7
ENDBRANCH   2   3
ENDBRANCH   1   2
BRANCH   1  72
ATOM     72  C   UNL A   1      31.677  30.679  26.176  1.00  0.00     0.023 C 
BRANCH  72  73
ATOM     73  C   UNL A   1      32.219  29.712  27.224  1.00  0.00     0.116 C 
BRANCH  73  74
ATOM     74  N   UNL A   1      31.547  28.424  27.200  1.00  0.00    -0.352 N 
ATOM     75  C   UNL A   1      31.459  27.527  26.165  1.00  0.00     0.256 C 
ATOM     76  H   UNL A   1      31.097  28.159  28.035  1.00  0.00     0.163 HD
ATOM     77  O   UNL A   1      30.753  26.528  26.269  1.00  0.00    -0.269 OA
BRANCH  75  78
ATOM     78  C   UNL A   1      32.136  27.796  24.884  1.00  0.00     0.099 A 
ATOM     79  C   UNL A   1      33.530  27.912  24.876  1.00  0.00     0.138 A 
ATOM     80  C   UNL A   1      31.388  27.952  23.696  1.00  0.00     0.057 A 
ATOM     81  F   UNL A   1      34.244  27.738  25.998  1.00  0.00    -0.206 F 
ATOM     82  C   UNL A   1      34.210  28.242  23.712  1.00  0.00     0.040 A 
ATOM     83  C   UNL A   1      32.101  28.243  22.527  1.00  0.00     0.027 A 
ATOM     84  C   UNL A   1      33.493  28.411  22.536  1.00  0.00     0.005 A 
BRANCH  80  85
ATOM     85  N   UNL A   1      29.979  27.796  23.756  1.00  0.00    -0.325 N 
ATOM     86  C   UNL A   1      28.897  28.518  23.335  1.00  0.00     0.227 C 
ATOM     87  H   UNL A   1      29.716  26.965  24.213  1.00  0.00     0.169 HD
ATOM     88  O   UNL A   1      27.780  28.020  23.508  1.00  0.00    -0.274 OA
BRANCH  86  89
ATOM     89  C   UNL A   1      29.040  29.904  22.722  1.00  0.00     0.079 C 
ATOM     90  C   UNL A   1      28.097  30.133  21.529  1.00  0.00     0.013 C 
ATOM     91  C   UNL A   1      28.784  31.007  23.757  1.00  0.00     0.013 C 
ATOM     92  C   UNL A   1      28.375  31.496  20.890  1.00  0.00     0.001 C 
ATOM     93  C   UNL A   1      29.109  32.373  23.161  1.00  0.00     0.001 C 
ATOM     94  C   UNL A   1      28.290  32.640  21.900  1.00  0.00     0.000 C 
ENDBRANCH  86  89
ENDBRANCH  80  85
ENDBRANCH  75  78
ENDBRANCH  73  74
ENDBRANCH  72  73
ENDBRANCH   1  72
TORSDOF 13
ENDMDL
MODEL 3
REMARK VINA RESULT:     -13.2      0.361      7.398
REMARK SMILES O=C(NCCCCNC(=O)c1c(F)cccc1NC(=O)C1CCCCC1)c1ccc(-c2c3nc(c(-c4c(F)c(F)c(F)c(F)c4F)c4ccc([nH]4)c(-c4c(F)c(F)c(F)c(F)c4F)c4nc(c(-c5c(F)c(F)c(F)c(F)c5F)c5ccc2[nH]5)C=C4)C=C3)cc1
REMARK SMILES IDX 5 1 4 2 3 3 1 4 2 5 27 7 28 8 89 9 29 10 88 11 30 12 31 13
REMARK SMILES IDX 32 14 82 15 33 16 87 17 81 18 83 19 34 20 86 21 80 22 79 23
REMARK SMILES IDX 35 25 67 26 47 27 66 28 48 29 51 30 65 31 84 32 49 33 50 34
REMARK SMILES IDX 64 36 85 37 52 38 36 39 37 40 45 41 38 42 39 43 43 44 46 45
REMARK SMILES IDX 40 46 41 47 44 48 42 49 68 50 69 51 77 52 70 53 71 54 75 55
REMARK SMILES IDX 78 56 72 57 73 58 76 59 74 60 53 61 54 62 62 63 55 64 56 65
REMARK SMILES IDX 60 66 63 67 57 68 58 69 61 70 59 71 6 72 7 73 8 74 9 75
REMARK SMILES IDX 10 77 11 78 12 79 17 80 13 81 14 82 16 83 15 84 18 85 19 86
REMARK SMILES IDX 20 88 21 89 22 90 26 91 23 92 25 93 24 94
REMARK H PARENT 3 6 83 24 51 35 8 76 18 87
REMARK Flexibility Score: inf
ROOT
ATOM      1  C   UNL A   1      31.326  32.180  26.666  1.00  0.00     0.023 C 
ENDROOT
BRANCH   1   2
ATOM      2  C   UNL A   1      32.556  32.827  27.291  1.00  0.00     0.116 C 
BRANCH   2   3
ATOM      3  N   UNL A   1      32.364  34.233  27.616  1.00  0.00    -0.352 N 
ATOM      4  O   UNL A   1      32.596  36.158  28.768  1.00  0.00    -0.269 OA
ATOM      5  C   UNL A   1      32.990  35.018  28.558  1.00  0.00     0.251 C 
ATOM      6  H   UNL A   1      31.680  34.694  27.078  1.00  0.00     0.163 HD
BRANCH   5   7
ATOM      7  C   UNL A   1      34.116  34.471  29.348  1.00  0.00     0.039 A 
ATOM      8  C   UNL A   1      35.427  34.546  28.875  1.00  0.00     0.014 A 
ATOM      9  C   UNL A   1      33.850  33.855  30.574  1.00  0.00     0.014 A 
ATOM     10  C   UNL A   1      36.433  33.843  29.525  1.00  0.00     0.010 A 
ATOM     11  C   UNL A   1      34.884  33.229  31.279  1.00  0.00     0.010 A 
ATOM     12  C   UNL A   1      36.174  33.170  30.732  1.00  0.00    -0.014 A 
BRANCH  12  13
ATOM     13  C   UNL A   1      37.274  32.418  31.390  1.00  0.00     0.031 A 
ATOM     14  C   UNL A   1      38.026  31.341  30.656  1.00  0.00     0.074 A 
ATOM     15  C   UNL A   1      37.642  32.760  32.640  1.00  0.00     0.049 A 
ATOM     16  N   UNL A   1      39.052  30.630  31.058  1.00  0.00    -0.248 NA
ATOM     17  C   UNL A   1      37.569  31.011  29.298  1.00  0.00     0.031 C 
ATOM     18  C   UNL A   1      36.987  33.783  33.456  1.00  0.00     0.029 A 
ATOM     19  N   UNL A   1      38.672  32.314  33.428  1.00  0.00    -0.354 N 
ATOM     20  C   UNL A   1      39.349  29.762  30.015  1.00  0.00     0.074 A 
ATOM     21  C   UNL A   1      38.379  30.013  28.970  1.00  0.00     0.031 C 
ATOM     22  C   UNL A   1      37.668  33.934  34.600  1.00  0.00     0.029 A 
ATOM     23  C   UNL A   1      38.773  32.981  34.624  1.00  0.00     0.049 A 
ATOM     24  H   UNL A   1      39.280  31.586  33.162  1.00  0.00     0.167 HD
ATOM     25  C   UNL A   1      40.346  28.850  29.932  1.00  0.00     0.037 A 
ATOM     26  C   UNL A   1      39.658  32.845  35.629  1.00  0.00     0.037 A 
ATOM     27  C   UNL A   1      41.327  28.618  30.962  1.00  0.00     0.049 A 
ATOM     28  C   UNL A   1      40.757  31.830  35.511  1.00  0.00     0.074 A 
ATOM     29  C   UNL A   1      42.381  27.721  30.964  1.00  0.00     0.029 A 
ATOM     30  N   UNL A   1      41.377  29.297  32.171  1.00  0.00    -0.354 N 
ATOM     31  N   UNL A   1      41.025  31.019  34.518  1.00  0.00    -0.248 NA
ATOM     32  C   UNL A   1      41.674  31.710  36.652  1.00  0.00     0.031 C 
ATOM     33  C   UNL A   1      43.049  27.831  32.187  1.00  0.00     0.029 A 
ATOM     34  C   UNL A   1      42.440  28.830  32.929  1.00  0.00     0.049 A 
ATOM     35  H   UNL A   1      40.752  30.004  32.449  1.00  0.00     0.167 HD
ATOM     36  C   UNL A   1      42.146  30.299  34.905  1.00  0.00     0.074 A 
ATOM     37  C   UNL A   1      42.520  30.784  36.219  1.00  0.00     0.031 C 
ATOM     38  C   UNL A   1      42.802  29.323  34.234  1.00  0.00     0.037 A 
BRANCH  25  39
ATOM     39  C   UNL A   1      40.433  28.019  28.685  1.00  0.00     0.064 A 
ATOM     40  C   UNL A   1      39.800  26.769  28.617  1.00  0.00     0.173 A 
ATOM     41  C   UNL A   1      41.195  28.430  27.581  1.00  0.00     0.173 A 
ATOM     42  F   UNL A   1      39.066  26.326  29.649  1.00  0.00    -0.203 F 
ATOM     43  C   UNL A   1      39.936  25.955  27.494  1.00  0.00     0.198 A 
ATOM     44  C   UNL A   1      41.307  27.625  26.449  1.00  0.00     0.198 A 
ATOM     45  F   UNL A   1      41.810  29.622  27.590  1.00  0.00    -0.203 F 
ATOM     46  F   UNL A   1      39.343  24.754  27.464  1.00  0.00    -0.200 F 
ATOM     47  C   UNL A   1      40.685  26.386  26.410  1.00  0.00     0.200 A 
ATOM     48  F   UNL A   1      42.014  28.052  25.393  1.00  0.00    -0.200 F 
ATOM     49  F   UNL A   1      40.804  25.608  25.326  1.00  0.00    -0.200 F 
ENDBRANCH  25  39
BRANCH  26  50
ATOM     50  C   UNL A   1      39.542  33.724  36.819  1.00  0.00     0.064 A 
ATOM     51  C   UNL A   1      38.794  33.334  37.941  1.00  0.00     0.173 A 
ATOM     52  C   UNL A   1      40.128  34.995  36.834  1.00  0.00     0.173 A 
ATOM     53  F   UNL A   1      38.208  32.128  37.970  1.00  0.00    -0.203 F 
ATOM     54  C   UNL A   1      38.616  34.196  39.020  1.00  0.00     0.198 A 
ATOM     55  C   UNL A   1      39.970  35.847  37.925  1.00  0.00     0.198 A 
ATOM     56  F   UNL A   1      40.866  35.405  35.790  1.00  0.00    -0.203 F 
ATOM     57  F   UNL A   1      37.861  33.816  40.060  1.00  0.00    -0.200 F 
ATOM     58  C   UNL A   1      39.206  35.450  39.012  1.00  0.00     0.200 A 
ATOM     59  F   UNL A   1      40.558  37.052  37.923  1.00  0.00    -0.200 F 
ATOM     60  F   UNL A   1      39.036  36.278  40.052  1.00  0.00    -0.200 F 
ENDBRANCH  26  50
BRANCH  38  61
ATOM     61  C   UNL A   1      44.007  28.722  34.893  1.00  0.00     0.064 A 
ATOM     62  C   UNL A   1      45.283  29.258  34.665  1.00  0.00     0.173 A 
ATOM     63  C   UNL A   1      43.906  27.579  35.700  1.00  0.00     0.173 A 
ATOM     64  F   UNL A   1      45.432  30.346  33.895  1.00  0.00    -0.203 F 
ATOM     65  C   UNL A   1      46.416  28.667  35.215  1.00  0.00     0.198 A 
ATOM     66  C   UNL A   1      45.039  27.004  36.268  1.00  0.00     0.198 A 
ATOM     67  F   UNL A   1      42.705  27.038  35.956  1.00  0.00    -0.203 F 
ATOM     68  F   UNL A   1      47.628  29.181  34.965  1.00  0.00    -0.200 F 
ATOM     69  C   UNL A   1      46.293  27.543  36.020  1.00  0.00     0.200 A 
ATOM     70  F   UNL A   1      44.917  25.932  37.063  1.00  0.00    -0.200 F 
ATOM     71  F   UNL A   1      47.383  26.982  36.560  1.00  0.00    -0.200 F 
ENDBRANCH  38  61
ENDBRANCH  12  13
ENDBRANCH   5   7
ENDBRANCH   2   3
ENDBRANCH   1   2
BRANCH   1  72
ATOM     72  C   UNL A   1      31.531  30.765  26.129  1.00  0.00     0.023 C 
BRANCH  72  73
ATOM     73  C   UNL A   1      32.153  29.776  27.110  1.00  0.00     0.116 C 
BRANCH  73  74
ATOM     74  N   UNL A   1      31.510  28.474  27.076  1.00  0.00    -0.352 N 
ATOM     75  C   UNL A   1      31.450  27.580  26.037  1.00  0.00     0.256 C 
ATOM     76  H   UNL A   1      31.060  28.195  27.907  1.00  0.00     0.163 HD
ATOM     77  O   UNL A   1      30.765  26.564  26.132  1.00  0.00    -0.269 OA
BRANCH  75  78
ATOM     78  C   UNL A   1      32.130  27.868  24.763  1.00  0.00     0.099 A 
ATOM     79  C   UNL A   1      33.522  28.001  24.762  1.00  0.00     0.138 A 
ATOM     80  C   UNL A   1      31.385  28.027  23.572  1.00  0.00     0.057 A 
ATOM     81  F   UNL A   1      34.233  27.823  25.886  1.00  0.00    -0.206 F 
ATOM     82  C   UNL A   1      34.204  28.349  23.605  1.00  0.00     0.040 A 
ATOM     83  C   UNL A   1      32.100  28.338  22.410  1.00  0.00     0.027 A 
ATOM     84  C   UNL A   1      33.490  28.521  22.427  1.00  0.00     0.005 A 
BRANCH  80  85
ATOM     85  N   UNL A   1      29.978  27.854  23.624  1.00  0.00    -0.325 N 
ATOM     86  C   UNL A   1      28.889  28.578  23.225  1.00  0.00     0.227 C 
ATOM     87  H   UNL A   1      29.723  27.006  24.052  1.00  0.00     0.169 HD
ATOM     88  O   UNL A   1      27.777  28.063  23.379  1.00  0.00    -0.274 OA
BRANCH  86  89
ATOM     89  C   UNL A   1      29.018  29.986  22.659  1.00  0.00     0.079 C 
ATOM     90  C   UNL A   1      28.114  30.228  21.439  1.00  0.00     0.013 C 
ATOM     91  C   UNL A   1      28.697  31.050  23.716  1.00  0.00     0.013 C 
ATOM     92  C   UNL A   1      28.380  31.616  20.851  1.00  0.00     0.001 C 
ATOM     93  C   UNL A   1      29.007  32.441  23.173  1.00  0.00     0.001 C 
ATOM     94  C   UNL A   1      28.228  32.726  21.891  1.00  0.00     0.000 C 
ENDBRANCH  86  89
ENDBRANCH  80  85
ENDBRANCH  75  78
ENDBRANCH  73  74
ENDBRANCH  72  73
ENDBRANCH   1  72
TORSDOF 13
ENDMDL
