MODEL 1
REMARK VINA RESULT:     -13.1      0.000      0.000
REMARK SMILES CC1(C)C[C@@H](Nc2ccc(Cl)c(C(=O)NCCCCNC(=O)c3ccc(-c4c5nc(c(-c6c(F)c(F)c(F)c(F)c6F)c6ccc([nH]6)c(-c6c(F)c(F)c(F)c(F)c6F)c6nc(c(-c7c(F)c(F)c(F)c(F)c7F)c7ccc4[nH]7)C=C6)C=C5)cc3)c2)C(C)(C)O1
REMARK SMILES IDX 17 1 16 2 15 3 13 4 14 5 12 7 7 8 8 9 86 10 9 11 10 12 11 13
REMARK SMILES IDX 6 14 5 16 1 17 2 18 3 19 4 20 90 21 87 22 88 23 89 24 18 25
REMARK SMILES IDX 19 26 20 27 21 28 22 30 23 31 24 32 85 33 25 34 84 35 26 36
REMARK SMILES IDX 27 37 28 38 78 39 29 40 83 41 77 42 79 43 30 44 82 45 76 46
REMARK SMILES IDX 75 47 31 49 63 50 43 51 62 52 44 53 47 54 61 55 80 56 45 57
REMARK SMILES IDX 46 58 60 60 81 61 48 62 32 63 33 64 41 65 34 66 35 67 39 68
REMARK SMILES IDX 42 69 36 70 37 71 40 72 38 73 64 74 65 75 73 76 66 77 67 78
REMARK SMILES IDX 71 79 74 80 68 81 69 82 72 83 70 84 49 85 50 86 58 87 51 88
REMARK SMILES IDX 52 89 56 90 59 91 53 92 54 93 57 94 55 95
REMARK H PARENT 15 6 6 15 20 29 79 48 47 59
REMARK Flexibility Score: inf
ROOT
ATOM      1  C   UNL A   1      31.783  30.418  26.828  1.00  0.00     0.023 C 
ENDROOT
BRANCH   1   2
ATOM      2  C   UNL A   1      33.200  29.872  26.953  1.00  0.00     0.116 C 
BRANCH   2   3
ATOM      3  N   UNL A   1      33.821  29.493  25.699  1.00  0.00    -0.352 N 
ATOM      4  C   UNL A   1      33.547  28.436  24.858  1.00  0.00     0.252 C 
ATOM      5  O   UNL A   1      34.181  28.344  23.808  1.00  0.00    -0.269 OA
ATOM      6  H   UNL A   1      34.550  30.083  25.400  1.00  0.00     0.163 HD
BRANCH   4   7
ATOM      7  C   UNL A   1      32.596  27.354  25.218  1.00  0.00     0.060 A 
ATOM      8  C   UNL A   1      32.371  25.092  26.123  1.00  0.00     0.035 A 
ATOM      9  C   UNL A   1      30.983  25.227  26.040  1.00  0.00     0.027 A 
ATOM     10  C   UNL A   1      33.165  26.188  25.773  1.00  0.00     0.041 A 
ATOM     11  C   UNL A   1      30.410  26.346  25.443  1.00  0.00     0.023 A 
ATOM     12  C   UNL A   1      31.223  27.369  24.952  1.00  0.00     0.053 A 
ATOM     13  Cl  UNL A   1      30.460  28.494  23.886  1.00  0.00    -0.083 Cl
BRANCH   8  14
ATOM     14  N   UNL A   1      32.949  23.848  26.367  1.00  0.00    -0.379 N 
ATOM     15  H   UNL A   1      33.280  23.600  27.260  1.00  0.00     0.160 HD
BRANCH  14  16
ATOM     16  C   UNL A   1      33.041  22.925  25.231  1.00  0.00     0.113 C 
ATOM     17  C   UNL A   1      32.605  19.271  24.751  1.00  0.00     0.042 C 
ATOM     18  C   UNL A   1      32.795  20.739  24.382  1.00  0.00     0.065 C 
ATOM     19  C   UNL A   1      32.218  20.991  22.982  1.00  0.00     0.042 C 
ATOM     20  C   UNL A   1      32.211  21.675  25.437  1.00  0.00     0.062 C 
ATOM     21  O   UNL A   1      34.207  21.033  24.340  1.00  0.00    -0.367 OA
ATOM     22  C   UNL A   1      34.440  22.343  24.924  1.00  0.00     0.083 C 
ATOM     23  C   UNL A   1      35.335  22.118  26.146  1.00  0.00     0.044 C 
ATOM     24  C   UNL A   1      35.183  23.191  23.889  1.00  0.00     0.044 C 
ENDBRANCH  14  16
ENDBRANCH   8  14
ENDBRANCH   4   7
ENDBRANCH   2   3
ENDBRANCH   1   2
BRANCH   1  25
ATOM     25  C   UNL A   1      31.646  31.936  26.721  1.00  0.00     0.023 C 
BRANCH  25  26
ATOM     26  C   UNL A   1      32.803  32.772  27.260  1.00  0.00     0.116 C 
BRANCH  26  27
ATOM     27  N   UNL A   1      32.431  34.123  27.656  1.00  0.00    -0.352 N 
ATOM     28  C   UNL A   1      32.990  34.964  28.591  1.00  0.00     0.251 C 
ATOM     29  H   UNL A   1      31.654  34.494  27.179  1.00  0.00     0.163 HD
ATOM     30  O   UNL A   1      32.475  36.055  28.818  1.00  0.00    -0.269 OA
BRANCH  28  31
ATOM     31  C   UNL A   1      34.180  34.543  29.364  1.00  0.00     0.039 A 
ATOM     32  C   UNL A   1      33.993  33.995  30.637  1.00  0.00     0.014 A 
ATOM     33  C   UNL A   1      35.468  34.666  28.840  1.00  0.00     0.014 A 
ATOM     34  C   UNL A   1      35.085  33.477  31.339  1.00  0.00     0.010 A 
ATOM     35  C   UNL A   1      36.542  34.074  29.501  1.00  0.00     0.010 A 
ATOM     36  C   UNL A   1      36.361  33.463  30.753  1.00  0.00    -0.014 A 
BRANCH  36  37
ATOM     37  C   UNL A   1      37.512  32.797  31.419  1.00  0.00     0.031 A 
ATOM     38  C   UNL A   1      38.203  31.638  30.758  1.00  0.00     0.074 A 
ATOM     39  C   UNL A   1      37.881  33.184  32.656  1.00  0.00     0.049 A 
ATOM     40  N   UNL A   1      39.158  30.869  31.219  1.00  0.00    -0.248 NA
ATOM     41  C   UNL A   1      37.737  31.271  29.412  1.00  0.00     0.031 C 
ATOM     42  C   UNL A   1      37.257  34.258  33.430  1.00  0.00     0.029 A 
ATOM     43  N   UNL A   1      38.864  32.706  33.488  1.00  0.00    -0.354 N 
ATOM     44  C   UNL A   1      39.390  29.921  30.233  1.00  0.00     0.074 A 
ATOM     45  C   UNL A   1      38.442  30.176  29.170  1.00  0.00     0.031 C 
ATOM     46  C   UNL A   1      37.884  34.373  34.612  1.00  0.00     0.029 A 
ATOM     47  C   UNL A   1      38.928  33.356  34.697  1.00  0.00     0.049 A 
ATOM     48  H   UNL A   1      39.466  31.967  33.243  1.00  0.00     0.167 HD
ATOM     49  C   UNL A   1      40.325  28.941  30.204  1.00  0.00     0.037 A 
ATOM     50  C   UNL A   1      39.731  33.151  35.758  1.00  0.00     0.037 A 
ATOM     51  C   UNL A   1      41.289  28.709  31.247  1.00  0.00     0.049 A 
ATOM     52  C   UNL A   1      40.767  32.060  35.697  1.00  0.00     0.074 A 
ATOM     53  C   UNL A   1      42.320  27.785  31.280  1.00  0.00     0.029 A 
ATOM     54  N   UNL A   1      41.341  29.409  32.443  1.00  0.00    -0.354 N 
ATOM     55  N   UNL A   1      41.024  31.216  34.728  1.00  0.00    -0.248 NA
ATOM     56  C   UNL A   1      41.629  31.900  36.876  1.00  0.00     0.031 C 
ATOM     57  C   UNL A   1      42.969  27.898  32.513  1.00  0.00     0.029 A 
ATOM     58  C   UNL A   1      42.375  28.924  33.229  1.00  0.00     0.049 A 
ATOM     59  H   UNL A   1      40.735  30.141  32.696  1.00  0.00     0.167 HD
ATOM     60  C   UNL A   1      42.092  30.445  35.167  1.00  0.00     0.074 A 
ATOM     61  C   UNL A   1      42.445  30.930  36.484  1.00  0.00     0.031 C 
ATOM     62  C   UNL A   1      42.722  29.425  34.535  1.00  0.00     0.037 A 
BRANCH  49  63
ATOM     63  C   UNL A   1      40.355  28.048  28.997  1.00  0.00     0.064 A 
ATOM     64  C   UNL A   1      41.127  28.364  27.867  1.00  0.00     0.173 A 
ATOM     65  C   UNL A   1      39.631  26.846  28.981  1.00  0.00     0.173 A 
ATOM     66  F   UNL A   1      41.828  29.507  27.828  1.00  0.00    -0.203 F 
ATOM     67  C   UNL A   1      41.147  27.526  26.755  1.00  0.00     0.198 A 
ATOM     68  C   UNL A   1      39.678  25.996  27.879  1.00  0.00     0.198 A 
ATOM     69  F   UNL A   1      38.884  26.492  30.037  1.00  0.00    -0.203 F 
ATOM     70  F   UNL A   1      41.850  27.876  25.669  1.00  0.00    -0.200 F 
ATOM     71  C   UNL A   1      40.428  26.340  26.765  1.00  0.00     0.200 A 
ATOM     72  F   UNL A   1      38.994  24.843  27.895  1.00  0.00    -0.200 F 
ATOM     73  F   UNL A   1      40.454  25.533  25.696  1.00  0.00    -0.200 F 
ENDBRANCH  49  63
BRANCH  50  74
ATOM     74  C   UNL A   1      39.610  34.015  36.962  1.00  0.00     0.064 A 
ATOM     75  C   UNL A   1      40.287  35.240  37.037  1.00  0.00     0.173 A 
ATOM     76  C   UNL A   1      38.825  33.635  38.060  1.00  0.00     0.173 A 
ATOM     77  F   UNL A   1      41.068  35.636  36.021  1.00  0.00    -0.203 F 
ATOM     78  C   UNL A   1      40.201  36.042  38.173  1.00  0.00     0.198 A 
ATOM     79  C   UNL A   1      38.717  34.451  39.184  1.00  0.00     0.198 A 
ATOM     80  F   UNL A   1      38.153  32.474  38.037  1.00  0.00    -0.203 F 
ATOM     81  F   UNL A   1      40.895  37.186  38.237  1.00  0.00    -0.200 F 
ATOM     82  C   UNL A   1      39.411  35.650  39.243  1.00  0.00     0.200 A 
ATOM     83  F   UNL A   1      37.943  34.075  40.211  1.00  0.00    -0.200 F 
ATOM     84  F   UNL A   1      39.326  36.423  40.334  1.00  0.00    -0.200 F 
ENDBRANCH  50  74
BRANCH  62  85
ATOM     85  C   UNL A   1      43.883  28.790  35.241  1.00  0.00     0.064 A 
ATOM     86  C   UNL A   1      43.705  27.728  36.141  1.00  0.00     0.173 A 
ATOM     87  C   UNL A   1      45.193  29.220  34.981  1.00  0.00     0.173 A 
ATOM     88  F   UNL A   1      42.472  27.291  36.434  1.00  0.00    -0.203 F 
ATOM     89  C   UNL A   1      44.796  27.138  36.773  1.00  0.00     0.198 A 
ATOM     90  C   UNL A   1      46.283  28.608  35.592  1.00  0.00     0.198 A 
ATOM     91  F   UNL A   1      45.416  30.228  34.123  1.00  0.00    -0.203 F 
ATOM     92  F   UNL A   1      44.602  26.155  37.663  1.00  0.00    -0.200 F 
ATOM     93  C   UNL A   1      46.084  27.572  36.493  1.00  0.00     0.200 A 
ATOM     94  F   UNL A   1      47.527  29.020  35.311  1.00  0.00    -0.200 F 
ATOM     95  F   UNL A   1      47.133  26.996  37.096  1.00  0.00    -0.200 F 
ENDBRANCH  62  85
ENDBRANCH  36  37
ENDBRANCH  28  31
ENDBRANCH  26  27
ENDBRANCH  25  26
ENDBRANCH   1  25
TORSDOF 13
ENDMDL
MODEL 2
REMARK VINA RESULT:     -13.1      0.112      1.587
REMARK SMILES CC1(C)C[C@@H](Nc2ccc(Cl)c(C(=O)NCCCCNC(=O)c3ccc(-c4c5nc(c(-c6c(F)c(F)c(F)c(F)c6F)c6ccc([nH]6)c(-c6c(F)c(F)c(F)c(F)c6F)c6nc(c(-c7c(F)c(F)c(F)c(F)c7F)c7ccc4[nH]7)C=C6)C=C5)cc3)c2)C(C)(C)O1
REMARK SMILES IDX 17 1 16 2 15 3 13 4 14 5 12 7 7 8 8 9 86 10 9 11 10 12 11 13
REMARK SMILES IDX 6 14 5 16 1 17 2 18 3 19 4 20 90 21 87 22 88 23 89 24 18 25
REMARK SMILES IDX 19 26 20 27 21 28 22 30 23 31 24 32 85 33 25 34 84 35 26 36
REMARK SMILES IDX 27 37 28 38 78 39 29 40 83 41 77 42 79 43 30 44 82 45 76 46
REMARK SMILES IDX 75 47 31 49 63 50 43 51 62 52 44 53 47 54 61 55 80 56 45 57
REMARK SMILES IDX 46 58 60 60 81 61 48 62 32 63 33 64 41 65 34 66 35 67 39 68
REMARK SMILES IDX 42 69 36 70 37 71 40 72 38 73 64 74 65 75 73 76 66 77 67 78
REMARK SMILES IDX 71 79 74 80 68 81 69 82 72 83 70 84 49 85 50 86 58 87 51 88
REMARK SMILES IDX 52 89 56 90 59 91 53 92 54 93 57 94 55 95
REMARK H PARENT 15 6 6 15 20 29 79 48 47 59
REMARK Flexibility Score: inf
ROOT
ATOM      1  C   UNL A   1      31.769  30.350  26.754  1.00  0.00     0.023 C 
ENDROOT
BRANCH   1   2
ATOM      2  C   UNL A   1      33.180  29.786  26.867  1.00  0.00     0.116 C 
BRANCH   2   3
ATOM      3  N   UNL A   1      33.784  29.396  25.607  1.00  0.00    -0.352 N 
ATOM      4  C   UNL A   1      33.515  28.318  24.792  1.00  0.00     0.252 C 
ATOM      5  O   UNL A   1      34.129  28.219  23.731  1.00  0.00    -0.269 OA
ATOM      6  H   UNL A   1      34.495  29.995  25.284  1.00  0.00     0.163 HD
BRANCH   4   7
ATOM      7  C   UNL A   1      32.592  27.226  25.190  1.00  0.00     0.060 A 
ATOM      8  C   UNL A   1      32.431  24.967  26.118  1.00  0.00     0.035 A 
ATOM      9  C   UNL A   1      31.038  25.081  26.079  1.00  0.00     0.027 A 
ATOM     10  C   UNL A   1      33.196  26.072  25.734  1.00  0.00     0.041 A 
ATOM     11  C   UNL A   1      30.430  26.187  25.493  1.00  0.00     0.023 A 
ATOM     12  C   UNL A   1      31.212  27.218  24.969  1.00  0.00     0.053 A 
ATOM     13  Cl  UNL A   1      30.397  28.323  23.920  1.00  0.00    -0.083 Cl
BRANCH   8  14
ATOM     14  N   UNL A   1      33.035  23.734  26.352  1.00  0.00    -0.379 N 
ATOM     15  H   UNL A   1      33.404  23.500  27.234  1.00  0.00     0.160 HD
BRANCH  14  16
ATOM     16  C   UNL A   1      33.095  22.800  25.223  1.00  0.00     0.113 C 
ATOM     17  C   UNL A   1      32.593  19.149  24.781  1.00  0.00     0.042 C 
ATOM     18  C   UNL A   1      32.801  20.611  24.397  1.00  0.00     0.065 C 
ATOM     19  C   UNL A   1      32.207  20.861  23.003  1.00  0.00     0.042 C 
ATOM     20  C   UNL A   1      32.248  21.566  25.452  1.00  0.00     0.062 C 
ATOM     21  O   UNL A   1      34.216  20.881  24.331  1.00  0.00    -0.367 OA
ATOM     22  C   UNL A   1      34.480  22.192  24.900  1.00  0.00     0.083 C 
ATOM     23  C   UNL A   1      35.389  21.964  26.111  1.00  0.00     0.044 C 
ATOM     24  C   UNL A   1      35.220  23.020  23.847  1.00  0.00     0.044 C 
ENDBRANCH  14  16
ENDBRANCH   8  14
ENDBRANCH   4   7
ENDBRANCH   2   3
ENDBRANCH   1   2
BRANCH   1  25
ATOM     25  C   UNL A   1      31.649  31.870  26.672  1.00  0.00     0.023 C 
BRANCH  25  26
ATOM     26  C   UNL A   1      32.789  32.686  27.274  1.00  0.00     0.116 C 
BRANCH  26  27
ATOM     27  N   UNL A   1      32.419  34.043  27.651  1.00  0.00    -0.352 N 
ATOM     28  C   UNL A   1      32.981  34.896  28.574  1.00  0.00     0.251 C 
ATOM     29  H   UNL A   1      31.642  34.408  27.170  1.00  0.00     0.163 HD
ATOM     30  O   UNL A   1      32.468  35.991  28.787  1.00  0.00    -0.269 OA
BRANCH  28  31
ATOM     31  C   UNL A   1      34.172  34.484  29.350  1.00  0.00     0.039 A 
ATOM     32  C   UNL A   1      33.983  33.905  30.609  1.00  0.00     0.014 A 
ATOM     33  C   UNL A   1      35.462  34.646  28.844  1.00  0.00     0.014 A 
ATOM     34  C   UNL A   1      35.079  33.396  31.312  1.00  0.00     0.010 A 
ATOM     35  C   UNL A   1      36.541  34.063  29.504  1.00  0.00     0.010 A 
ATOM     36  C   UNL A   1      36.361  33.421  30.740  1.00  0.00    -0.014 A 
BRANCH  36  37
ATOM     37  C   UNL A   1      37.520  32.767  31.404  1.00  0.00     0.031 A 
ATOM     38  C   UNL A   1      38.225  31.619  30.739  1.00  0.00     0.074 A 
ATOM     39  C   UNL A   1      37.883  33.152  32.644  1.00  0.00     0.049 A 
ATOM     40  N   UNL A   1      39.189  30.860  31.197  1.00  0.00    -0.248 NA
ATOM     41  C   UNL A   1      37.765  31.253  29.390  1.00  0.00     0.031 C 
ATOM     42  C   UNL A   1      37.244  34.214  33.422  1.00  0.00     0.029 A 
ATOM     43  N   UNL A   1      38.869  32.681  33.475  1.00  0.00    -0.354 N 
ATOM     44  C   UNL A   1      39.433  29.919  30.206  1.00  0.00     0.074 A 
ATOM     45  C   UNL A   1      38.484  30.168  29.143  1.00  0.00     0.031 C 
ATOM     46  C   UNL A   1      37.868  34.331  34.605  1.00  0.00     0.029 A 
ATOM     47  C   UNL A   1      38.924  33.326  34.687  1.00  0.00     0.049 A 
ATOM     48  H   UNL A   1      39.481  31.951  33.226  1.00  0.00     0.167 HD
ATOM     49  C   UNL A   1      40.381  28.951  30.174  1.00  0.00     0.037 A 
ATOM     50  C   UNL A   1      39.729  33.126  35.748  1.00  0.00     0.037 A 
ATOM     51  C   UNL A   1      41.346  28.725  31.216  1.00  0.00     0.049 A 
ATOM     52  C   UNL A   1      40.778  32.048  35.682  1.00  0.00     0.074 A 
ATOM     53  C   UNL A   1      42.388  27.814  31.246  1.00  0.00     0.029 A 
ATOM     54  N   UNL A   1      41.388  29.420  32.416  1.00  0.00    -0.354 N 
ATOM     55  N   UNL A   1      41.046  31.212  34.710  1.00  0.00    -0.248 NA
ATOM     56  C   UNL A   1      41.641  31.892  36.862  1.00  0.00     0.031 C 
ATOM     57  C   UNL A   1      43.035  27.929  32.481  1.00  0.00     0.029 A 
ATOM     58  C   UNL A   1      42.427  28.944  33.201  1.00  0.00     0.049 A 
ATOM     59  H   UNL A   1      40.773  30.144  32.672  1.00  0.00     0.167 HD
ATOM     60  C   UNL A   1      42.123  30.452  35.146  1.00  0.00     0.074 A 
ATOM     61  C   UNL A   1      42.468  30.934  36.467  1.00  0.00     0.031 C 
ATOM     62  C   UNL A   1      42.766  29.443  34.510  1.00  0.00     0.037 A 
BRANCH  49  63
ATOM     63  C   UNL A   1      40.423  28.064  28.963  1.00  0.00     0.064 A 
ATOM     64  C   UNL A   1      39.695  26.865  28.903  1.00  0.00     0.173 A 
ATOM     65  C   UNL A   1      41.173  28.432  27.835  1.00  0.00     0.173 A 
ATOM     66  F   UNL A   1      38.971  26.463  29.958  1.00  0.00    -0.203 F 
ATOM     67  C   UNL A   1      39.742  26.053  27.773  1.00  0.00     0.198 A 
ATOM     68  C   UNL A   1      41.193  27.632  26.695  1.00  0.00     0.198 A 
ATOM     69  F   UNL A   1      41.882  29.571  27.836  1.00  0.00    -0.203 F 
ATOM     70  F   UNL A   1      39.079  24.888  27.760  1.00  0.00    -0.200 F 
ATOM     71  C   UNL A   1      40.485  26.441  26.668  1.00  0.00     0.200 A 
ATOM     72  F   UNL A   1      41.901  28.014  25.623  1.00  0.00    -0.200 F 
ATOM     73  F   UNL A   1      40.523  25.660  25.579  1.00  0.00    -0.200 F 
ENDBRANCH  49  63
BRANCH  50  74
ATOM     74  C   UNL A   1      39.595  33.982  36.956  1.00  0.00     0.064 A 
ATOM     75  C   UNL A   1      38.816  33.568  38.046  1.00  0.00     0.173 A 
ATOM     76  C   UNL A   1      40.234  35.227  37.046  1.00  0.00     0.173 A 
ATOM     77  F   UNL A   1      38.169  32.394  37.998  1.00  0.00    -0.203 F 
ATOM     78  C   UNL A   1      38.664  34.376  39.170  1.00  0.00     0.198 A 
ATOM     79  C   UNL A   1      40.103  36.021  38.183  1.00  0.00     0.198 A 
ATOM     80  F   UNL A   1      40.994  35.667  36.032  1.00  0.00    -0.203 F 
ATOM     81  F   UNL A   1      37.877  33.977  40.178  1.00  0.00    -0.200 F 
ATOM     82  C   UNL A   1      39.312  35.600  39.240  1.00  0.00     0.200 A 
ATOM     83  F   UNL A   1      40.741  37.198  38.251  1.00  0.00    -0.200 F 
ATOM     84  F   UNL A   1      39.168  36.376  40.323  1.00  0.00    -0.200 F 
ENDBRANCH  50  74
BRANCH  62  85
ATOM     85  C   UNL A   1      43.934  28.818  35.214  1.00  0.00     0.064 A 
ATOM     86  C   UNL A   1      43.778  27.699  36.047  1.00  0.00     0.173 A 
ATOM     87  C   UNL A   1      45.230  29.319  35.020  1.00  0.00     0.173 A 
ATOM     88  F   UNL A   1      42.558  27.192  36.276  1.00  0.00    -0.203 F 
ATOM     89  C   UNL A   1      44.876  27.120  36.677  1.00  0.00     0.198 A 
ATOM     90  C   UNL A   1      46.329  28.720  35.629  1.00  0.00     0.198 A 
ATOM     91  F   UNL A   1      45.432  30.384  34.229  1.00  0.00    -0.203 F 
ATOM     92  F   UNL A   1      44.701  26.080  37.504  1.00  0.00    -0.200 F 
ATOM     93  C   UNL A   1      46.151  27.625  36.463  1.00  0.00     0.200 A 
ATOM     94  F   UNL A   1      47.560  29.202  35.411  1.00  0.00    -0.200 F 
ATOM     95  F   UNL A   1      47.206  27.062  37.064  1.00  0.00    -0.200 F 
ENDBRANCH  62  85
ENDBRANCH  36  37
ENDBRANCH  28  31
ENDBRANCH  26  27
ENDBRANCH  25  26
ENDBRANCH   1  25
TORSDOF 13
ENDMDL
MODEL 3
REMARK VINA RESULT:     -13.1      0.130      1.589
REMARK SMILES CC1(C)C[C@@H](Nc2ccc(Cl)c(C(=O)NCCCCNC(=O)c3ccc(-c4c5nc(c(-c6c(F)c(F)c(F)c(F)c6F)c6ccc([nH]6)c(-c6c(F)c(F)c(F)c(F)c6F)c6nc(c(-c7c(F)c(F)c(F)c(F)c7F)c7ccc4[nH]7)C=C6)C=C5)cc3)c2)C(C)(C)O1
REMARK SMILES IDX 17 1 16 2 15 3 13 4 14 5 12 7 7 8 8 9 86 10 9 11 10 12 11 13
REMARK SMILES IDX 6 14 5 16 1 17 2 18 3 19 4 20 90 21 87 22 88 23 89 24 18 25
REMARK SMILES IDX 19 26 20 27 21 28 22 30 23 31 24 32 85 33 25 34 84 35 26 36
REMARK SMILES IDX 27 37 28 38 78 39 29 40 83 41 77 42 79 43 30 44 82 45 76 46
REMARK SMILES IDX 75 47 31 49 63 50 43 51 62 52 44 53 47 54 61 55 80 56 45 57
REMARK SMILES IDX 46 58 60 60 81 61 48 62 32 63 33 64 41 65 34 66 35 67 39 68
REMARK SMILES IDX 42 69 36 70 37 71 40 72 38 73 64 74 65 75 73 76 66 77 67 78
REMARK SMILES IDX 71 79 74 80 68 81 69 82 72 83 70 84 49 85 50 86 58 87 51 88
REMARK SMILES IDX 52 89 56 90 59 91 53 92 54 93 57 94 55 95
REMARK H PARENT 15 6 6 15 20 29 79 48 47 59
REMARK Flexibility Score: inf
ROOT
ATOM      1  C   UNL A   1      31.778  30.441  26.763  1.00  0.00     0.023 C 
ENDROOT
BRANCH   1   2
ATOM      2  C   UNL A   1      33.198  29.889  26.807  1.00  0.00     0.116 C 
BRANCH   2   3
ATOM      3  N   UNL A   1      33.748  29.519  25.517  1.00  0.00    -0.352 N 
ATOM      4  C   UNL A   1      33.456  28.446  24.704  1.00  0.00     0.252 C 
ATOM      5  O   UNL A   1      34.022  28.366  23.615  1.00  0.00    -0.269 OA
ATOM      6  H   UNL A   1      34.437  30.130  25.168  1.00  0.00     0.163 HD
BRANCH   4   7
ATOM      7  C   UNL A   1      32.566  27.338  25.132  1.00  0.00     0.060 A 
ATOM      8  C   UNL A   1      32.474  25.091  26.096  1.00  0.00     0.035 A 
ATOM      9  C   UNL A   1      31.079  25.170  26.076  1.00  0.00     0.027 A 
ATOM     10  C   UNL A   1      33.206  26.208  25.684  1.00  0.00     0.041 A 
ATOM     11  C   UNL A   1      30.435  26.251  25.483  1.00  0.00     0.023 A 
ATOM     12  C   UNL A   1      31.183  27.293  24.931  1.00  0.00     0.053 A 
ATOM     13  Cl  UNL A   1      30.327  28.361  23.878  1.00  0.00    -0.083 Cl
BRANCH   8  14
ATOM     14  N   UNL A   1      33.112  23.876  26.340  1.00  0.00    -0.379 N 
ATOM     15  H   UNL A   1      33.511  23.671  27.215  1.00  0.00     0.160 HD
BRANCH  14  16
ATOM     16  C   UNL A   1      33.160  22.918  25.230  1.00  0.00     0.113 C 
ATOM     17  C   UNL A   1      32.652  19.259  24.873  1.00  0.00     0.042 C 
ATOM     18  C   UNL A   1      32.857  20.712  24.455  1.00  0.00     0.065 C 
ATOM     19  C   UNL A   1      32.248  20.932  23.063  1.00  0.00     0.042 C 
ATOM     20  C   UNL A   1      32.315  21.689  25.496  1.00  0.00     0.062 C 
ATOM     21  O   UNL A   1      34.271  20.980  24.369  1.00  0.00    -0.367 OA
ATOM     22  C   UNL A   1      34.541  22.303  24.906  1.00  0.00     0.083 C 
ATOM     23  C   UNL A   1      35.463  22.100  26.112  1.00  0.00     0.044 C 
ATOM     24  C   UNL A   1      35.270  23.107  23.828  1.00  0.00     0.044 C 
ENDBRANCH  14  16
ENDBRANCH   8  14
ENDBRANCH   4   7
ENDBRANCH   2   3
ENDBRANCH   1   2
BRANCH   1  25
ATOM     25  C   UNL A   1      31.641  31.961  26.709  1.00  0.00     0.023 C 
BRANCH  25  26
ATOM     26  C   UNL A   1      32.791  32.779  27.291  1.00  0.00     0.116 C 
BRANCH  26  27
ATOM     27  N   UNL A   1      32.424  34.134  27.677  1.00  0.00    -0.352 N 
ATOM     28  C   UNL A   1      32.985  34.978  28.609  1.00  0.00     0.251 C 
ATOM     29  H   UNL A   1      31.651  34.506  27.195  1.00  0.00     0.163 HD
ATOM     30  O   UNL A   1      32.475  36.073  28.828  1.00  0.00    -0.269 OA
BRANCH  28  31
ATOM     31  C   UNL A   1      34.170  34.555  29.388  1.00  0.00     0.039 A 
ATOM     32  C   UNL A   1      33.976  34.022  30.666  1.00  0.00     0.014 A 
ATOM     33  C   UNL A   1      35.460  34.662  28.866  1.00  0.00     0.014 A 
ATOM     34  C   UNL A   1      35.062  33.503  31.376  1.00  0.00     0.010 A 
ATOM     35  C   UNL A   1      36.527  34.068  29.535  1.00  0.00     0.010 A 
ATOM     36  C   UNL A   1      36.339  33.472  30.792  1.00  0.00    -0.014 A 
BRANCH  36  37
ATOM     37  C   UNL A   1      37.484  32.804  31.467  1.00  0.00     0.031 A 
ATOM     38  C   UNL A   1      38.168  31.633  30.819  1.00  0.00     0.074 A 
ATOM     39  C   UNL A   1      37.852  33.198  32.703  1.00  0.00     0.049 A 
ATOM     40  N   UNL A   1      39.116  30.862  31.289  1.00  0.00    -0.248 NA
ATOM     41  C   UNL A   1      37.704  31.259  29.475  1.00  0.00     0.031 C 
ATOM     42  C   UNL A   1      37.233  34.283  33.466  1.00  0.00     0.029 A 
ATOM     43  N   UNL A   1      38.828  32.720  33.542  1.00  0.00    -0.354 N 
ATOM     44  C   UNL A   1      39.344  29.904  30.311  1.00  0.00     0.074 A 
ATOM     45  C   UNL A   1      38.402  30.157  29.244  1.00  0.00     0.031 C 
ATOM     46  C   UNL A   1      37.857  34.403  34.648  1.00  0.00     0.029 A 
ATOM     47  C   UNL A   1      38.893  33.380  34.746  1.00  0.00     0.049 A 
ATOM     48  H   UNL A   1      39.426  31.974  33.305  1.00  0.00     0.167 HD
ATOM     49  C   UNL A   1      40.273  28.917  30.294  1.00  0.00     0.037 A 
ATOM     50  C   UNL A   1      39.692  33.178  35.811  1.00  0.00     0.037 A 
ATOM     51  C   UNL A   1      41.232  28.687  31.342  1.00  0.00     0.049 A 
ATOM     52  C   UNL A   1      40.720  32.080  35.762  1.00  0.00     0.074 A 
ATOM     53  C   UNL A   1      42.256  27.756  31.386  1.00  0.00     0.029 A 
ATOM     54  N   UNL A   1      41.285  29.397  32.532  1.00  0.00    -0.354 N 
ATOM     55  N   UNL A   1      40.974  31.225  34.801  1.00  0.00    -0.248 NA
ATOM     56  C   UNL A   1      41.578  31.923  36.945  1.00  0.00     0.031 C 
ATOM     57  C   UNL A   1      42.903  27.875  32.620  1.00  0.00     0.029 A 
ATOM     58  C   UNL A   1      42.313  28.911  33.325  1.00  0.00     0.049 A 
ATOM     59  H   UNL A   1      40.683  30.136  32.777  1.00  0.00     0.167 HD
ATOM     60  C   UNL A   1      42.035  30.451  35.250  1.00  0.00     0.074 A 
ATOM     61  C   UNL A   1      42.388  30.944  36.564  1.00  0.00     0.031 C 
ATOM     62  C   UNL A   1      42.660  29.421  34.628  1.00  0.00     0.037 A 
BRANCH  49  63
ATOM     63  C   UNL A   1      40.300  28.014  29.095  1.00  0.00     0.064 A 
ATOM     64  C   UNL A   1      39.571  26.815  29.061  1.00  0.00     0.173 A 
ATOM     65  C   UNL A   1      41.037  28.366  27.953  1.00  0.00     0.173 A 
ATOM     66  F   UNL A   1      38.860  26.427  30.130  1.00  0.00    -0.203 F 
ATOM     67  C   UNL A   1      39.603  25.987  27.942  1.00  0.00     0.198 A 
ATOM     68  C   UNL A   1      41.042  27.550  26.825  1.00  0.00     0.198 A 
ATOM     69  F   UNL A   1      41.746  29.504  27.930  1.00  0.00    -0.203 F 
ATOM     70  F   UNL A   1      38.940  24.822  27.953  1.00  0.00    -0.200 F 
ATOM     71  C   UNL A   1      40.333  26.359  26.822  1.00  0.00     0.200 A 
ATOM     72  F   UNL A   1      41.737  27.917  25.739  1.00  0.00    -0.200 F 
ATOM     73  F   UNL A   1      40.358  25.563  25.744  1.00  0.00    -0.200 F 
ENDBRANCH  49  63
BRANCH  50  74
ATOM     74  C   UNL A   1      39.573  34.052  37.007  1.00  0.00     0.064 A 
ATOM     75  C   UNL A   1      40.230  35.290  37.059  1.00  0.00     0.173 A 
ATOM     76  C   UNL A   1      38.810  33.671  38.120  1.00  0.00     0.173 A 
ATOM     77  F   UNL A   1      40.990  35.688  36.028  1.00  0.00    -0.203 F 
ATOM     78  C   UNL A   1      40.146  36.102  38.187  1.00  0.00     0.198 A 
ATOM     79  C   UNL A   1      38.705  34.498  39.237  1.00  0.00     0.198 A 
ATOM     80  F   UNL A   1      38.158  32.500  38.119  1.00  0.00    -0.203 F 
ATOM     81  F   UNL A   1      40.822  37.259  38.229  1.00  0.00    -0.200 F 
ATOM     82  C   UNL A   1      39.379  35.709  39.273  1.00  0.00     0.200 A 
ATOM     83  F   UNL A   1      37.952  34.120  40.279  1.00  0.00    -0.200 F 
ATOM     84  F   UNL A   1      39.296  36.492  40.357  1.00  0.00    -0.200 F 
ENDBRANCH  50  74
BRANCH  62  85
ATOM     85  C   UNL A   1      43.814  28.783  35.343  1.00  0.00     0.064 A 
ATOM     86  C   UNL A   1      45.129  29.241  35.173  1.00  0.00     0.173 A 
ATOM     87  C   UNL A   1      43.596  27.728  36.241  1.00  0.00     0.173 A 
ATOM     88  F   UNL A   1      45.392  30.237  34.315  1.00  0.00    -0.203 F 
ATOM     89  C   UNL A   1      46.186  28.650  35.860  1.00  0.00     0.198 A 
ATOM     90  C   UNL A   1      44.650  27.158  36.948  1.00  0.00     0.198 A 
ATOM     91  F   UNL A   1      42.355  27.257  36.443  1.00  0.00    -0.203 F 
ATOM     92  F   UNL A   1      47.440  29.072  35.650  1.00  0.00    -0.200 F 
ATOM     93  C   UNL A   1      45.946  27.614  36.752  1.00  0.00     0.200 A 
ATOM     94  F   UNL A   1      44.415  26.166  37.818  1.00  0.00    -0.200 F 
ATOM     95  F   UNL A   1      46.963  27.052  37.418  1.00  0.00    -0.200 F 
ENDBRANCH  62  85
ENDBRANCH  36  37
ENDBRANCH  28  31
ENDBRANCH  26  27
ENDBRANCH  25  26
ENDBRANCH   1  25
TORSDOF 13
ENDMDL
