MODEL 1
REMARK VINA RESULT:     -14.0      0.000      0.000
REMARK SMILES Cc1ccc(F)cc1NC(=O)c1nn(C)cc1C(=O)NCCCCNC(=O)c1ccc(-c2c3nc(c(-c4c(F)c(F)c(F)c(F)c4F)c4ccc([nH]4)c(-c4c(F)c(F)c(F)c(F)c4F)c4nc(c(-c5c(F)c(F)c(F)c(F)c5F)c5ccc2[nH]5)C=C4)C=C3)cc1
REMARK SMILES IDX 22 1 21 2 20 3 18 4 19 5 17 7 12 8 13 9 14 10 16 11 15 12
REMARK SMILES IDX 10 13 9 14 11 16 8 17 1 18 2 19 3 20 4 21 7 22 5 23 6 24
REMARK SMILES IDX 23 25 24 26 25 27 26 28 27 30 28 31 29 32 90 33 30 34 89 35
REMARK SMILES IDX 31 36 32 37 33 38 83 39 34 40 88 41 82 42 84 43 35 44 87 45
REMARK SMILES IDX 81 46 80 47 36 49 68 50 48 51 67 52 49 53 52 54 66 55 85 56
REMARK SMILES IDX 50 57 51 58 65 60 86 61 53 62 37 63 38 64 46 65 39 66 40 67
REMARK SMILES IDX 44 68 47 69 41 70 42 71 45 72 43 73 69 74 70 75 78 76 71 77
REMARK SMILES IDX 72 78 76 79 79 80 73 81 74 82 77 83 75 84 54 85 55 86 63 87
REMARK SMILES IDX 56 88 57 89 61 90 64 91 58 92 59 93 62 94 60 95
REMARK H PARENT 20 6 9 15 25 29 84 48 52 59
REMARK Flexibility Score: inf
ROOT
ATOM      1  C   UNL A   1      33.379  26.659  25.436  1.00  0.00     0.023 C 
ENDROOT
BRANCH   1   2
ATOM      2  C   UNL A   1      34.401  25.626  24.966  1.00  0.00     0.116 C 
BRANCH   2   3
ATOM      3  N   UNL A   1      34.040  24.959  23.726  1.00  0.00    -0.352 N 
ATOM      4  C   UNL A   1      34.268  23.681  23.267  1.00  0.00     0.255 C 
ATOM      5  O   UNL A   1      33.869  23.405  22.136  1.00  0.00    -0.269 OA
ATOM      6  H   UNL A   1      33.539  25.528  23.097  1.00  0.00     0.163 HD
BRANCH   4   7
ATOM      7  C   UNL A   1      35.008  22.722  24.068  1.00  0.00     0.090 A 
ATOM      8  C   UNL A   1      34.480  21.860  25.088  1.00  0.00     0.163 A 
ATOM      9  N   UNL A   1      35.431  21.026  25.559  1.00  0.00    -0.167 NA
ATOM     10  N   UNL A   1      36.535  21.374  24.890  1.00  0.00    -0.274 N 
ATOM     11  C   UNL A   1      36.366  22.463  24.096  1.00  0.00     0.123 A 
ATOM     12  C   UNL A   1      37.725  20.564  24.996  1.00  0.00     0.173 C 
BRANCH   8  13
ATOM     13  C   UNL A   1      33.119  21.802  25.633  1.00  0.00     0.277 C 
ATOM     14  N   UNL A   1      32.309  20.699  25.452  1.00  0.00    -0.320 N 
ATOM     15  H   UNL A   1      31.385  20.840  25.760  1.00  0.00     0.170 HD
ATOM     16  O   UNL A   1      32.634  22.758  26.248  1.00  0.00    -0.267 OA
BRANCH  14  17
ATOM     17  C   UNL A   1      32.528  19.416  24.918  1.00  0.00     0.047 A 
ATOM     18  C   UNL A   1      32.153  20.295  22.512  1.00  0.00     0.046 C 
ATOM     19  C   UNL A   1      32.563  19.246  23.515  1.00  0.00    -0.027 A 
ATOM     20  C   UNL A   1      32.956  18.001  22.979  1.00  0.00     0.008 A 
ATOM     21  C   UNL A   1      33.219  16.918  23.807  1.00  0.00     0.039 A 
ATOM     22  C   UNL A   1      32.700  18.291  25.728  1.00  0.00     0.065 A 
ATOM     23  C   UNL A   1      33.030  17.062  25.169  1.00  0.00     0.125 A 
ATOM     24  F   UNL A   1      33.184  15.997  25.968  1.00  0.00    -0.207 F 
ENDBRANCH  14  17
ENDBRANCH   8  13
ENDBRANCH   4   7
ENDBRANCH   2   3
ENDBRANCH   1   2
BRANCH   1  25
ATOM     25  C   UNL A   1      33.839  28.116  25.443  1.00  0.00     0.023 C 
BRANCH  25  26
ATOM     26  C   UNL A   1      34.249  28.585  26.822  1.00  0.00     0.116 C 
BRANCH  26  27
ATOM     27  N   UNL A   1      34.190  30.044  26.958  1.00  0.00    -0.352 N 
ATOM     28  C   UNL A   1      34.987  30.836  27.767  1.00  0.00     0.251 C 
ATOM     29  H   UNL A   1      33.512  30.509  26.418  1.00  0.00     0.163 HD
ATOM     30  O   UNL A   1      34.713  31.979  28.049  1.00  0.00    -0.269 OA
BRANCH  28  31
ATOM     31  C   UNL A   1      36.241  30.219  28.213  1.00  0.00     0.039 A 
ATOM     32  C   UNL A   1      36.395  29.623  29.469  1.00  0.00     0.014 A 
ATOM     33  C   UNL A   1      37.240  30.187  27.247  1.00  0.00     0.014 A 
ATOM     34  C   UNL A   1      37.584  28.953  29.739  1.00  0.00     0.010 A 
ATOM     35  C   UNL A   1      38.280  29.340  27.424  1.00  0.00     0.010 A 
ATOM     36  C   UNL A   1      38.510  28.828  28.704  1.00  0.00    -0.014 A 
BRANCH  36  37
ATOM     37  C   UNL A   1      39.847  28.293  28.823  1.00  0.00     0.031 A 
ATOM     38  C   UNL A   1      40.109  26.890  28.525  1.00  0.00     0.074 A 
ATOM     39  C   UNL A   1      40.795  29.242  28.992  1.00  0.00     0.049 A 
ATOM     40  N   UNL A   1      41.140  26.265  28.961  1.00  0.00    -0.248 NA
ATOM     41  C   UNL A   1      39.201  26.043  27.758  1.00  0.00     0.031 C 
ATOM     42  C   UNL A   1      42.225  29.220  28.758  1.00  0.00     0.029 A 
ATOM     43  N   UNL A   1      40.562  30.528  29.512  1.00  0.00    -0.354 N 
ATOM     44  C   UNL A   1      41.229  25.102  28.232  1.00  0.00     0.074 A 
ATOM     45  C   UNL A   1      39.906  24.906  27.698  1.00  0.00     0.031 C 
ATOM     46  C   UNL A   1      42.774  30.272  29.401  1.00  0.00     0.029 A 
ATOM     47  C   UNL A   1      41.725  30.886  30.205  1.00  0.00     0.049 A 
ATOM     48  H   UNL A   1      39.745  31.069  29.409  1.00  0.00     0.167 HD
ATOM     49  C   UNL A   1      42.475  24.587  28.016  1.00  0.00     0.037 A 
ATOM     50  C   UNL A   1      41.651  30.905  31.572  1.00  0.00     0.037 A 
ATOM     51  C   UNL A   1      43.477  25.419  28.699  1.00  0.00     0.049 A 
ATOM     52  C   UNL A   1      42.471  29.803  32.208  1.00  0.00     0.074 A 
ATOM     53  C   UNL A   1      44.386  26.375  28.277  1.00  0.00     0.029 A 
ATOM     54  N   UNL A   1      43.392  25.563  30.072  1.00  0.00    -0.354 N 
ATOM     55  N   UNL A   1      43.002  28.808  31.551  1.00  0.00    -0.248 NA
ATOM     56  C   UNL A   1      42.690  29.698  33.644  1.00  0.00     0.031 C 
ATOM     57  C   UNL A   1      44.835  27.095  29.431  1.00  0.00     0.029 A 
ATOM     58  C   UNL A   1      44.225  26.552  30.548  1.00  0.00     0.049 A 
ATOM     59  H   UNL A   1      42.802  25.020  30.644  1.00  0.00     0.167 HD
ATOM     60  C   UNL A   1      43.606  27.942  32.416  1.00  0.00     0.074 A 
ATOM     61  C   UNL A   1      43.350  28.529  33.723  1.00  0.00     0.031 C 
ATOM     62  C   UNL A   1      44.240  26.806  31.984  1.00  0.00     0.037 A 
BRANCH  49  63
ATOM     63  C   UNL A   1      42.876  23.505  27.031  1.00  0.00     0.064 A 
ATOM     64  C   UNL A   1      42.546  22.158  27.313  1.00  0.00     0.173 A 
ATOM     65  C   UNL A   1      43.616  23.680  25.844  1.00  0.00     0.173 A 
ATOM     66  F   UNL A   1      41.794  21.832  28.373  1.00  0.00    -0.203 F 
ATOM     67  C   UNL A   1      42.970  21.089  26.517  1.00  0.00     0.198 A 
ATOM     68  C   UNL A   1      44.022  22.611  25.036  1.00  0.00     0.198 A 
ATOM     69  F   UNL A   1      43.998  24.879  25.405  1.00  0.00    -0.203 F 
ATOM     70  F   UNL A   1      42.657  19.834  26.869  1.00  0.00    -0.200 F 
ATOM     71  C   UNL A   1      43.713  21.315  25.379  1.00  0.00     0.200 A 
ATOM     72  F   UNL A   1      44.728  22.857  23.922  1.00  0.00    -0.200 F 
ATOM     73  F   UNL A   1      44.124  20.294  24.617  1.00  0.00    -0.200 F 
ENDBRANCH  49  63
BRANCH  50  74
ATOM     74  C   UNL A   1      40.288  31.345  32.041  1.00  0.00     0.064 A 
ATOM     75  C   UNL A   1      39.419  30.362  32.567  1.00  0.00     0.173 A 
ATOM     76  C   UNL A   1      40.041  32.676  32.411  1.00  0.00     0.173 A 
ATOM     77  F   UNL A   1      39.600  29.070  32.249  1.00  0.00    -0.203 F 
ATOM     78  C   UNL A   1      38.472  30.674  33.542  1.00  0.00     0.198 A 
ATOM     79  C   UNL A   1      39.067  32.988  33.365  1.00  0.00     0.198 A 
ATOM     80  F   UNL A   1      40.818  33.666  31.947  1.00  0.00    -0.203 F 
ATOM     81  F   UNL A   1      37.777  29.693  34.139  1.00  0.00    -0.200 F 
ATOM     82  C   UNL A   1      38.317  31.984  33.961  1.00  0.00     0.200 A 
ATOM     83  F   UNL A   1      38.917  34.257  33.773  1.00  0.00    -0.200 F 
ATOM     84  F   UNL A   1      37.477  32.274  34.964  1.00  0.00    -0.200 F 
ENDBRANCH  50  74
BRANCH  62  85
ATOM     85  C   UNL A   1      44.880  25.786  32.898  1.00  0.00     0.064 A 
ATOM     86  C   UNL A   1      44.154  25.039  33.835  1.00  0.00     0.173 A 
ATOM     87  C   UNL A   1      46.281  25.564  32.909  1.00  0.00     0.173 A 
ATOM     88  F   UNL A   1      42.857  25.287  34.063  1.00  0.00    -0.203 F 
ATOM     89  C   UNL A   1      44.754  24.036  34.602  1.00  0.00     0.198 A 
ATOM     90  C   UNL A   1      46.884  24.606  33.716  1.00  0.00     0.198 A 
ATOM     91  F   UNL A   1      47.128  26.247  32.130  1.00  0.00    -0.203 F 
ATOM     92  F   UNL A   1      43.997  23.284  35.413  1.00  0.00    -0.200 F 
ATOM     93  C   UNL A   1      46.116  23.813  34.535  1.00  0.00     0.200 A 
ATOM     94  F   UNL A   1      48.216  24.453  33.676  1.00  0.00    -0.200 F 
ATOM     95  F   UNL A   1      46.689  22.851  35.269  1.00  0.00    -0.200 F 
ENDBRANCH  62  85
ENDBRANCH  36  37
ENDBRANCH  28  31
ENDBRANCH  26  27
ENDBRANCH  25  26
ENDBRANCH   1  25
TORSDOF 13
ENDMDL
MODEL 2
REMARK VINA RESULT:     -13.9      3.897      9.845
REMARK SMILES Cc1ccc(F)cc1NC(=O)c1nn(C)cc1C(=O)NCCCCNC(=O)c1ccc(-c2c3nc(c(-c4c(F)c(F)c(F)c(F)c4F)c4ccc([nH]4)c(-c4c(F)c(F)c(F)c(F)c4F)c4nc(c(-c5c(F)c(F)c(F)c(F)c5F)c5ccc2[nH]5)C=C4)C=C3)cc1
REMARK SMILES IDX 22 1 21 2 20 3 18 4 19 5 17 7 12 8 13 9 14 10 16 11 15 12
REMARK SMILES IDX 10 13 9 14 11 16 8 17 1 18 2 19 3 20 4 21 7 22 5 23 6 24
REMARK SMILES IDX 23 25 24 26 25 27 26 28 27 30 28 31 29 32 90 33 30 34 89 35
REMARK SMILES IDX 31 36 32 37 33 38 83 39 34 40 88 41 82 42 84 43 35 44 87 45
REMARK SMILES IDX 81 46 80 47 36 49 68 50 48 51 67 52 49 53 52 54 66 55 85 56
REMARK SMILES IDX 50 57 51 58 65 60 86 61 53 62 37 63 38 64 46 65 39 66 40 67
REMARK SMILES IDX 44 68 47 69 41 70 42 71 45 72 43 73 69 74 70 75 78 76 71 77
REMARK SMILES IDX 72 78 76 79 79 80 73 81 74 82 77 83 75 84 54 85 55 86 63 87
REMARK SMILES IDX 56 88 57 89 61 90 64 91 58 92 59 93 62 94 60 95
REMARK H PARENT 20 6 9 15 25 29 84 48 52 59
REMARK Flexibility Score: inf
ROOT
ATOM      1  C   UNL A   1      34.693  24.114  25.236  1.00  0.00     0.023 C 
ENDROOT
BRANCH   1   2
ATOM      2  C   UNL A   1      34.036  25.386  25.766  1.00  0.00     0.116 C 
BRANCH   2   3
ATOM      3  N   UNL A   1      32.619  25.243  26.058  1.00  0.00    -0.352 N 
ATOM      4  C   UNL A   1      31.600  26.164  26.153  1.00  0.00     0.255 C 
ATOM      5  O   UNL A   1      30.484  25.745  26.459  1.00  0.00    -0.269 OA
ATOM      6  H   UNL A   1      32.336  24.313  26.220  1.00  0.00     0.163 HD
BRANCH   4   7
ATOM      7  C   UNL A   1      31.854  27.580  25.960  1.00  0.00     0.090 A 
ATOM      8  C   UNL A   1      32.044  28.260  24.709  1.00  0.00     0.163 A 
ATOM      9  N   UNL A   1      32.158  29.592  24.893  1.00  0.00    -0.167 NA
ATOM     10  N   UNL A   1      32.085  29.749  26.218  1.00  0.00    -0.274 N 
ATOM     11  C   UNL A   1      32.042  28.575  26.901  1.00  0.00     0.123 A 
ATOM     12  C   UNL A   1      31.980  31.074  26.781  1.00  0.00     0.173 C 
BRANCH   8  13
ATOM     13  C   UNL A   1      32.127  27.697  23.356  1.00  0.00     0.277 C 
ATOM     14  N   UNL A   1      31.106  27.854  22.440  1.00  0.00    -0.320 N 
ATOM     15  H   UNL A   1      31.236  27.325  21.620  1.00  0.00     0.170 HD
ATOM     16  O   UNL A   1      33.102  27.029  22.999  1.00  0.00    -0.267 OA
BRANCH  14  17
ATOM     17  C   UNL A   1      29.920  28.610  22.434  1.00  0.00     0.047 A 
ATOM     18  C   UNL A   1      28.639  26.712  23.641  1.00  0.00     0.046 C 
ATOM     19  C   UNL A   1      28.778  28.113  23.101  1.00  0.00    -0.027 A 
ATOM     20  C   UNL A   1      27.646  28.944  23.247  1.00  0.00     0.008 A 
ATOM     21  C   UNL A   1      27.606  30.204  22.666  1.00  0.00     0.039 A 
ATOM     22  C   UNL A   1      29.823  29.838  21.775  1.00  0.00     0.065 A 
ATOM     23  C   UNL A   1      28.673  30.612  21.887  1.00  0.00     0.125 A 
ATOM     24  F   UNL A   1      28.603  31.783  21.241  1.00  0.00    -0.207 F 
ENDBRANCH  14  17
ENDBRANCH   8  13
ENDBRANCH   4   7
ENDBRANCH   2   3
ENDBRANCH   1   2
BRANCH   1  25
ATOM     25  C   UNL A   1      35.753  23.473  26.131  1.00  0.00     0.023 C 
BRANCH  25  26
ATOM     26  C   UNL A   1      37.160  23.816  25.695  1.00  0.00     0.116 C 
BRANCH  26  27
ATOM     27  N   UNL A   1      38.125  22.767  26.042  1.00  0.00    -0.352 N 
ATOM     28  C   UNL A   1      39.429  22.947  26.472  1.00  0.00     0.251 C 
ATOM     29  H   UNL A   1      37.813  21.838  25.960  1.00  0.00     0.163 HD
ATOM     30  O   UNL A   1      40.253  22.062  26.471  1.00  0.00    -0.269 OA
BRANCH  28  31
ATOM     31  C   UNL A   1      39.738  24.279  27.002  1.00  0.00     0.039 A 
ATOM     32  C   UNL A   1      40.317  25.293  26.232  1.00  0.00     0.014 A 
ATOM     33  C   UNL A   1      39.320  24.487  28.311  1.00  0.00     0.014 A 
ATOM     34  C   UNL A   1      40.447  26.558  26.797  1.00  0.00     0.010 A 
ATOM     35  C   UNL A   1      39.228  25.759  28.764  1.00  0.00     0.010 A 
ATOM     36  C   UNL A   1      39.899  26.764  28.063  1.00  0.00    -0.014 A 
BRANCH  36  37
ATOM     37  C   UNL A   1      40.049  27.955  28.867  1.00  0.00     0.031 A 
ATOM     38  C   UNL A   1      39.084  29.043  28.762  1.00  0.00     0.074 A 
ATOM     39  C   UNL A   1      40.984  27.837  29.836  1.00  0.00     0.049 A 
ATOM     40  N   UNL A   1      39.343  30.243  29.129  1.00  0.00    -0.248 NA
ATOM     41  C   UNL A   1      37.757  28.892  28.172  1.00  0.00     0.031 C 
ATOM     42  C   UNL A   1      41.183  28.571  31.071  1.00  0.00     0.029 A 
ATOM     43  N   UNL A   1      42.062  26.932  29.809  1.00  0.00    -0.354 N 
ATOM     44  C   UNL A   1      38.136  30.900  29.196  1.00  0.00     0.074 A 
ATOM     45  C   UNL A   1      37.249  30.114  28.377  1.00  0.00     0.031 C 
ATOM     46  C   UNL A   1      42.435  28.323  31.512  1.00  0.00     0.029 A 
ATOM     47  C   UNL A   1      43.120  27.565  30.473  1.00  0.00     0.049 A 
ATOM     48  H   UNL A   1      42.070  26.035  29.405  1.00  0.00     0.167 HD
ATOM     49  C   UNL A   1      38.014  31.904  30.113  1.00  0.00     0.037 A 
ATOM     50  C   UNL A   1      44.164  28.000  29.702  1.00  0.00     0.037 A 
ATOM     51  C   UNL A   1      39.294  32.089  30.814  1.00  0.00     0.049 A 
ATOM     52  C   UNL A   1      44.245  29.510  29.641  1.00  0.00     0.074 A 
ATOM     53  C   UNL A   1      39.768  31.733  32.065  1.00  0.00     0.029 A 
ATOM     54  N   UNL A   1      40.411  32.426  30.072  1.00  0.00    -0.354 N 
ATOM     55  N   UNL A   1      43.311  30.315  30.070  1.00  0.00    -0.248 NA
ATOM     56  C   UNL A   1      45.352  30.227  29.020  1.00  0.00     0.031 C 
ATOM     57  C   UNL A   1      41.194  31.860  32.049  1.00  0.00     0.029 A 
ATOM     58  C   UNL A   1      41.575  32.325  30.803  1.00  0.00     0.049 A 
ATOM     59  H   UNL A   1      40.379  32.707  29.128  1.00  0.00     0.167 HD
ATOM     60  C   UNL A   1      43.646  31.610  29.798  1.00  0.00     0.074 A 
ATOM     61  C   UNL A   1      44.920  31.497  29.105  1.00  0.00     0.031 C 
ATOM     62  C   UNL A   1      42.833  32.658  30.143  1.00  0.00     0.037 A 
BRANCH  49  63
ATOM     63  C   UNL A   1      36.742  32.584  30.584  1.00  0.00     0.064 A 
ATOM     64  C   UNL A   1      36.103  33.518  29.735  1.00  0.00     0.173 A 
ATOM     65  C   UNL A   1      36.123  32.431  31.841  1.00  0.00     0.173 A 
ATOM     66  F   UNL A   1      36.535  33.733  28.484  1.00  0.00    -0.203 F 
ATOM     67  C   UNL A   1      34.992  34.269  30.131  1.00  0.00     0.198 A 
ATOM     68  C   UNL A   1      34.997  33.167  32.229  1.00  0.00     0.198 A 
ATOM     69  F   UNL A   1      36.571  31.580  32.764  1.00  0.00    -0.203 F 
ATOM     70  F   UNL A   1      34.463  35.169  29.289  1.00  0.00    -0.200 F 
ATOM     71  C   UNL A   1      34.440  34.097  31.382  1.00  0.00     0.200 A 
ATOM     72  F   UNL A   1      34.466  32.968  33.445  1.00  0.00    -0.200 F 
ATOM     73  F   UNL A   1      33.378  34.816  31.766  1.00  0.00    -0.200 F 
ENDBRANCH  49  63
BRANCH  50  74
ATOM     74  C   UNL A   1      44.406  27.076  28.535  1.00  0.00     0.064 A 
ATOM     75  C   UNL A   1      44.022  27.519  27.249  1.00  0.00     0.173 A 
ATOM     76  C   UNL A   1      45.380  26.067  28.596  1.00  0.00     0.173 A 
ATOM     77  F   UNL A   1      43.093  28.481  27.122  1.00  0.00    -0.203 F 
ATOM     78  C   UNL A   1      44.698  27.101  26.103  1.00  0.00     0.198 A 
ATOM     79  C   UNL A   1      46.032  25.627  27.440  1.00  0.00     0.198 A 
ATOM     80  F   UNL A   1      45.790  25.590  29.780  1.00  0.00    -0.203 F 
ATOM     81  F   UNL A   1      44.419  27.664  24.918  1.00  0.00    -0.200 F 
ATOM     82  C   UNL A   1      45.724  26.176  26.204  1.00  0.00     0.200 A 
ATOM     83  F   UNL A   1      47.026  24.732  27.537  1.00  0.00    -0.200 F 
ATOM     84  F   UNL A   1      46.438  25.844  25.120  1.00  0.00    -0.200 F 
ENDBRANCH  50  74
BRANCH  62  85
ATOM     85  C   UNL A   1      43.126  34.106  29.822  1.00  0.00     0.064 A 
ATOM     86  C   UNL A   1      43.253  34.588  28.513  1.00  0.00     0.173 A 
ATOM     87  C   UNL A   1      43.354  35.068  30.839  1.00  0.00     0.173 A 
ATOM     88  F   UNL A   1      43.251  33.752  27.465  1.00  0.00    -0.203 F 
ATOM     89  C   UNL A   1      43.431  35.947  28.241  1.00  0.00     0.198 A 
ATOM     90  C   UNL A   1      43.591  36.411  30.566  1.00  0.00     0.198 A 
ATOM     91  F   UNL A   1      43.345  34.760  32.141  1.00  0.00    -0.203 F 
ATOM     92  F   UNL A   1      43.450  36.369  26.969  1.00  0.00    -0.200 F 
ATOM     93  C   UNL A   1      43.589  36.859  29.267  1.00  0.00     0.200 A 
ATOM     94  F   UNL A   1      43.802  37.263  31.579  1.00  0.00    -0.200 F 
ATOM     95  F   UNL A   1      43.757  38.161  29.005  1.00  0.00    -0.200 F 
ENDBRANCH  62  85
ENDBRANCH  36  37
ENDBRANCH  28  31
ENDBRANCH  26  27
ENDBRANCH  25  26
ENDBRANCH   1  25
TORSDOF 13
ENDMDL
MODEL 3
REMARK VINA RESULT:     -13.4      1.775      2.596
REMARK SMILES Cc1ccc(F)cc1NC(=O)c1nn(C)cc1C(=O)NCCCCNC(=O)c1ccc(-c2c3nc(c(-c4c(F)c(F)c(F)c(F)c4F)c4ccc([nH]4)c(-c4c(F)c(F)c(F)c(F)c4F)c4nc(c(-c5c(F)c(F)c(F)c(F)c5F)c5ccc2[nH]5)C=C4)C=C3)cc1
REMARK SMILES IDX 22 1 21 2 20 3 18 4 19 5 17 7 12 8 13 9 14 10 16 11 15 12
REMARK SMILES IDX 10 13 9 14 11 16 8 17 1 18 2 19 3 20 4 21 7 22 5 23 6 24
REMARK SMILES IDX 23 25 24 26 25 27 26 28 27 30 28 31 29 32 90 33 30 34 89 35
REMARK SMILES IDX 31 36 32 37 33 38 83 39 34 40 88 41 82 42 84 43 35 44 87 45
REMARK SMILES IDX 81 46 80 47 36 49 68 50 48 51 67 52 49 53 52 54 66 55 85 56
REMARK SMILES IDX 50 57 51 58 65 60 86 61 53 62 37 63 38 64 46 65 39 66 40 67
REMARK SMILES IDX 44 68 47 69 41 70 42 71 45 72 43 73 69 74 70 75 78 76 71 77
REMARK SMILES IDX 72 78 76 79 79 80 73 81 74 82 77 83 75 84 54 85 55 86 63 87
REMARK SMILES IDX 56 88 57 89 61 90 64 91 58 92 59 93 62 94 60 95
REMARK H PARENT 20 6 9 15 25 29 84 48 52 59
REMARK Flexibility Score: inf
ROOT
ATOM      1  C   UNL A   1      31.968  27.511  26.893  1.00  0.00     0.023 C 
ENDROOT
BRANCH   1   2
ATOM      2  C   UNL A   1      31.313  26.481  25.975  1.00  0.00     0.116 C 
BRANCH   2   3
ATOM      3  N   UNL A   1      30.459  25.531  26.667  1.00  0.00    -0.352 N 
ATOM      4  C   UNL A   1      30.334  24.163  26.569  1.00  0.00     0.255 C 
ATOM      5  O   UNL A   1      29.480  23.620  27.269  1.00  0.00    -0.269 OA
ATOM      6  H   UNL A   1      29.856  25.942  27.329  1.00  0.00     0.163 HD
BRANCH   4   7
ATOM      7  C   UNL A   1      31.138  23.406  25.627  1.00  0.00     0.090 A 
ATOM      8  C   UNL A   1      32.316  22.637  25.920  1.00  0.00     0.163 A 
ATOM      9  N   UNL A   1      32.752  21.981  24.823  1.00  0.00    -0.167 NA
ATOM     10  N   UNL A   1      31.907  22.353  23.858  1.00  0.00    -0.274 N 
ATOM     11  C   UNL A   1      31.017  23.302  24.253  1.00  0.00     0.123 A 
ATOM     12  C   UNL A   1      31.950  21.699  22.572  1.00  0.00     0.173 C 
BRANCH   8  13
ATOM     13  C   UNL A   1      33.039  22.505  27.189  1.00  0.00     0.277 C 
ATOM     14  N   UNL A   1      34.407  22.321  27.232  1.00  0.00    -0.320 N 
ATOM     15  H   UNL A   1      34.745  22.125  28.135  1.00  0.00     0.170 HD
ATOM     16  O   UNL A   1      32.442  22.520  28.271  1.00  0.00    -0.267 OA
BRANCH  14  17
ATOM     17  C   UNL A   1      35.417  22.353  26.254  1.00  0.00     0.047 A 
ATOM     18  C   UNL A   1      35.033  24.883  25.861  1.00  0.00     0.046 C 
ATOM     19  C   UNL A   1      35.790  23.591  25.682  1.00  0.00    -0.027 A 
ATOM     20  C   UNL A   1      36.918  23.650  24.835  1.00  0.00     0.008 A 
ATOM     21  C   UNL A   1      37.608  22.498  24.485  1.00  0.00     0.039 A 
ATOM     22  C   UNL A   1      36.063  21.196  25.812  1.00  0.00     0.065 A 
ATOM     23  C   UNL A   1      37.136  21.278  24.931  1.00  0.00     0.125 A 
ATOM     24  F   UNL A   1      37.734  20.152  24.518  1.00  0.00    -0.207 F 
ENDBRANCH  14  17
ENDBRANCH   8  13
ENDBRANCH   4   7
ENDBRANCH   2   3
ENDBRANCH   1   2
BRANCH   1  25
ATOM     25  C   UNL A   1      33.043  28.395  26.264  1.00  0.00     0.023 C 
BRANCH  25  26
ATOM     26  C   UNL A   1      34.216  28.626  27.190  1.00  0.00     0.116 C 
BRANCH  26  27
ATOM     27  N   UNL A   1      34.209  29.970  27.779  1.00  0.00    -0.352 N 
ATOM     28  C   UNL A   1      35.211  30.549  28.540  1.00  0.00     0.251 C 
ATOM     29  H   UNL A   1      33.408  30.517  27.616  1.00  0.00     0.163 HD
ATOM     30  O   UNL A   1      35.037  31.531  29.223  1.00  0.00    -0.269 OA
BRANCH  28  31
ATOM     31  C   UNL A   1      36.535  29.931  28.411  1.00  0.00     0.039 A 
ATOM     32  C   UNL A   1      37.360  30.115  27.297  1.00  0.00     0.014 A 
ATOM     33  C   UNL A   1      36.949  29.223  29.533  1.00  0.00     0.014 A 
ATOM     34  C   UNL A   1      38.647  29.590  27.335  1.00  0.00     0.010 A 
ATOM     35  C   UNL A   1      38.264  28.930  29.661  1.00  0.00     0.010 A 
ATOM     36  C   UNL A   1      39.074  29.000  28.525  1.00  0.00    -0.014 A 
BRANCH  36  37
ATOM     37  C   UNL A   1      40.313  28.284  28.718  1.00  0.00     0.031 A 
ATOM     38  C   UNL A   1      40.376  26.844  28.504  1.00  0.00     0.074 A 
ATOM     39  C   UNL A   1      41.386  29.094  28.871  1.00  0.00     0.049 A 
ATOM     40  N   UNL A   1      41.291  26.102  29.008  1.00  0.00    -0.248 NA
ATOM     41  C   UNL A   1      39.374  26.095  27.750  1.00  0.00     0.031 C 
ATOM     42  C   UNL A   1      42.803  28.852  28.688  1.00  0.00     0.029 A 
ATOM     43  N   UNL A   1      41.329  30.428  29.315  1.00  0.00    -0.354 N 
ATOM     44  C   UNL A   1      41.230  24.899  28.343  1.00  0.00     0.074 A 
ATOM     45  C   UNL A   1      39.906  24.866  27.774  1.00  0.00     0.031 C 
ATOM     46  C   UNL A   1      43.483  29.848  29.295  1.00  0.00     0.029 A 
ATOM     47  C   UNL A   1      42.514  30.653  30.028  1.00  0.00     0.049 A 
ATOM     48  H   UNL A   1      40.604  31.075  29.155  1.00  0.00     0.167 HD
ATOM     49  C   UNL A   1      42.392  24.198  28.198  1.00  0.00     0.037 A 
ATOM     50  C   UNL A   1      42.406  30.759  31.389  1.00  0.00     0.037 A 
ATOM     51  C   UNL A   1      43.486  24.913  28.872  1.00  0.00     0.049 A 
ATOM     52  C   UNL A   1      43.038  29.588  32.110  1.00  0.00     0.074 A 
ATOM     53  C   UNL A   1      44.536  25.702  28.433  1.00  0.00     0.029 A 
ATOM     54  N   UNL A   1      43.385  25.145  30.231  1.00  0.00    -0.354 N 
ATOM     55  N   UNL A   1      43.435  28.491  31.525  1.00  0.00    -0.248 NA
ATOM     56  C   UNL A   1      43.201  29.534  33.557  1.00  0.00     0.031 C 
ATOM     57  C   UNL A   1      45.054  26.413  29.562  1.00  0.00     0.029 A 
ATOM     58  C   UNL A   1      44.341  26.029  30.684  1.00  0.00     0.049 A 
ATOM     59  H   UNL A   1      42.707  24.727  30.810  1.00  0.00     0.167 HD
ATOM     60  C   UNL A   1      43.882  27.597  32.455  1.00  0.00     0.074 A 
ATOM     61  C   UNL A   1      43.679  28.288  33.720  1.00  0.00     0.031 C 
ATOM     62  C   UNL A   1      44.355  26.359  32.105  1.00  0.00     0.037 A 
BRANCH  49  63
ATOM     63  C   UNL A   1      42.657  23.015  27.285  1.00  0.00     0.064 A 
ATOM     64  C   UNL A   1      42.054  21.768  27.579  1.00  0.00     0.173 A 
ATOM     65  C   UNL A   1      43.508  22.993  26.163  1.00  0.00     0.173 A 
ATOM     66  F   UNL A   1      41.172  21.639  28.580  1.00  0.00    -0.203 F 
ATOM     67  C   UNL A   1      42.329  20.603  26.856  1.00  0.00     0.198 A 
ATOM     68  C   UNL A   1      43.766  21.830  25.426  1.00  0.00     0.198 A 
ATOM     69  F   UNL A   1      44.145  24.078  25.722  1.00  0.00    -0.203 F 
ATOM     70  F   UNL A   1      41.756  19.446  27.218  1.00  0.00    -0.200 F 
ATOM     71  C   UNL A   1      43.190  20.632  25.781  1.00  0.00     0.200 A 
ATOM     72  F   UNL A   1      44.593  21.888  24.371  1.00  0.00    -0.200 F 
ATOM     73  F   UNL A   1      43.458  19.518  25.089  1.00  0.00    -0.200 F 
ENDBRANCH  49  63
BRANCH  50  74
ATOM     74  C   UNL A   1      41.110  31.418  31.787  1.00  0.00     0.064 A 
ATOM     75  C   UNL A   1      40.114  30.613  32.386  1.00  0.00     0.173 A 
ATOM     76  C   UNL A   1      41.039  32.799  32.025  1.00  0.00     0.173 A 
ATOM     77  F   UNL A   1      40.124  29.283  32.194  1.00  0.00    -0.203 F 
ATOM     78  C   UNL A   1      39.209  31.139  33.307  1.00  0.00     0.198 A 
ATOM     79  C   UNL A   1      40.107  33.327  32.925  1.00  0.00     0.198 A 
ATOM     80  F   UNL A   1      41.944  33.629  31.486  1.00  0.00    -0.203 F 
ATOM     81  F   UNL A   1      38.386  30.320  33.979  1.00  0.00    -0.200 F 
ATOM     82  C   UNL A   1      39.226  32.492  33.598  1.00  0.00     0.200 A 
ATOM     83  F   UNL A   1      40.124  34.637  33.208  1.00  0.00    -0.200 F 
ATOM     84  F   UNL A   1      38.424  32.985  34.551  1.00  0.00    -0.200 F 
ENDBRANCH  50  74
BRANCH  62  85
ATOM     85  C   UNL A   1      44.813  25.311  33.093  1.00  0.00     0.064 A 
ATOM     86  C   UNL A   1      43.949  24.690  34.004  1.00  0.00     0.173 A 
ATOM     87  C   UNL A   1      46.175  24.930  33.203  1.00  0.00     0.173 A 
ATOM     88  F   UNL A   1      42.678  25.094  34.137  1.00  0.00    -0.203 F 
ATOM     89  C   UNL A   1      44.378  23.658  34.842  1.00  0.00     0.198 A 
ATOM     90  C   UNL A   1      46.611  23.943  34.080  1.00  0.00     0.198 A 
ATOM     91  F   UNL A   1      47.142  25.479  32.460  1.00  0.00    -0.203 F 
ATOM     92  F   UNL A   1      43.491  23.031  35.626  1.00  0.00    -0.200 F 
ATOM     93  C   UNL A   1      45.707  23.278  34.872  1.00  0.00     0.200 A 
ATOM     94  F   UNL A   1      47.916  23.636  34.133  1.00  0.00    -0.200 F 
ATOM     95  F   UNL A   1      46.117  22.287  35.674  1.00  0.00    -0.200 F 
ENDBRANCH  62  85
ENDBRANCH  36  37
ENDBRANCH  28  31
ENDBRANCH  26  27
ENDBRANCH  25  26
ENDBRANCH   1  25
TORSDOF 13
ENDMDL
