MODEL 1
REMARK VINA RESULT:     -11.5      0.000      0.000
REMARK SMILES O=C(CC1(NS(=O)(=O)C[C@H]2CCCO2)CCC1)NCCCCNC(=O)c1ccc(-c2c3nc(c(-c4c(F)c(F)c(F)c(F)c4F)c4ccc([nH]4)c(-c4c(F)c(F)c(F)c(F)c4F)c4nc(c(-c5c(F)c(F)c(F)c(F)c5F)c5ccc2[nH]5)C=C4)C=C3)cc1
REMARK SMILES IDX 19 1 18 2 1 3 2 4 3 6 4 7 15 8 17 9 16 10 5 11 6 13 7 14
REMARK SMILES IDX 8 15 9 16 10 17 11 18 14 19 12 20 13 21 20 22 21 23 22 24
REMARK SMILES IDX 23 25 24 26 25 28 26 29 27 30 88 31 28 32 87 33 29 34 30 35
REMARK SMILES IDX 31 36 81 37 32 38 86 39 80 40 82 41 33 42 85 43 79 44 78 45
REMARK SMILES IDX 34 47 66 48 46 49 65 50 47 51 50 52 64 53 83 54 48 55 49 56
REMARK SMILES IDX 63 58 84 59 51 60 35 61 36 62 44 63 37 64 38 65 42 66 45 67
REMARK SMILES IDX 39 68 40 69 43 70 41 71 67 72 68 73 76 74 69 75 70 76 74 77
REMARK SMILES IDX 77 78 71 79 72 80 75 81 73 82 52 83 53 84 61 85 54 86 55 87
REMARK SMILES IDX 59 88 62 89 56 90 57 91 60 92 58 93
REMARK H PARENT 18 5 5 12 23 27 82 46 50 57
REMARK Flexibility Score: inf
ROOT
ATOM      1  C   UNL A   1      32.587  30.102  27.255  1.00  0.00     0.116 C 
ENDROOT
BRANCH   1   2
ATOM      2  N   UNL A   1      32.936  28.731  26.926  1.00  0.00    -0.356 N 
ATOM      3  O   UNL A   1      31.164  27.771  28.001  1.00  0.00    -0.275 OA
ATOM      4  C   UNL A   1      32.045  27.704  27.144  1.00  0.00     0.221 C 
ATOM      5  H   UNL A   1      33.821  28.533  26.543  1.00  0.00     0.163 HD
BRANCH   4   6
ATOM      6  C   UNL A   1      32.167  26.488  26.247  1.00  0.00     0.123 C 
BRANCH   6   7
ATOM      7  C   UNL A   1      32.044  26.707  24.725  1.00  0.00     0.042 C 
ATOM      8  C   UNL A   1      33.407  26.673  23.964  1.00  0.00     0.024 C 
ATOM      9  C   UNL A   1      31.716  25.354  23.994  1.00  0.00     0.024 C 
ATOM     10  C   UNL A   1      32.835  25.643  22.987  1.00  0.00     0.004 C 
BRANCH   7  11
ATOM     11  N   UNL A   1      31.024  27.784  24.396  1.00  0.00    -0.208 NA
ATOM     12  H   UNL A   1      31.163  28.495  25.114  1.00  0.00     0.141 HD
BRANCH  11  13
ATOM     13  S   UNL A   1      30.841  28.656  22.972  1.00  0.00     0.214 S 
ATOM     14  O   UNL A   1      32.102  29.311  22.696  1.00  0.00    -0.212 OA
ATOM     15  O   UNL A   1      30.286  27.740  22.001  1.00  0.00    -0.212 OA
BRANCH  13  16
ATOM     16  C   UNL A   1      29.678  29.924  23.391  1.00  0.00     0.185 C 
BRANCH  16  17
ATOM     17  C   UNL A   1      28.353  30.050  22.668  1.00  0.00     0.134 C 
ATOM     18  C   UNL A   1      27.659  31.338  23.116  1.00  0.00     0.035 C 
ATOM     19  O   UNL A   1      28.486  30.177  21.256  1.00  0.00    -0.377 OA
ATOM     20  C   UNL A   1      28.270  32.354  22.177  1.00  0.00     0.031 C 
ATOM     21  C   UNL A   1      28.392  31.561  20.892  1.00  0.00     0.160 C 
ENDBRANCH  16  17
ENDBRANCH  13  16
ENDBRANCH  11  13
ENDBRANCH   7  11
ENDBRANCH   6   7
ENDBRANCH   4   6
ENDBRANCH   1   2
BRANCH   1  22
ATOM     22  C   UNL A   1      31.619  30.813  26.327  1.00  0.00     0.023 C 
BRANCH  22  23
ATOM     23  C   UNL A   1      31.406  32.290  26.621  1.00  0.00     0.023 C 
BRANCH  23  24
ATOM     24  C   UNL A   1      32.667  33.115  26.838  1.00  0.00     0.116 C 
BRANCH  24  25
ATOM     25  N   UNL A   1      32.523  34.242  27.753  1.00  0.00    -0.352 N 
ATOM     26  C   UNL A   1      33.373  34.563  28.793  1.00  0.00     0.251 C 
ATOM     27  H   UNL A   1      31.745  34.830  27.615  1.00  0.00     0.163 HD
ATOM     28  O   UNL A   1      33.162  35.509  29.540  1.00  0.00    -0.269 OA
BRANCH  26  29
ATOM     29  C   UNL A   1      34.533  33.677  29.009  1.00  0.00     0.039 A 
ATOM     30  C   UNL A   1      35.818  34.209  28.885  1.00  0.00     0.014 A 
ATOM     31  C   UNL A   1      34.328  32.402  29.543  1.00  0.00     0.014 A 
ATOM     32  C   UNL A   1      36.903  33.490  29.388  1.00  0.00     0.010 A 
ATOM     33  C   UNL A   1      35.401  31.726  30.114  1.00  0.00     0.010 A 
ATOM     34  C   UNL A   1      36.696  32.268  30.053  1.00  0.00    -0.014 A 
BRANCH  34  35
ATOM     35  C   UNL A   1      37.821  31.549  30.702  1.00  0.00     0.031 A 
ATOM     36  C   UNL A   1      38.190  31.868  32.123  1.00  0.00     0.074 A 
ATOM     37  C   UNL A   1      38.553  30.661  29.998  1.00  0.00     0.049 A 
ATOM     38  N   UNL A   1      39.169  31.395  32.851  1.00  0.00    -0.248 NA
ATOM     39  C   UNL A   1      37.366  32.878  32.806  1.00  0.00     0.031 C 
ATOM     40  C   UNL A   1      38.338  30.308  28.594  1.00  0.00     0.029 A 
ATOM     41  N   UNL A   1      39.633  29.897  30.367  1.00  0.00    -0.354 N 
ATOM     42  C   UNL A   1      39.083  32.056  34.069  1.00  0.00     0.074 A 
ATOM     43  C   UNL A   1      38.002  33.009  33.960  1.00  0.00     0.031 C 
ATOM     44  C   UNL A   1      39.239  29.381  28.229  1.00  0.00     0.029 A 
ATOM     45  C   UNL A   1      40.115  29.095  29.361  1.00  0.00     0.049 A 
ATOM     46  H   UNL A   1      40.026  29.922  31.270  1.00  0.00     0.167 HD
ATOM     47  C   UNL A   1      39.820  31.864  35.189  1.00  0.00     0.037 A 
ATOM     48  C   UNL A   1      41.147  28.228  29.354  1.00  0.00     0.037 A 
ATOM     49  C   UNL A   1      40.878  30.897  35.304  1.00  0.00     0.049 A 
ATOM     50  C   UNL A   1      41.947  28.028  30.614  1.00  0.00     0.074 A 
ATOM     51  C   UNL A   1      41.645  30.586  36.414  1.00  0.00     0.029 A 
ATOM     52  N   UNL A   1      41.318  30.082  34.272  1.00  0.00    -0.354 N 
ATOM     53  N   UNL A   1      41.806  28.605  31.784  1.00  0.00    -0.248 NA
ATOM     54  C   UNL A   1      43.042  27.051  30.557  1.00  0.00     0.031 C 
ATOM     55  C   UNL A   1      42.577  29.611  36.041  1.00  0.00     0.029 A 
ATOM     56  C   UNL A   1      42.358  29.281  34.713  1.00  0.00     0.049 A 
ATOM     57  H   UNL A   1      40.945  30.075  33.360  1.00  0.00     0.167 HD
ATOM     58  C   UNL A   1      42.772  28.040  32.606  1.00  0.00     0.074 A 
ATOM     59  C   UNL A   1      43.484  27.065  31.806  1.00  0.00     0.031 C 
ATOM     60  C   UNL A   1      43.047  28.307  33.907  1.00  0.00     0.037 A 
BRANCH  47  61
ATOM     61  C   UNL A   1      39.494  32.713  36.381  1.00  0.00     0.064 A 
ATOM     62  C   UNL A   1      38.513  32.329  37.309  1.00  0.00     0.173 A 
ATOM     63  C   UNL A   1      40.187  33.910  36.617  1.00  0.00     0.173 A 
ATOM     64  F   UNL A   1      37.813  31.201  37.121  1.00  0.00    -0.203 F 
ATOM     65  C   UNL A   1      38.216  33.128  38.410  1.00  0.00     0.198 A 
ATOM     66  C   UNL A   1      39.910  34.690  37.737  1.00  0.00     0.198 A 
ATOM     67  F   UNL A   1      41.137  34.321  35.764  1.00  0.00    -0.203 F 
ATOM     68  F   UNL A   1      37.238  32.766  39.253  1.00  0.00    -0.200 F 
ATOM     69  C   UNL A   1      38.919  34.303  38.628  1.00  0.00     0.200 A 
ATOM     70  F   UNL A   1      40.598  35.819  37.953  1.00  0.00    -0.200 F 
ATOM     71  F   UNL A   1      38.637  35.066  39.692  1.00  0.00    -0.200 F 
ENDBRANCH  47  61
BRANCH  48  72
ATOM     72  C   UNL A   1      41.468  27.458  28.123  1.00  0.00     0.064 A 
ATOM     73  C   UNL A   1      42.347  27.973  27.159  1.00  0.00     0.173 A 
ATOM     74  C   UNL A   1      40.892  26.203  27.875  1.00  0.00     0.173 A 
ATOM     75  F   UNL A   1      42.906  29.178  27.340  1.00  0.00    -0.203 F 
ATOM     76  C   UNL A   1      42.619  27.274  25.984  1.00  0.00     0.198 A 
ATOM     77  C   UNL A   1      41.186  25.494  26.712  1.00  0.00     0.198 A 
ATOM     78  F   UNL A   1      40.047  25.664  28.765  1.00  0.00    -0.203 F 
ATOM     79  F   UNL A   1      43.423  27.814  25.057  1.00  0.00    -0.200 F 
ATOM     80  C   UNL A   1      42.041  26.033  25.764  1.00  0.00     0.200 A 
ATOM     81  F   UNL A   1      40.636  24.289  26.509  1.00  0.00    -0.200 F 
ATOM     82  F   UNL A   1      42.302  25.362  24.634  1.00  0.00    -0.200 F 
ENDBRANCH  48  72
BRANCH  60  83
ATOM     83  C   UNL A   1      44.138  27.510  34.559  1.00  0.00     0.064 A 
ATOM     84  C   UNL A   1      45.458  27.982  34.625  1.00  0.00     0.173 A 
ATOM     85  C   UNL A   1      43.849  26.279  35.168  1.00  0.00     0.173 A 
ATOM     86  F   UNL A   1      45.787  29.146  34.046  1.00  0.00    -0.203 F 
ATOM     87  C   UNL A   1      46.452  27.239  35.256  1.00  0.00     0.198 A 
ATOM     88  C   UNL A   1      44.839  25.554  35.825  1.00  0.00     0.198 A 
ATOM     89  F   UNL A   1      42.601  25.787  35.140  1.00  0.00    -0.203 F 
ATOM     90  F   UNL A   1      47.714  27.690  35.268  1.00  0.00    -0.200 F 
ATOM     91  C   UNL A   1      46.141  26.031  35.863  1.00  0.00     0.200 A 
ATOM     92  F   UNL A   1      44.533  24.394  36.423  1.00  0.00    -0.200 F 
ATOM     93  F   UNL A   1      47.097  25.323  36.478  1.00  0.00    -0.200 F 
ENDBRANCH  60  83
ENDBRANCH  34  35
ENDBRANCH  26  29
ENDBRANCH  24  25
ENDBRANCH  23  24
ENDBRANCH  22  23
ENDBRANCH   1  22
TORSDOF 16
ENDMDL
MODEL 2
REMARK VINA RESULT:     -11.2      1.372      7.591
REMARK SMILES O=C(CC1(NS(=O)(=O)C[C@H]2CCCO2)CCC1)NCCCCNC(=O)c1ccc(-c2c3nc(c(-c4c(F)c(F)c(F)c(F)c4F)c4ccc([nH]4)c(-c4c(F)c(F)c(F)c(F)c4F)c4nc(c(-c5c(F)c(F)c(F)c(F)c5F)c5ccc2[nH]5)C=C4)C=C3)cc1
REMARK SMILES IDX 19 1 18 2 1 3 2 4 3 6 4 7 15 8 17 9 16 10 5 11 6 13 7 14
REMARK SMILES IDX 8 15 9 16 10 17 11 18 14 19 12 20 13 21 20 22 21 23 22 24
REMARK SMILES IDX 23 25 24 26 25 28 26 29 27 30 88 31 28 32 87 33 29 34 30 35
REMARK SMILES IDX 31 36 81 37 32 38 86 39 80 40 82 41 33 42 85 43 79 44 78 45
REMARK SMILES IDX 34 47 66 48 46 49 65 50 47 51 50 52 64 53 83 54 48 55 49 56
REMARK SMILES IDX 63 58 84 59 51 60 35 61 36 62 44 63 37 64 38 65 42 66 45 67
REMARK SMILES IDX 39 68 40 69 43 70 41 71 67 72 68 73 76 74 69 75 70 76 74 77
REMARK SMILES IDX 77 78 71 79 72 80 75 81 73 82 52 83 53 84 61 85 54 86 55 87
REMARK SMILES IDX 59 88 62 89 56 90 57 91 60 92 58 93
REMARK H PARENT 18 5 5 12 23 27 82 46 50 57
REMARK Flexibility Score: inf
ROOT
ATOM      1  C   UNL A   1      34.950  29.487  27.277  1.00  0.00     0.116 C 
ENDROOT
BRANCH   1   2
ATOM      2  N   UNL A   1      34.042  28.435  26.855  1.00  0.00    -0.356 N 
ATOM      3  O   UNL A   1      33.580  29.330  24.805  1.00  0.00    -0.275 OA
ATOM      4  C   UNL A   1      33.622  28.349  25.547  1.00  0.00     0.221 C 
ATOM      5  H   UNL A   1      33.722  27.776  27.513  1.00  0.00     0.163 HD
BRANCH   4   6
ATOM      6  C   UNL A   1      33.247  26.972  25.036  1.00  0.00     0.123 C 
BRANCH   6   7
ATOM      7  C   UNL A   1      31.748  26.616  24.975  1.00  0.00     0.042 C 
ATOM      8  C   UNL A   1      31.454  25.185  24.423  1.00  0.00     0.024 C 
ATOM      9  C   UNL A   1      31.249  26.072  26.365  1.00  0.00     0.024 C 
ATOM     10  C   UNL A   1      30.587  24.891  25.649  1.00  0.00     0.004 C 
BRANCH   7  11
ATOM     11  N   UNL A   1      30.912  27.793  24.501  1.00  0.00    -0.208 NA
ATOM     12  H   UNL A   1      31.590  28.539  24.342  1.00  0.00     0.141 HD
BRANCH  11  13
ATOM     13  S   UNL A   1      29.875  27.880  23.183  1.00  0.00     0.214 S 
ATOM     14  O   UNL A   1      30.653  27.598  21.996  1.00  0.00    -0.212 OA
ATOM     15  O   UNL A   1      28.737  27.048  23.504  1.00  0.00    -0.212 OA
BRANCH  13  16
ATOM     16  C   UNL A   1      29.416  29.589  23.110  1.00  0.00     0.185 C 
BRANCH  16  17
ATOM     17  C   UNL A   1      28.063  30.021  22.586  1.00  0.00     0.134 C 
ATOM     18  C   UNL A   1      27.715  31.394  23.168  1.00  0.00     0.035 C 
ATOM     19  O   UNL A   1      28.031  30.203  21.174  1.00  0.00    -0.377 OA
ATOM     20  C   UNL A   1      28.394  32.321  22.184  1.00  0.00     0.031 C 
ATOM     21  C   UNL A   1      28.178  31.597  20.871  1.00  0.00     0.160 C 
ENDBRANCH  16  17
ENDBRANCH  13  16
ENDBRANCH  11  13
ENDBRANCH   7  11
ENDBRANCH   6   7
ENDBRANCH   4   6
ENDBRANCH   1   2
BRANCH   1  22
ATOM     22  C   UNL A   1      34.411  30.524  28.245  1.00  0.00     0.023 C 
BRANCH  22  23
ATOM     23  C   UNL A   1      33.359  31.461  27.672  1.00  0.00     0.023 C 
BRANCH  23  24
ATOM     24  C   UNL A   1      33.851  32.838  27.250  1.00  0.00     0.116 C 
BRANCH  24  25
ATOM     25  N   UNL A   1      32.982  33.949  27.622  1.00  0.00    -0.352 N 
ATOM     26  C   UNL A   1      33.129  34.767  28.726  1.00  0.00     0.251 C 
ATOM     27  H   UNL A   1      32.218  34.134  27.030  1.00  0.00     0.163 HD
ATOM     28  O   UNL A   1      32.334  35.659  28.988  1.00  0.00    -0.269 OA
BRANCH  26  29
ATOM     29  C   UNL A   1      34.268  34.486  29.622  1.00  0.00     0.039 A 
ATOM     30  C   UNL A   1      34.031  33.822  30.826  1.00  0.00     0.014 A 
ATOM     31  C   UNL A   1      35.570  34.685  29.152  1.00  0.00     0.014 A 
ATOM     32  C   UNL A   1      35.106  33.271  31.523  1.00  0.00     0.010 A 
ATOM     33  C   UNL A   1      36.629  34.067  29.808  1.00  0.00     0.010 A 
ATOM     34  C   UNL A   1      36.406  33.344  30.992  1.00  0.00    -0.014 A 
BRANCH  34  35
ATOM     35  C   UNL A   1      37.544  32.659  31.656  1.00  0.00     0.031 A 
ATOM     36  C   UNL A   1      38.221  31.505  30.973  1.00  0.00     0.074 A 
ATOM     37  C   UNL A   1      37.926  33.027  32.896  1.00  0.00     0.049 A 
ATOM     38  N   UNL A   1      39.192  30.741  31.404  1.00  0.00    -0.248 NA
ATOM     39  C   UNL A   1      37.717  31.141  29.640  1.00  0.00     0.031 C 
ATOM     40  C   UNL A   1      37.310  34.090  33.693  1.00  0.00     0.029 A 
ATOM     41  N   UNL A   1      38.922  32.542  33.709  1.00  0.00    -0.354 N 
ATOM     42  C   UNL A   1      39.405  29.804  30.402  1.00  0.00     0.074 A 
ATOM     43  C   UNL A   1      38.422  30.052  29.372  1.00  0.00     0.031 C 
ATOM     44  C   UNL A   1      37.956  34.193  34.866  1.00  0.00     0.029 A 
ATOM     45  C   UNL A   1      39.011  33.185  34.920  1.00  0.00     0.049 A 
ATOM     46  H   UNL A   1      39.516  31.801  33.448  1.00  0.00     0.167 HD
ATOM     47  C   UNL A   1      40.356  28.843  30.331  1.00  0.00     0.037 A 
ATOM     48  C   UNL A   1      39.850  32.982  35.955  1.00  0.00     0.037 A 
ATOM     49  C   UNL A   1      41.352  28.615  31.344  1.00  0.00     0.049 A 
ATOM     50  C   UNL A   1      40.903  31.911  35.849  1.00  0.00     0.074 A 
ATOM     51  C   UNL A   1      42.394  27.704  31.339  1.00  0.00     0.029 A 
ATOM     52  N   UNL A   1      41.429  29.306  32.544  1.00  0.00    -0.354 N 
ATOM     53  N   UNL A   1      41.143  31.082  34.862  1.00  0.00    -0.248 NA
ATOM     54  C   UNL A   1      41.807  31.753  36.997  1.00  0.00     0.031 C 
ATOM     55  C   UNL A   1      43.077  27.816  32.555  1.00  0.00     0.029 A 
ATOM     56  C   UNL A   1      42.491  28.829  33.296  1.00  0.00     0.049 A 
ATOM     57  H   UNL A   1      40.819  30.028  32.820  1.00  0.00     0.167 HD
ATOM     58  C   UNL A   1      42.240  30.327  35.256  1.00  0.00     0.074 A 
ATOM     59  C   UNL A   1      42.628  30.807  36.566  1.00  0.00     0.031 C 
ATOM     60  C   UNL A   1      42.869  29.326  34.593  1.00  0.00     0.037 A 
BRANCH  47  61
ATOM     61  C   UNL A   1      40.369  27.975  29.108  1.00  0.00     0.064 A 
ATOM     62  C   UNL A   1      41.126  28.315  27.975  1.00  0.00     0.173 A 
ATOM     63  C   UNL A   1      39.640  26.777  29.075  1.00  0.00     0.173 A 
ATOM     64  F   UNL A   1      41.829  29.457  27.952  1.00  0.00    -0.203 F 
ATOM     65  C   UNL A   1      41.126  27.503  26.844  1.00  0.00     0.198 A 
ATOM     66  C   UNL A   1      39.669  25.952  27.953  1.00  0.00     0.198 A 
ATOM     67  F   UNL A   1      38.903  26.404  30.132  1.00  0.00    -0.203 F 
ATOM     68  F   UNL A   1      41.815  27.876  25.756  1.00  0.00    -0.200 F 
ATOM     69  C   UNL A   1      40.404  26.320  26.836  1.00  0.00     0.200 A 
ATOM     70  F   UNL A   1      38.980  24.802  27.951  1.00  0.00    -0.200 F 
ATOM     71  F   UNL A   1      40.412  25.536  25.749  1.00  0.00    -0.200 F 
ENDBRANCH  47  61
BRANCH  48  72
ATOM     72  C   UNL A   1      39.752  33.830  37.174  1.00  0.00     0.064 A 
ATOM     73  C   UNL A   1      38.900  33.478  38.231  1.00  0.00     0.173 A 
ATOM     74  C   UNL A   1      40.491  35.016  37.300  1.00  0.00     0.173 A 
ATOM     75  F   UNL A   1      38.156  32.366  38.147  1.00  0.00    -0.203 F 
ATOM     76  C   UNL A   1      38.772  34.291  39.356  1.00  0.00     0.198 A 
ATOM     77  C   UNL A   1      40.383  35.813  38.438  1.00  0.00     0.198 A 
ATOM     78  F   UNL A   1      41.322  35.397  36.319  1.00  0.00    -0.203 F 
ATOM     79  F   UNL A   1      37.912  33.956  40.327  1.00  0.00    -0.200 F 
ATOM     80  C   UNL A   1      39.518  35.455  39.460  1.00  0.00     0.200 A 
ATOM     81  F   UNL A   1      41.114  36.931  38.540  1.00  0.00    -0.200 F 
ATOM     82  F   UNL A   1      39.395  36.237  40.541  1.00  0.00    -0.200 F 
ENDBRANCH  48  72
BRANCH  60  83
ATOM     83  C   UNL A   1      44.065  28.705  35.254  1.00  0.00     0.064 A 
ATOM     84  C   UNL A   1      45.360  29.203  35.053  1.00  0.00     0.173 A 
ATOM     85  C   UNL A   1      43.905  27.628  36.139  1.00  0.00     0.173 A 
ATOM     86  F   UNL A   1      45.566  30.222  34.205  1.00  0.00    -0.203 F 
ATOM     87  C   UNL A   1      46.454  28.630  35.695  1.00  0.00     0.198 A 
ATOM     88  C   UNL A   1      44.997  27.077  36.804  1.00  0.00     0.198 A 
ATOM     89  F   UNL A   1      42.685  27.119  36.373  1.00  0.00    -0.203 F 
ATOM     90  F   UNL A   1      47.688  29.094  35.452  1.00  0.00    -0.200 F 
ATOM     91  C   UNL A   1      46.271  27.573  36.575  1.00  0.00     0.200 A 
ATOM     92  F   UNL A   1      44.816  26.066  37.665  1.00  0.00    -0.200 F 
ATOM     93  F   UNL A   1      47.325  27.029  37.200  1.00  0.00    -0.200 F 
ENDBRANCH  60  83
ENDBRANCH  34  35
ENDBRANCH  26  29
ENDBRANCH  24  25
ENDBRANCH  23  24
ENDBRANCH  22  23
ENDBRANCH   1  22
TORSDOF 16
ENDMDL
MODEL 3
REMARK VINA RESULT:     -11.1      1.726      3.118
REMARK SMILES O=C(CC1(NS(=O)(=O)C[C@H]2CCCO2)CCC1)NCCCCNC(=O)c1ccc(-c2c3nc(c(-c4c(F)c(F)c(F)c(F)c4F)c4ccc([nH]4)c(-c4c(F)c(F)c(F)c(F)c4F)c4nc(c(-c5c(F)c(F)c(F)c(F)c5F)c5ccc2[nH]5)C=C4)C=C3)cc1
REMARK SMILES IDX 19 1 18 2 1 3 2 4 3 6 4 7 15 8 17 9 16 10 5 11 6 13 7 14
REMARK SMILES IDX 8 15 9 16 10 17 11 18 14 19 12 20 13 21 20 22 21 23 22 24
REMARK SMILES IDX 23 25 24 26 25 28 26 29 27 30 88 31 28 32 87 33 29 34 30 35
REMARK SMILES IDX 31 36 81 37 32 38 86 39 80 40 82 41 33 42 85 43 79 44 78 45
REMARK SMILES IDX 34 47 66 48 46 49 65 50 47 51 50 52 64 53 83 54 48 55 49 56
REMARK SMILES IDX 63 58 84 59 51 60 35 61 36 62 44 63 37 64 38 65 42 66 45 67
REMARK SMILES IDX 39 68 40 69 43 70 41 71 67 72 68 73 76 74 69 75 70 76 74 77
REMARK SMILES IDX 77 78 71 79 72 80 75 81 73 82 52 83 53 84 61 85 54 86 55 87
REMARK SMILES IDX 59 88 62 89 56 90 57 91 60 92 58 93
REMARK H PARENT 18 5 5 12 23 27 82 46 50 57
REMARK Flexibility Score: inf
ROOT
ATOM      1  C   UNL A   1      34.313  31.285  27.678  1.00  0.00     0.116 C 
ENDROOT
BRANCH   1   2
ATOM      2  N   UNL A   1      33.365  30.197  27.836  1.00  0.00    -0.356 N 
ATOM      3  O   UNL A   1      31.830  31.001  26.348  1.00  0.00    -0.275 OA
ATOM      4  C   UNL A   1      32.307  30.050  26.967  1.00  0.00     0.221 C 
ATOM      5  H   UNL A   1      33.479  29.555  28.575  1.00  0.00     0.163 HD
BRANCH   4   6
ATOM      6  C   UNL A   1      31.773  28.645  26.768  1.00  0.00     0.123 C 
BRANCH   6   7
ATOM      7  C   UNL A   1      32.300  27.844  25.560  1.00  0.00     0.042 C 
ATOM      8  C   UNL A   1      33.784  27.378  25.701  1.00  0.00     0.024 C 
ATOM      9  C   UNL A   1      31.915  26.325  25.691  1.00  0.00     0.024 C 
ATOM     10  C   UNL A   1      33.365  25.945  25.368  1.00  0.00     0.004 C 
BRANCH   7  11
ATOM     11  N   UNL A   1      31.818  28.433  24.245  1.00  0.00    -0.208 NA
ATOM     12  H   UNL A   1      32.659  28.499  23.671  1.00  0.00     0.141 HD
BRANCH  11  13
ATOM     13  S   UNL A   1      30.642  27.844  23.200  1.00  0.00     0.214 S 
ATOM     14  O   UNL A   1      31.306  27.010  22.221  1.00  0.00    -0.212 OA
ATOM     15  O   UNL A   1      29.603  27.278  24.032  1.00  0.00    -0.212 OA
BRANCH  13  16
ATOM     16  C   UNL A   1      30.064  29.285  22.348  1.00  0.00     0.185 C 
BRANCH  16  17
ATOM     17  C   UNL A   1      28.593  29.644  22.313  1.00  0.00     0.134 C 
ATOM     18  C   UNL A   1      28.356  30.869  23.200  1.00  0.00     0.035 C 
ATOM     19  O   UNL A   1      28.133  30.031  21.023  1.00  0.00    -0.377 OA
ATOM     20  C   UNL A   1      28.656  32.000  22.241  1.00  0.00     0.031 C 
ATOM     21  C   UNL A   1      28.102  31.462  20.938  1.00  0.00     0.160 C 
ENDBRANCH  16  17
ENDBRANCH  13  16
ENDBRANCH  11  13
ENDBRANCH   7  11
ENDBRANCH   6   7
ENDBRANCH   4   6
ENDBRANCH   1   2
BRANCH   1  22
ATOM     22  C   UNL A   1      34.363  32.329  28.779  1.00  0.00     0.023 C 
BRANCH  22  23
ATOM     23  C   UNL A   1      33.634  33.628  28.474  1.00  0.00     0.023 C 
BRANCH  23  24
ATOM     24  C   UNL A   1      34.045  34.835  29.307  1.00  0.00     0.116 C 
BRANCH  24  25
ATOM     25  N   UNL A   1      32.977  35.437  30.097  1.00  0.00    -0.352 N 
ATOM     26  C   UNL A   1      32.915  35.496  31.476  1.00  0.00     0.251 C 
ATOM     27  H   UNL A   1      32.229  35.841  29.599  1.00  0.00     0.163 HD
ATOM     28  O   UNL A   1      31.964  35.990  32.066  1.00  0.00    -0.269 OA
BRANCH  26  29
ATOM     29  C   UNL A   1      34.030  34.882  32.224  1.00  0.00     0.039 A 
ATOM     30  C   UNL A   1      33.906  33.560  32.651  1.00  0.00     0.014 A 
ATOM     31  C   UNL A   1      35.255  35.552  32.293  1.00  0.00     0.014 A 
ATOM     32  C   UNL A   1      35.046  32.870  33.069  1.00  0.00     0.010 A 
ATOM     33  C   UNL A   1      36.398  34.838  32.633  1.00  0.00     0.010 A 
ATOM     34  C   UNL A   1      36.308  33.488  33.011  1.00  0.00    -0.014 A 
BRANCH  34  35
ATOM     35  C   UNL A   1      37.545  32.733  33.334  1.00  0.00     0.031 A 
ATOM     36  C   UNL A   1      38.283  33.021  34.610  1.00  0.00     0.074 A 
ATOM     37  C   UNL A   1      38.042  31.841  32.454  1.00  0.00     0.049 A 
ATOM     38  N   UNL A   1      39.406  32.514  35.050  1.00  0.00    -0.248 NA
ATOM     39  C   UNL A   1      37.695  34.038  35.496  1.00  0.00     0.031 C 
ATOM     40  C   UNL A   1      37.456  31.516  31.152  1.00  0.00     0.029 A 
ATOM     41  N   UNL A   1      39.161  31.046  32.518  1.00  0.00    -0.354 N 
ATOM     42  C   UNL A   1      39.661  33.157  36.254  1.00  0.00     0.074 A 
ATOM     43  C   UNL A   1      38.615  34.136  36.443  1.00  0.00     0.031 C 
ATOM     44  C   UNL A   1      38.205  30.575  30.553  1.00  0.00     0.029 A 
ATOM     45  C   UNL A   1      39.340  30.251  31.412  1.00  0.00     0.049 A 
ATOM     46  H   UNL A   1      39.778  31.048  33.285  1.00  0.00     0.167 HD
ATOM     47  C   UNL A   1      40.662  32.931  37.138  1.00  0.00     0.037 A 
ATOM     48  C   UNL A   1      40.311  29.361  31.125  1.00  0.00     0.037 A 
ATOM     49  C   UNL A   1      41.687  31.938  36.961  1.00  0.00     0.049 A 
ATOM     50  C   UNL A   1      41.409  29.123  32.128  1.00  0.00     0.074 A 
ATOM     51  C   UNL A   1      42.710  31.592  37.827  1.00  0.00     0.029 A 
ATOM     52  N   UNL A   1      41.818  31.130  35.841  1.00  0.00    -0.354 N 
ATOM     53  N   UNL A   1      41.596  29.683  33.299  1.00  0.00    -0.248 NA
ATOM     54  C   UNL A   1      42.425  28.122  31.774  1.00  0.00     0.031 C 
ATOM     55  C   UNL A   1      43.486  30.603  37.212  1.00  0.00     0.029 A 
ATOM     56  C   UNL A   1      42.917  30.298  35.985  1.00  0.00     0.049 A 
ATOM     57  H   UNL A   1      41.219  31.146  35.060  1.00  0.00     0.167 HD
ATOM     58  C   UNL A   1      42.729  29.084  33.832  1.00  0.00     0.074 A 
ATOM     59  C   UNL A   1      43.179  28.106  32.863  1.00  0.00     0.031 C 
ATOM     60  C   UNL A   1      43.344  29.323  35.017  1.00  0.00     0.037 A 
BRANCH  47  61
ATOM     61  C   UNL A   1      40.683  33.767  38.383  1.00  0.00     0.064 A 
ATOM     62  C   UNL A   1      41.495  34.908  38.485  1.00  0.00     0.173 A 
ATOM     63  C   UNL A   1      39.866  33.443  39.476  1.00  0.00     0.173 A 
ATOM     64  F   UNL A   1      42.305  35.253  37.474  1.00  0.00    -0.203 F 
ATOM     65  C   UNL A   1      41.510  35.675  39.648  1.00  0.00     0.198 A 
ATOM     66  C   UNL A   1      39.860  34.230  40.624  1.00  0.00     0.198 A 
ATOM     67  F   UNL A   1      39.069  32.365  39.428  1.00  0.00    -0.203 F 
ATOM     68  F   UNL A   1      42.332  36.730  39.741  1.00  0.00    -0.200 F 
ATOM     69  C   UNL A   1      40.688  35.340  40.713  1.00  0.00     0.200 A 
ATOM     70  F   UNL A   1      39.056  33.913  41.648  1.00  0.00    -0.200 F 
ATOM     71  F   UNL A   1      40.698  36.083  41.828  1.00  0.00    -0.200 F 
ENDBRANCH  47  61
BRANCH  48  72
ATOM     72  C   UNL A   1      40.277  28.604  29.845  1.00  0.00     0.064 A 
ATOM     73  C   UNL A   1      39.580  27.392  29.743  1.00  0.00     0.173 A 
ATOM     74  C   UNL A   1      40.954  29.064  28.706  1.00  0.00     0.173 A 
ATOM     75  F   UNL A   1      38.935  26.899  30.811  1.00  0.00    -0.203 F 
ATOM     76  C   UNL A   1      39.581  26.656  28.558  1.00  0.00     0.198 A 
ATOM     77  C   UNL A   1      40.931  28.342  27.514  1.00  0.00     0.198 A 
ATOM     78  F   UNL A   1      41.634  30.219  28.750  1.00  0.00    -0.203 F 
ATOM     79  F   UNL A   1      38.948  25.476  28.504  1.00  0.00    -0.200 F 
ATOM     80  C   UNL A   1      40.252  27.135  27.444  1.00  0.00     0.200 A 
ATOM     81  F   UNL A   1      41.571  28.814  26.436  1.00  0.00    -0.200 F 
ATOM     82  F   UNL A   1      40.254  26.429  26.305  1.00  0.00    -0.200 F 
ENDBRANCH  48  72
BRANCH  60  83
ATOM     83  C   UNL A   1      44.547  28.490  35.350  1.00  0.00     0.064 A 
ATOM     84  C   UNL A   1      44.430  27.259  36.012  1.00  0.00     0.173 A 
ATOM     85  C   UNL A   1      45.828  28.908  34.959  1.00  0.00     0.173 A 
ATOM     86  F   UNL A   1      43.228  26.823  36.419  1.00  0.00    -0.203 F 
ATOM     87  C   UNL A   1      45.555  26.488  36.291  1.00  0.00     0.198 A 
ATOM     88  C   UNL A   1      46.947  28.120  35.212  1.00  0.00     0.198 A 
ATOM     89  F   UNL A   1      45.993  30.075  34.316  1.00  0.00    -0.203 F 
ATOM     90  F   UNL A   1      45.425  25.336  36.964  1.00  0.00    -0.200 F 
ATOM     91  C   UNL A   1      46.811  26.915  35.884  1.00  0.00     0.200 A 
ATOM     92  F   UNL A   1      48.158  28.527  34.805  1.00  0.00    -0.200 F 
ATOM     93  F   UNL A   1      47.892  26.166  36.145  1.00  0.00    -0.200 F 
ENDBRANCH  60  83
ENDBRANCH  34  35
ENDBRANCH  26  29
ENDBRANCH  24  25
ENDBRANCH  23  24
ENDBRANCH  22  23
ENDBRANCH   1  22
TORSDOF 16
ENDMDL
