MODEL 1
REMARK VINA RESULT:     -11.9      0.000      0.000
REMARK SMILES COCCNc1cc(C)nc2cc(C(=O)NCCCCNC(=O)c3ccc(-c4c5nc(c(-c6c(F)c(F)c(F)c(F)c6F)c6ccc([nH]6)c(-c6c(F)c(F)c(F)c(F)c6F)c6nc(c(-c7c(F)c(F)c(F)c(F)c7F)c7ccc4[nH]7)C=C6)C=C5)cc3)ccc12
REMARK SMILES IDX 17 1 16 2 14 3 15 4 13 6 6 7 7 8 89 9 8 10 11 11 88 12 9 13
REMARK SMILES IDX 10 14 12 15 87 16 5 17 4 19 3 20 2 21 1 22 18 23 19 24 20 25
REMARK SMILES IDX 21 26 22 27 23 29 24 30 25 31 86 32 26 33 85 34 27 35 28 36
REMARK SMILES IDX 29 37 79 38 30 39 84 40 78 41 80 42 31 43 83 44 77 45 76 46
REMARK SMILES IDX 32 48 64 49 44 50 63 51 45 52 48 53 62 54 81 55 46 56 47 57
REMARK SMILES IDX 61 59 82 60 49 61 33 62 34 63 42 64 35 65 36 66 40 67 43 68
REMARK SMILES IDX 37 69 38 70 41 71 39 72 65 73 66 74 74 75 67 76 68 77 72 78
REMARK SMILES IDX 75 79 69 80 70 81 73 82 71 83 50 84 51 85 59 86 52 87 53 88
REMARK SMILES IDX 57 89 60 90 54 91 55 92 58 93 56 94
REMARK H PARENT 16 5 5 18 21 28 80 47 48 58
REMARK Flexibility Score: inf
ROOT
ATOM      1  C   UNL A   1      33.151  30.017  26.002  1.00  0.00     0.116 C 
ENDROOT
BRANCH   1   2
ATOM      2  N   UNL A   1      32.749  29.637  24.664  1.00  0.00    -0.352 N 
ATOM      3  C   UNL A   1      32.513  28.419  24.080  1.00  0.00     0.251 C 
ATOM      4  O   UNL A   1      32.177  28.429  22.894  1.00  0.00    -0.269 OA
ATOM      5  H   UNL A   1      32.618  30.401  24.057  1.00  0.00     0.163 HD
BRANCH   3   6
ATOM      6  C   UNL A   1      32.596  27.110  24.794  1.00  0.00     0.041 A 
ATOM      7  C   UNL A   1      33.022  23.309  26.630  1.00  0.00     0.045 A 
ATOM      8  C   UNL A   1      31.851  22.666  27.032  1.00  0.00     0.049 A 
ATOM      9  C   UNL A   1      32.922  24.590  26.039  1.00  0.00     0.023 A 
ATOM     10  C   UNL A   1      30.632  23.314  26.875  1.00  0.00     0.040 A 
ATOM     11  C   UNL A   1      31.648  25.172  25.942  1.00  0.00     0.073 A 
ATOM     12  C   UNL A   1      34.028  25.292  25.517  1.00  0.00     0.013 A 
ATOM     13  C   UNL A   1      29.346  22.644  27.250  1.00  0.00     0.067 C 
ATOM     14  N   UNL A   1      30.531  24.558  26.357  1.00  0.00    -0.253 NA
ATOM     15  C   UNL A   1      31.522  26.432  25.375  1.00  0.00     0.042 A 
ATOM     16  C   UNL A   1      33.863  26.525  24.887  1.00  0.00     0.014 A 
BRANCH   7  17
ATOM     17  N   UNL A   1      34.270  22.754  26.871  1.00  0.00    -0.382 N 
ATOM     18  H   UNL A   1      34.822  23.155  27.579  1.00  0.00     0.160 HD
BRANCH  17  19
ATOM     19  C   UNL A   1      34.817  21.620  26.144  1.00  0.00     0.141 C 
BRANCH  19  20
ATOM     20  C   UNL A   1      34.689  21.841  24.628  1.00  0.00     0.181 C 
BRANCH  20  21
ATOM     21  O   UNL A   1      33.488  21.295  24.071  1.00  0.00    -0.383 OA
ATOM     22  C   UNL A   1      32.883  22.121  23.086  1.00  0.00     0.194 C 
ENDBRANCH  20  21
ENDBRANCH  19  20
ENDBRANCH  17  19
ENDBRANCH   7  17
ENDBRANCH   3   6
ENDBRANCH   1   2
BRANCH   1  23
ATOM     23  C   UNL A   1      31.940  30.477  26.819  1.00  0.00     0.023 C 
BRANCH  23  24
ATOM     24  C   UNL A   1      31.710  31.989  26.800  1.00  0.00     0.023 C 
BRANCH  24  25
ATOM     25  C   UNL A   1      32.877  32.817  27.324  1.00  0.00     0.116 C 
BRANCH  25  26
ATOM     26  N   UNL A   1      32.519  34.195  27.625  1.00  0.00    -0.352 N 
ATOM     27  C   UNL A   1      33.069  35.025  28.572  1.00  0.00     0.251 C 
ATOM     28  H   UNL A   1      31.794  34.582  27.083  1.00  0.00     0.163 HD
ATOM     29  O   UNL A   1      32.603  36.139  28.780  1.00  0.00    -0.269 OA
BRANCH  27  30
ATOM     30  C   UNL A   1      34.203  34.532  29.377  1.00  0.00     0.039 A 
ATOM     31  C   UNL A   1      33.935  33.795  30.533  1.00  0.00     0.014 A 
ATOM     32  C   UNL A   1      35.518  34.752  28.962  1.00  0.00     0.014 A 
ATOM     33  C   UNL A   1      34.992  33.219  31.239  1.00  0.00     0.010 A 
ATOM     34  C   UNL A   1      36.563  34.120  29.625  1.00  0.00     0.010 A 
ATOM     35  C   UNL A   1      36.309  33.347  30.768  1.00  0.00    -0.014 A 
BRANCH  35  36
ATOM     36  C   UNL A   1      37.438  32.678  31.458  1.00  0.00     0.031 A 
ATOM     37  C   UNL A   1      38.134  31.519  30.805  1.00  0.00     0.074 A 
ATOM     38  C   UNL A   1      37.786  33.069  32.699  1.00  0.00     0.049 A 
ATOM     39  N   UNL A   1      39.088  30.755  31.273  1.00  0.00    -0.248 NA
ATOM     40  C   UNL A   1      37.676  31.152  29.455  1.00  0.00     0.031 C 
ATOM     41  C   UNL A   1      37.152  34.150  33.455  1.00  0.00     0.029 A 
ATOM     42  N   UNL A   1      38.754  32.594  33.547  1.00  0.00    -0.354 N 
ATOM     43  C   UNL A   1      39.333  29.812  30.284  1.00  0.00     0.074 A 
ATOM     44  C   UNL A   1      38.392  30.064  29.214  1.00  0.00     0.031 C 
ATOM     45  C   UNL A   1      37.763  34.272  34.645  1.00  0.00     0.029 A 
ATOM     46  C   UNL A   1      38.807  33.256  34.749  1.00  0.00     0.049 A 
ATOM     47  H   UNL A   1      39.354  31.849  33.316  1.00  0.00     0.167 HD
ATOM     48  C   UNL A   1      40.275  28.840  30.261  1.00  0.00     0.037 A 
ATOM     49  C   UNL A   1      39.607  33.063  35.814  1.00  0.00     0.037 A 
ATOM     50  C   UNL A   1      41.225  28.611  31.315  1.00  0.00     0.049 A 
ATOM     51  C   UNL A   1      40.643  31.974  35.763  1.00  0.00     0.074 A 
ATOM     52  C   UNL A   1      42.256  27.687  31.366  1.00  0.00     0.029 A 
ATOM     53  N   UNL A   1      41.261  29.315  32.511  1.00  0.00    -0.354 N 
ATOM     54  N   UNL A   1      40.910  31.129  34.797  1.00  0.00    -0.248 NA
ATOM     55  C   UNL A   1      41.495  31.817  36.949  1.00  0.00     0.031 C 
ATOM     56  C   UNL A   1      42.891  27.808  32.606  1.00  0.00     0.029 A 
ATOM     57  C   UNL A   1      42.286  28.836  33.310  1.00  0.00     0.049 A 
ATOM     58  H   UNL A   1      40.650  30.048  32.753  1.00  0.00     0.167 HD
ATOM     59  C   UNL A   1      41.976  30.361  35.244  1.00  0.00     0.074 A 
ATOM     60  C   UNL A   1      42.316  30.848  36.566  1.00  0.00     0.031 C 
ATOM     61  C   UNL A   1      42.616  29.345  34.618  1.00  0.00     0.037 A 
BRANCH  48  62
ATOM     62  C   UNL A   1      40.324  27.957  29.048  1.00  0.00     0.064 A 
ATOM     63  C   UNL A   1      39.621  26.743  28.996  1.00  0.00     0.173 A 
ATOM     64  C   UNL A   1      41.063  28.336  27.917  1.00  0.00     0.173 A 
ATOM     65  F   UNL A   1      38.911  26.328  30.055  1.00  0.00    -0.203 F 
ATOM     66  C   UNL A   1      39.683  25.927  27.870  1.00  0.00     0.198 A 
ATOM     67  C   UNL A   1      41.098  27.532  26.781  1.00  0.00     0.198 A 
ATOM     68  F   UNL A   1      41.750  29.489  27.913  1.00  0.00    -0.203 F 
ATOM     69  F   UNL A   1      39.047  24.747  27.864  1.00  0.00    -0.200 F 
ATOM     70  C   UNL A   1      40.415  26.325  26.762  1.00  0.00     0.200 A 
ATOM     71  F   UNL A   1      41.796  27.922  25.707  1.00  0.00    -0.200 F 
ATOM     72  F   UNL A   1      40.471  25.540  25.677  1.00  0.00    -0.200 F 
ENDBRANCH  48  62
BRANCH  49  73
ATOM     73  C   UNL A   1      39.484  33.942  37.005  1.00  0.00     0.064 A 
ATOM     74  C   UNL A   1      38.738  33.535  38.120  1.00  0.00     0.173 A 
ATOM     75  C   UNL A   1      40.102  35.199  37.056  1.00  0.00     0.173 A 
ATOM     76  F   UNL A   1      38.113  32.348  38.109  1.00  0.00    -0.203 F 
ATOM     77  C   UNL A   1      38.598  34.361  39.233  1.00  0.00     0.198 A 
ATOM     78  C   UNL A   1      39.982  36.014  38.180  1.00  0.00     0.198 A 
ATOM     79  F   UNL A   1      40.830  35.633  36.017  1.00  0.00    -0.203 F 
ATOM     80  F   UNL A   1      37.845  33.965  40.268  1.00  0.00    -0.200 F 
ATOM     81  C   UNL A   1      39.225  35.598  39.265  1.00  0.00     0.200 A 
ATOM     82  F   UNL A   1      40.599  37.203  38.211  1.00  0.00    -0.200 F 
ATOM     83  F   UNL A   1      39.092  36.390  40.336  1.00  0.00    -0.200 F 
ENDBRANCH  49  73
BRANCH  61  84
ATOM     84  C   UNL A   1      43.774  28.716  35.336  1.00  0.00     0.064 A 
ATOM     85  C   UNL A   1      45.087  29.174  35.159  1.00  0.00     0.173 A 
ATOM     86  C   UNL A   1      43.558  27.667  36.243  1.00  0.00     0.173 A 
ATOM     87  F   UNL A   1      45.345  30.163  34.291  1.00  0.00    -0.203 F 
ATOM     88  C   UNL A   1      46.146  28.590  35.849  1.00  0.00     0.198 A 
ATOM     89  C   UNL A   1      44.615  27.105  36.952  1.00  0.00     0.198 A 
ATOM     90  F   UNL A   1      42.319  27.197  36.452  1.00  0.00    -0.203 F 
ATOM     91  F   UNL A   1      47.399  29.015  35.632  1.00  0.00    -0.200 F 
ATOM     92  C   UNL A   1      45.909  27.563  36.749  1.00  0.00     0.200 A 
ATOM     93  F   UNL A   1      44.384  26.120  37.831  1.00  0.00    -0.200 F 
ATOM     94  F   UNL A   1      46.929  27.007  37.418  1.00  0.00    -0.200 F 
ENDBRANCH  61  84
ENDBRANCH  35  36
ENDBRANCH  27  30
ENDBRANCH  25  26
ENDBRANCH  24  25
ENDBRANCH  23  24
ENDBRANCH   1  23
TORSDOF 15
ENDMDL
MODEL 2
REMARK VINA RESULT:     -11.9      3.843      8.921
REMARK SMILES COCCNc1cc(C)nc2cc(C(=O)NCCCCNC(=O)c3ccc(-c4c5nc(c(-c6c(F)c(F)c(F)c(F)c6F)c6ccc([nH]6)c(-c6c(F)c(F)c(F)c(F)c6F)c6nc(c(-c7c(F)c(F)c(F)c(F)c7F)c7ccc4[nH]7)C=C6)C=C5)cc3)ccc12
REMARK SMILES IDX 17 1 16 2 14 3 15 4 13 6 6 7 7 8 89 9 8 10 11 11 88 12 9 13
REMARK SMILES IDX 10 14 12 15 87 16 5 17 4 19 3 20 2 21 1 22 18 23 19 24 20 25
REMARK SMILES IDX 21 26 22 27 23 29 24 30 25 31 86 32 26 33 85 34 27 35 28 36
REMARK SMILES IDX 29 37 79 38 30 39 84 40 78 41 80 42 31 43 83 44 77 45 76 46
REMARK SMILES IDX 32 48 64 49 44 50 63 51 45 52 48 53 62 54 81 55 46 56 47 57
REMARK SMILES IDX 61 59 82 60 49 61 33 62 34 63 42 64 35 65 36 66 40 67 43 68
REMARK SMILES IDX 37 69 38 70 41 71 39 72 65 73 66 74 74 75 67 76 68 77 72 78
REMARK SMILES IDX 75 79 69 80 70 81 73 82 71 83 50 84 51 85 59 86 52 87 53 88
REMARK SMILES IDX 57 89 60 90 54 91 55 92 58 93 56 94
REMARK H PARENT 16 5 5 18 21 28 80 47 48 58
REMARK Flexibility Score: inf
ROOT
ATOM      1  C   UNL A   1      32.320  26.680  24.521  1.00  0.00     0.116 C 
ENDROOT
BRANCH   1   2
ATOM      2  N   UNL A   1      32.659  26.516  23.123  1.00  0.00    -0.352 N 
ATOM      3  C   UNL A   1      33.309  25.520  22.439  1.00  0.00     0.251 C 
ATOM      4  O   UNL A   1      33.446  25.680  21.224  1.00  0.00    -0.269 OA
ATOM      5  H   UNL A   1      32.367  27.263  22.553  1.00  0.00     0.163 HD
BRANCH   3   6
ATOM      6  C   UNL A   1      33.813  24.259  23.061  1.00  0.00     0.041 A 
ATOM      7  C   UNL A   1      35.009  20.671  24.982  1.00  0.00     0.045 A 
ATOM      8  C   UNL A   1      36.337  20.590  25.401  1.00  0.00     0.049 A 
ATOM      9  C   UNL A   1      34.580  21.840  24.313  1.00  0.00     0.023 A 
ATOM     10  C   UNL A   1      37.203  21.638  25.118  1.00  0.00     0.040 A 
ATOM     11  C   UNL A   1      35.534  22.837  24.055  1.00  0.00     0.073 A 
ATOM     12  C   UNL A   1      33.243  22.067  23.925  1.00  0.00     0.013 A 
ATOM     13  C   UNL A   1      38.626  21.615  25.588  1.00  0.00     0.067 C 
ATOM     14  N   UNL A   1      36.815  22.739  24.436  1.00  0.00    -0.253 NA
ATOM     15  C   UNL A   1      35.143  23.992  23.392  1.00  0.00     0.042 A 
ATOM     16  C   UNL A   1      32.863  23.267  23.325  1.00  0.00     0.014 A 
BRANCH   7  17
ATOM     17  N   UNL A   1      34.136  19.604  25.138  1.00  0.00    -0.382 N 
ATOM     18  H   UNL A   1      33.450  19.671  25.841  1.00  0.00     0.160 HD
BRANCH  17  19
ATOM     19  C   UNL A   1      34.168  18.393  24.335  1.00  0.00     0.141 C 
BRANCH  19  20
ATOM     20  C   UNL A   1      32.740  17.932  23.999  1.00  0.00     0.181 C 
BRANCH  20  21
ATOM     21  O   UNL A   1      32.024  17.425  25.131  1.00  0.00    -0.383 OA
ATOM     22  C   UNL A   1      32.611  16.269  25.711  1.00  0.00     0.194 C 
ENDBRANCH  20  21
ENDBRANCH  19  20
ENDBRANCH  17  19
ENDBRANCH   7  17
ENDBRANCH   3   6
ENDBRANCH   1   2
BRANCH   1  23
ATOM     23  C   UNL A   1      33.586  26.849  25.366  1.00  0.00     0.023 C 
BRANCH  23  24
ATOM     24  C   UNL A   1      33.855  28.288  25.809  1.00  0.00     0.023 C 
BRANCH  24  25
ATOM     25  C   UNL A   1      33.723  28.527  27.308  1.00  0.00     0.116 C 
BRANCH  25  26
ATOM     26  N   UNL A   1      33.637  29.936  27.664  1.00  0.00    -0.352 N 
ATOM     27  C   UNL A   1      34.607  30.727  28.230  1.00  0.00     0.251 C 
ATOM     28  H   UNL A   1      32.778  30.378  27.475  1.00  0.00     0.163 HD
ATOM     29  O   UNL A   1      34.363  31.881  28.564  1.00  0.00    -0.269 OA
BRANCH  27  30
ATOM     30  C   UNL A   1      35.940  30.147  28.482  1.00  0.00     0.039 A 
ATOM     31  C   UNL A   1      36.904  30.219  27.473  1.00  0.00     0.014 A 
ATOM     32  C   UNL A   1      36.249  29.587  29.723  1.00  0.00     0.014 A 
ATOM     33  C   UNL A   1      38.205  29.788  27.735  1.00  0.00     0.010 A 
ATOM     34  C   UNL A   1      37.561  29.223  30.005  1.00  0.00     0.010 A 
ATOM     35  C   UNL A   1      38.550  29.321  29.014  1.00  0.00    -0.014 A 
BRANCH  35  36
ATOM     36  C   UNL A   1      39.942  28.930  29.337  1.00  0.00     0.031 A 
ATOM     37  C   UNL A   1      40.814  29.856  30.136  1.00  0.00     0.074 A 
ATOM     38  C   UNL A   1      40.441  27.777  28.852  1.00  0.00     0.049 A 
ATOM     39  N   UNL A   1      42.076  29.734  30.458  1.00  0.00    -0.248 NA
ATOM     40  C   UNL A   1      40.189  31.101  30.611  1.00  0.00     0.031 C 
ATOM     41  C   UNL A   1      39.706  26.819  28.024  1.00  0.00     0.029 A 
ATOM     42  N   UNL A   1      41.688  27.220  28.977  1.00  0.00    -0.354 N 
ATOM     43  C   UNL A   1      42.399  30.888  31.159  1.00  0.00     0.074 A 
ATOM     44  C   UNL A   1      41.217  31.723  31.169  1.00  0.00     0.031 C 
ATOM     45  C   UNL A   1      40.508  25.781  27.736  1.00  0.00     0.029 A 
ATOM     46  C   UNL A   1      41.821  26.017  28.328  1.00  0.00     0.049 A 
ATOM     47  H   UNL A   1      42.418  27.642  29.484  1.00  0.00     0.167 HD
ATOM     48  C   UNL A   1      43.568  31.210  31.762  1.00  0.00     0.037 A 
ATOM     49  C   UNL A   1      42.885  25.199  28.222  1.00  0.00     0.037 A 
ATOM     50  C   UNL A   1      44.731  30.364  31.771  1.00  0.00     0.049 A 
ATOM     51  C   UNL A   1      44.173  25.582  28.899  1.00  0.00     0.074 A 
ATOM     52  C   UNL A   1      45.947  30.573  32.399  1.00  0.00     0.029 A 
ATOM     53  N   UNL A   1      44.822  29.142  31.119  1.00  0.00    -0.354 N 
ATOM     54  N   UNL A   1      44.449  26.646  29.614  1.00  0.00    -0.248 NA
ATOM     55  C   UNL A   1      45.297  24.646  28.759  1.00  0.00     0.031 C 
ATOM     56  C   UNL A   1      46.786  29.496  32.096  1.00  0.00     0.029 A 
ATOM     57  C   UNL A   1      46.079  28.594  31.318  1.00  0.00     0.049 A 
ATOM     58  H   UNL A   1      44.100  28.727  30.595  1.00  0.00     0.167 HD
ATOM     59  C   UNL A   1      45.763  26.494  30.033  1.00  0.00     0.074 A 
ATOM     60  C   UNL A   1      46.227  25.228  29.502  1.00  0.00     0.031 C 
ATOM     61  C   UNL A   1      46.517  27.326  30.791  1.00  0.00     0.037 A 
BRANCH  48  62
ATOM     62  C   UNL A   1      43.638  32.533  32.466  1.00  0.00     0.064 A 
ATOM     63  C   UNL A   1      43.283  32.665  33.817  1.00  0.00     0.173 A 
ATOM     64  C   UNL A   1      44.086  33.679  31.791  1.00  0.00     0.173 A 
ATOM     65  F   UNL A   1      42.836  31.603  34.504  1.00  0.00    -0.203 F 
ATOM     66  C   UNL A   1      43.342  33.900  34.456  1.00  0.00     0.198 A 
ATOM     67  C   UNL A   1      44.172  34.906  32.442  1.00  0.00     0.198 A 
ATOM     68  F   UNL A   1      44.442  33.607  30.499  1.00  0.00    -0.203 F 
ATOM     69  F   UNL A   1      42.946  34.012  35.732  1.00  0.00    -0.200 F 
ATOM     70  C   UNL A   1      43.792  35.017  33.771  1.00  0.00     0.200 A 
ATOM     71  F   UNL A   1      44.618  35.984  31.782  1.00  0.00    -0.200 F 
ATOM     72  F   UNL A   1      43.852  36.205  34.389  1.00  0.00    -0.200 F 
ENDBRANCH  48  62
BRANCH  49  73
ATOM     73  C   UNL A   1      42.769  23.921  27.476  1.00  0.00     0.064 A 
ATOM     74  C   UNL A   1      43.067  23.862  26.107  1.00  0.00     0.173 A 
ATOM     75  C   UNL A   1      42.358  22.738  28.105  1.00  0.00     0.173 A 
ATOM     76  F   UNL A   1      43.445  24.973  25.457  1.00  0.00    -0.203 F 
ATOM     77  C   UNL A   1      42.939  22.673  25.392  1.00  0.00     0.198 A 
ATOM     78  C   UNL A   1      42.255  21.543  27.395  1.00  0.00     0.198 A 
ATOM     79  F   UNL A   1      42.065  22.740  29.414  1.00  0.00    -0.203 F 
ATOM     80  F   UNL A   1      43.190  22.655  24.076  1.00  0.00    -0.200 F 
ATOM     81  C   UNL A   1      42.539  21.513  26.038  1.00  0.00     0.200 A 
ATOM     82  F   UNL A   1      41.879  20.422  28.025  1.00  0.00    -0.200 F 
ATOM     83  F   UNL A   1      42.418  20.370  25.351  1.00  0.00    -0.200 F 
ENDBRANCH  49  73
BRANCH  61  84
ATOM     84  C   UNL A   1      47.911  26.880  31.122  1.00  0.00     0.064 A 
ATOM     85  C   UNL A   1      49.014  27.276  30.353  1.00  0.00     0.173 A 
ATOM     86  C   UNL A   1      48.147  26.078  32.249  1.00  0.00     0.173 A 
ATOM     87  F   UNL A   1      48.836  28.029  29.258  1.00  0.00    -0.203 F 
ATOM     88  C   UNL A   1      50.302  26.868  30.688  1.00  0.00     0.198 A 
ATOM     89  C   UNL A   1      49.438  25.695  32.597  1.00  0.00     0.198 A 
ATOM     90  F   UNL A   1      47.125  25.677  33.021  1.00  0.00    -0.203 F 
ATOM     91  F   UNL A   1      51.337  27.222  29.913  1.00  0.00    -0.200 F 
ATOM     92  C   UNL A   1      50.513  26.084  31.812  1.00  0.00     0.200 A 
ATOM     93  F   UNL A   1      49.644  24.948  33.691  1.00  0.00    -0.200 F 
ATOM     94  F   UNL A   1      51.755  25.698  32.137  1.00  0.00    -0.200 F 
ENDBRANCH  61  84
ENDBRANCH  35  36
ENDBRANCH  27  30
ENDBRANCH  25  26
ENDBRANCH  24  25
ENDBRANCH  23  24
ENDBRANCH   1  23
TORSDOF 15
ENDMDL
MODEL 3
REMARK VINA RESULT:     -11.7      1.064      7.489
REMARK SMILES COCCNc1cc(C)nc2cc(C(=O)NCCCCNC(=O)c3ccc(-c4c5nc(c(-c6c(F)c(F)c(F)c(F)c6F)c6ccc([nH]6)c(-c6c(F)c(F)c(F)c(F)c6F)c6nc(c(-c7c(F)c(F)c(F)c(F)c7F)c7ccc4[nH]7)C=C6)C=C5)cc3)ccc12
REMARK SMILES IDX 17 1 16 2 14 3 15 4 13 6 6 7 7 8 89 9 8 10 11 11 88 12 9 13
REMARK SMILES IDX 10 14 12 15 87 16 5 17 4 19 3 20 2 21 1 22 18 23 19 24 20 25
REMARK SMILES IDX 21 26 22 27 23 29 24 30 25 31 86 32 26 33 85 34 27 35 28 36
REMARK SMILES IDX 29 37 79 38 30 39 84 40 78 41 80 42 31 43 83 44 77 45 76 46
REMARK SMILES IDX 32 48 64 49 44 50 63 51 45 52 48 53 62 54 81 55 46 56 47 57
REMARK SMILES IDX 61 59 82 60 49 61 33 62 34 63 42 64 35 65 36 66 40 67 43 68
REMARK SMILES IDX 37 69 38 70 41 71 39 72 65 73 66 74 74 75 67 76 68 77 72 78
REMARK SMILES IDX 75 79 69 80 70 81 73 82 71 83 50 84 51 85 59 86 52 87 53 88
REMARK SMILES IDX 57 89 60 90 54 91 55 92 58 93 56 94
REMARK H PARENT 16 5 5 18 21 28 80 47 48 58
REMARK Flexibility Score: inf
ROOT
ATOM      1  C   UNL A   1      32.405  29.913  25.612  1.00  0.00     0.116 C 
ENDROOT
BRANCH   1   2
ATOM      2  N   UNL A   1      31.384  29.881  24.585  1.00  0.00    -0.352 N 
ATOM      3  C   UNL A   1      30.769  28.850  23.924  1.00  0.00     0.251 C 
ATOM      4  O   UNL A   1      29.922  29.157  23.082  1.00  0.00    -0.269 OA
ATOM      5  H   UNL A   1      31.072  30.773  24.308  1.00  0.00     0.163 HD
BRANCH   3   6
ATOM      6  C   UNL A   1      31.028  27.403  24.189  1.00  0.00     0.041 A 
ATOM      7  C   UNL A   1      31.760  23.251  24.663  1.00  0.00     0.045 A 
ATOM      8  C   UNL A   1      31.040  22.592  25.659  1.00  0.00     0.049 A 
ATOM      9  C   UNL A   1      31.563  24.641  24.493  1.00  0.00     0.023 A 
ATOM     10  C   UNL A   1      30.186  23.321  26.475  1.00  0.00     0.040 A 
ATOM     11  C   UNL A   1      30.694  25.295  25.380  1.00  0.00     0.073 A 
ATOM     12  C   UNL A   1      32.168  25.390  23.463  1.00  0.00     0.013 A 
ATOM     13  C   UNL A   1      29.359  22.649  27.529  1.00  0.00     0.067 C 
ATOM     14  N   UNL A   1      30.028  24.659  26.353  1.00  0.00    -0.253 NA
ATOM     15  C   UNL A   1      30.490  26.661  25.242  1.00  0.00     0.042 A 
ATOM     16  C   UNL A   1      31.889  26.747  23.303  1.00  0.00     0.014 A 
BRANCH   7  17
ATOM     17  N   UNL A   1      32.710  22.589  23.899  1.00  0.00    -0.382 N 
ATOM     18  H   UNL A   1      32.627  22.637  22.920  1.00  0.00     0.160 HD
BRANCH  17  19
ATOM     19  C   UNL A   1      33.817  21.825  24.450  1.00  0.00     0.141 C 
BRANCH  19  20
ATOM     20  C   UNL A   1      34.665  22.705  25.382  1.00  0.00     0.181 C 
BRANCH  20  21
ATOM     21  O   UNL A   1      35.085  22.033  26.575  1.00  0.00    -0.383 OA
ATOM     22  C   UNL A   1      34.074  21.941  27.569  1.00  0.00     0.194 C 
ENDBRANCH  20  21
ENDBRANCH  19  20
ENDBRANCH  17  19
ENDBRANCH   7  17
ENDBRANCH   3   6
ENDBRANCH   1   2
BRANCH   1  23
ATOM     23  C   UNL A   1      31.846  30.509  26.908  1.00  0.00     0.023 C 
BRANCH  23  24
ATOM     24  C   UNL A   1      31.586  32.015  26.843  1.00  0.00     0.023 C 
BRANCH  24  25
ATOM     25  C   UNL A   1      32.798  32.883  27.159  1.00  0.00     0.116 C 
BRANCH  25  26
ATOM     26  N   UNL A   1      32.449  34.223  27.607  1.00  0.00    -0.352 N 
ATOM     27  C   UNL A   1      33.024  34.955  28.617  1.00  0.00     0.251 C 
ATOM     28  H   UNL A   1      31.709  34.660  27.126  1.00  0.00     0.163 HD
ATOM     29  O   UNL A   1      32.564  36.042  28.948  1.00  0.00    -0.269 OA
BRANCH  27  30
ATOM     30  C   UNL A   1      34.180  34.388  29.337  1.00  0.00     0.039 A 
ATOM     31  C   UNL A   1      33.946  33.601  30.467  1.00  0.00     0.014 A 
ATOM     32  C   UNL A   1      35.479  34.590  28.866  1.00  0.00     0.014 A 
ATOM     33  C   UNL A   1      35.017  32.957  31.088  1.00  0.00     0.010 A 
ATOM     34  C   UNL A   1      36.535  33.892  29.443  1.00  0.00     0.010 A 
ATOM     35  C   UNL A   1      36.312  33.070  30.558  1.00  0.00    -0.014 A 
BRANCH  35  36
ATOM     36  C   UNL A   1      37.452  32.333  31.155  1.00  0.00     0.031 A 
ATOM     37  C   UNL A   1      37.942  32.697  32.527  1.00  0.00     0.074 A 
ATOM     38  C   UNL A   1      38.086  31.389  30.434  1.00  0.00     0.049 A 
ATOM     39  N   UNL A   1      38.967  32.227  33.192  1.00  0.00    -0.248 NA
ATOM     40  C   UNL A   1      37.198  33.752  33.233  1.00  0.00     0.031 C 
ATOM     41  C   UNL A   1      37.731  30.982  29.073  1.00  0.00     0.029 A 
ATOM     42  N   UNL A   1      39.169  30.606  30.743  1.00  0.00    -0.354 N 
ATOM     43  C   UNL A   1      38.997  32.936  34.385  1.00  0.00     0.074 A 
ATOM     44  C   UNL A   1      37.924  33.905  34.331  1.00  0.00     0.031 C 
ATOM     45  C   UNL A   1      38.566  30.009  28.674  1.00  0.00     0.029 A 
ATOM     46  C   UNL A   1      39.534  29.748  29.735  1.00  0.00     0.049 A 
ATOM     47  H   UNL A   1      39.640  30.654  31.606  1.00  0.00     0.167 HD
ATOM     48  C   UNL A   1      39.830  32.775  35.440  1.00  0.00     0.037 A 
ATOM     49  C   UNL A   1      40.538  28.853  29.675  1.00  0.00     0.037 A 
ATOM     50  C   UNL A   1      40.878  31.793  35.500  1.00  0.00     0.049 A 
ATOM     51  C   UNL A   1      41.450  28.697  30.861  1.00  0.00     0.074 A 
ATOM     52  C   UNL A   1      41.742  31.511  36.544  1.00  0.00     0.029 A 
ATOM     53  N   UNL A   1      41.206  30.927  34.466  1.00  0.00    -0.354 N 
ATOM     54  N   UNL A   1      41.431  29.328  32.010  1.00  0.00    -0.248 NA
ATOM     55  C   UNL A   1      42.521  27.698  30.743  1.00  0.00     0.031 C 
ATOM     56  C   UNL A   1      42.616  30.501  36.129  1.00  0.00     0.029 A 
ATOM     57  C   UNL A   1      42.268  30.121  34.843  1.00  0.00     0.049 A 
ATOM     58  H   UNL A   1      40.749  30.889  33.594  1.00  0.00     0.167 HD
ATOM     59  C   UNL A   1      42.464  28.784  32.761  1.00  0.00     0.074 A 
ATOM     60  C   UNL A   1      43.083  27.762  31.942  1.00  0.00     0.031 C 
ATOM     61  C   UNL A   1      42.862  29.101  34.017  1.00  0.00     0.037 A 
BRANCH  48  62
ATOM     62  C   UNL A   1      39.631  33.683  36.619  1.00  0.00     0.064 A 
ATOM     63  C   UNL A   1      40.242  34.945  36.684  1.00  0.00     0.173 A 
ATOM     64  C   UNL A   1      38.805  33.298  37.685  1.00  0.00     0.173 A 
ATOM     65  F   UNL A   1      41.052  35.355  35.697  1.00  0.00    -0.203 F 
ATOM     66  C   UNL A   1      40.059  35.773  37.788  1.00  0.00     0.198 A 
ATOM     67  C   UNL A   1      38.600  34.142  38.774  1.00  0.00     0.198 A 
ATOM     68  F   UNL A   1      38.194  32.103  37.671  1.00  0.00    -0.203 F 
ATOM     69  F   UNL A   1      40.695  36.951  37.852  1.00  0.00    -0.200 F 
ATOM     70  C   UNL A   1      39.234  35.374  38.828  1.00  0.00     0.200 A 
ATOM     71  F   UNL A   1      37.794  33.760  39.774  1.00  0.00    -0.200 F 
ATOM     72  F   UNL A   1      39.056  36.174  39.888  1.00  0.00    -0.200 F 
ENDBRANCH  48  62
BRANCH  49  73
ATOM     73  C   UNL A   1      40.712  28.012  28.464  1.00  0.00     0.064 A 
ATOM     74  C   UNL A   1      40.109  26.749  28.378  1.00  0.00     0.173 A 
ATOM     75  C   UNL A   1      41.481  28.444  27.374  1.00  0.00     0.173 A 
ATOM     76  F   UNL A   1      39.381  26.285  29.404  1.00  0.00    -0.203 F 
ATOM     77  C   UNL A   1      40.284  25.942  27.256  1.00  0.00     0.198 A 
ATOM     78  C   UNL A   1      41.634  27.647  26.242  1.00  0.00     0.198 A 
ATOM     79  F   UNL A   1      42.075  29.646  27.405  1.00  0.00    -0.203 F 
ATOM     80  F   UNL A   1      39.732  24.722  27.217  1.00  0.00    -0.200 F 
ATOM     81  C   UNL A   1      41.042  26.394  26.186  1.00  0.00     0.200 A 
ATOM     82  F   UNL A   1      42.358  28.092  25.205  1.00  0.00    -0.200 F 
ATOM     83  F   UNL A   1      41.209  25.619  25.106  1.00  0.00    -0.200 F 
ENDBRANCH  49  73
BRANCH  61  84
ATOM     84  C   UNL A   1      43.998  28.310  34.597  1.00  0.00     0.064 A 
ATOM     85  C   UNL A   1      43.783  27.101  35.274  1.00  0.00     0.173 A 
ATOM     86  C   UNL A   1      45.320  28.750  34.438  1.00  0.00     0.173 A 
ATOM     87  F   UNL A   1      42.535  26.648  35.465  1.00  0.00    -0.203 F 
ATOM     88  C   UNL A   1      44.851  26.372  35.788  1.00  0.00     0.198 A 
ATOM     89  C   UNL A   1      46.387  28.004  34.929  1.00  0.00     0.198 A 
ATOM     90  F   UNL A   1      45.578  29.899  33.793  1.00  0.00    -0.203 F 
ATOM     91  F   UNL A   1      44.619  25.240  36.470  1.00  0.00    -0.200 F 
ATOM     92  C   UNL A   1      46.151  26.819  35.610  1.00  0.00     0.200 A 
ATOM     93  F   UNL A   1      47.644  28.432  34.746  1.00  0.00    -0.200 F 
ATOM     94  F   UNL A   1      47.178  26.111  36.100  1.00  0.00    -0.200 F 
ENDBRANCH  61  84
ENDBRANCH  35  36
ENDBRANCH  27  30
ENDBRANCH  25  26
ENDBRANCH  24  25
ENDBRANCH  23  24
ENDBRANCH   1  23
TORSDOF 15
ENDMDL
