MODEL 1
REMARK VINA RESULT:     -11.2      0.000      0.000
REMARK SMILES CCCCCCC(=O)N1C[C@@H](O)C[C@@H]1C(=O)NCCCCNC(=O)c1ccc(-c2c3nc(c(-c4c(F)c(F)c(F)c(F)c4F)c4ccc([nH]4)c(-c4c(F)c(F)c(F)c(F)c4F)c4nc(c(-c5c(F)c(F)c(F)c(F)c5F)c5ccc2[nH]5)C=C4)C=C3)cc1
REMARK SMILES IDX 15 1 16 2 17 3 14 5 9 6 10 7 11 8 13 9 7 10 8 11 6 12 5 13
REMARK SMILES IDX 4 14 3 15 2 16 1 17 12 18 18 20 19 21 20 22 21 23 22 24
REMARK SMILES IDX 23 25 24 27 25 28 26 29 87 30 27 31 86 32 28 33 29 34 30 35
REMARK SMILES IDX 80 36 31 37 85 38 79 39 81 40 32 41 84 42 78 43 77 44 33 46
REMARK SMILES IDX 65 47 45 48 64 49 46 50 49 51 63 52 82 53 47 54 48 55 62 57
REMARK SMILES IDX 83 58 50 59 34 60 35 61 43 62 36 63 37 64 41 65 44 66 38 67
REMARK SMILES IDX 39 68 42 69 40 70 66 71 67 72 75 73 68 74 69 75 73 76 76 77
REMARK SMILES IDX 70 78 71 79 74 80 72 81 51 82 52 83 60 84 53 85 54 86 58 87
REMARK SMILES IDX 61 88 55 89 56 90 59 91 57 92
REMARK H PARENT 17 4 12 19 22 26 81 45 49 56
REMARK Flexibility Score: inf
ROOT
ATOM      1  C   UNL A   1      31.788  27.474  26.680  1.00  0.00     0.242 C 
ATOM      2  O   UNL A   1      30.946  26.631  27.003  1.00  0.00    -0.273 OA
ATOM      3  N   UNL A   1      31.829  28.629  27.405  1.00  0.00    -0.354 N 
ATOM      4  H   UNL A   1      31.320  28.618  28.248  1.00  0.00     0.163 HD
ENDROOT
BRANCH   1   5
ATOM      5  C   UNL A   1      32.713  27.288  25.460  1.00  0.00     0.177 C 
ATOM      6  N   UNL A   1      31.926  26.909  24.277  1.00  0.00    -0.328 N 
ATOM      7  C   UNL A   1      32.395  25.629  23.786  1.00  0.00     0.152 C 
ATOM      8  C   UNL A   1      33.012  24.945  24.996  1.00  0.00     0.136 C 
ATOM      9  C   UNL A   1      33.679  26.115  25.701  1.00  0.00     0.069 C 
BRANCH   6  10
ATOM     10  C   UNL A   1      31.481  27.866  23.385  1.00  0.00     0.223 C 
ATOM     11  O   UNL A   1      32.248  28.480  22.646  1.00  0.00    -0.275 OA
BRANCH  10  12
ATOM     12  C   UNL A   1      30.015  28.258  23.524  1.00  0.00     0.100 C 
BRANCH  12  13
ATOM     13  C   UNL A   1      29.465  29.325  22.588  1.00  0.00     0.010 C 
BRANCH  13  14
ATOM     14  C   UNL A   1      27.983  29.661  22.735  1.00  0.00     0.001 C 
BRANCH  14  15
ATOM     15  C   UNL A   1      27.668  30.947  23.514  1.00  0.00    -0.000 C 
BRANCH  15  16
ATOM     16  C   UNL A   1      28.865  31.854  23.780  1.00  0.00    -0.003 C 
ATOM     17  C   UNL A   1      28.820  33.115  22.933  1.00  0.00     0.004 C 
ENDBRANCH  15  16
ENDBRANCH  14  15
ENDBRANCH  13  14
ENDBRANCH  12  13
ENDBRANCH  10  12
ENDBRANCH   6  10
BRANCH   8  18
ATOM     18  O   UNL A   1      33.938  23.933  24.643  1.00  0.00    -0.391 OA
ATOM     19  H   UNL A   1      33.750  23.129  25.152  1.00  0.00     0.211 HD
ENDBRANCH   8  18
ENDBRANCH   1   5
BRANCH   3  20
ATOM     20  C   UNL A   1      32.516  29.872  27.109  1.00  0.00     0.116 C 
BRANCH  20  21
ATOM     21  C   UNL A   1      31.682  30.731  26.164  1.00  0.00     0.023 C 
BRANCH  21  22
ATOM     22  C   UNL A   1      31.432  32.162  26.626  1.00  0.00     0.023 C 
BRANCH  22  23
ATOM     23  C   UNL A   1      32.618  32.830  27.297  1.00  0.00     0.116 C 
BRANCH  23  24
ATOM     24  N   UNL A   1      32.367  34.217  27.655  1.00  0.00    -0.352 N 
ATOM     25  C   UNL A   1      33.004  34.983  28.603  1.00  0.00     0.251 C 
ATOM     26  H   UNL A   1      31.647  34.665  27.155  1.00  0.00     0.163 HD
ATOM     27  O   UNL A   1      32.598  36.107  28.875  1.00  0.00    -0.269 OA
BRANCH  25  28
ATOM     28  C   UNL A   1      34.162  34.417  29.323  1.00  0.00     0.039 A 
ATOM     29  C   UNL A   1      33.939  33.677  30.485  1.00  0.00     0.014 A 
ATOM     30  C   UNL A   1      35.457  34.570  28.818  1.00  0.00     0.014 A 
ATOM     31  C   UNL A   1      35.010  33.028  31.103  1.00  0.00     0.010 A 
ATOM     32  C   UNL A   1      36.504  33.852  29.382  1.00  0.00     0.010 A 
ATOM     33  C   UNL A   1      36.293  33.077  30.532  1.00  0.00    -0.014 A 
BRANCH  33  34
ATOM     34  C   UNL A   1      37.430  32.333  31.126  1.00  0.00     0.031 A 
ATOM     35  C   UNL A   1      37.932  32.700  32.494  1.00  0.00     0.074 A 
ATOM     36  C   UNL A   1      38.054  31.380  30.407  1.00  0.00     0.049 A 
ATOM     37  N   UNL A   1      38.957  32.225  33.156  1.00  0.00    -0.248 NA
ATOM     38  C   UNL A   1      37.205  33.767  33.201  1.00  0.00     0.031 C 
ATOM     39  C   UNL A   1      37.695  30.973  29.047  1.00  0.00     0.029 A 
ATOM     40  N   UNL A   1      39.129  30.586  30.717  1.00  0.00    -0.354 N 
ATOM     41  C   UNL A   1      39.005  32.944  34.342  1.00  0.00     0.074 A 
ATOM     42  C   UNL A   1      37.946  33.928  34.286  1.00  0.00     0.031 C 
ATOM     43  C   UNL A   1      38.519  29.990  28.651  1.00  0.00     0.029 A 
ATOM     44  C   UNL A   1      39.486  29.722  29.710  1.00  0.00     0.049 A 
ATOM     45  H   UNL A   1      39.602  30.632  31.580  1.00  0.00     0.167 HD
ATOM     46  C   UNL A   1      39.839  32.780  35.395  1.00  0.00     0.037 A 
ATOM     47  C   UNL A   1      40.484  28.821  29.649  1.00  0.00     0.037 A 
ATOM     48  C   UNL A   1      40.870  31.779  35.460  1.00  0.00     0.049 A 
ATOM     49  C   UNL A   1      41.397  28.658  30.835  1.00  0.00     0.074 A 
ATOM     50  C   UNL A   1      41.724  31.486  36.508  1.00  0.00     0.029 A 
ATOM     51  N   UNL A   1      41.187  30.906  34.429  1.00  0.00    -0.354 N 
ATOM     52  N   UNL A   1      41.386  29.292  31.982  1.00  0.00    -0.248 NA
ATOM     53  C   UNL A   1      42.458  27.648  30.718  1.00  0.00     0.031 C 
ATOM     54  C   UNL A   1      42.589  30.467  36.096  1.00  0.00     0.029 A 
ATOM     55  C   UNL A   1      42.240  30.090  34.808  1.00  0.00     0.049 A 
ATOM     56  H   UNL A   1      40.732  30.873  33.556  1.00  0.00     0.167 HD
ATOM     57  C   UNL A   1      42.416  28.742  32.733  1.00  0.00     0.074 A 
ATOM     58  C   UNL A   1      43.021  27.709  31.917  1.00  0.00     0.031 C 
ATOM     59  C   UNL A   1      42.825  29.063  33.985  1.00  0.00     0.037 A 
BRANCH  46  60
ATOM     60  C   UNL A   1      39.664  33.702  36.568  1.00  0.00     0.064 A 
ATOM     61  C   UNL A   1      40.286  34.959  36.614  1.00  0.00     0.173 A 
ATOM     62  C   UNL A   1      38.840  33.337  37.642  1.00  0.00     0.173 A 
ATOM     63  F   UNL A   1      41.094  35.350  35.619  1.00  0.00    -0.203 F 
ATOM     64  C   UNL A   1      40.114  35.803  37.709  1.00  0.00     0.198 A 
ATOM     65  C   UNL A   1      38.646  34.197  38.721  1.00  0.00     0.198 A 
ATOM     66  F   UNL A   1      38.218  32.148  37.647  1.00  0.00    -0.203 F 
ATOM     67  F   UNL A   1      40.761  36.976  37.756  1.00  0.00    -0.200 F 
ATOM     68  C   UNL A   1      39.289  35.425  38.757  1.00  0.00     0.200 A 
ATOM     69  F   UNL A   1      37.838  33.836  39.728  1.00  0.00    -0.200 F 
ATOM     70  F   UNL A   1      39.120  36.241  39.806  1.00  0.00    -0.200 F 
ENDBRANCH  46  60
BRANCH  47  71
ATOM     71  C   UNL A   1      40.658  27.984  28.433  1.00  0.00     0.064 A 
ATOM     72  C   UNL A   1      40.056  26.722  28.338  1.00  0.00     0.173 A 
ATOM     73  C   UNL A   1      41.430  28.422  27.349  1.00  0.00     0.173 A 
ATOM     74  F   UNL A   1      39.325  26.251  29.359  1.00  0.00    -0.203 F 
ATOM     75  C   UNL A   1      40.238  25.920  27.213  1.00  0.00     0.198 A 
ATOM     76  C   UNL A   1      41.589  27.631  26.212  1.00  0.00     0.198 A 
ATOM     77  F   UNL A   1      42.024  29.624  27.387  1.00  0.00    -0.203 F 
ATOM     78  F   UNL A   1      39.690  24.698  27.168  1.00  0.00    -0.200 F 
ATOM     79  C   UNL A   1      41.000  26.377  26.149  1.00  0.00     0.200 A 
ATOM     80  F   UNL A   1      42.314  28.083  25.179  1.00  0.00    -0.200 F 
ATOM     81  F   UNL A   1      41.172  25.607  25.066  1.00  0.00    -0.200 F 
ENDBRANCH  47  71
BRANCH  59  82
ATOM     82  C   UNL A   1      43.960  28.269  34.562  1.00  0.00     0.064 A 
ATOM     83  C   UNL A   1      43.742  27.068  35.254  1.00  0.00     0.173 A 
ATOM     84  C   UNL A   1      45.285  28.694  34.384  1.00  0.00     0.173 A 
ATOM     85  F   UNL A   1      42.491  26.627  35.463  1.00  0.00    -0.203 F 
ATOM     86  C   UNL A   1      44.808  26.334  35.765  1.00  0.00     0.198 A 
ATOM     87  C   UNL A   1      46.351  27.941  34.870  1.00  0.00     0.198 A 
ATOM     88  F   UNL A   1      45.548  29.832  33.724  1.00  0.00    -0.203 F 
ATOM     89  F   UNL A   1      44.573  25.214  36.463  1.00  0.00    -0.200 F 
ATOM     90  C   UNL A   1      46.111  26.766  35.567  1.00  0.00     0.200 A 
ATOM     91  F   UNL A   1      47.609  28.354  34.665  1.00  0.00    -0.200 F 
ATOM     92  F   UNL A   1      47.136  26.054  36.053  1.00  0.00    -0.200 F 
ENDBRANCH  59  82
ENDBRANCH  33  34
ENDBRANCH  25  28
ENDBRANCH  23  24
ENDBRANCH  22  23
ENDBRANCH  21  22
ENDBRANCH  20  21
ENDBRANCH   3  20
TORSDOF 18
ENDMDL
MODEL 2
REMARK VINA RESULT:     -10.9      0.814      7.529
REMARK SMILES CCCCCCC(=O)N1C[C@@H](O)C[C@@H]1C(=O)NCCCCNC(=O)c1ccc(-c2c3nc(c(-c4c(F)c(F)c(F)c(F)c4F)c4ccc([nH]4)c(-c4c(F)c(F)c(F)c(F)c4F)c4nc(c(-c5c(F)c(F)c(F)c(F)c5F)c5ccc2[nH]5)C=C4)C=C3)cc1
REMARK SMILES IDX 15 1 16 2 17 3 14 5 9 6 10 7 11 8 13 9 7 10 8 11 6 12 5 13
REMARK SMILES IDX 4 14 3 15 2 16 1 17 12 18 18 20 19 21 20 22 21 23 22 24
REMARK SMILES IDX 23 25 24 27 25 28 26 29 87 30 27 31 86 32 28 33 29 34 30 35
REMARK SMILES IDX 80 36 31 37 85 38 79 39 81 40 32 41 84 42 78 43 77 44 33 46
REMARK SMILES IDX 65 47 45 48 64 49 46 50 49 51 63 52 82 53 47 54 48 55 62 57
REMARK SMILES IDX 83 58 50 59 34 60 35 61 43 62 36 63 37 64 41 65 44 66 38 67
REMARK SMILES IDX 39 68 42 69 40 70 66 71 67 72 75 73 68 74 69 75 73 76 76 77
REMARK SMILES IDX 70 78 71 79 74 80 72 81 51 82 52 83 60 84 53 85 54 86 58 87
REMARK SMILES IDX 61 88 55 89 56 90 59 91 57 92
REMARK H PARENT 17 4 12 19 22 26 81 45 49 56
REMARK Flexibility Score: inf
ROOT
ATOM      1  C   UNL A   1      31.656  27.380  26.475  1.00  0.00     0.242 C 
ATOM      2  O   UNL A   1      30.709  26.602  26.615  1.00  0.00    -0.273 OA
ATOM      3  N   UNL A   1      31.718  28.452  27.317  1.00  0.00    -0.354 N 
ATOM      4  H   UNL A   1      31.116  28.414  28.095  1.00  0.00     0.163 HD
ENDROOT
BRANCH   1   5
ATOM      5  C   UNL A   1      32.697  27.214  25.349  1.00  0.00     0.177 C 
ATOM      6  N   UNL A   1      32.139  26.406  24.254  1.00  0.00    -0.328 N 
ATOM      7  C   UNL A   1      32.967  25.232  24.063  1.00  0.00     0.152 C 
ATOM      8  C   UNL A   1      33.637  24.999  25.408  1.00  0.00     0.136 C 
ATOM      9  C   UNL A   1      33.913  26.424  25.862  1.00  0.00     0.069 C 
BRANCH   6  10
ATOM     10  C   UNL A   1      31.535  27.006  23.166  1.00  0.00     0.223 C 
ATOM     11  O   UNL A   1      31.245  26.379  22.149  1.00  0.00    -0.275 OA
BRANCH  10  12
ATOM     12  C   UNL A   1      31.443  28.526  23.225  1.00  0.00     0.100 C 
BRANCH  12  13
ATOM     13  C   UNL A   1      30.062  29.164  23.174  1.00  0.00     0.010 C 
BRANCH  13  14
ATOM     14  C   UNL A   1      29.743  29.999  21.936  1.00  0.00     0.001 C 
BRANCH  14  15
ATOM     15  C   UNL A   1      28.290  30.480  21.816  1.00  0.00    -0.000 C 
BRANCH  15  16
ATOM     16  C   UNL A   1      28.108  31.993  21.769  1.00  0.00    -0.003 C 
ATOM     17  C   UNL A   1      28.744  32.678  22.968  1.00  0.00     0.004 C 
ENDBRANCH  15  16
ENDBRANCH  14  15
ENDBRANCH  13  14
ENDBRANCH  12  13
ENDBRANCH  10  12
ENDBRANCH   6  10
BRANCH   8  18
ATOM     18  O   UNL A   1      34.822  24.230  25.306  1.00  0.00    -0.391 OA
ATOM     19  H   UNL A   1      34.594  23.290  25.240  1.00  0.00     0.211 HD
ENDBRANCH   8  18
ENDBRANCH   1   5
BRANCH   3  20
ATOM     20  C   UNL A   1      32.547  29.639  27.228  1.00  0.00     0.116 C 
BRANCH  20  21
ATOM     21  C   UNL A   1      31.922  30.656  26.278  1.00  0.00     0.023 C 
BRANCH  21  22
ATOM     22  C   UNL A   1      31.563  32.001  26.900  1.00  0.00     0.023 C 
BRANCH  22  23
ATOM     23  C   UNL A   1      32.747  32.798  27.418  1.00  0.00     0.116 C 
BRANCH  23  24
ATOM     24  N   UNL A   1      32.426  34.191  27.682  1.00  0.00    -0.352 N 
ATOM     25  C   UNL A   1      33.000  35.040  28.599  1.00  0.00     0.251 C 
ATOM     26  H   UNL A   1      31.706  34.577  27.134  1.00  0.00     0.163 HD
ATOM     27  O   UNL A   1      32.538  36.160  28.790  1.00  0.00    -0.269 OA
BRANCH  25  28
ATOM     28  C   UNL A   1      34.156  34.570  29.388  1.00  0.00     0.039 A 
ATOM     29  C   UNL A   1      33.934  34.020  30.652  1.00  0.00     0.014 A 
ATOM     30  C   UNL A   1      35.448  34.620  28.855  1.00  0.00     0.014 A 
ATOM     31  C   UNL A   1      35.000  33.453  31.352  1.00  0.00     0.010 A 
ATOM     32  C   UNL A   1      36.488  33.977  29.513  1.00  0.00     0.010 A 
ATOM     33  C   UNL A   1      36.276  33.391  30.770  1.00  0.00    -0.014 A 
BRANCH  33  34
ATOM     34  C   UNL A   1      37.407  32.725  31.461  1.00  0.00     0.031 A 
ATOM     35  C   UNL A   1      38.096  31.556  30.814  1.00  0.00     0.074 A 
ATOM     36  C   UNL A   1      37.765  33.125  32.696  1.00  0.00     0.049 A 
ATOM     37  N   UNL A   1      39.050  30.793  31.284  1.00  0.00    -0.248 NA
ATOM     38  C   UNL A   1      37.628  31.172  29.473  1.00  0.00     0.031 C 
ATOM     39  C   UNL A   1      37.137  34.211  33.450  1.00  0.00     0.029 A 
ATOM     40  N   UNL A   1      38.741  32.657  33.540  1.00  0.00    -0.354 N 
ATOM     41  C   UNL A   1      39.281  29.835  30.306  1.00  0.00     0.074 A 
ATOM     42  C   UNL A   1      38.329  30.073  29.244  1.00  0.00     0.031 C 
ATOM     43  C   UNL A   1      37.758  34.341  34.634  1.00  0.00     0.029 A 
ATOM     44  C   UNL A   1      38.802  33.327  34.738  1.00  0.00     0.049 A 
ATOM     45  H   UNL A   1      39.341  31.911  33.309  1.00  0.00     0.167 HD
ATOM     46  C   UNL A   1      40.221  28.861  30.285  1.00  0.00     0.037 A 
ATOM     47  C   UNL A   1      39.607  33.139  35.800  1.00  0.00     0.037 A 
ATOM     48  C   UNL A   1      41.188  28.648  31.330  1.00  0.00     0.049 A 
ATOM     49  C   UNL A   1      40.645  32.050  35.749  1.00  0.00     0.074 A 
ATOM     50  C   UNL A   1      42.224  27.733  31.372  1.00  0.00     0.029 A 
ATOM     51  N   UNL A   1      41.232  29.362  32.518  1.00  0.00    -0.354 N 
ATOM     52  N   UNL A   1      40.904  31.198  34.788  1.00  0.00    -0.248 NA
ATOM     53  C   UNL A   1      41.506  31.902  36.931  1.00  0.00     0.031 C 
ATOM     54  C   UNL A   1      42.869  27.861  32.607  1.00  0.00     0.029 A 
ATOM     55  C   UNL A   1      42.266  28.891  33.312  1.00  0.00     0.049 A 
ATOM     56  H   UNL A   1      40.620  30.093  32.762  1.00  0.00     0.167 HD
ATOM     57  C   UNL A   1      41.973  30.432  35.235  1.00  0.00     0.074 A 
ATOM     58  C   UNL A   1      42.325  30.932  36.548  1.00  0.00     0.031 C 
ATOM     59  C   UNL A   1      42.606  29.406  34.613  1.00  0.00     0.037 A 
BRANCH  46  60
ATOM     60  C   UNL A   1      40.255  27.957  29.086  1.00  0.00     0.064 A 
ATOM     61  C   UNL A   1      39.541  26.749  29.056  1.00  0.00     0.173 A 
ATOM     62  C   UNL A   1      40.982  28.317  27.943  1.00  0.00     0.173 A 
ATOM     63  F   UNL A   1      38.840  26.352  30.128  1.00  0.00    -0.203 F 
ATOM     64  C   UNL A   1      39.581  25.920  27.937  1.00  0.00     0.198 A 
ATOM     65  C   UNL A   1      40.995  27.501  26.814  1.00  0.00     0.198 A 
ATOM     66  F   UNL A   1      41.679  29.463  27.916  1.00  0.00    -0.203 F 
ATOM     67  F   UNL A   1      38.936  24.746  27.953  1.00  0.00    -0.200 F 
ATOM     68  C   UNL A   1      40.301  26.300  26.815  1.00  0.00     0.200 A 
ATOM     69  F   UNL A   1      41.681  27.875  25.725  1.00  0.00    -0.200 F 
ATOM     70  F   UNL A   1      40.334  25.504  25.738  1.00  0.00    -0.200 F 
ENDBRANCH  46  60
BRANCH  47  71
ATOM     71  C   UNL A   1      39.483  34.018  36.993  1.00  0.00     0.064 A 
ATOM     72  C   UNL A   1      38.735  33.614  38.108  1.00  0.00     0.173 A 
ATOM     73  C   UNL A   1      40.100  35.275  37.042  1.00  0.00     0.173 A 
ATOM     74  F   UNL A   1      38.110  32.427  38.099  1.00  0.00    -0.203 F 
ATOM     75  C   UNL A   1      38.592  34.444  39.218  1.00  0.00     0.198 A 
ATOM     76  C   UNL A   1      39.978  36.093  38.164  1.00  0.00     0.198 A 
ATOM     77  F   UNL A   1      40.831  35.707  36.004  1.00  0.00    -0.203 F 
ATOM     78  F   UNL A   1      37.832  34.053  40.250  1.00  0.00    -0.200 F 
ATOM     79  C   UNL A   1      39.217  35.681  39.248  1.00  0.00     0.200 A 
ATOM     80  F   UNL A   1      40.597  37.282  38.194  1.00  0.00    -0.200 F 
ATOM     81  F   UNL A   1      39.082  36.478  40.316  1.00  0.00    -0.200 F 
ENDBRANCH  47  71
BRANCH  59  82
ATOM     82  C   UNL A   1      43.763  28.776  35.332  1.00  0.00     0.064 A 
ATOM     83  C   UNL A   1      45.085  29.183  35.097  1.00  0.00     0.173 A 
ATOM     84  C   UNL A   1      43.542  27.783  36.298  1.00  0.00     0.173 A 
ATOM     85  F   UNL A   1      45.349  30.119  34.172  1.00  0.00    -0.203 F 
ATOM     86  C   UNL A   1      46.144  28.602  35.787  1.00  0.00     0.198 A 
ATOM     87  C   UNL A   1      44.602  27.227  37.009  1.00  0.00     0.198 A 
ATOM     88  F   UNL A   1      42.296  27.364  36.565  1.00  0.00    -0.203 F 
ATOM     89  F   UNL A   1      47.403  28.973  35.513  1.00  0.00    -0.200 F 
ATOM     90  C   UNL A   1      45.902  27.631  36.747  1.00  0.00     0.200 A 
ATOM     91  F   UNL A   1      44.364  26.299  37.946  1.00  0.00    -0.200 F 
ATOM     92  F   UNL A   1      46.923  27.079  37.416  1.00  0.00    -0.200 F 
ENDBRANCH  59  82
ENDBRANCH  33  34
ENDBRANCH  25  28
ENDBRANCH  23  24
ENDBRANCH  22  23
ENDBRANCH  21  22
ENDBRANCH  20  21
ENDBRANCH   3  20
TORSDOF 18
ENDMDL
MODEL 3
REMARK VINA RESULT:     -10.9      5.897     10.493
REMARK SMILES CCCCCCC(=O)N1C[C@@H](O)C[C@@H]1C(=O)NCCCCNC(=O)c1ccc(-c2c3nc(c(-c4c(F)c(F)c(F)c(F)c4F)c4ccc([nH]4)c(-c4c(F)c(F)c(F)c(F)c4F)c4nc(c(-c5c(F)c(F)c(F)c(F)c5F)c5ccc2[nH]5)C=C4)C=C3)cc1
REMARK SMILES IDX 15 1 16 2 17 3 14 5 9 6 10 7 11 8 13 9 7 10 8 11 6 12 5 13
REMARK SMILES IDX 4 14 3 15 2 16 1 17 12 18 18 20 19 21 20 22 21 23 22 24
REMARK SMILES IDX 23 25 24 27 25 28 26 29 87 30 27 31 86 32 28 33 29 34 30 35
REMARK SMILES IDX 80 36 31 37 85 38 79 39 81 40 32 41 84 42 78 43 77 44 33 46
REMARK SMILES IDX 65 47 45 48 64 49 46 50 49 51 63 52 82 53 47 54 48 55 62 57
REMARK SMILES IDX 83 58 50 59 34 60 35 61 43 62 36 63 37 64 41 65 44 66 38 67
REMARK SMILES IDX 39 68 42 69 40 70 66 71 67 72 75 73 68 74 69 75 73 76 76 77
REMARK SMILES IDX 70 78 71 79 74 80 72 81 51 82 52 83 60 84 53 85 54 86 58 87
REMARK SMILES IDX 61 88 55 89 56 90 59 91 57 92
REMARK H PARENT 17 4 12 19 22 26 81 45 49 56
REMARK Flexibility Score: inf
ROOT
ATOM      1  C   UNL A   1      35.191  23.216  23.531  1.00  0.00     0.242 C 
ATOM      2  O   UNL A   1      34.602  23.295  22.449  1.00  0.00    -0.273 OA
ATOM      3  N   UNL A   1      36.478  22.765  23.513  1.00  0.00    -0.354 N 
ATOM      4  H   UNL A   1      36.900  22.725  22.625  1.00  0.00     0.163 HD
ENDROOT
BRANCH   1   5
ATOM      5  C   UNL A   1      34.496  23.533  24.871  1.00  0.00     0.177 C 
ATOM      6  N   UNL A   1      33.169  22.900  24.919  1.00  0.00    -0.328 N 
ATOM      7  C   UNL A   1      32.162  23.925  25.102  1.00  0.00     0.152 C 
ATOM      8  C   UNL A   1      32.785  25.195  24.544  1.00  0.00     0.136 C 
ATOM      9  C   UNL A   1      34.232  25.045  24.987  1.00  0.00     0.069 C 
BRANCH   6  10
ATOM     10  C   UNL A   1      32.998  21.656  25.495  1.00  0.00     0.223 C 
ATOM     11  O   UNL A   1      33.310  21.426  26.662  1.00  0.00    -0.275 OA
BRANCH  10  12
ATOM     12  C   UNL A   1      32.595  20.541  24.538  1.00  0.00     0.100 C 
BRANCH  12  13
ATOM     13  C   UNL A   1      33.255  19.179  24.703  1.00  0.00     0.010 C 
BRANCH  13  14
ATOM     14  C   UNL A   1      32.969  18.148  23.615  1.00  0.00     0.001 C 
BRANCH  14  15
ATOM     15  C   UNL A   1      34.068  17.099  23.389  1.00  0.00    -0.000 C 
BRANCH  15  16
ATOM     16  C   UNL A   1      34.456  16.289  24.622  1.00  0.00    -0.003 C 
ATOM     17  C   UNL A   1      33.280  15.500  25.174  1.00  0.00     0.004 C 
ENDBRANCH  15  16
ENDBRANCH  14  15
ENDBRANCH  13  14
ENDBRANCH  12  13
ENDBRANCH  10  12
ENDBRANCH   6  10
BRANCH   8  18
ATOM     18  O   UNL A   1      32.187  26.372  25.057  1.00  0.00    -0.391 OA
ATOM     19  H   UNL A   1      31.233  26.234  25.160  1.00  0.00     0.211 HD
ENDBRANCH   8  18
ENDBRANCH   1   5
BRANCH   3  20
ATOM     20  C   UNL A   1      37.313  22.335  24.619  1.00  0.00     0.116 C 
BRANCH  20  21
ATOM     21  C   UNL A   1      36.977  20.902  25.016  1.00  0.00     0.023 C 
BRANCH  21  22
ATOM     22  C   UNL A   1      38.121  19.902  24.896  1.00  0.00     0.023 C 
BRANCH  22  23
ATOM     23  C   UNL A   1      39.342  20.228  25.737  1.00  0.00     0.116 C 
BRANCH  23  24
ATOM     24  N   UNL A   1      40.258  19.107  25.875  1.00  0.00    -0.352 N 
ATOM     25  C   UNL A   1      41.604  19.134  26.153  1.00  0.00     0.251 C 
ATOM     26  H   UNL A   1      39.864  18.214  25.753  1.00  0.00     0.163 HD
ATOM     27  O   UNL A   1      42.271  18.105  26.119  1.00  0.00    -0.269 OA
BRANCH  25  28
ATOM     28  C   UNL A   1      42.250  20.428  26.452  1.00  0.00     0.039 A 
ATOM     29  C   UNL A   1      42.787  21.174  25.400  1.00  0.00     0.014 A 
ATOM     30  C   UNL A   1      42.272  20.927  27.757  1.00  0.00     0.014 A 
ATOM     31  C   UNL A   1      43.283  22.454  25.649  1.00  0.00     0.010 A 
ATOM     32  C   UNL A   1      42.683  22.234  27.987  1.00  0.00     0.010 A 
ATOM     33  C   UNL A   1      43.196  23.010  26.936  1.00  0.00    -0.014 A 
BRANCH  33  34
ATOM     34  C   UNL A   1      43.645  24.397  27.210  1.00  0.00     0.031 A 
ATOM     35  C   UNL A   1      42.665  25.412  27.726  1.00  0.00     0.074 A 
ATOM     36  C   UNL A   1      44.911  24.759  26.925  1.00  0.00     0.049 A 
ATOM     37  N   UNL A   1      42.838  26.689  27.956  1.00  0.00    -0.248 NA
ATOM     38  C   UNL A   1      41.297  24.936  27.991  1.00  0.00     0.031 C 
ATOM     39  C   UNL A   1      45.939  23.878  26.368  1.00  0.00     0.029 A 
ATOM     40  N   UNL A   1      45.546  25.968  27.057  1.00  0.00    -0.354 N 
ATOM     41  C   UNL A   1      41.603  27.168  28.372  1.00  0.00     0.074 A 
ATOM     42  C   UNL A   1      40.675  26.061  28.307  1.00  0.00     0.031 C 
ATOM     43  C   UNL A   1      47.081  24.570  26.228  1.00  0.00     0.029 A 
ATOM     44  C   UNL A   1      46.858  25.948  26.651  1.00  0.00     0.049 A 
ATOM     45  H   UNL A   1      45.103  26.774  27.409  1.00  0.00     0.167 HD
ATOM     46  C   UNL A   1      41.280  28.411  28.797  1.00  0.00     0.037 A 
ATOM     47  C   UNL A   1      47.774  26.934  26.619  1.00  0.00     0.037 A 
ATOM     48  C   UNL A   1      42.215  29.501  28.891  1.00  0.00     0.049 A 
ATOM     49  C   UNL A   1      47.388  28.309  27.098  1.00  0.00     0.074 A 
ATOM     50  C   UNL A   1      42.003  30.780  29.373  1.00  0.00     0.029 A 
ATOM     51  N   UNL A   1      43.542  29.437  28.491  1.00  0.00    -0.354 N 
ATOM     52  N   UNL A   1      46.238  28.731  27.561  1.00  0.00    -0.248 NA
ATOM     53  C   UNL A   1      48.434  29.341  27.056  1.00  0.00     0.031 C 
ATOM     54  C   UNL A   1      43.189  31.506  29.223  1.00  0.00     0.029 A 
ATOM     55  C   UNL A   1      44.155  30.663  28.695  1.00  0.00     0.049 A 
ATOM     56  H   UNL A   1      43.982  28.640  28.118  1.00  0.00     0.167 HD
ATOM     57  C   UNL A   1      46.425  30.066  27.890  1.00  0.00     0.074 A 
ATOM     58  C   UNL A   1      47.807  30.380  27.590  1.00  0.00     0.031 C 
ATOM     59  C   UNL A   1      45.533  30.954  28.396  1.00  0.00     0.037 A 
BRANCH  46  60
ATOM     60  C   UNL A   1      39.855  28.657  29.202  1.00  0.00     0.064 A 
ATOM     61  C   UNL A   1      39.415  28.434  30.516  1.00  0.00     0.173 A 
ATOM     62  C   UNL A   1      38.926  29.149  28.273  1.00  0.00     0.173 A 
ATOM     63  F   UNL A   1      40.259  27.952  31.438  1.00  0.00    -0.203 F 
ATOM     64  C   UNL A   1      38.089  28.666  30.877  1.00  0.00     0.198 A 
ATOM     65  C   UNL A   1      37.609  29.410  28.646  1.00  0.00     0.198 A 
ATOM     66  F   UNL A   1      39.295  29.383  27.005  1.00  0.00    -0.203 F 
ATOM     67  F   UNL A   1      37.680  28.395  32.123  1.00  0.00    -0.200 F 
ATOM     68  C   UNL A   1      37.190  29.160  29.944  1.00  0.00     0.200 A 
ATOM     69  F   UNL A   1      36.744  29.899  27.747  1.00  0.00    -0.200 F 
ATOM     70  F   UNL A   1      35.917  29.389  30.295  1.00  0.00    -0.200 F 
ENDBRANCH  46  60
BRANCH  47  71
ATOM     71  C   UNL A   1      49.153  26.654  26.139  1.00  0.00     0.064 A 
ATOM     72  C   UNL A   1      50.124  26.138  27.008  1.00  0.00     0.173 A 
ATOM     73  C   UNL A   1      49.530  26.902  24.812  1.00  0.00     0.173 A 
ATOM     74  F   UNL A   1      49.816  25.904  28.292  1.00  0.00    -0.203 F 
ATOM     75  C   UNL A   1      51.426  25.899  26.572  1.00  0.00     0.198 A 
ATOM     76  C   UNL A   1      50.825  26.636  24.370  1.00  0.00     0.198 A 
ATOM     77  F   UNL A   1      48.637  27.391  23.939  1.00  0.00    -0.203 F 
ATOM     78  F   UNL A   1      52.347  25.450  27.436  1.00  0.00    -0.200 F 
ATOM     79  C   UNL A   1      51.775  26.144  25.253  1.00  0.00     0.200 A 
ATOM     80  F   UNL A   1      51.153  26.860  23.090  1.00  0.00    -0.200 F 
ATOM     81  F   UNL A   1      53.026  25.912  24.833  1.00  0.00    -0.200 F 
ENDBRANCH  47  71
BRANCH  59  82
ATOM     82  C   UNL A   1      46.032  32.340  28.685  1.00  0.00     0.064 A 
ATOM     83  C   UNL A   1      46.610  32.671  29.920  1.00  0.00     0.173 A 
ATOM     84  C   UNL A   1      45.968  33.336  27.700  1.00  0.00     0.173 A 
ATOM     85  F   UNL A   1      46.680  31.757  30.900  1.00  0.00    -0.203 F 
ATOM     86  C   UNL A   1      47.085  33.956  30.164  1.00  0.00     0.198 A 
ATOM     87  C   UNL A   1      46.473  34.612  27.937  1.00  0.00     0.198 A 
ATOM     88  F   UNL A   1      45.431  33.068  26.500  1.00  0.00    -0.203 F 
ATOM     89  F   UNL A   1      47.591  34.264  31.367  1.00  0.00    -0.200 F 
ATOM     90  C   UNL A   1      47.023  34.923  29.171  1.00  0.00     0.200 A 
ATOM     91  F   UNL A   1      46.425  35.540  26.972  1.00  0.00    -0.200 F 
ATOM     92  F   UNL A   1      47.489  36.157  29.406  1.00  0.00    -0.200 F 
ENDBRANCH  59  82
ENDBRANCH  33  34
ENDBRANCH  25  28
ENDBRANCH  23  24
ENDBRANCH  22  23
ENDBRANCH  21  22
ENDBRANCH  20  21
ENDBRANCH   3  20
TORSDOF 18
ENDMDL
