MODEL 1
REMARK VINA RESULT:     -12.3      0.000      0.000
REMARK SMILES O=C(Cn1nc(-c2ccco2)ccc1=O)NCCCCNC(=O)c1ccc(-c2c3nc(c(-c4c(F)c(F)c(F)c(F)c4F)c4ccc([nH]4)c(-c4c(F)c(F)c(F)c(F)c4F)c4nc(c(-c5c(F)c(F)c(F)c(F)c5F)c5ccc2[nH]5)C=C4)C=C3)cc1
REMARK SMILES IDX 18 1 17 2 16 3 1 4 2 5 3 7 4 8 5 9 14 10 6 11 13 12 15 13
REMARK SMILES IDX 12 14 7 15 8 16 11 17 9 18 10 19 19 20 20 21 21 22 22 23
REMARK SMILES IDX 23 25 24 26 25 27 86 28 26 29 85 30 27 31 28 32 29 33 79 34
REMARK SMILES IDX 30 35 84 36 78 37 80 38 31 39 83 40 77 41 76 42 32 44 64 45
REMARK SMILES IDX 44 46 63 47 45 48 48 49 62 50 81 51 46 52 47 53 61 55 82 56
REMARK SMILES IDX 49 57 33 58 34 59 42 60 35 61 36 62 40 63 43 64 37 65 38 66
REMARK SMILES IDX 41 67 39 68 65 69 66 70 74 71 67 72 68 73 72 74 75 75 69 76
REMARK SMILES IDX 70 77 73 78 71 79 50 80 51 81 59 82 52 83 53 84 57 85 60 86
REMARK SMILES IDX 54 87 55 88 58 89 56 90
REMARK H PARENT 16 6 21 24 80 43 48 54
REMARK Flexibility Score: inf
ROOT
ATOM      1  C   UNL A   1      31.929  30.633  26.171  1.00  0.00     0.023 C 
ENDROOT
BRANCH   1   2
ATOM      2  C   UNL A   1      33.273  30.069  26.628  1.00  0.00     0.116 C 
BRANCH   2   3
ATOM      3  N   UNL A   1      33.821  29.068  25.736  1.00  0.00    -0.354 N 
ATOM      4  O   UNL A   1      32.976  27.274  26.876  1.00  0.00    -0.273 OA
ATOM      5  C   UNL A   1      33.516  27.728  25.869  1.00  0.00     0.241 C 
ATOM      6  H   UNL A   1      34.427  29.352  25.015  1.00  0.00     0.163 HD
BRANCH   5   7
ATOM      7  C   UNL A   1      34.028  26.810  24.751  1.00  0.00     0.248 C 
BRANCH   7   8
ATOM      8  N   UNL A   1      33.072  26.617  23.660  1.00  0.00    -0.220 N 
ATOM      9  N   UNL A   1      31.998  27.489  23.607  1.00  0.00    -0.166 NA
ATOM     10  C   UNL A   1      33.377  25.705  22.658  1.00  0.00     0.267 A 
ATOM     11  C   UNL A   1      31.169  27.369  22.614  1.00  0.00     0.126 A 
ATOM     12  C   UNL A   1      32.371  25.563  21.586  1.00  0.00     0.076 A 
ATOM     13  O   UNL A   1      34.380  25.000  22.631  1.00  0.00    -0.268 OA
ATOM     14  C   UNL A   1      31.286  26.338  21.561  1.00  0.00     0.040 A 
BRANCH  11  15
ATOM     15  C   UNL A   1      30.078  28.302  22.492  1.00  0.00     0.154 A 
ATOM     16  C   UNL A   1      28.850  28.363  23.124  1.00  0.00     0.052 A 
ATOM     17  O   UNL A   1      30.201  29.356  21.628  1.00  0.00    -0.463 OA
ATOM     18  C   UNL A   1      28.193  29.513  22.624  1.00  0.00     0.043 A 
ATOM     19  C   UNL A   1      29.044  30.065  21.695  1.00  0.00     0.196 A 
ENDBRANCH  11  15
ENDBRANCH   7   8
ENDBRANCH   5   7
ENDBRANCH   2   3
ENDBRANCH   1   2
BRANCH   1  20
ATOM     20  C   UNL A   1      31.548  31.983  26.780  1.00  0.00     0.023 C 
BRANCH  20  21
ATOM     21  C   UNL A   1      32.706  32.841  27.276  1.00  0.00     0.116 C 
BRANCH  21  22
ATOM     22  N   UNL A   1      32.328  34.204  27.625  1.00  0.00    -0.352 N 
ATOM     23  C   UNL A   1      32.904  35.061  28.537  1.00  0.00     0.251 C 
ATOM     24  H   UNL A   1      31.551  34.563  27.139  1.00  0.00     0.163 HD
ATOM     25  O   UNL A   1      32.398  36.157  28.761  1.00  0.00    -0.269 OA
BRANCH  23  26
ATOM     26  C   UNL A   1      34.107  34.640  29.292  1.00  0.00     0.039 A 
ATOM     27  C   UNL A   1      35.382  34.760  28.739  1.00  0.00     0.014 A 
ATOM     28  C   UNL A   1      33.946  34.075  30.562  1.00  0.00     0.014 A 
ATOM     29  C   UNL A   1      36.464  34.146  29.362  1.00  0.00     0.010 A 
ATOM     30  C   UNL A   1      35.051  33.530  31.226  1.00  0.00     0.010 A 
ATOM     31  C   UNL A   1      36.307  33.504  30.602  1.00  0.00    -0.014 A 
BRANCH  31  32
ATOM     32  C   UNL A   1      37.460  32.777  31.201  1.00  0.00     0.031 A 
ATOM     33  C   UNL A   1      37.912  33.081  32.605  1.00  0.00     0.074 A 
ATOM     34  C   UNL A   1      38.053  31.787  30.507  1.00  0.00     0.049 A 
ATOM     35  N   UNL A   1      38.869  32.521  33.305  1.00  0.00    -0.248 NA
ATOM     36  C   UNL A   1      37.203  34.154  33.320  1.00  0.00     0.031 C 
ATOM     37  C   UNL A   1      37.699  31.385  29.146  1.00  0.00     0.029 A 
ATOM     38  N   UNL A   1      39.057  30.920  30.861  1.00  0.00    -0.354 N 
ATOM     39  C   UNL A   1      38.884  33.180  34.528  1.00  0.00     0.074 A 
ATOM     40  C   UNL A   1      37.864  34.204  34.468  1.00  0.00     0.031 C 
ATOM     41  C   UNL A   1      38.433  30.317  28.800  1.00  0.00     0.029 A 
ATOM     42  C   UNL A   1      39.346  29.992  29.891  1.00  0.00     0.049 A 
ATOM     43  H   UNL A   1      39.524  30.961  31.726  1.00  0.00     0.167 HD
ATOM     44  C   UNL A   1      39.667  32.943  35.607  1.00  0.00     0.037 A 
ATOM     45  C   UNL A   1      40.250  28.994  29.878  1.00  0.00     0.037 A 
ATOM     46  C   UNL A   1      40.664  31.907  35.682  1.00  0.00     0.049 A 
ATOM     47  C   UNL A   1      41.132  28.779  31.074  1.00  0.00     0.074 A 
ATOM     48  C   UNL A   1      41.484  31.577  36.746  1.00  0.00     0.029 A 
ATOM     49  N   UNL A   1      40.970  31.030  34.653  1.00  0.00    -0.354 N 
ATOM     50  N   UNL A   1      41.131  29.407  32.225  1.00  0.00    -0.248 NA
ATOM     51  C   UNL A   1      42.150  27.724  30.967  1.00  0.00     0.031 C 
ATOM     52  C   UNL A   1      42.314  30.523  36.349  1.00  0.00     0.029 A 
ATOM     53  C   UNL A   1      41.982  30.171  35.052  1.00  0.00     0.049 A 
ATOM     54  H   UNL A   1      40.533  31.019  33.770  1.00  0.00     0.167 HD
ATOM     55  C   UNL A   1      42.138  28.821  32.978  1.00  0.00     0.074 A 
ATOM     56  C   UNL A   1      42.716  27.772  32.165  1.00  0.00     0.031 C 
ATOM     57  C   UNL A   1      42.550  29.134  34.231  1.00  0.00     0.037 A 
BRANCH  44  58
ATOM     58  C   UNL A   1      39.485  33.821  36.810  1.00  0.00     0.064 A 
ATOM     59  C   UNL A   1      38.680  33.427  37.890  1.00  0.00     0.173 A 
ATOM     60  C   UNL A   1      40.181  35.034  36.918  1.00  0.00     0.173 A 
ATOM     61  F   UNL A   1      37.987  32.279  37.831  1.00  0.00    -0.203 F 
ATOM     62  C   UNL A   1      38.569  34.222  39.027  1.00  0.00     0.198 A 
ATOM     63  C   UNL A   1      40.086  35.816  38.067  1.00  0.00     0.198 A 
ATOM     64  F   UNL A   1      40.970  35.452  35.917  1.00  0.00    -0.203 F 
ATOM     65  F   UNL A   1      37.774  33.838  40.036  1.00  0.00    -0.200 F 
ATOM     66  C   UNL A   1      39.279  35.410  39.119  1.00  0.00     0.200 A 
ATOM     67  F   UNL A   1      40.782  36.957  38.160  1.00  0.00    -0.200 F 
ATOM     68  F   UNL A   1      39.183  36.166  40.222  1.00  0.00    -0.200 F 
ENDBRANCH  44  58
BRANCH  45  69
ATOM     69  C   UNL A   1      40.351  28.115  28.686  1.00  0.00     0.064 A 
ATOM     70  C   UNL A   1      41.143  28.481  27.590  1.00  0.00     0.173 A 
ATOM     71  C   UNL A   1      39.686  26.882  28.630  1.00  0.00     0.173 A 
ATOM     72  F   UNL A   1      41.782  29.661  27.590  1.00  0.00    -0.203 F 
ATOM     73  C   UNL A   1      41.264  27.647  26.481  1.00  0.00     0.198 A 
ATOM     74  C   UNL A   1      39.827  26.038  27.532  1.00  0.00     0.198 A 
ATOM     75  F   UNL A   1      38.917  26.488  29.656  1.00  0.00    -0.203 F 
ATOM     76  F   UNL A   1      42.007  28.032  25.435  1.00  0.00    -0.200 F 
ATOM     77  C   UNL A   1      40.613  26.423  26.457  1.00  0.00     0.200 A 
ATOM     78  F   UNL A   1      39.209  24.849  27.519  1.00  0.00    -0.200 F 
ATOM     79  F   UNL A   1      40.742  25.615  25.395  1.00  0.00    -0.200 F 
ENDBRANCH  45  69
BRANCH  57  80
ATOM     80  C   UNL A   1      43.678  28.331  34.807  1.00  0.00     0.064 A 
ATOM     81  C   UNL A   1      45.007  28.767  34.709  1.00  0.00     0.173 A 
ATOM     82  C   UNL A   1      43.421  27.150  35.520  1.00  0.00     0.173 A 
ATOM     83  F   UNL A   1      45.302  29.882  34.025  1.00  0.00    -0.203 F 
ATOM     84  C   UNL A   1      46.041  28.043  35.294  1.00  0.00     0.198 A 
ATOM     85  C   UNL A   1      44.456  26.441  36.123  1.00  0.00     0.198 A 
ATOM     86  F   UNL A   1      42.166  26.695  35.646  1.00  0.00    -0.203 F 
ATOM     87  F   UNL A   1      47.307  28.460  35.161  1.00  0.00    -0.200 F 
ATOM     88  C   UNL A   1      45.765  26.885  36.007  1.00  0.00     0.200 A 
ATOM     89  F   UNL A   1      44.186  25.329  36.821  1.00  0.00    -0.200 F 
ATOM     90  F   UNL A   1      46.760  26.195  36.579  1.00  0.00    -0.200 F 
ENDBRANCH  57  80
ENDBRANCH  31  32
ENDBRANCH  23  26
ENDBRANCH  21  22
ENDBRANCH  20  21
ENDBRANCH   1  20
TORSDOF 13
ENDMDL
MODEL 2
REMARK VINA RESULT:     -12.3      0.981      1.858
REMARK SMILES O=C(Cn1nc(-c2ccco2)ccc1=O)NCCCCNC(=O)c1ccc(-c2c3nc(c(-c4c(F)c(F)c(F)c(F)c4F)c4ccc([nH]4)c(-c4c(F)c(F)c(F)c(F)c4F)c4nc(c(-c5c(F)c(F)c(F)c(F)c5F)c5ccc2[nH]5)C=C4)C=C3)cc1
REMARK SMILES IDX 18 1 17 2 16 3 1 4 2 5 3 7 4 8 5 9 14 10 6 11 13 12 15 13
REMARK SMILES IDX 12 14 7 15 8 16 11 17 9 18 10 19 19 20 20 21 21 22 22 23
REMARK SMILES IDX 23 25 24 26 25 27 86 28 26 29 85 30 27 31 28 32 29 33 79 34
REMARK SMILES IDX 30 35 84 36 78 37 80 38 31 39 83 40 77 41 76 42 32 44 64 45
REMARK SMILES IDX 44 46 63 47 45 48 48 49 62 50 81 51 46 52 47 53 61 55 82 56
REMARK SMILES IDX 49 57 33 58 34 59 42 60 35 61 36 62 40 63 43 64 37 65 38 66
REMARK SMILES IDX 41 67 39 68 65 69 66 70 74 71 67 72 68 73 72 74 75 75 69 76
REMARK SMILES IDX 70 77 73 78 71 79 50 80 51 81 59 82 52 83 53 84 57 85 60 86
REMARK SMILES IDX 54 87 55 88 58 89 56 90
REMARK H PARENT 16 6 21 24 80 43 48 54
REMARK Flexibility Score: inf
ROOT
ATOM      1  C   UNL A   1      31.924  30.425  26.913  1.00  0.00     0.023 C 
ENDROOT
BRANCH   1   2
ATOM      2  C   UNL A   1      32.854  29.790  25.881  1.00  0.00     0.116 C 
BRANCH   2   3
ATOM      3  N   UNL A   1      32.160  29.101  24.814  1.00  0.00    -0.354 N 
ATOM      4  O   UNL A   1      34.024  28.082  23.965  1.00  0.00    -0.273 OA
ATOM      5  C   UNL A   1      32.799  28.186  24.001  1.00  0.00     0.241 C 
ATOM      6  H   UNL A   1      31.207  29.290  24.664  1.00  0.00     0.163 HD
BRANCH   5   7
ATOM      7  C   UNL A   1      31.900  27.408  23.030  1.00  0.00     0.248 C 
BRANCH   7   8
ATOM      8  N   UNL A   1      30.491  27.796  23.091  1.00  0.00    -0.220 N 
ATOM      9  N   UNL A   1      30.154  29.022  22.545  1.00  0.00    -0.166 NA
ATOM     10  C   UNL A   1      29.559  26.859  23.523  1.00  0.00     0.267 A 
ATOM     11  C   UNL A   1      28.899  29.359  22.540  1.00  0.00     0.126 A 
ATOM     12  C   UNL A   1      28.154  27.315  23.555  1.00  0.00     0.076 A 
ATOM     13  O   UNL A   1      29.827  25.727  23.908  1.00  0.00    -0.268 OA
ATOM     14  C   UNL A   1      27.818  28.526  23.110  1.00  0.00     0.040 A 
BRANCH  11  15
ATOM     15  C   UNL A   1      28.506  30.599  21.920  1.00  0.00     0.154 A 
ATOM     16  C   UNL A   1      28.501  31.898  22.392  1.00  0.00     0.052 A 
ATOM     17  O   UNL A   1      28.059  30.581  20.626  1.00  0.00    -0.463 OA
ATOM     18  C   UNL A   1      28.031  32.712  21.335  1.00  0.00     0.043 A 
ATOM     19  C   UNL A   1      27.748  31.860  20.293  1.00  0.00     0.196 A 
ENDBRANCH  11  15
ENDBRANCH   7   8
ENDBRANCH   5   7
ENDBRANCH   2   3
ENDBRANCH   1   2
BRANCH   1  20
ATOM     20  C   UNL A   1      31.717  31.933  26.766  1.00  0.00     0.023 C 
BRANCH  20  21
ATOM     21  C   UNL A   1      32.865  32.813  27.248  1.00  0.00     0.116 C 
BRANCH  21  22
ATOM     22  N   UNL A   1      32.460  34.158  27.630  1.00  0.00    -0.352 N 
ATOM     23  C   UNL A   1      33.006  34.996  28.578  1.00  0.00     0.251 C 
ATOM     24  H   UNL A   1      31.686  34.521  27.141  1.00  0.00     0.163 HD
ATOM     25  O   UNL A   1      32.480  36.078  28.825  1.00  0.00    -0.269 OA
BRANCH  23  26
ATOM     26  C   UNL A   1      34.201  34.570  29.342  1.00  0.00     0.039 A 
ATOM     27  C   UNL A   1      35.487  34.781  28.843  1.00  0.00     0.014 A 
ATOM     28  C   UNL A   1      34.025  33.909  30.562  1.00  0.00     0.014 A 
ATOM     29  C   UNL A   1      36.574  34.167  29.458  1.00  0.00     0.010 A 
ATOM     30  C   UNL A   1      35.130  33.362  31.224  1.00  0.00     0.010 A 
ATOM     31  C   UNL A   1      36.406  33.432  30.643  1.00  0.00    -0.014 A 
BRANCH  31  32
ATOM     32  C   UNL A   1      37.569  32.710  31.228  1.00  0.00     0.031 A 
ATOM     33  C   UNL A   1      38.034  33.013  32.628  1.00  0.00     0.074 A 
ATOM     34  C   UNL A   1      38.160  31.725  30.525  1.00  0.00     0.049 A 
ATOM     35  N   UNL A   1      39.001  32.457  33.316  1.00  0.00    -0.248 NA
ATOM     36  C   UNL A   1      37.327  34.081  33.353  1.00  0.00     0.031 C 
ATOM     37  C   UNL A   1      37.794  31.323  29.168  1.00  0.00     0.029 A 
ATOM     38  N   UNL A   1      39.173  30.863  30.867  1.00  0.00    -0.354 N 
ATOM     39  C   UNL A   1      39.026  33.114  34.540  1.00  0.00     0.074 A 
ATOM     40  C   UNL A   1      37.999  34.132  34.494  1.00  0.00     0.031 C 
ATOM     41  C   UNL A   1      38.531  30.261  28.811  1.00  0.00     0.029 A 
ATOM     42  C   UNL A   1      39.457  29.939  29.892  1.00  0.00     0.049 A 
ATOM     43  H   UNL A   1      39.649  30.904  31.728  1.00  0.00     0.167 HD
ATOM     44  C   UNL A   1      39.821  32.879  35.611  1.00  0.00     0.037 A 
ATOM     45  C   UNL A   1      40.366  28.945  29.868  1.00  0.00     0.037 A 
ATOM     46  C   UNL A   1      40.825  31.849  35.673  1.00  0.00     0.049 A 
ATOM     47  C   UNL A   1      41.263  28.734  31.054  1.00  0.00     0.074 A 
ATOM     48  C   UNL A   1      41.659  31.521  36.728  1.00  0.00     0.029 A 
ATOM     49  N   UNL A   1      41.125  30.975  34.640  1.00  0.00    -0.354 N 
ATOM     50  N   UNL A   1      41.270  29.358  32.205  1.00  0.00    -0.248 NA
ATOM     51  C   UNL A   1      42.285  27.684  30.933  1.00  0.00     0.031 C 
ATOM     52  C   UNL A   1      42.490  30.473  36.320  1.00  0.00     0.029 A 
ATOM     53  C   UNL A   1      42.147  30.122  35.025  1.00  0.00     0.049 A 
ATOM     54  H   UNL A   1      40.680  30.964  33.761  1.00  0.00     0.167 HD
ATOM     55  C   UNL A   1      42.288  28.777  32.947  1.00  0.00     0.074 A 
ATOM     56  C   UNL A   1      42.864  27.733  32.125  1.00  0.00     0.031 C 
ATOM     57  C   UNL A   1      42.712  29.089  34.196  1.00  0.00     0.037 A 
BRANCH  44  58
ATOM     58  C   UNL A   1      39.647  33.754  36.818  1.00  0.00     0.064 A 
ATOM     59  C   UNL A   1      40.258  35.014  36.904  1.00  0.00     0.173 A 
ATOM     60  C   UNL A   1      38.800  33.361  37.865  1.00  0.00     0.173 A 
ATOM     61  F   UNL A   1      41.083  35.431  35.932  1.00  0.00    -0.203 F 
ATOM     62  C   UNL A   1      40.038  35.842  38.001  1.00  0.00     0.198 A 
ATOM     63  C   UNL A   1      38.564  34.202  38.950  1.00  0.00     0.198 A 
ATOM     64  F   UNL A   1      38.185  32.169  37.826  1.00  0.00    -0.203 F 
ATOM     65  F   UNL A   1      40.653  37.031  38.075  1.00  0.00    -0.200 F 
ATOM     66  C   UNL A   1      39.184  35.440  39.018  1.00  0.00     0.200 A 
ATOM     67  F   UNL A   1      37.728  33.818  39.925  1.00  0.00    -0.200 F 
ATOM     68  F   UNL A   1      38.961  36.246  40.065  1.00  0.00    -0.200 F 
ENDBRANCH  44  58
BRANCH  45  69
ATOM     69  C   UNL A   1      40.460  28.070  28.672  1.00  0.00     0.064 A 
ATOM     70  C   UNL A   1      41.236  28.445  27.568  1.00  0.00     0.173 A 
ATOM     71  C   UNL A   1      39.804  26.832  28.622  1.00  0.00     0.173 A 
ATOM     72  F   UNL A   1      41.866  29.629  27.563  1.00  0.00    -0.203 F 
ATOM     73  C   UNL A   1      41.350  27.613  26.455  1.00  0.00     0.198 A 
ATOM     74  C   UNL A   1      39.938  25.991  27.520  1.00  0.00     0.198 A 
ATOM     75  F   UNL A   1      39.050  26.430  29.656  1.00  0.00    -0.203 F 
ATOM     76  F   UNL A   1      42.077  28.006  25.401  1.00  0.00    -0.200 F 
ATOM     77  C   UNL A   1      40.708  26.384  26.437  1.00  0.00     0.200 A 
ATOM     78  F   UNL A   1      39.329  24.798  27.512  1.00  0.00    -0.200 F 
ATOM     79  F   UNL A   1      40.831  25.579  25.372  1.00  0.00    -0.200 F 
ENDBRANCH  45  69
BRANCH  57  80
ATOM     80  C   UNL A   1      43.851  28.292  34.758  1.00  0.00     0.064 A 
ATOM     81  C   UNL A   1      45.178  28.718  34.615  1.00  0.00     0.173 A 
ATOM     82  C   UNL A   1      43.606  27.128  35.503  1.00  0.00     0.173 A 
ATOM     83  F   UNL A   1      45.461  29.817  33.901  1.00  0.00    -0.203 F 
ATOM     84  C   UNL A   1      46.224  28.000  35.188  1.00  0.00     0.198 A 
ATOM     85  C   UNL A   1      44.653  26.425  36.092  1.00  0.00     0.198 A 
ATOM     86  F   UNL A   1      42.353  26.683  35.672  1.00  0.00    -0.203 F 
ATOM     87  F   UNL A   1      47.489  28.406  35.012  1.00  0.00    -0.200 F 
ATOM     88  C   UNL A   1      45.961  26.859  35.932  1.00  0.00     0.200 A 
ATOM     89  F   UNL A   1      44.396  25.329  36.820  1.00  0.00    -0.200 F 
ATOM     90  F   UNL A   1      46.967  26.175  36.492  1.00  0.00    -0.200 F 
ENDBRANCH  57  80
ENDBRANCH  31  32
ENDBRANCH  23  26
ENDBRANCH  21  22
ENDBRANCH  20  21
ENDBRANCH   1  20
TORSDOF 13
ENDMDL
MODEL 3
REMARK VINA RESULT:     -12.3      5.804     11.430
REMARK SMILES O=C(Cn1nc(-c2ccco2)ccc1=O)NCCCCNC(=O)c1ccc(-c2c3nc(c(-c4c(F)c(F)c(F)c(F)c4F)c4ccc([nH]4)c(-c4c(F)c(F)c(F)c(F)c4F)c4nc(c(-c5c(F)c(F)c(F)c(F)c5F)c5ccc2[nH]5)C=C4)C=C3)cc1
REMARK SMILES IDX 18 1 17 2 16 3 1 4 2 5 3 7 4 8 5 9 14 10 6 11 13 12 15 13
REMARK SMILES IDX 12 14 7 15 8 16 11 17 9 18 10 19 19 20 20 21 21 22 22 23
REMARK SMILES IDX 23 25 24 26 25 27 86 28 26 29 85 30 27 31 28 32 29 33 79 34
REMARK SMILES IDX 30 35 84 36 78 37 80 38 31 39 83 40 77 41 76 42 32 44 64 45
REMARK SMILES IDX 44 46 63 47 45 48 48 49 62 50 81 51 46 52 47 53 61 55 82 56
REMARK SMILES IDX 49 57 33 58 34 59 42 60 35 61 36 62 40 63 43 64 37 65 38 66
REMARK SMILES IDX 41 67 39 68 65 69 66 70 74 71 67 72 68 73 72 74 75 75 69 76
REMARK SMILES IDX 70 77 73 78 71 79 50 80 51 81 59 82 52 83 53 84 57 85 60 86
REMARK SMILES IDX 54 87 55 88 58 89 56 90
REMARK H PARENT 16 6 21 24 80 43 48 54
REMARK Flexibility Score: inf
ROOT
ATOM      1  C   UNL A   1      41.354  19.349  26.123  1.00  0.00     0.023 C 
ENDROOT
BRANCH   1   2
ATOM      2  C   UNL A   1      42.766  18.767  26.179  1.00  0.00     0.116 C 
BRANCH   2   3
ATOM      3  N   UNL A   1      43.808  19.736  25.913  1.00  0.00    -0.354 N 
ATOM      4  O   UNL A   1      45.245  18.247  24.938  1.00  0.00    -0.273 OA
ATOM      5  C   UNL A   1      44.937  19.411  25.187  1.00  0.00     0.241 C 
ATOM      6  H   UNL A   1      43.710  20.651  26.261  1.00  0.00     0.163 HD
BRANCH   5   7
ATOM      7  C   UNL A   1      45.869  20.580  24.838  1.00  0.00     0.248 C 
BRANCH   7   8
ATOM      8  N   UNL A   1      45.325  21.893  25.184  1.00  0.00    -0.220 N 
ATOM      9  N   UNL A   1      45.718  22.434  26.395  1.00  0.00    -0.166 NA
ATOM     10  C   UNL A   1      44.601  22.590  24.224  1.00  0.00     0.267 A 
ATOM     11  C   UNL A   1      45.291  23.624  26.695  1.00  0.00     0.126 A 
ATOM     12  C   UNL A   1      44.085  23.911  24.639  1.00  0.00     0.076 A 
ATOM     13  O   UNL A   1      44.335  22.171  23.103  1.00  0.00    -0.268 OA
ATOM     14  C   UNL A   1      44.385  24.416  25.836  1.00  0.00     0.040 A 
BRANCH  11  15
ATOM     15  C   UNL A   1      45.734  24.244  27.918  1.00  0.00     0.154 A 
ATOM     16  C   UNL A   1      46.871  24.971  28.216  1.00  0.00     0.052 A 
ATOM     17  O   UNL A   1      44.941  24.158  29.030  1.00  0.00    -0.463 OA
ATOM     18  C   UNL A   1      46.765  25.350  29.576  1.00  0.00     0.043 A 
ATOM     19  C   UNL A   1      45.588  24.806  30.033  1.00  0.00     0.196 A 
ENDBRANCH  11  15
ENDBRANCH   7   8
ENDBRANCH   5   7
ENDBRANCH   2   3
ENDBRANCH   1   2
BRANCH   1  20
ATOM     20  C   UNL A   1      41.279  20.877  26.113  1.00  0.00     0.023 C 
BRANCH  20  21
ATOM     21  C   UNL A   1      40.229  21.498  27.027  1.00  0.00     0.116 C 
BRANCH  21  22
ATOM     22  N   UNL A   1      39.043  21.975  26.329  1.00  0.00    -0.352 N 
ATOM     23  C   UNL A   1      38.541  23.255  26.240  1.00  0.00     0.251 C 
ATOM     24  H   UNL A   1      38.527  21.285  25.853  1.00  0.00     0.163 HD
ATOM     25  O   UNL A   1      37.474  23.463  25.669  1.00  0.00    -0.269 OA
BRANCH  23  26
ATOM     26  C   UNL A   1      39.261  24.379  26.880  1.00  0.00     0.039 A 
ATOM     27  C   UNL A   1      39.128  24.635  28.245  1.00  0.00     0.014 A 
ATOM     28  C   UNL A   1      40.052  25.218  26.086  1.00  0.00     0.014 A 
ATOM     29  C   UNL A   1      39.619  25.825  28.775  1.00  0.00     0.010 A 
ATOM     30  C   UNL A   1      40.615  26.374  26.639  1.00  0.00     0.010 A 
ATOM     31  C   UNL A   1      40.348  26.719  27.973  1.00  0.00    -0.014 A 
BRANCH  31  32
ATOM     32  C   UNL A   1      40.781  28.025  28.541  1.00  0.00     0.031 A 
ATOM     33  C   UNL A   1      42.244  28.349  28.689  1.00  0.00     0.074 A 
ATOM     34  C   UNL A   1      39.856  28.952  28.853  1.00  0.00     0.049 A 
ATOM     35  N   UNL A   1      42.807  29.451  29.124  1.00  0.00    -0.248 NA
ATOM     36  C   UNL A   1      43.205  27.304  28.302  1.00  0.00     0.031 C 
ATOM     37  C   UNL A   1      38.409  28.768  28.741  1.00  0.00     0.029 A 
ATOM     38  N   UNL A   1      39.994  30.243  29.300  1.00  0.00    -0.354 N 
ATOM     39  C   UNL A   1      44.177  29.224  29.076  1.00  0.00     0.074 A 
ATOM     40  C   UNL A   1      44.365  27.871  28.600  1.00  0.00     0.031 C 
ATOM     41  C   UNL A   1      37.795  29.918  29.055  1.00  0.00     0.029 A 
ATOM     42  C   UNL A   1      38.800  30.905  29.442  1.00  0.00     0.049 A 
ATOM     43  H   UNL A   1      40.866  30.654  29.498  1.00  0.00     0.167 HD
ATOM     44  C   UNL A   1      45.187  30.072  29.386  1.00  0.00     0.037 A 
ATOM     45  C   UNL A   1      38.540  32.163  29.844  1.00  0.00     0.037 A 
ATOM     46  C   UNL A   1      45.005  31.429  29.833  1.00  0.00     0.049 A 
ATOM     47  C   UNL A   1      39.677  33.069  30.220  1.00  0.00     0.074 A 
ATOM     48  C   UNL A   1      45.972  32.370  30.143  1.00  0.00     0.029 A 
ATOM     49  N   UNL A   1      43.776  32.040  30.026  1.00  0.00    -0.354 N 
ATOM     50  N   UNL A   1      40.966  32.843  30.164  1.00  0.00    -0.248 NA
ATOM     51  C   UNL A   1      39.322  34.404  30.726  1.00  0.00     0.031 C 
ATOM     52  C   UNL A   1      45.327  33.539  30.560  1.00  0.00     0.029 A 
ATOM     53  C   UNL A   1      43.960  33.339  30.471  1.00  0.00     0.049 A 
ATOM     54  H   UNL A   1      42.902  31.613  29.870  1.00  0.00     0.167 HD
ATOM     55  C   UNL A   1      41.576  34.003  30.620  1.00  0.00     0.074 A 
ATOM     56  C   UNL A   1      40.517  34.942  30.927  1.00  0.00     0.031 C 
ATOM     57  C   UNL A   1      42.897  34.262  30.776  1.00  0.00     0.037 A 
BRANCH  44  58
ATOM     58  C   UNL A   1      46.592  29.565  29.256  1.00  0.00     0.064 A 
ATOM     59  C   UNL A   1      47.230  28.897  30.313  1.00  0.00     0.173 A 
ATOM     60  C   UNL A   1      47.281  29.679  28.040  1.00  0.00     0.173 A 
ATOM     61  F   UNL A   1      46.616  28.770  31.499  1.00  0.00    -0.203 F 
ATOM     62  C   UNL A   1      48.512  28.376  30.160  1.00  0.00     0.198 A 
ATOM     63  C   UNL A   1      48.554  29.135  27.883  1.00  0.00     0.198 A 
ATOM     64  F   UNL A   1      46.712  30.300  26.996  1.00  0.00    -0.203 F 
ATOM     65  F   UNL A   1      49.113  27.765  31.191  1.00  0.00    -0.200 F 
ATOM     66  C   UNL A   1      49.169  28.486  28.943  1.00  0.00     0.200 A 
ATOM     67  F   UNL A   1      49.182  29.231  26.703  1.00  0.00    -0.200 F 
ATOM     68  F   UNL A   1      50.396  27.969  28.792  1.00  0.00    -0.200 F 
ENDBRANCH  44  58
BRANCH  45  69
ATOM     69  C   UNL A   1      37.134  32.637  29.900  1.00  0.00     0.064 A 
ATOM     70  C   UNL A   1      36.362  32.459  31.055  1.00  0.00     0.173 A 
ATOM     71  C   UNL A   1      36.545  33.302  28.815  1.00  0.00     0.173 A 
ATOM     72  F   UNL A   1      36.876  31.811  32.111  1.00  0.00    -0.203 F 
ATOM     73  C   UNL A   1      35.051  32.927  31.122  1.00  0.00     0.198 A 
ATOM     74  C   UNL A   1      35.244  33.791  28.891  1.00  0.00     0.198 A 
ATOM     75  F   UNL A   1      37.245  33.497  27.688  1.00  0.00    -0.203 F 
ATOM     76  F   UNL A   1      34.325  32.721  32.229  1.00  0.00    -0.200 F 
ATOM     77  C   UNL A   1      34.497  33.600  30.044  1.00  0.00     0.200 A 
ATOM     78  F   UNL A   1      34.718  34.455  27.854  1.00  0.00    -0.200 F 
ATOM     79  F   UNL A   1      33.241  34.063  30.115  1.00  0.00    -0.200 F 
ENDBRANCH  45  69
BRANCH  57  80
ATOM     80  C   UNL A   1      43.279  35.615  31.298  1.00  0.00     0.064 A 
ATOM     81  C   UNL A   1      43.322  35.878  32.674  1.00  0.00     0.173 A 
ATOM     82  C   UNL A   1      43.669  36.634  30.417  1.00  0.00     0.173 A 
ATOM     83  F   UNL A   1      42.944  34.939  33.553  1.00  0.00    -0.203 F 
ATOM     84  C   UNL A   1      43.730  37.121  33.150  1.00  0.00     0.198 A 
ATOM     85  C   UNL A   1      44.099  37.868  30.898  1.00  0.00     0.198 A 
ATOM     86  F   UNL A   1      43.651  36.429  29.092  1.00  0.00    -0.203 F 
ATOM     87  F   UNL A   1      43.733  37.363  34.468  1.00  0.00    -0.200 F 
ATOM     88  C   UNL A   1      44.126  38.111  32.264  1.00  0.00     0.200 A 
ATOM     89  F   UNL A   1      44.491  38.820  30.040  1.00  0.00    -0.200 F 
ATOM     90  F   UNL A   1      44.529  39.303  32.724  1.00  0.00    -0.200 F 
ENDBRANCH  57  80
ENDBRANCH  31  32
ENDBRANCH  23  26
ENDBRANCH  21  22
ENDBRANCH  20  21
ENDBRANCH   1  20
TORSDOF 13
ENDMDL
