MODEL 1
REMARK VINA RESULT:     -13.3      0.000      0.000
REMARK SMILES Cc1ccc(OCC(=O)NNC(=O)[C@H]2CCCC[C@@H]2C(=O)NCCCCNC(=O)c2ccc(-c3c4nc(c(-c5c(F)c(F)c(F)c(F)c5F)c5ccc([nH]5)c(-c5c(F)c(F)c(F)c(F)c5F)c5nc(c(-c6c(F)c(F)c(F)c(F)c6F)c6ccc3[nH]6)C=C5)C=C4)cc2)cc1
REMARK SMILES IDX 23 1 22 2 20 3 21 4 19 6 14 7 15 8 16 9 18 10 17 11 12 12
REMARK SMILES IDX 11 13 13 15 10 16 8 17 9 18 7 20 6 21 5 22 1 23 2 24 3 25
REMARK SMILES IDX 94 26 4 27 93 28 24 29 25 30 26 31 27 32 28 33 29 35 30 36
REMARK SMILES IDX 31 37 92 38 32 39 91 40 33 41 34 42 35 43 85 44 36 45 90 46
REMARK SMILES IDX 84 47 86 48 37 49 89 50 83 51 82 52 38 54 70 55 50 56 69 57
REMARK SMILES IDX 51 58 54 59 68 60 87 61 52 62 53 63 67 65 88 66 55 67 39 68
REMARK SMILES IDX 40 69 48 70 41 71 42 72 46 73 49 74 43 75 44 76 47 77 45 78
REMARK SMILES IDX 71 79 72 80 80 81 73 82 74 83 78 84 81 85 75 86 76 87 79 88
REMARK SMILES IDX 77 89 56 90 57 91 65 92 58 93 59 94 63 95 66 96 60 97 61 98
REMARK SMILES IDX 64 99 62 100
REMARK H PARENT 22 5 11 14 10 19 27 34 86 53 54 64
REMARK Flexibility Score: inf
ROOT
ATOM      1  C   UNL A   1      31.874  29.493  25.631  1.00  0.00     0.116 C 
ENDROOT
BRANCH   1   2
ATOM      2  N   UNL A   1      32.919  28.515  25.367  1.00  0.00    -0.356 N 
ATOM      3  C   UNL A   1      33.019  27.165  25.437  1.00  0.00     0.223 C 
ATOM      4  O   UNL A   1      34.066  26.708  24.953  1.00  0.00    -0.275 OA
ATOM      5  H   UNL A   1      33.756  28.936  25.065  1.00  0.00     0.163 HD
BRANCH   3   6
ATOM      6  C   UNL A   1      32.041  26.193  26.129  1.00  0.00     0.091 C 
ATOM      7  C   UNL A   1      32.508  24.731  25.855  1.00  0.00     0.092 C 
ATOM      8  C   UNL A   1      32.110  24.295  24.427  1.00  0.00     0.014 C 
ATOM      9  C   UNL A   1      30.628  24.501  24.106  1.00  0.00     0.001 C 
ATOM     10  C   UNL A   1      30.538  26.289  25.885  1.00  0.00     0.014 C 
ATOM     11  C   UNL A   1      30.146  25.899  24.463  1.00  0.00     0.001 C 
BRANCH   7  12
ATOM     12  C   UNL A   1      31.978  23.742  26.901  1.00  0.00     0.242 C 
ATOM     13  N   UNL A   1      32.839  22.878  27.523  1.00  0.00    -0.267 N 
ATOM     14  H   UNL A   1      32.467  22.309  28.235  1.00  0.00     0.191 HD
ATOM     15  O   UNL A   1      30.786  23.674  27.208  1.00  0.00    -0.273 OA
BRANCH  13  16
ATOM     16  N   UNL A   1      34.187  22.735  27.237  1.00  0.00    -0.265 N 
ATOM     17  C   UNL A   1      34.669  21.855  26.294  1.00  0.00     0.276 C 
ATOM     18  O   UNL A   1      35.875  21.829  26.041  1.00  0.00    -0.269 OA
ATOM     19  H   UNL A   1      34.833  23.289  27.732  1.00  0.00     0.191 HD
BRANCH  17  20
ATOM     20  C   UNL A   1      33.673  20.964  25.542  1.00  0.00     0.331 C 
BRANCH  20  21
ATOM     21  O   UNL A   1      34.242  20.068  24.599  1.00  0.00    -0.484 OA
BRANCH  21  22
ATOM     22  C   UNL A   1      33.949  18.738  24.727  1.00  0.00     0.120 A 
ATOM     23  C   UNL A   1      32.715  14.660  25.431  1.00  0.00     0.044 C 
ATOM     24  C   UNL A   1      33.146  16.075  25.185  1.00  0.00    -0.051 A 
ATOM     25  C   UNL A   1      32.430  17.138  25.745  1.00  0.00     0.007 A 
ATOM     26  C   UNL A   1      34.257  16.358  24.384  1.00  0.00     0.007 A 
ATOM     27  C   UNL A   1      32.833  18.457  25.519  1.00  0.00     0.047 A 
ATOM     28  C   UNL A   1      34.655  17.680  24.155  1.00  0.00     0.047 A 
ENDBRANCH  21  22
ENDBRANCH  20  21
ENDBRANCH  17  20
ENDBRANCH  13  16
ENDBRANCH   7  12
ENDBRANCH   3   6
ENDBRANCH   1   2
BRANCH   1  29
ATOM     29  C   UNL A   1      32.179  30.422  26.809  1.00  0.00     0.023 C 
BRANCH  29  30
ATOM     30  C   UNL A   1      33.438  30.088  27.610  1.00  0.00     0.023 C 
BRANCH  30  31
ATOM     31  C   UNL A   1      34.534  31.147  27.565  1.00  0.00     0.116 C 
BRANCH  31  32
ATOM     32  N   UNL A   1      34.955  31.677  28.853  1.00  0.00    -0.352 N 
ATOM     33  C   UNL A   1      35.867  31.153  29.767  1.00  0.00     0.251 C 
ATOM     34  H   UNL A   1      34.535  32.527  29.117  1.00  0.00     0.163 HD
ATOM     35  O   UNL A   1      36.048  31.693  30.834  1.00  0.00    -0.269 OA
BRANCH  33  36
ATOM     36  C   UNL A   1      36.709  29.992  29.363  1.00  0.00     0.039 A 
ATOM     37  C   UNL A   1      37.079  29.071  30.350  1.00  0.00     0.014 A 
ATOM     38  C   UNL A   1      37.277  29.917  28.095  1.00  0.00     0.014 A 
ATOM     39  C   UNL A   1      38.190  28.254  30.141  1.00  0.00     0.010 A 
ATOM     40  C   UNL A   1      38.438  29.188  27.922  1.00  0.00     0.010 A 
ATOM     41  C   UNL A   1      38.932  28.408  28.969  1.00  0.00    -0.014 A 
BRANCH  41  42
ATOM     42  C   UNL A   1      40.289  27.894  28.816  1.00  0.00     0.031 A 
ATOM     43  C   UNL A   1      40.536  26.482  28.459  1.00  0.00     0.074 A 
ATOM     44  C   UNL A   1      41.338  28.735  28.952  1.00  0.00     0.049 A 
ATOM     45  N   UNL A   1      41.578  25.818  28.834  1.00  0.00    -0.248 NA
ATOM     46  C   UNL A   1      39.608  25.698  27.654  1.00  0.00     0.031 C 
ATOM     47  C   UNL A   1      42.738  28.457  28.637  1.00  0.00     0.029 A 
ATOM     48  N   UNL A   1      41.369  29.978  29.606  1.00  0.00    -0.354 N 
ATOM     49  C   UNL A   1      41.605  24.646  28.114  1.00  0.00     0.074 A 
ATOM     50  C   UNL A   1      40.323  24.587  27.445  1.00  0.00     0.031 C 
ATOM     51  C   UNL A   1      43.512  29.291  29.349  1.00  0.00     0.029 A 
ATOM     52  C   UNL A   1      42.638  30.047  30.227  1.00  0.00     0.049 A 
ATOM     53  H   UNL A   1      40.657  30.659  29.627  1.00  0.00     0.167 HD
ATOM     54  C   UNL A   1      42.761  23.923  28.043  1.00  0.00     0.037 A 
ATOM     55  C   UNL A   1      42.769  30.140  31.580  1.00  0.00     0.037 A 
ATOM     56  C   UNL A   1      43.836  24.557  28.800  1.00  0.00     0.049 A 
ATOM     57  C   UNL A   1      43.564  29.019  32.203  1.00  0.00     0.074 A 
ATOM     58  C   UNL A   1      44.888  25.372  28.414  1.00  0.00     0.029 A 
ATOM     59  N   UNL A   1      43.753  24.650  30.184  1.00  0.00    -0.354 N 
ATOM     60  N   UNL A   1      43.805  27.885  31.608  1.00  0.00    -0.248 NA
ATOM     61  C   UNL A   1      44.111  29.066  33.556  1.00  0.00     0.031 C 
ATOM     62  C   UNL A   1      45.428  25.977  29.572  1.00  0.00     0.029 A 
ATOM     63  C   UNL A   1      44.710  25.523  30.665  1.00  0.00     0.049 A 
ATOM     64  H   UNL A   1      43.106  24.164  30.743  1.00  0.00     0.167 HD
ATOM     65  C   UNL A   1      44.497  27.058  32.457  1.00  0.00     0.074 A 
ATOM     66  C   UNL A   1      44.683  27.853  33.656  1.00  0.00     0.031 C 
ATOM     67  C   UNL A   1      44.844  25.788  32.088  1.00  0.00     0.037 A 
BRANCH  54  68
ATOM     68  C   UNL A   1      42.992  22.824  27.027  1.00  0.00     0.064 A 
ATOM     69  C   UNL A   1      42.366  21.564  27.152  1.00  0.00     0.173 A 
ATOM     70  C   UNL A   1      43.867  22.938  25.932  1.00  0.00     0.173 A 
ATOM     71  F   UNL A   1      41.406  21.342  28.059  1.00  0.00    -0.203 F 
ATOM     72  C   UNL A   1      42.704  20.474  26.347  1.00  0.00     0.198 A 
ATOM     73  C   UNL A   1      44.248  21.835  25.160  1.00  0.00     0.198 A 
ATOM     74  F   UNL A   1      44.345  24.131  25.552  1.00  0.00    -0.203 F 
ATOM     75  F   UNL A   1      42.088  19.296  26.529  1.00  0.00    -0.200 F 
ATOM     76  C   UNL A   1      43.679  20.598  25.380  1.00  0.00     0.200 A 
ATOM     77  F   UNL A   1      45.175  21.981  24.203  1.00  0.00    -0.200 F 
ATOM     78  F   UNL A   1      44.047  19.538  24.648  1.00  0.00    -0.200 F 
ENDBRANCH  54  68
BRANCH  55  79
ATOM     79  C   UNL A   1      41.646  30.863  32.229  1.00  0.00     0.064 A 
ATOM     80  C   UNL A   1      41.628  32.269  32.151  1.00  0.00     0.173 A 
ATOM     81  C   UNL A   1      40.452  30.218  32.569  1.00  0.00     0.173 A 
ATOM     82  F   UNL A   1      42.746  32.936  31.818  1.00  0.00    -0.203 F 
ATOM     83  C   UNL A   1      40.445  32.989  32.291  1.00  0.00     0.198 A 
ATOM     84  C   UNL A   1      39.269  30.945  32.726  1.00  0.00     0.198 A 
ATOM     85  F   UNL A   1      40.399  28.880  32.636  1.00  0.00    -0.203 F 
ATOM     86  F   UNL A   1      40.442  34.315  32.092  1.00  0.00    -0.200 F 
ATOM     87  C   UNL A   1      39.260  32.323  32.553  1.00  0.00     0.200 A 
ATOM     88  F   UNL A   1      38.116  30.299  32.955  1.00  0.00    -0.200 F 
ATOM     89  F   UNL A   1      38.106  33.002  32.599  1.00  0.00    -0.200 F 
ENDBRANCH  55  79
BRANCH  67  90
ATOM     90  C   UNL A   1      45.434  24.707  32.967  1.00  0.00     0.064 A 
ATOM     91  C   UNL A   1      46.723  24.750  33.522  1.00  0.00     0.173 A 
ATOM     92  C   UNL A   1      44.628  23.621  33.399  1.00  0.00     0.173 A 
ATOM     93  F   UNL A   1      47.546  25.781  33.298  1.00  0.00    -0.203 F 
ATOM     94  C   UNL A   1      47.192  23.755  34.388  1.00  0.00     0.198 A 
ATOM     95  C   UNL A   1      45.078  22.664  34.308  1.00  0.00     0.198 A 
ATOM     96  F   UNL A   1      43.367  23.466  32.972  1.00  0.00    -0.203 F 
ATOM     97  F   UNL A   1      48.446  23.822  34.856  1.00  0.00    -0.200 F 
ATOM     98  C   UNL A   1      46.367  22.721  34.790  1.00  0.00     0.200 A 
ATOM     99  F   UNL A   1      44.246  21.700  34.727  1.00  0.00    -0.200 F 
ATOM    100  F   UNL A   1      46.805  21.798  35.656  1.00  0.00    -0.200 F 
ENDBRANCH  67  90
ENDBRANCH  41  42
ENDBRANCH  33  36
ENDBRANCH  31  32
ENDBRANCH  30  31
ENDBRANCH  29  30
ENDBRANCH   1  29
TORSDOF 16
ENDMDL
MODEL 2
REMARK VINA RESULT:     -13.3      1.975      2.939
REMARK SMILES Cc1ccc(OCC(=O)NNC(=O)[C@H]2CCCC[C@@H]2C(=O)NCCCCNC(=O)c2ccc(-c3c4nc(c(-c5c(F)c(F)c(F)c(F)c5F)c5ccc([nH]5)c(-c5c(F)c(F)c(F)c(F)c5F)c5nc(c(-c6c(F)c(F)c(F)c(F)c6F)c6ccc3[nH]6)C=C5)C=C4)cc2)cc1
REMARK SMILES IDX 23 1 22 2 20 3 21 4 19 6 14 7 15 8 16 9 18 10 17 11 12 12
REMARK SMILES IDX 11 13 13 15 10 16 8 17 9 18 7 20 6 21 5 22 1 23 2 24 3 25
REMARK SMILES IDX 94 26 4 27 93 28 24 29 25 30 26 31 27 32 28 33 29 35 30 36
REMARK SMILES IDX 31 37 92 38 32 39 91 40 33 41 34 42 35 43 85 44 36 45 90 46
REMARK SMILES IDX 84 47 86 48 37 49 89 50 83 51 82 52 38 54 70 55 50 56 69 57
REMARK SMILES IDX 51 58 54 59 68 60 87 61 52 62 53 63 67 65 88 66 55 67 39 68
REMARK SMILES IDX 40 69 48 70 41 71 42 72 46 73 49 74 43 75 44 76 47 77 45 78
REMARK SMILES IDX 71 79 72 80 80 81 73 82 74 83 78 84 81 85 75 86 76 87 79 88
REMARK SMILES IDX 77 89 56 90 57 91 65 92 58 93 59 94 63 95 66 96 60 97 61 98
REMARK SMILES IDX 64 99 62 100
REMARK H PARENT 22 5 11 14 10 19 27 34 86 53 54 64
REMARK Flexibility Score: inf
ROOT
ATOM      1  C   UNL A   1      32.081  29.837  24.760  1.00  0.00     0.116 C 
ENDROOT
BRANCH   1   2
ATOM      2  N   UNL A   1      31.046  29.407  23.832  1.00  0.00    -0.356 N 
ATOM      3  C   UNL A   1      30.927  28.429  22.902  1.00  0.00     0.223 C 
ATOM      4  O   UNL A   1      29.784  28.306  22.436  1.00  0.00    -0.275 OA
ATOM      5  H   UNL A   1      30.234  29.962  23.895  1.00  0.00     0.163 HD
BRANCH   3   6
ATOM      6  C   UNL A   1      32.059  27.559  22.316  1.00  0.00     0.091 C 
ATOM      7  C   UNL A   1      31.972  26.134  22.941  1.00  0.00     0.092 C 
ATOM      8  C   UNL A   1      32.558  26.133  24.371  1.00  0.00     0.014 C 
ATOM      9  C   UNL A   1      33.967  26.723  24.464  1.00  0.00     0.001 C 
ATOM     10  C   UNL A   1      33.509  28.032  22.355  1.00  0.00     0.014 C 
ATOM     11  C   UNL A   1      34.078  28.072  23.770  1.00  0.00     0.001 C 
BRANCH   7  12
ATOM     12  C   UNL A   1      32.649  25.069  22.068  1.00  0.00     0.242 C 
ATOM     13  N   UNL A   1      32.302  23.752  22.201  1.00  0.00    -0.267 N 
ATOM     14  H   UNL A   1      32.713  23.113  21.575  1.00  0.00     0.191 HD
ATOM     15  O   UNL A   1      33.521  25.345  21.241  1.00  0.00    -0.273 OA
BRANCH  13  16
ATOM     16  N   UNL A   1      31.425  23.240  23.144  1.00  0.00    -0.265 N 
ATOM     17  C   UNL A   1      31.825  22.447  24.195  1.00  0.00     0.276 C 
ATOM     18  O   UNL A   1      31.001  22.083  25.037  1.00  0.00    -0.269 OA
ATOM     19  H   UNL A   1      30.467  23.452  23.056  1.00  0.00     0.191 HD
BRANCH  17  20
ATOM     20  C   UNL A   1      33.310  22.084  24.321  1.00  0.00     0.331 C 
BRANCH  20  21
ATOM     21  O   UNL A   1      34.205  23.181  24.406  1.00  0.00    -0.484 OA
BRANCH  21  22
ATOM     22  C   UNL A   1      35.480  22.932  24.836  1.00  0.00     0.120 A 
ATOM     23  C   UNL A   1      39.428  21.713  26.093  1.00  0.00     0.044 C 
ATOM     24  C   UNL A   1      38.057  22.139  25.658  1.00  0.00    -0.051 A 
ATOM     25  C   UNL A   1      37.205  21.231  25.022  1.00  0.00     0.007 A 
ATOM     26  C   UNL A   1      37.614  23.449  25.864  1.00  0.00     0.007 A 
ATOM     27  C   UNL A   1      35.926  21.626  24.619  1.00  0.00     0.047 A 
ATOM     28  C   UNL A   1      36.334  23.843  25.455  1.00  0.00     0.047 A 
ENDBRANCH  21  22
ENDBRANCH  20  21
ENDBRANCH  17  20
ENDBRANCH  13  16
ENDBRANCH   7  12
ENDBRANCH   3   6
ENDBRANCH   1   2
BRANCH   1  29
ATOM     29  C   UNL A   1      31.785  29.489  26.221  1.00  0.00     0.023 C 
BRANCH  29  30
ATOM     30  C   UNL A   1      32.358  30.450  27.263  1.00  0.00     0.023 C 
BRANCH  30  31
ATOM     31  C   UNL A   1      33.856  30.314  27.514  1.00  0.00     0.116 C 
BRANCH  31  32
ATOM     32  N   UNL A   1      34.428  31.263  28.458  1.00  0.00    -0.352 N 
ATOM     33  C   UNL A   1      35.599  31.165  29.206  1.00  0.00     0.251 C 
ATOM     34  H   UNL A   1      33.912  32.092  28.588  1.00  0.00     0.163 HD
ATOM     35  O   UNL A   1      35.892  32.024  30.005  1.00  0.00    -0.269 OA
BRANCH  33  36
ATOM     36  C   UNL A   1      36.550  30.055  28.918  1.00  0.00     0.039 A 
ATOM     37  C   UNL A   1      36.916  29.211  29.972  1.00  0.00     0.014 A 
ATOM     38  C   UNL A   1      37.209  29.967  27.695  1.00  0.00     0.014 A 
ATOM     39  C   UNL A   1      38.097  28.473  29.878  1.00  0.00     0.010 A 
ATOM     40  C   UNL A   1      38.429  29.322  27.636  1.00  0.00     0.010 A 
ATOM     41  C   UNL A   1      38.905  28.629  28.752  1.00  0.00    -0.014 A 
BRANCH  41  42
ATOM     42  C   UNL A   1      40.303  28.215  28.715  1.00  0.00     0.031 A 
ATOM     43  C   UNL A   1      40.689  26.868  28.246  1.00  0.00     0.074 A 
ATOM     44  C   UNL A   1      41.268  29.094  29.066  1.00  0.00     0.049 A 
ATOM     45  N   UNL A   1      41.725  26.227  28.676  1.00  0.00    -0.248 NA
ATOM     46  C   UNL A   1      39.920  26.128  27.255  1.00  0.00     0.031 C 
ATOM     47  C   UNL A   1      42.711  28.933  28.900  1.00  0.00     0.029 A 
ATOM     48  N   UNL A   1      41.134  30.256  29.846  1.00  0.00    -0.354 N 
ATOM     49  C   UNL A   1      41.918  25.147  27.846  1.00  0.00     0.074 A 
ATOM     50  C   UNL A   1      40.730  25.090  27.021  1.00  0.00     0.031 C 
ATOM     51  C   UNL A   1      43.336  29.725  29.785  1.00  0.00     0.029 A 
ATOM     52  C   UNL A   1      42.314  30.327  30.622  1.00  0.00     0.049 A 
ATOM     53  H   UNL A   1      40.379  30.888  29.850  1.00  0.00     0.167 HD
ATOM     54  C   UNL A   1      43.122  24.503  27.843  1.00  0.00     0.037 A 
ATOM     55  C   UNL A   1      42.280  30.275  31.984  1.00  0.00     0.037 A 
ATOM     56  C   UNL A   1      44.054  25.109  28.790  1.00  0.00     0.049 A 
ATOM     57  C   UNL A   1      43.073  29.138  32.580  1.00  0.00     0.074 A 
ATOM     58  C   UNL A   1      45.084  26.021  28.624  1.00  0.00     0.029 A 
ATOM     59  N   UNL A   1      43.804  25.042  30.155  1.00  0.00    -0.354 N 
ATOM     60  N   UNL A   1      43.462  28.094  31.904  1.00  0.00    -0.248 NA
ATOM     61  C   UNL A   1      43.454  29.065  33.987  1.00  0.00     0.031 C 
ATOM     62  C   UNL A   1      45.441  26.522  29.897  1.00  0.00     0.029 A 
ATOM     63  C   UNL A   1      44.634  25.909  30.839  1.00  0.00     0.049 A 
ATOM     64  H   UNL A   1      43.132  24.459  30.576  1.00  0.00     0.167 HD
ATOM     65  C   UNL A   1      44.106  27.218  32.742  1.00  0.00     0.074 A 
ATOM     66  C   UNL A   1      44.095  27.883  34.030  1.00  0.00     0.031 C 
ATOM     67  C   UNL A   1      44.582  26.019  32.287  1.00  0.00     0.037 A 
BRANCH  54  68
ATOM     68  C   UNL A   1      43.547  23.541  26.755  1.00  0.00     0.064 A 
ATOM     69  C   UNL A   1      43.177  22.178  26.794  1.00  0.00     0.173 A 
ATOM     70  C   UNL A   1      44.369  23.894  25.670  1.00  0.00     0.173 A 
ATOM     71  F   UNL A   1      42.291  21.714  27.684  1.00  0.00    -0.203 F 
ATOM     72  C   UNL A   1      43.708  21.229  25.916  1.00  0.00     0.198 A 
ATOM     73  C   UNL A   1      44.945  22.940  24.824  1.00  0.00     0.198 A 
ATOM     74  F   UNL A   1      44.603  25.179  25.372  1.00  0.00    -0.203 F 
ATOM     75  F   UNL A   1      43.334  19.946  26.018  1.00  0.00    -0.200 F 
ATOM     76  C   UNL A   1      44.628  21.603  24.960  1.00  0.00     0.200 A 
ATOM     77  F   UNL A   1      45.813  23.326  23.879  1.00  0.00    -0.200 F 
ATOM     78  F   UNL A   1      45.183  20.686  24.157  1.00  0.00    -0.200 F 
ENDBRANCH  54  68
BRANCH  55  79
ATOM     79  C   UNL A   1      41.041  30.855  32.561  1.00  0.00     0.064 A 
ATOM     80  C   UNL A   1      40.885  32.255  32.527  1.00  0.00     0.173 A 
ATOM     81  C   UNL A   1      39.896  30.081  32.779  1.00  0.00     0.173 A 
ATOM     82  F   UNL A   1      41.951  33.043  32.311  1.00  0.00    -0.203 F 
ATOM     83  C   UNL A   1      39.626  32.846  32.592  1.00  0.00     0.198 A 
ATOM     84  C   UNL A   1      38.636  30.679  32.861  1.00  0.00     0.198 A 
ATOM     85  F   UNL A   1      39.975  28.743  32.798  1.00  0.00    -0.203 F 
ATOM     86  F   UNL A   1      39.503  34.172  32.437  1.00  0.00    -0.200 F 
ATOM     87  C   UNL A   1      38.499  32.055  32.734  1.00  0.00     0.200 A 
ATOM     88  F   UNL A   1      37.541  29.913  32.973  1.00  0.00    -0.200 F 
ATOM     89  F   UNL A   1      37.281  32.613  32.705  1.00  0.00    -0.200 F 
ENDBRANCH  55  79
BRANCH  67  90
ATOM     90  C   UNL A   1      45.140  24.882  33.116  1.00  0.00     0.064 A 
ATOM     91  C   UNL A   1      44.457  23.684  33.383  1.00  0.00     0.173 A 
ATOM     92  C   UNL A   1      46.487  24.921  33.564  1.00  0.00     0.173 A 
ATOM     93  F   UNL A   1      43.224  23.464  32.912  1.00  0.00    -0.203 F 
ATOM     94  C   UNL A   1      45.050  22.636  34.096  1.00  0.00     0.198 A 
ATOM     95  C   UNL A   1      47.092  23.851  34.223  1.00  0.00     0.198 A 
ATOM     96  F   UNL A   1      47.268  25.990  33.356  1.00  0.00    -0.203 F 
ATOM     97  F   UNL A   1      44.339  21.531  34.361  1.00  0.00    -0.200 F 
ATOM     98  C   UNL A   1      46.368  22.714  34.504  1.00  0.00     0.200 A 
ATOM     99  F   UNL A   1      48.387  23.925  34.562  1.00  0.00    -0.200 F 
ATOM    100  F   UNL A   1      46.945  21.688  35.145  1.00  0.00    -0.200 F 
ENDBRANCH  67  90
ENDBRANCH  41  42
ENDBRANCH  33  36
ENDBRANCH  31  32
ENDBRANCH  30  31
ENDBRANCH  29  30
ENDBRANCH   1  29
TORSDOF 16
ENDMDL
MODEL 3
REMARK VINA RESULT:     -13.3      3.443     10.225
REMARK SMILES Cc1ccc(OCC(=O)NNC(=O)[C@H]2CCCC[C@@H]2C(=O)NCCCCNC(=O)c2ccc(-c3c4nc(c(-c5c(F)c(F)c(F)c(F)c5F)c5ccc([nH]5)c(-c5c(F)c(F)c(F)c(F)c5F)c5nc(c(-c6c(F)c(F)c(F)c(F)c6F)c6ccc3[nH]6)C=C5)C=C4)cc2)cc1
REMARK SMILES IDX 23 1 22 2 20 3 21 4 19 6 14 7 15 8 16 9 18 10 17 11 12 12
REMARK SMILES IDX 11 13 13 15 10 16 8 17 9 18 7 20 6 21 5 22 1 23 2 24 3 25
REMARK SMILES IDX 94 26 4 27 93 28 24 29 25 30 26 31 27 32 28 33 29 35 30 36
REMARK SMILES IDX 31 37 92 38 32 39 91 40 33 41 34 42 35 43 85 44 36 45 90 46
REMARK SMILES IDX 84 47 86 48 37 49 89 50 83 51 82 52 38 54 70 55 50 56 69 57
REMARK SMILES IDX 51 58 54 59 68 60 87 61 52 62 53 63 67 65 88 66 55 67 39 68
REMARK SMILES IDX 40 69 48 70 41 71 42 72 46 73 49 74 43 75 44 76 47 77 45 78
REMARK SMILES IDX 71 79 72 80 80 81 73 82 74 83 78 84 81 85 75 86 76 87 79 88
REMARK SMILES IDX 77 89 56 90 57 91 65 92 58 93 59 94 63 95 66 96 60 97 61 98
REMARK SMILES IDX 64 99 62 100
REMARK H PARENT 22 5 11 14 10 19 27 34 86 53 54 64
REMARK Flexibility Score: inf
ROOT
ATOM      1  C   UNL A   1      37.428  23.508  25.576  1.00  0.00     0.116 C 
ENDROOT
BRANCH   1   2
ATOM      2  N   UNL A   1      36.131  23.703  26.206  1.00  0.00    -0.356 N 
ATOM      3  C   UNL A   1      34.847  23.412  25.885  1.00  0.00     0.223 C 
ATOM      4  O   UNL A   1      34.036  23.609  26.802  1.00  0.00    -0.275 OA
ATOM      5  H   UNL A   1      36.204  24.156  27.077  1.00  0.00     0.163 HD
BRANCH   3   6
ATOM      6  C   UNL A   1      34.308  22.976  24.506  1.00  0.00     0.091 C 
ATOM      7  C   UNL A   1      32.781  23.286  24.443  1.00  0.00     0.092 C 
ATOM      8  C   UNL A   1      31.980  22.218  25.220  1.00  0.00     0.014 C 
ATOM      9  C   UNL A   1      32.297  20.780  24.805  1.00  0.00     0.001 C 
ATOM     10  C   UNL A   1      34.550  21.564  23.981  1.00  0.00     0.014 C 
ATOM     11  C   UNL A   1      33.793  20.503  24.773  1.00  0.00     0.001 C 
BRANCH   7  12
ATOM     12  C   UNL A   1      32.270  23.419  23.002  1.00  0.00     0.242 C 
ATOM     13  N   UNL A   1      31.060  24.009  22.757  1.00  0.00    -0.267 N 
ATOM     14  H   UNL A   1      30.803  24.133  21.815  1.00  0.00     0.191 HD
ATOM     15  O   UNL A   1      32.904  22.999  22.032  1.00  0.00    -0.273 OA
BRANCH  13  16
ATOM     16  N   UNL A   1      30.164  24.444  23.720  1.00  0.00    -0.265 N 
ATOM     17  C   UNL A   1      30.109  25.745  24.167  1.00  0.00     0.276 C 
ATOM     18  O   UNL A   1      29.241  26.080  24.975  1.00  0.00    -0.269 OA
ATOM     19  H   UNL A   1      29.535  23.792  24.105  1.00  0.00     0.191 HD
BRANCH  17  20
ATOM     20  C   UNL A   1      31.107  26.762  23.597  1.00  0.00     0.331 C 
BRANCH  20  21
ATOM     21  O   UNL A   1      32.408  26.727  24.162  1.00  0.00    -0.484 OA
BRANCH  21  22
ATOM     22  C   UNL A   1      32.758  27.735  25.018  1.00  0.00     0.120 A 
ATOM     23  C   UNL A   1      33.551  31.167  27.516  1.00  0.00     0.044 C 
ATOM     24  C   UNL A   1      33.279  29.974  26.649  1.00  0.00    -0.051 A 
ATOM     25  C   UNL A   1      32.194  29.977  25.767  1.00  0.00     0.007 A 
ATOM     26  C   UNL A   1      34.090  28.837  26.718  1.00  0.00     0.007 A 
ATOM     27  C   UNL A   1      31.941  28.867  24.956  1.00  0.00     0.047 A 
ATOM     28  C   UNL A   1      33.831  27.725  25.909  1.00  0.00     0.047 A 
ENDBRANCH  21  22
ENDBRANCH  20  21
ENDBRANCH  17  20
ENDBRANCH  13  16
ENDBRANCH   7  12
ENDBRANCH   3   6
ENDBRANCH   1   2
BRANCH   1  29
ATOM     29  C   UNL A   1      37.779  22.039  25.327  1.00  0.00     0.023 C 
BRANCH  29  30
ATOM     30  C   UNL A   1      39.108  21.564  25.915  1.00  0.00     0.023 C 
BRANCH  30  31
ATOM     31  C   UNL A   1      39.800  22.560  26.839  1.00  0.00     0.116 C 
BRANCH  31  32
ATOM     32  N   UNL A   1      41.125  22.995  26.422  1.00  0.00    -0.352 N 
ATOM     33  C   UNL A   1      41.614  24.288  26.249  1.00  0.00     0.251 C 
ATOM     34  H   UNL A   1      41.766  22.272  26.235  1.00  0.00     0.163 HD
ATOM     35  O   UNL A   1      42.732  24.471  25.824  1.00  0.00    -0.269 OA
BRANCH  33  36
ATOM     36  C   UNL A   1      40.792  25.440  26.714  1.00  0.00     0.039 A 
ATOM     37  C   UNL A   1      40.987  26.681  26.096  1.00  0.00     0.014 A 
ATOM     38  C   UNL A   1      39.994  25.348  27.851  1.00  0.00     0.014 A 
ATOM     39  C   UNL A   1      40.599  27.844  26.761  1.00  0.00     0.010 A 
ATOM     40  C   UNL A   1      39.703  26.496  28.561  1.00  0.00     0.010 A 
ATOM     41  C   UNL A   1      40.066  27.743  28.046  1.00  0.00    -0.014 A 
BRANCH  41  42
ATOM     42  C   UNL A   1      39.981  28.876  28.962  1.00  0.00     0.031 A 
ATOM     43  C   UNL A   1      38.923  29.897  28.818  1.00  0.00     0.074 A 
ATOM     44  C   UNL A   1      40.852  28.967  29.991  1.00  0.00     0.049 A 
ATOM     45  N   UNL A   1      39.069  31.135  29.154  1.00  0.00    -0.248 NA
ATOM     46  C   UNL A   1      37.608  29.598  28.266  1.00  0.00     0.031 C 
ATOM     47  C   UNL A   1      40.796  29.901  31.114  1.00  0.00     0.029 A 
ATOM     48  N   UNL A   1      42.104  28.342  30.120  1.00  0.00    -0.354 N 
ATOM     49  C   UNL A   1      37.825  31.722  29.130  1.00  0.00     0.074 A 
ATOM     50  C   UNL A   1      36.961  30.744  28.506  1.00  0.00     0.031 C 
ATOM     51  C   UNL A   1      42.032  30.038  31.619  1.00  0.00     0.029 A 
ATOM     52  C   UNL A   1      42.934  29.288  30.765  1.00  0.00     0.049 A 
ATOM     53  H   UNL A   1      42.351  27.435  29.825  1.00  0.00     0.167 HD
ATOM     54  C   UNL A   1      37.625  32.910  29.772  1.00  0.00     0.037 A 
ATOM     55  C   UNL A   1      44.050  29.789  30.164  1.00  0.00     0.037 A 
ATOM     56  C   UNL A   1      38.851  33.387  30.406  1.00  0.00     0.049 A 
ATOM     57  C   UNL A   1      44.047  31.290  30.009  1.00  0.00     0.074 A 
ATOM     58  C   UNL A   1      39.312  33.311  31.711  1.00  0.00     0.029 A 
ATOM     59  N   UNL A   1      39.937  33.770  29.627  1.00  0.00    -0.354 N 
ATOM     60  N   UNL A   1      42.974  32.025  30.093  1.00  0.00    -0.248 NA
ATOM     61  C   UNL A   1      45.239  32.076  29.704  1.00  0.00     0.031 C 
ATOM     62  C   UNL A   1      40.690  33.628  31.713  1.00  0.00     0.029 A 
ATOM     63  C   UNL A   1      41.066  33.907  30.411  1.00  0.00     0.049 A 
ATOM     64  H   UNL A   1      39.906  33.922  28.656  1.00  0.00     0.167 HD
ATOM     65  C   UNL A   1      43.295  33.337  29.847  1.00  0.00     0.074 A 
ATOM     66  C   UNL A   1      44.729  33.319  29.632  1.00  0.00     0.031 C 
ATOM     67  C   UNL A   1      42.338  34.313  29.838  1.00  0.00     0.037 A 
BRANCH  54  68
ATOM     68  C   UNL A   1      36.252  33.463  30.091  1.00  0.00     0.064 A 
ATOM     69  C   UNL A   1      35.412  33.973  29.076  1.00  0.00     0.173 A 
ATOM     70  C   UNL A   1      35.729  33.564  31.391  1.00  0.00     0.173 A 
ATOM     71  F   UNL A   1      35.707  33.827  27.778  1.00  0.00    -0.203 F 
ATOM     72  C   UNL A   1      34.229  34.661  29.355  1.00  0.00     0.198 A 
ATOM     73  C   UNL A   1      34.573  34.299  31.678  1.00  0.00     0.198 A 
ATOM     74  F   UNL A   1      36.298  32.917  32.417  1.00  0.00    -0.203 F 
ATOM     75  F   UNL A   1      33.485  35.141  28.348  1.00  0.00    -0.200 F 
ATOM     76  C   UNL A   1      33.833  34.864  30.660  1.00  0.00     0.200 A 
ATOM     77  F   UNL A   1      34.185  34.460  32.951  1.00  0.00    -0.200 F 
ATOM     78  F   UNL A   1      32.729  35.574  30.931  1.00  0.00    -0.200 F 
ENDBRANCH  54  68
BRANCH  55  79
ATOM     79  C   UNL A   1      44.695  28.829  29.233  1.00  0.00     0.064 A 
ATOM     80  C   UNL A   1      45.481  27.797  29.784  1.00  0.00     0.173 A 
ATOM     81  C   UNL A   1      44.263  28.678  27.911  1.00  0.00     0.173 A 
ATOM     82  F   UNL A   1      45.913  27.888  31.052  1.00  0.00    -0.203 F 
ATOM     83  C   UNL A   1      45.725  26.619  29.084  1.00  0.00     0.198 A 
ATOM     84  C   UNL A   1      44.524  27.501  27.206  1.00  0.00     0.198 A 
ATOM     85  F   UNL A   1      43.492  29.614  27.339  1.00  0.00    -0.203 F 
ATOM     86  F   UNL A   1      46.375  25.609  29.681  1.00  0.00    -0.200 F 
ATOM     87  C   UNL A   1      45.223  26.461  27.803  1.00  0.00     0.200 A 
ATOM     88  F   UNL A   1      44.018  27.336  25.975  1.00  0.00    -0.200 F 
ATOM     89  F   UNL A   1      45.378  25.295  27.162  1.00  0.00    -0.200 F 
ENDBRANCH  55  79
BRANCH  67  90
ATOM     90  C   UNL A   1      42.503  35.754  29.404  1.00  0.00     0.064 A 
ATOM     91  C   UNL A   1      43.305  36.696  30.068  1.00  0.00     0.173 A 
ATOM     92  C   UNL A   1      41.939  36.198  28.179  1.00  0.00     0.173 A 
ATOM     93  F   UNL A   1      43.995  36.374  31.169  1.00  0.00    -0.203 F 
ATOM     94  C   UNL A   1      43.478  37.997  29.582  1.00  0.00     0.198 A 
ATOM     95  C   UNL A   1      42.162  37.476  27.668  1.00  0.00     0.198 A 
ATOM     96  F   UNL A   1      41.173  35.398  27.425  1.00  0.00    -0.203 F 
ATOM     97  F   UNL A   1      44.219  38.871  30.277  1.00  0.00    -0.200 F 
ATOM     98  C   UNL A   1      42.918  38.383  28.378  1.00  0.00     0.200 A 
ATOM     99  F   UNL A   1      41.656  37.813  26.473  1.00  0.00    -0.200 F 
ATOM    100  F   UNL A   1      43.126  39.614  27.894  1.00  0.00    -0.200 F 
ENDBRANCH  67  90
ENDBRANCH  41  42
ENDBRANCH  33  36
ENDBRANCH  31  32
ENDBRANCH  30  31
ENDBRANCH  29  30
ENDBRANCH   1  29
TORSDOF 16
ENDMDL
