MODEL 1
REMARK VINA RESULT:     -13.9      0.000      0.000
REMARK SMILES Cc1ccc(S(=O)(=O)n2cc(C(=O)C(=O)NCC(=O)N[C@H](Cc3c[nH]c4ccccc34)C(=O)NCCCCNC(=O)c3ccc(-c4c5nc(c(-c6c(F)c(F)c(F)c(F)c6F)c6ccc([nH]6)c(-c6c(F)c(F)c(F)c(F)c6F)c6nc(c(-c7c(F)c(F)c(F)c(F)c7F)c7ccc4[nH]7)C=C6)C=C5)cc3)c3ccccc32)cc1
REMARK SMILES IDX 32 1 33 2 34 3 21 5 20 6 18 7 19 8 17 10 16 11 14 12 15 13
REMARK SMILES IDX 12 15 13 16 11 17 9 18 10 19 110 20 105 21 109 22 106 23
REMARK SMILES IDX 108 24 107 25 6 26 7 27 8 28 5 29 1 30 2 31 3 32 112 33 4 34
REMARK SMILES IDX 111 35 22 36 23 37 24 38 31 39 25 40 26 41 30 42 27 44 29 45
REMARK SMILES IDX 28 46 35 47 36 48 37 49 38 50 39 51 40 52 41 54 42 55 43 56
REMARK SMILES IDX 104 57 44 58 103 59 45 60 46 61 47 62 97 63 48 64 102 65
REMARK SMILES IDX 96 66 98 67 49 68 101 69 95 70 94 71 50 73 82 74 62 75 81 76
REMARK SMILES IDX 63 77 66 78 80 79 99 80 64 81 65 82 79 84 100 85 67 86 51 87
REMARK SMILES IDX 52 88 60 89 53 90 54 91 58 92 61 93 55 94 56 95 59 96 57 97
REMARK SMILES IDX 83 98 84 99 92 100 85 101 86 102 90 103 93 104 87 105 88 106
REMARK SMILES IDX 91 107 89 108 68 109 69 110 77 111 70 112 71 113 75 114
REMARK SMILES IDX 78 115 72 116 73 117 76 118 74 119
REMARK H PARENT 34 4 20 9 16 14 25 43 39 53 98 72 66 83
REMARK Flexibility Score: inf
ROOT
ATOM      1  C   UNL A   1      32.516  28.931  27.112  1.00  0.00     0.242 C 
ATOM      2  O   UNL A   1      32.040  28.043  27.832  1.00  0.00    -0.273 OA
ATOM      3  N   UNL A   1      33.407  29.746  27.726  1.00  0.00    -0.354 N 
ATOM      4  H   UNL A   1      33.542  29.522  28.675  1.00  0.00     0.163 HD
ENDROOT
BRANCH   1   5
ATOM      5  C   UNL A   1      32.071  29.040  25.639  1.00  0.00     0.175 C 
BRANCH   5   6
ATOM      6  N   UNL A   1      33.269  29.364  24.855  1.00  0.00    -0.342 N 
ATOM      7  C   UNL A   1      34.065  28.543  24.113  1.00  0.00     0.240 C 
ATOM      8  O   UNL A   1      35.110  29.035  23.677  1.00  0.00    -0.273 OA
ATOM      9  H   UNL A   1      33.536  30.312  24.866  1.00  0.00     0.164 HD
BRANCH   7  10
ATOM     10  C   UNL A   1      33.597  27.144  23.655  1.00  0.00     0.216 C 
BRANCH  10  11
ATOM     11  N   UNL A   1      32.654  27.065  22.543  1.00  0.00    -0.340 N 
ATOM     12  C   UNL A   1      32.362  25.976  21.738  1.00  0.00     0.292 C 
ATOM     13  O   UNL A   1      31.496  26.015  20.874  1.00  0.00    -0.265 OA
ATOM     14  H   UNL A   1      32.163  27.894  22.338  1.00  0.00     0.164 HD
BRANCH  12  15
ATOM     15  C   UNL A   1      33.146  24.681  21.940  1.00  0.00     0.252 C 
ATOM     16  O   UNL A   1      33.335  23.995  20.935  1.00  0.00    -0.283 OA
BRANCH  15  17
ATOM     17  C   UNL A   1      33.467  24.199  23.288  1.00  0.00     0.054 A 
ATOM     18  N   UNL A   1      34.453  23.458  25.182  1.00  0.00    -0.240 N 
ATOM     19  C   UNL A   1      34.692  23.846  23.865  1.00  0.00     0.117 A 
ATOM     20  C   UNL A   1      33.124  23.800  25.489  1.00  0.00     0.065 A 
ATOM     21  C   UNL A   1      32.468  23.916  24.267  1.00  0.00     0.012 A 
ATOM     22  C   UNL A   1      32.411  23.727  26.701  1.00  0.00     0.028 A 
ATOM     23  C   UNL A   1      31.065  23.774  24.236  1.00  0.00     0.011 A 
ATOM     24  C   UNL A   1      31.035  23.514  26.638  1.00  0.00     0.002 A 
ATOM     25  C   UNL A   1      30.373  23.498  25.418  1.00  0.00     0.001 A 
BRANCH  18  26
ATOM     26  S   UNL A   1      34.890  21.920  25.887  1.00  0.00     0.268 S 
ATOM     27  O   UNL A   1      34.497  22.074  27.277  1.00  0.00    -0.201 OA
ATOM     28  O   UNL A   1      36.293  21.791  25.512  1.00  0.00    -0.201 OA
BRANCH  26  29
ATOM     29  C   UNL A   1      34.261  20.355  25.401  1.00  0.00     0.088 A 
ATOM     30  C   UNL A   1      33.618  16.475  23.617  1.00  0.00     0.044 C 
ATOM     31  C   UNL A   1      33.810  17.804  24.289  1.00  0.00    -0.051 A 
ATOM     32  C   UNL A   1      35.106  18.289  24.380  1.00  0.00     0.005 A 
ATOM     33  C   UNL A   1      32.746  18.597  24.776  1.00  0.00     0.005 A 
ATOM     34  C   UNL A   1      35.321  19.536  24.938  1.00  0.00     0.022 A 
ATOM     35  C   UNL A   1      32.961  19.885  25.333  1.00  0.00     0.022 A 
ENDBRANCH  26  29
ENDBRANCH  18  26
ENDBRANCH  15  17
ENDBRANCH  12  15
ENDBRANCH  10  11
ENDBRANCH   7  10
ENDBRANCH   5   6
BRANCH   5  36
ATOM     36  C   UNL A   1      30.884  29.968  25.301  1.00  0.00     0.072 C 
BRANCH  36  37
ATOM     37  C   UNL A   1      30.225  29.898  23.947  1.00  0.00    -0.020 A 
ATOM     38  C   UNL A   1      30.092  28.831  23.082  1.00  0.00     0.087 A 
ATOM     39  C   UNL A   1      29.564  31.003  23.293  1.00  0.00     0.003 A 
ATOM     40  N   UNL A   1      29.193  29.164  22.104  1.00  0.00    -0.361 N 
ATOM     41  C   UNL A   1      28.853  30.486  22.210  1.00  0.00     0.046 A 
ATOM     42  C   UNL A   1      29.475  32.389  23.539  1.00  0.00     0.010 A 
ATOM     43  H   UNL A   1      28.843  28.544  21.424  1.00  0.00     0.166 HD
ATOM     44  C   UNL A   1      27.983  31.250  21.426  1.00  0.00     0.026 A 
ATOM     45  C   UNL A   1      28.668  33.186  22.715  1.00  0.00     0.001 A 
ATOM     46  C   UNL A   1      27.910  32.618  21.693  1.00  0.00     0.002 A 
ENDBRANCH  36  37
ENDBRANCH   5  36
ENDBRANCH   1   5
BRANCH   3  47
ATOM     47  C   UNL A   1      34.204  30.876  27.292  1.00  0.00     0.116 C 
BRANCH  47  48
ATOM     48  C   UNL A   1      33.957  32.166  28.079  1.00  0.00     0.023 C 
BRANCH  48  49
ATOM     49  C   UNL A   1      35.135  32.664  28.919  1.00  0.00     0.023 C 
BRANCH  49  50
ATOM     50  C   UNL A   1      35.060  32.323  30.398  1.00  0.00     0.116 C 
BRANCH  50  51
ATOM     51  N   UNL A   1      34.122  33.155  31.151  1.00  0.00    -0.352 N 
ATOM     52  C   UNL A   1      34.343  33.858  32.329  1.00  0.00     0.251 C 
ATOM     53  H   UNL A   1      33.215  33.225  30.774  1.00  0.00     0.163 HD
ATOM     54  O   UNL A   1      33.476  34.536  32.844  1.00  0.00    -0.269 OA
BRANCH  52  55
ATOM     55  C   UNL A   1      35.721  33.855  32.867  1.00  0.00     0.039 A 
ATOM     56  C   UNL A   1      36.663  34.642  32.197  1.00  0.00     0.014 A 
ATOM     57  C   UNL A   1      36.110  32.819  33.708  1.00  0.00     0.014 A 
ATOM     58  C   UNL A   1      37.981  34.200  32.141  1.00  0.00     0.010 A 
ATOM     59  C   UNL A   1      37.386  32.318  33.556  1.00  0.00     0.010 A 
ATOM     60  C   UNL A   1      38.294  32.964  32.705  1.00  0.00    -0.014 A 
BRANCH  60  61
ATOM     61  C   UNL A   1      39.493  32.214  32.345  1.00  0.00     0.031 A 
ATOM     62  C   UNL A   1      39.392  31.056  31.433  1.00  0.00     0.074 A 
ATOM     63  C   UNL A   1      40.705  32.630  32.782  1.00  0.00     0.049 A 
ATOM     64  N   UNL A   1      40.270  30.115  31.354  1.00  0.00    -0.248 NA
ATOM     65  C   UNL A   1      38.248  30.843  30.557  1.00  0.00     0.031 C 
ATOM     66  C   UNL A   1      42.014  32.189  32.303  1.00  0.00     0.029 A 
ATOM     67  N   UNL A   1      40.998  33.425  33.907  1.00  0.00    -0.354 N 
ATOM     68  C   UNL A   1      39.954  29.325  30.271  1.00  0.00     0.074 A 
ATOM     69  C   UNL A   1      38.661  29.796  29.837  1.00  0.00     0.031 C 
ATOM     70  C   UNL A   1      42.931  32.442  33.248  1.00  0.00     0.029 A 
ATOM     71  C   UNL A   1      42.224  32.932  34.416  1.00  0.00     0.049 A 
ATOM     72  H   UNL A   1      40.463  34.168  34.265  1.00  0.00     0.167 HD
ATOM     73  C   UNL A   1      40.881  28.440  29.803  1.00  0.00     0.037 A 
ATOM     74  C   UNL A   1      42.322  32.398  35.667  1.00  0.00     0.037 A 
ATOM     75  C   UNL A   1      42.062  28.417  30.663  1.00  0.00     0.049 A 
ATOM     76  C   UNL A   1      42.777  30.958  35.689  1.00  0.00     0.074 A 
ATOM     77  C   UNL A   1      43.294  29.048  30.586  1.00  0.00     0.029 A 
ATOM     78  N   UNL A   1      41.953  27.924  31.958  1.00  0.00    -0.354 N 
ATOM     79  N   UNL A   1      42.763  30.182  34.641  1.00  0.00    -0.248 NA
ATOM     80  C   UNL A   1      43.237  30.264  36.889  1.00  0.00     0.031 C 
ATOM     81  C   UNL A   1      43.905  28.977  31.863  1.00  0.00     0.029 A 
ATOM     82  C   UNL A   1      43.055  28.285  32.708  1.00  0.00     0.049 A 
ATOM     83  H   UNL A   1      41.196  27.391  32.294  1.00  0.00     0.167 HD
ATOM     84  C   UNL A   1      43.157  28.920  35.001  1.00  0.00     0.074 A 
ATOM     85  C   UNL A   1      43.466  29.026  36.413  1.00  0.00     0.031 C 
ATOM     86  C   UNL A   1      43.170  27.891  34.104  1.00  0.00     0.037 A 
BRANCH  73  87
ATOM     87  C   UNL A   1      40.839  27.808  28.427  1.00  0.00     0.064 A 
ATOM     88  C   UNL A   1      40.143  26.597  28.210  1.00  0.00     0.173 A 
ATOM     89  C   UNL A   1      41.512  28.304  27.296  1.00  0.00     0.173 A 
ATOM     90  F   UNL A   1      39.360  26.060  29.154  1.00  0.00    -0.203 F 
ATOM     91  C   UNL A   1      40.226  25.885  27.010  1.00  0.00     0.198 A 
ATOM     92  C   UNL A   1      41.645  27.565  26.114  1.00  0.00     0.198 A 
ATOM     93  F   UNL A   1      42.006  29.546  27.268  1.00  0.00    -0.203 F 
ATOM     94  F   UNL A   1      39.548  24.737  26.869  1.00  0.00    -0.200 F 
ATOM     95  C   UNL A   1      41.012  26.348  25.976  1.00  0.00     0.200 A 
ATOM     96  F   UNL A   1      42.389  28.049  25.110  1.00  0.00    -0.200 F 
ATOM     97  F   UNL A   1      41.133  25.643  24.843  1.00  0.00    -0.200 F 
ENDBRANCH  73  87
BRANCH  74  98
ATOM     98  C   UNL A   1      41.391  33.025  36.639  1.00  0.00     0.064 A 
ATOM     99  C   UNL A   1      41.812  34.207  37.281  1.00  0.00     0.173 A 
ATOM    100  C   UNL A   1      40.021  32.746  36.626  1.00  0.00     0.173 A 
ATOM    101  F   UNL A   1      43.117  34.520  37.317  1.00  0.00    -0.203 F 
ATOM    102  C   UNL A   1      40.893  35.133  37.767  1.00  0.00     0.198 A 
ATOM    103  C   UNL A   1      39.103  33.672  37.127  1.00  0.00     0.198 A 
ATOM    104  F   UNL A   1      39.558  31.648  36.012  1.00  0.00    -0.203 F 
ATOM    105  F   UNL A   1      41.321  36.306  38.254  1.00  0.00    -0.200 F 
ATOM    106  C   UNL A   1      39.536  34.878  37.660  1.00  0.00     0.200 A 
ATOM    107  F   UNL A   1      37.788  33.443  36.997  1.00  0.00    -0.200 F 
ATOM    108  F   UNL A   1      38.648  35.814  38.024  1.00  0.00    -0.200 F 
ENDBRANCH  74  98
BRANCH  86 109
ATOM    109  C   UNL A   1      43.359  26.431  34.429  1.00  0.00     0.064 A 
ATOM    110  C   UNL A   1      42.354  25.617  34.974  1.00  0.00     0.173 A 
ATOM    111  C   UNL A   1      44.542  25.761  34.031  1.00  0.00     0.173 A 
ATOM    112  F   UNL A   1      41.151  26.114  35.292  1.00  0.00    -0.203 F 
ATOM    113  C   UNL A   1      42.536  24.242  35.153  1.00  0.00     0.198 A 
ATOM    114  C   UNL A   1      44.697  24.382  34.158  1.00  0.00     0.198 A 
ATOM    115  F   UNL A   1      45.569  26.425  33.480  1.00  0.00    -0.203 F 
ATOM    116  F   UNL A   1      41.559  23.511  35.708  1.00  0.00    -0.200 F 
ATOM    117  C   UNL A   1      43.699  23.624  34.732  1.00  0.00     0.200 A 
ATOM    118  F   UNL A   1      45.811  23.792  33.699  1.00  0.00    -0.200 F 
ATOM    119  F   UNL A   1      43.847  22.298  34.857  1.00  0.00    -0.200 F 
ENDBRANCH  86 109
ENDBRANCH  60  61
ENDBRANCH  52  55
ENDBRANCH  50  51
ENDBRANCH  49  50
ENDBRANCH  48  49
ENDBRANCH  47  48
ENDBRANCH   3  47
TORSDOF 20
ENDMDL
MODEL 2
REMARK VINA RESULT:     -13.6      3.137      6.778
REMARK SMILES Cc1ccc(S(=O)(=O)n2cc(C(=O)C(=O)NCC(=O)N[C@H](Cc3c[nH]c4ccccc34)C(=O)NCCCCNC(=O)c3ccc(-c4c5nc(c(-c6c(F)c(F)c(F)c(F)c6F)c6ccc([nH]6)c(-c6c(F)c(F)c(F)c(F)c6F)c6nc(c(-c7c(F)c(F)c(F)c(F)c7F)c7ccc4[nH]7)C=C6)C=C5)cc3)c3ccccc32)cc1
REMARK SMILES IDX 32 1 33 2 34 3 21 5 20 6 18 7 19 8 17 10 16 11 14 12 15 13
REMARK SMILES IDX 12 15 13 16 11 17 9 18 10 19 110 20 105 21 109 22 106 23
REMARK SMILES IDX 108 24 107 25 6 26 7 27 8 28 5 29 1 30 2 31 3 32 112 33 4 34
REMARK SMILES IDX 111 35 22 36 23 37 24 38 31 39 25 40 26 41 30 42 27 44 29 45
REMARK SMILES IDX 28 46 35 47 36 48 37 49 38 50 39 51 40 52 41 54 42 55 43 56
REMARK SMILES IDX 104 57 44 58 103 59 45 60 46 61 47 62 97 63 48 64 102 65
REMARK SMILES IDX 96 66 98 67 49 68 101 69 95 70 94 71 50 73 82 74 62 75 81 76
REMARK SMILES IDX 63 77 66 78 80 79 99 80 64 81 65 82 79 84 100 85 67 86 51 87
REMARK SMILES IDX 52 88 60 89 53 90 54 91 58 92 61 93 55 94 56 95 59 96 57 97
REMARK SMILES IDX 83 98 84 99 92 100 85 101 86 102 90 103 93 104 87 105 88 106
REMARK SMILES IDX 91 107 89 108 68 109 69 110 77 111 70 112 71 113 75 114
REMARK SMILES IDX 78 115 72 116 73 117 76 118 74 119
REMARK H PARENT 34 4 20 9 16 14 25 43 39 53 98 72 66 83
REMARK Flexibility Score: inf
ROOT
ATOM      1  C   UNL A   1      35.204  32.512  29.221  1.00  0.00     0.242 C 
ATOM      2  O   UNL A   1      34.255  32.699  29.994  1.00  0.00    -0.273 OA
ATOM      3  N   UNL A   1      36.282  33.304  29.439  1.00  0.00    -0.354 N 
ATOM      4  H   UNL A   1      36.152  33.933  30.184  1.00  0.00     0.163 HD
ENDROOT
BRANCH   1   5
ATOM      5  C   UNL A   1      35.087  31.445  28.113  1.00  0.00     0.175 C 
BRANCH   5   6
ATOM      6  N   UNL A   1      33.670  31.071  28.030  1.00  0.00    -0.342 N 
ATOM      7  C   UNL A   1      33.006  30.416  27.035  1.00  0.00     0.240 C 
ATOM      8  O   UNL A   1      31.776  30.364  27.136  1.00  0.00    -0.273 OA
ATOM      9  H   UNL A   1      33.120  31.329  28.805  1.00  0.00     0.164 HD
BRANCH   7  10
ATOM     10  C   UNL A   1      33.748  29.598  25.956  1.00  0.00     0.216 C 
BRANCH  10  11
ATOM     11  N   UNL A   1      33.211  29.606  24.598  1.00  0.00    -0.340 N 
ATOM     12  C   UNL A   1      32.337  28.704  24.013  1.00  0.00     0.292 C 
ATOM     13  O   UNL A   1      31.903  28.856  22.878  1.00  0.00    -0.265 OA
ATOM     14  H   UNL A   1      33.511  30.348  24.023  1.00  0.00     0.164 HD
BRANCH  12  15
ATOM     15  C   UNL A   1      31.896  27.481  24.814  1.00  0.00     0.252 C 
ATOM     16  O   UNL A   1      30.824  27.577  25.412  1.00  0.00    -0.283 OA
BRANCH  15  17
ATOM     17  C   UNL A   1      32.807  26.348  25.016  1.00  0.00     0.054 A 
ATOM     18  N   UNL A   1      34.532  24.888  25.028  1.00  0.00    -0.240 N 
ATOM     19  C   UNL A   1      34.103  26.120  24.540  1.00  0.00     0.117 A 
ATOM     20  C   UNL A   1      33.601  24.469  25.995  1.00  0.00     0.065 A 
ATOM     21  C   UNL A   1      32.429  25.168  25.724  1.00  0.00     0.012 A 
ATOM     22  C   UNL A   1      33.611  23.360  26.862  1.00  0.00     0.028 A 
ATOM     23  C   UNL A   1      31.205  24.641  26.185  1.00  0.00     0.011 A 
ATOM     24  C   UNL A   1      32.385  22.816  27.243  1.00  0.00     0.002 A 
ATOM     25  C   UNL A   1      31.193  23.427  26.876  1.00  0.00     0.001 A 
BRANCH  18  26
ATOM     26  S   UNL A   1      35.087  23.544  24.058  1.00  0.00     0.268 S 
ATOM     27  O   UNL A   1      36.523  23.554  24.277  1.00  0.00    -0.201 OA
ATOM     28  O   UNL A   1      34.522  23.848  22.749  1.00  0.00    -0.201 OA
BRANCH  26  29
ATOM     29  C   UNL A   1      34.602  21.868  24.258  1.00  0.00     0.088 A 
ATOM     30  C   UNL A   1      32.419  18.165  24.673  1.00  0.00     0.044 C 
ATOM     31  C   UNL A   1      33.226  19.420  24.500  1.00  0.00    -0.051 A 
ATOM     32  C   UNL A   1      32.612  20.487  23.861  1.00  0.00     0.005 A 
ATOM     33  C   UNL A   1      34.538  19.583  25.000  1.00  0.00     0.005 A 
ATOM     34  C   UNL A   1      33.299  21.681  23.735  1.00  0.00     0.022 A 
ATOM     35  C   UNL A   1      35.239  20.813  24.888  1.00  0.00     0.022 A 
ENDBRANCH  26  29
ENDBRANCH  18  26
ENDBRANCH  15  17
ENDBRANCH  12  15
ENDBRANCH  10  11
ENDBRANCH   7  10
ENDBRANCH   5   6
BRANCH   5  36
ATOM     36  C   UNL A   1      36.012  30.212  28.187  1.00  0.00     0.072 C 
BRANCH  36  37
ATOM     37  C   UNL A   1      36.755  29.893  29.460  1.00  0.00    -0.020 A 
ATOM     38  C   UNL A   1      36.280  29.744  30.748  1.00  0.00     0.087 A 
ATOM     39  C   UNL A   1      38.176  29.657  29.549  1.00  0.00     0.003 A 
ATOM     40  N   UNL A   1      37.267  29.195  31.522  1.00  0.00    -0.361 N 
ATOM     41  C   UNL A   1      38.437  29.129  30.814  1.00  0.00     0.046 A 
ATOM     42  C   UNL A   1      39.263  29.808  28.662  1.00  0.00     0.010 A 
ATOM     43  H   UNL A   1      37.151  28.893  32.452  1.00  0.00     0.166 HD
ATOM     44  C   UNL A   1      39.692  28.653  31.205  1.00  0.00     0.026 A 
ATOM     45  C   UNL A   1      40.545  29.409  29.065  1.00  0.00     0.001 A 
ATOM     46  C   UNL A   1      40.748  28.811  30.307  1.00  0.00     0.002 A 
ENDBRANCH  36  37
ENDBRANCH   5  36
ENDBRANCH   1   5
BRANCH   3  47
ATOM     47  C   UNL A   1      37.585  33.426  28.815  1.00  0.00     0.116 C 
BRANCH  47  48
ATOM     48  C   UNL A   1      38.764  33.317  29.784  1.00  0.00     0.023 C 
BRANCH  48  49
ATOM     49  C   UNL A   1      38.462  33.682  31.239  1.00  0.00     0.023 C 
BRANCH  49  50
ATOM     50  C   UNL A   1      38.584  32.535  32.228  1.00  0.00     0.116 C 
BRANCH  50  51
ATOM     51  N   UNL A   1      37.769  32.701  33.431  1.00  0.00    -0.352 N 
ATOM     52  C   UNL A   1      38.089  32.377  34.744  1.00  0.00     0.251 C 
ATOM     53  H   UNL A   1      36.876  33.092  33.293  1.00  0.00     0.163 HD
ATOM     54  O   UNL A   1      37.324  32.589  35.663  1.00  0.00    -0.269 OA
BRANCH  52  55
ATOM     55  C   UNL A   1      39.460  31.880  35.001  1.00  0.00     0.039 A 
ATOM     56  C   UNL A   1      40.478  32.836  35.060  1.00  0.00     0.014 A 
ATOM     57  C   UNL A   1      39.740  30.538  34.773  1.00  0.00     0.014 A 
ATOM     58  C   UNL A   1      41.744  32.491  34.598  1.00  0.00     0.010 A 
ATOM     59  C   UNL A   1      40.958  30.226  34.206  1.00  0.00     0.010 A 
ATOM     60  C   UNL A   1      41.928  31.225  34.043  1.00  0.00    -0.014 A 
BRANCH  60  61
ATOM     61  C   UNL A   1      43.045  30.907  33.159  1.00  0.00     0.031 A 
ATOM     62  C   UNL A   1      43.014  31.341  31.746  1.00  0.00     0.074 A 
ATOM     63  C   UNL A   1      44.142  30.287  33.654  1.00  0.00     0.049 A 
ATOM     64  N   UNL A   1      43.719  30.809  30.807  1.00  0.00    -0.248 NA
ATOM     65  C   UNL A   1      42.133  32.400  31.269  1.00  0.00     0.031 C 
ATOM     66  C   UNL A   1      45.444  30.148  33.004  1.00  0.00     0.029 A 
ATOM     67  N   UNL A   1      44.239  29.478  34.802  1.00  0.00    -0.354 N 
ATOM     68  C   UNL A   1      43.589  31.590  29.680  1.00  0.00     0.074 A 
ATOM     69  C   UNL A   1      42.555  32.542  30.009  1.00  0.00     0.031 C 
ATOM     70  C   UNL A   1      46.096  29.114  33.556  1.00  0.00     0.029 A 
ATOM     71  C   UNL A   1      45.185  28.474  34.485  1.00  0.00     0.049 A 
ATOM     72  H   UNL A   1      43.751  29.588  35.649  1.00  0.00     0.167 HD
ATOM     73  C   UNL A   1      44.456  31.405  28.643  1.00  0.00     0.037 A 
ATOM     74  C   UNL A   1      44.851  27.151  34.463  1.00  0.00     0.037 A 
ATOM     75  C   UNL A   1      45.337  30.267  28.894  1.00  0.00     0.049 A 
ATOM     76  C   UNL A   1      45.047  26.488  33.120  1.00  0.00     0.074 A 
ATOM     77  C   UNL A   1      46.627  30.170  29.392  1.00  0.00     0.029 A 
ATOM     78  N   UNL A   1      44.802  28.986  28.936  1.00  0.00    -0.354 N 
ATOM     79  N   UNL A   1      45.197  27.148  32.006  1.00  0.00    -0.248 NA
ATOM     80  C   UNL A   1      45.046  25.042  32.915  1.00  0.00     0.031 C 
ATOM     81  C   UNL A   1      46.847  28.826  29.784  1.00  0.00     0.029 A 
ATOM     82  C   UNL A   1      45.700  28.104  29.505  1.00  0.00     0.049 A 
ATOM     83  H   UNL A   1      43.907  28.740  28.606  1.00  0.00     0.167 HD
ATOM     84  C   UNL A   1      45.271  26.268  30.958  1.00  0.00     0.074 A 
ATOM     85  C   UNL A   1      45.196  24.960  31.580  1.00  0.00     0.031 C 
ATOM     86  C   UNL A   1      45.365  26.698  29.667  1.00  0.00     0.037 A 
BRANCH  73  87
ATOM     87  C   UNL A   1      44.691  32.414  27.538  1.00  0.00     0.064 A 
ATOM     88  C   UNL A   1      45.552  33.517  27.740  1.00  0.00     0.173 A 
ATOM     89  C   UNL A   1      44.056  32.393  26.283  1.00  0.00     0.173 A 
ATOM     90  F   UNL A   1      46.317  33.618  28.834  1.00  0.00    -0.203 F 
ATOM     91  C   UNL A   1      45.659  34.567  26.823  1.00  0.00     0.198 A 
ATOM     92  C   UNL A   1      44.117  33.469  25.390  1.00  0.00     0.198 A 
ATOM     93  F   UNL A   1      43.412  31.306  25.847  1.00  0.00    -0.203 F 
ATOM     94  F   UNL A   1      46.488  35.590  27.077  1.00  0.00    -0.200 F 
ATOM     95  C   UNL A   1      44.909  34.564  25.666  1.00  0.00     0.200 A 
ATOM     96  F   UNL A   1      43.402  33.432  24.256  1.00  0.00    -0.200 F 
ATOM     97  F   UNL A   1      44.972  35.591  24.809  1.00  0.00    -0.200 F 
ENDBRANCH  73  87
BRANCH  74  98
ATOM     98  C   UNL A   1      43.802  26.802  35.454  1.00  0.00     0.064 A 
ATOM     99  C   UNL A   1      42.485  26.631  34.983  1.00  0.00     0.173 A 
ATOM    100  C   UNL A   1      44.124  26.246  36.696  1.00  0.00     0.173 A 
ATOM    101  F   UNL A   1      42.129  27.143  33.795  1.00  0.00    -0.203 F 
ATOM    102  C   UNL A   1      41.573  25.826  35.660  1.00  0.00     0.198 A 
ATOM    103  C   UNL A   1      43.202  25.450  37.379  1.00  0.00     0.198 A 
ATOM    104  F   UNL A   1      45.367  26.357  37.187  1.00  0.00    -0.203 F 
ATOM    105  F   UNL A   1      40.372  25.578  35.120  1.00  0.00    -0.200 F 
ATOM    106  C   UNL A   1      41.944  25.210  36.843  1.00  0.00     0.200 A 
ATOM    107  F   UNL A   1      43.567  24.826  38.509  1.00  0.00    -0.200 F 
ATOM    108  F   UNL A   1      41.109  24.346  37.439  1.00  0.00    -0.200 F 
ENDBRANCH  74  98
BRANCH  86 109
ATOM    109  C   UNL A   1      45.223  25.843  28.432  1.00  0.00     0.064 A 
ATOM    110  C   UNL A   1      46.291  25.166  27.825  1.00  0.00     0.173 A 
ATOM    111  C   UNL A   1      43.937  25.547  27.917  1.00  0.00     0.173 A 
ATOM    112  F   UNL A   1      47.543  25.282  28.289  1.00  0.00    -0.203 F 
ATOM    113  C   UNL A   1      46.095  24.293  26.750  1.00  0.00     0.198 A 
ATOM    114  C   UNL A   1      43.740  24.632  26.885  1.00  0.00     0.198 A 
ATOM    115  F   UNL A   1      42.833  26.115  28.425  1.00  0.00    -0.203 F 
ATOM    116  F   UNL A   1      47.151  23.694  26.181  1.00  0.00    -0.200 F 
ATOM    117  C   UNL A   1      44.820  24.015  26.291  1.00  0.00     0.200 A 
ATOM    118  F   UNL A   1      42.494  24.337  26.485  1.00  0.00    -0.200 F 
ATOM    119  F   UNL A   1      44.633  23.138  25.296  1.00  0.00    -0.200 F 
ENDBRANCH  86 109
ENDBRANCH  60  61
ENDBRANCH  52  55
ENDBRANCH  50  51
ENDBRANCH  49  50
ENDBRANCH  48  49
ENDBRANCH  47  48
ENDBRANCH   3  47
TORSDOF 20
ENDMDL
MODEL 3
REMARK VINA RESULT:     -13.5      6.047     10.661
REMARK SMILES Cc1ccc(S(=O)(=O)n2cc(C(=O)C(=O)NCC(=O)N[C@H](Cc3c[nH]c4ccccc34)C(=O)NCCCCNC(=O)c3ccc(-c4c5nc(c(-c6c(F)c(F)c(F)c(F)c6F)c6ccc([nH]6)c(-c6c(F)c(F)c(F)c(F)c6F)c6nc(c(-c7c(F)c(F)c(F)c(F)c7F)c7ccc4[nH]7)C=C6)C=C5)cc3)c3ccccc32)cc1
REMARK SMILES IDX 32 1 33 2 34 3 21 5 20 6 18 7 19 8 17 10 16 11 14 12 15 13
REMARK SMILES IDX 12 15 13 16 11 17 9 18 10 19 110 20 105 21 109 22 106 23
REMARK SMILES IDX 108 24 107 25 6 26 7 27 8 28 5 29 1 30 2 31 3 32 112 33 4 34
REMARK SMILES IDX 111 35 22 36 23 37 24 38 31 39 25 40 26 41 30 42 27 44 29 45
REMARK SMILES IDX 28 46 35 47 36 48 37 49 38 50 39 51 40 52 41 54 42 55 43 56
REMARK SMILES IDX 104 57 44 58 103 59 45 60 46 61 47 62 97 63 48 64 102 65
REMARK SMILES IDX 96 66 98 67 49 68 101 69 95 70 94 71 50 73 82 74 62 75 81 76
REMARK SMILES IDX 63 77 66 78 80 79 99 80 64 81 65 82 79 84 100 85 67 86 51 87
REMARK SMILES IDX 52 88 60 89 53 90 54 91 58 92 61 93 55 94 56 95 59 96 57 97
REMARK SMILES IDX 83 98 84 99 92 100 85 101 86 102 90 103 93 104 87 105 88 106
REMARK SMILES IDX 91 107 89 108 68 109 69 110 77 111 70 112 71 113 75 114
REMARK SMILES IDX 78 115 72 116 73 117 76 118 74 119
REMARK H PARENT 34 4 20 9 16 14 25 43 39 53 98 72 66 83
REMARK Flexibility Score: inf
ROOT
ATOM      1  C   UNL A   1      36.333  30.535  31.612  1.00  0.00     0.242 C 
ATOM      2  O   UNL A   1      36.652  29.339  31.623  1.00  0.00    -0.273 OA
ATOM      3  N   UNL A   1      36.280  31.122  32.832  1.00  0.00    -0.354 N 
ATOM      4  H   UNL A   1      36.493  30.502  33.567  1.00  0.00     0.163 HD
ENDROOT
BRANCH   1   5
ATOM      5  C   UNL A   1      36.028  31.232  30.270  1.00  0.00     0.175 C 
BRANCH   5   6
ATOM      6  N   UNL A   1      36.463  30.318  29.207  1.00  0.00    -0.342 N 
ATOM      7  C   UNL A   1      35.799  29.918  28.085  1.00  0.00     0.240 C 
ATOM      8  O   UNL A   1      36.323  29.013  27.428  1.00  0.00    -0.273 OA
ATOM      9  H   UNL A   1      37.365  29.940  29.320  1.00  0.00     0.164 HD
BRANCH   7  10
ATOM     10  C   UNL A   1      34.576  30.687  27.540  1.00  0.00     0.216 C 
BRANCH  10  11
ATOM     11  N   UNL A   1      33.245  30.204  27.897  1.00  0.00    -0.340 N 
ATOM     12  C   UNL A   1      32.476  29.247  27.254  1.00  0.00     0.292 C 
ATOM     13  O   UNL A   1      31.394  28.877  27.692  1.00  0.00    -0.265 OA
ATOM     14  H   UNL A   1      32.842  30.612  28.698  1.00  0.00     0.164 HD
BRANCH  12  15
ATOM     15  C   UNL A   1      32.998  28.633  25.958  1.00  0.00     0.252 C 
ATOM     16  O   UNL A   1      33.040  29.378  24.979  1.00  0.00    -0.283 OA
BRANCH  15  17
ATOM     17  C   UNL A   1      33.234  27.189  25.852  1.00  0.00     0.054 A 
ATOM     18  N   UNL A   1      34.090  25.113  25.586  1.00  0.00    -0.240 N 
ATOM     19  C   UNL A   1      34.398  26.472  25.552  1.00  0.00     0.117 A 
ATOM     20  C   UNL A   1      32.804  24.986  26.141  1.00  0.00     0.065 A 
ATOM     21  C   UNL A   1      32.190  26.223  25.970  1.00  0.00     0.012 A 
ATOM     22  C   UNL A   1      32.064  23.842  26.495  1.00  0.00     0.028 A 
ATOM     23  C   UNL A   1      30.782  26.286  25.975  1.00  0.00     0.011 A 
ATOM     24  C   UNL A   1      30.674  23.913  26.421  1.00  0.00     0.002 A 
ATOM     25  C   UNL A   1      30.039  25.111  26.125  1.00  0.00     0.001 A 
BRANCH  18  26
ATOM     26  S   UNL A   1      34.332  23.980  24.279  1.00  0.00     0.268 S 
ATOM     27  O   UNL A   1      35.771  23.784  24.278  1.00  0.00    -0.201 OA
ATOM     28  O   UNL A   1      33.661  24.639  23.165  1.00  0.00    -0.201 OA
BRANCH  26  29
ATOM     29  C   UNL A   1      33.648  22.366  24.183  1.00  0.00     0.088 A 
ATOM     30  C   UNL A   1      32.980  18.099  24.168  1.00  0.00     0.044 C 
ATOM     31  C   UNL A   1      33.152  19.591  24.194  1.00  0.00    -0.051 A 
ATOM     32  C   UNL A   1      34.233  20.093  24.903  1.00  0.00     0.005 A 
ATOM     33  C   UNL A   1      32.313  20.489  23.496  1.00  0.00     0.005 A 
ATOM     34  C   UNL A   1      34.462  21.457  24.904  1.00  0.00     0.022 A 
ATOM     35  C   UNL A   1      32.556  21.887  23.479  1.00  0.00     0.022 A 
ENDBRANCH  26  29
ENDBRANCH  18  26
ENDBRANCH  15  17
ENDBRANCH  12  15
ENDBRANCH  10  11
ENDBRANCH   7  10
ENDBRANCH   5   6
BRANCH   5  36
ATOM     36  C   UNL A   1      36.555  32.667  30.056  1.00  0.00     0.072 C 
BRANCH  36  37
ATOM     37  C   UNL A   1      35.721  33.682  29.317  1.00  0.00    -0.020 A 
ATOM     38  C   UNL A   1      35.684  33.985  27.971  1.00  0.00     0.087 A 
ATOM     39  C   UNL A   1      34.746  34.553  29.930  1.00  0.00     0.003 A 
ATOM     40  N   UNL A   1      34.593  34.775  27.725  1.00  0.00    -0.361 N 
ATOM     41  C   UNL A   1      34.000  35.136  28.905  1.00  0.00     0.046 A 
ATOM     42  C   UNL A   1      34.403  34.874  31.260  1.00  0.00     0.010 A 
ATOM     43  H   UNL A   1      34.281  35.044  26.831  1.00  0.00     0.166 HD
ATOM     44  C   UNL A   1      32.875  35.935  29.132  1.00  0.00     0.026 A 
ATOM     45  C   UNL A   1      33.326  35.737  31.507  1.00  0.00     0.001 A 
ATOM     46  C   UNL A   1      32.555  36.234  30.458  1.00  0.00     0.002 A 
ENDBRANCH  36  37
ENDBRANCH   5  36
ENDBRANCH   1   5
BRANCH   3  47
ATOM     47  C   UNL A   1      35.978  32.463  33.293  1.00  0.00     0.116 C 
BRANCH  47  48
ATOM     48  C   UNL A   1      36.949  33.006  34.343  1.00  0.00     0.023 C 
BRANCH  48  49
ATOM     49  C   UNL A   1      37.479  31.980  35.348  1.00  0.00     0.023 C 
BRANCH  49  50
ATOM     50  C   UNL A   1      38.628  32.465  36.216  1.00  0.00     0.116 C 
BRANCH  50  51
ATOM     51  N   UNL A   1      38.566  33.889  36.541  1.00  0.00    -0.352 N 
ATOM     52  C   UNL A   1      39.446  34.900  36.171  1.00  0.00     0.251 C 
ATOM     53  H   UNL A   1      37.801  34.169  37.095  1.00  0.00     0.163 HD
ATOM     54  O   UNL A   1      39.264  36.057  36.492  1.00  0.00    -0.269 OA
BRANCH  52  55
ATOM     55  C   UNL A   1      40.549  34.532  35.257  1.00  0.00     0.039 A 
ATOM     56  C   UNL A   1      41.844  34.556  35.784  1.00  0.00     0.014 A 
ATOM     57  C   UNL A   1      40.326  34.576  33.885  1.00  0.00     0.014 A 
ATOM     58  C   UNL A   1      42.895  34.923  34.952  1.00  0.00     0.010 A 
ATOM     59  C   UNL A   1      41.344  35.053  33.087  1.00  0.00     0.010 A 
ATOM     60  C   UNL A   1      42.607  35.305  33.642  1.00  0.00    -0.014 A 
BRANCH  60  61
ATOM     61  C   UNL A   1      43.525  36.099  32.833  1.00  0.00     0.031 A 
ATOM     62  C   UNL A   1      43.563  37.569  32.987  1.00  0.00     0.074 A 
ATOM     63  C   UNL A   1      44.397  35.482  32.001  1.00  0.00     0.049 A 
ATOM     64  N   UNL A   1      44.021  38.381  32.097  1.00  0.00    -0.248 NA
ATOM     65  C   UNL A   1      43.034  38.249  34.162  1.00  0.00     0.031 C 
ATOM     66  C   UNL A   1      45.559  36.077  31.342  1.00  0.00     0.029 A 
ATOM     67  N   UNL A   1      44.294  34.200  31.428  1.00  0.00    -0.354 N 
ATOM     68  C   UNL A   1      44.086  39.637  32.658  1.00  0.00     0.074 A 
ATOM     69  C   UNL A   1      43.418  39.507  33.931  1.00  0.00     0.031 C 
ATOM     70  C   UNL A   1      45.883  35.332  30.276  1.00  0.00     0.029 A 
ATOM     71  C   UNL A   1      44.864  34.309  30.137  1.00  0.00     0.049 A 
ATOM     72  H   UNL A   1      43.905  33.395  31.839  1.00  0.00     0.167 HD
ATOM     73  C   UNL A   1      44.802  40.610  32.022  1.00  0.00     0.037 A 
ATOM     74  C   UNL A   1      44.134  34.085  29.006  1.00  0.00     0.037 A 
ATOM     75  C   UNL A   1      45.297  40.136  30.732  1.00  0.00     0.049 A 
ATOM     76  C   UNL A   1      44.050  35.275  28.080  1.00  0.00     0.074 A 
ATOM     77  C   UNL A   1      46.515  39.614  30.328  1.00  0.00     0.029 A 
ATOM     78  N   UNL A   1      44.392  39.859  29.714  1.00  0.00    -0.354 N 
ATOM     79  N   UNL A   1      44.343  36.492  28.443  1.00  0.00    -0.248 NA
ATOM     80  C   UNL A   1      43.589  35.203  26.696  1.00  0.00     0.031 C 
ATOM     81  C   UNL A   1      46.324  38.971  29.079  1.00  0.00     0.029 A 
ATOM     82  C   UNL A   1      44.998  39.123  28.716  1.00  0.00     0.049 A 
ATOM     83  H   UNL A   1      43.451  40.147  29.706  1.00  0.00     0.167 HD
ATOM     84  C   UNL A   1      44.090  37.353  27.407  1.00  0.00     0.074 A 
ATOM     85  C   UNL A   1      43.641  36.496  26.327  1.00  0.00     0.031 C 
ATOM     86  C   UNL A   1      44.250  38.701  27.541  1.00  0.00     0.037 A 
BRANCH  73  87
ATOM     87  C   UNL A   1      45.286  41.883  32.685  1.00  0.00     0.064 A 
ATOM     88  C   UNL A   1      46.287  41.841  33.683  1.00  0.00     0.173 A 
ATOM     89  C   UNL A   1      44.767  43.166  32.435  1.00  0.00     0.173 A 
ATOM     90  F   UNL A   1      46.960  40.716  33.954  1.00  0.00    -0.203 F 
ATOM     91  C   UNL A   1      46.635  42.958  34.448  1.00  0.00     0.198 A 
ATOM     92  C   UNL A   1      45.071  44.272  33.237  1.00  0.00     0.198 A 
ATOM     93  F   UNL A   1      44.001  43.411  31.366  1.00  0.00    -0.203 F 
ATOM     94  F   UNL A   1      47.587  42.852  35.386  1.00  0.00    -0.200 F 
ATOM     95  C   UNL A   1      45.996  44.165  34.254  1.00  0.00     0.200 A 
ATOM     96  F   UNL A   1      44.459  45.444  33.011  1.00  0.00    -0.200 F 
ATOM     97  F   UNL A   1      46.292  45.224  35.019  1.00  0.00    -0.200 F 
ENDBRANCH  73  87
BRANCH  74  98
ATOM     98  C   UNL A   1      43.078  33.058  29.193  1.00  0.00     0.064 A 
ATOM     99  C   UNL A   1      43.462  31.704  29.134  1.00  0.00     0.173 A 
ATOM    100  C   UNL A   1      41.863  33.362  29.816  1.00  0.00     0.173 A 
ATOM    101  F   UNL A   1      44.621  31.363  28.549  1.00  0.00    -0.203 F 
ATOM    102  C   UNL A   1      42.731  30.715  29.787  1.00  0.00     0.198 A 
ATOM    103  C   UNL A   1      41.126  32.364  30.459  1.00  0.00     0.198 A 
ATOM    104  F   UNL A   1      41.455  34.634  29.922  1.00  0.00    -0.203 F 
ATOM    105  F   UNL A   1      43.193  29.458  29.822  1.00  0.00    -0.200 F 
ATOM    106  C   UNL A   1      41.580  31.052  30.477  1.00  0.00     0.200 A 
ATOM    107  F   UNL A   1      40.027  32.692  31.154  1.00  0.00    -0.200 F 
ATOM    108  F   UNL A   1      40.935  30.125  31.199  1.00  0.00    -0.200 F 
ENDBRANCH  74  98
BRANCH  86 109
ATOM    109  C   UNL A   1      43.790  39.753  26.563  1.00  0.00     0.064 A 
ATOM    110  C   UNL A   1      42.446  40.110  26.376  1.00  0.00     0.173 A 
ATOM    111  C   UNL A   1      44.738  40.563  25.892  1.00  0.00     0.173 A 
ATOM    112  F   UNL A   1      41.461  39.486  27.038  1.00  0.00    -0.203 F 
ATOM    113  C   UNL A   1      42.074  41.169  25.542  1.00  0.00     0.198 A 
ATOM    114  C   UNL A   1      44.366  41.654  25.108  1.00  0.00     0.198 A 
ATOM    115  F   UNL A   1      46.055  40.336  26.004  1.00  0.00    -0.203 F 
ATOM    116  F   UNL A   1      40.774  41.452  25.370  1.00  0.00    -0.200 F 
ATOM    117  C   UNL A   1      43.032  41.949  24.922  1.00  0.00     0.200 A 
ATOM    118  F   UNL A   1      45.310  42.429  24.554  1.00  0.00    -0.200 F 
ATOM    119  F   UNL A   1      42.672  42.995  24.166  1.00  0.00    -0.200 F 
ENDBRANCH  86 109
ENDBRANCH  60  61
ENDBRANCH  52  55
ENDBRANCH  50  51
ENDBRANCH  49  50
ENDBRANCH  48  49
ENDBRANCH  47  48
ENDBRANCH   3  47
TORSDOF 20
ENDMDL
