MODEL 1
REMARK VINA RESULT:     -14.9      0.000      0.000
REMARK SMILES Cc1cccc(C(=O)Nc2cc(C(=O)NCCCCNC(=O)c3ccc(-c4c5nc(c(-c6c(F)c(F)c(F)c(F)c6F)c6ccc([nH]6)c(-c6c(F)c(F)c(F)c(F)c6F)c6nc(c(-c7c(F)c(F)c(F)c(F)c7F)c7ccc4[nH]7)C=C6)C=C5)cc3)ccc2N2CC[NH+](CC(=O)NC(C)(C)C)CC2)c1
REMARK SMILES IDX 16 1 15 2 13 3 14 4 12 6 10 7 11 8 88 9 87 10 86 11 9 12
REMARK SMILES IDX 7 13 8 14 6 16 1 17 2 18 3 19 103 20 4 21 5 22 89 23 90 24
REMARK SMILES IDX 102 25 91 26 101 27 92 28 93 30 94 31 95 32 96 33 97 35
REMARK SMILES IDX 98 36 99 37 100 38 17 39 18 40 19 41 20 42 21 43 22 45 23 46
REMARK SMILES IDX 24 47 85 48 25 49 84 50 26 51 27 52 28 53 78 54 29 55 83 56
REMARK SMILES IDX 77 57 79 58 30 59 82 60 76 61 75 62 31 64 63 65 43 66 62 67
REMARK SMILES IDX 44 68 47 69 61 70 80 71 45 72 46 73 60 75 81 76 48 77 32 78
REMARK SMILES IDX 33 79 41 80 34 81 35 82 39 83 42 84 36 85 37 86 40 87 38 88
REMARK SMILES IDX 64 89 65 90 73 91 66 92 67 93 71 94 74 95 68 96 69 97 72 98
REMARK SMILES IDX 70 99 49 100 50 101 58 102 51 103 52 104 56 105 59 106
REMARK SMILES IDX 53 107 54 108 57 109 55 110
REMARK H PARENT 15 5 9 15 92 29 96 34 20 44 79 63 47 74
REMARK Flexibility Score: inf
ROOT
ATOM      1  C   UNL A   1      39.090  22.289  26.120  1.00  0.00     0.116 C 
ENDROOT
BRANCH   1   2
ATOM      2  N   UNL A   1      38.519  21.012  25.712  1.00  0.00    -0.352 N 
ATOM      3  C   UNL A   1      37.414  20.645  24.974  1.00  0.00     0.251 C 
ATOM      4  O   UNL A   1      37.309  19.448  24.693  1.00  0.00    -0.269 OA
ATOM      5  H   UNL A   1      39.039  20.240  26.035  1.00  0.00     0.163 HD
BRANCH   3   6
ATOM      6  C   UNL A   1      36.369  21.587  24.472  1.00  0.00     0.042 A 
ATOM      7  C   UNL A   1      34.126  22.480  24.474  1.00  0.00     0.065 A 
ATOM      8  C   UNL A   1      35.034  21.482  24.806  1.00  0.00     0.042 A 
ATOM      9  C   UNL A   1      34.466  23.565  23.638  1.00  0.00     0.061 A 
ATOM     10  C   UNL A   1      35.795  23.628  23.219  1.00  0.00     0.029 A 
ATOM     11  C   UNL A   1      36.741  22.674  23.661  1.00  0.00     0.016 A 
BRANCH   7  12
ATOM     12  N   UNL A   1      32.859  22.443  25.079  1.00  0.00    -0.320 N 
ATOM     13  C   UNL A   1      32.030  21.341  25.215  1.00  0.00     0.255 C 
ATOM     14  O   UNL A   1      31.040  21.428  25.941  1.00  0.00    -0.269 OA
ATOM     15  H   UNL A   1      32.524  23.292  25.447  1.00  0.00     0.170 HD
BRANCH  13  16
ATOM     16  C   UNL A   1      32.315  20.027  24.559  1.00  0.00     0.040 A 
ATOM     17  C   UNL A   1      33.820  16.561  25.176  1.00  0.00     0.044 C 
ATOM     18  C   UNL A   1      33.158  17.728  24.501  1.00  0.00    -0.050 A 
ATOM     19  C   UNL A   1      33.025  17.730  23.113  1.00  0.00     0.003 A 
ATOM     20  C   UNL A   1      32.733  18.856  25.223  1.00  0.00     0.017 A 
ATOM     21  C   UNL A   1      32.495  18.843  22.468  1.00  0.00     0.001 A 
ATOM     22  C   UNL A   1      32.156  19.990  23.176  1.00  0.00     0.014 A 
ENDBRANCH  13  16
ENDBRANCH   7  12
BRANCH   9  23
ATOM     23  N   UNL A   1      33.542  24.565  23.393  1.00  0.00    -0.359 N 
ATOM     24  C   UNL A   1      32.744  24.722  22.168  1.00  0.00     0.178 C 
ATOM     25  C   UNL A   1      33.773  25.848  24.057  1.00  0.00     0.178 C 
ATOM     26  C   UNL A   1      31.450  25.566  22.466  1.00  0.00     0.284 C 
ATOM     27  C   UNL A   1      32.414  26.385  24.535  1.00  0.00     0.284 C 
ATOM     28  N   UNL A   1      31.509  26.696  23.428  1.00  0.00    -0.324 N 
ATOM     29  H   UNL A   1      30.557  26.771  23.783  1.00  0.00     0.348 HD
BRANCH  28  30
ATOM     30  C   UNL A   1      31.712  28.047  22.874  1.00  0.00     0.363 C 
BRANCH  30  31
ATOM     31  C   UNL A   1      31.361  29.204  23.803  1.00  0.00     0.275 C 
ATOM     32  O   UNL A   1      32.151  29.526  24.701  1.00  0.00    -0.268 OA
ATOM     33  N   UNL A   1      30.209  29.928  23.738  1.00  0.00    -0.347 N 
ATOM     34  H   UNL A   1      30.257  30.692  24.356  1.00  0.00     0.164 HD
BRANCH  33  35
ATOM     35  C   UNL A   1      28.898  29.928  23.025  1.00  0.00     0.032 C 
ATOM     36  C   UNL A   1      27.972  31.051  23.538  1.00  0.00     0.034 C 
ATOM     37  C   UNL A   1      29.210  30.276  21.553  1.00  0.00     0.034 C 
ATOM     38  C   UNL A   1      28.153  28.591  23.033  1.00  0.00     0.034 C 
ENDBRANCH  33  35
ENDBRANCH  30  31
ENDBRANCH  28  30
ENDBRANCH   9  23
ENDBRANCH   3   6
ENDBRANCH   1   2
BRANCH   1  39
ATOM     39  C   UNL A   1      40.370  22.156  26.964  1.00  0.00     0.023 C 
BRANCH  39  40
ATOM     40  C   UNL A   1      41.653  22.081  26.145  1.00  0.00     0.023 C 
BRANCH  40  41
ATOM     41  C   UNL A   1      42.525  20.891  26.511  1.00  0.00     0.116 C 
BRANCH  41  42
ATOM     42  N   UNL A   1      43.274  20.313  25.404  1.00  0.00    -0.352 N 
ATOM     43  C   UNL A   1      44.264  20.882  24.615  1.00  0.00     0.251 C 
ATOM     44  H   UNL A   1      43.044  19.382  25.182  1.00  0.00     0.163 HD
ATOM     45  O   UNL A   1      44.709  20.272  23.659  1.00  0.00    -0.269 OA
BRANCH  43  46
ATOM     46  C   UNL A   1      44.883  22.172  25.024  1.00  0.00     0.039 A 
ATOM     47  C   UNL A   1      45.557  22.211  26.253  1.00  0.00     0.014 A 
ATOM     48  C   UNL A   1      44.625  23.353  24.338  1.00  0.00     0.014 A 
ATOM     49  C   UNL A   1      45.721  23.431  26.906  1.00  0.00     0.010 A 
ATOM     50  C   UNL A   1      44.672  24.544  25.030  1.00  0.00     0.010 A 
ATOM     51  C   UNL A   1      45.155  24.569  26.341  1.00  0.00    -0.014 A 
BRANCH  51  52
ATOM     52  C   UNL A   1      44.861  25.783  27.090  1.00  0.00     0.031 A 
ATOM     53  C   UNL A   1      43.508  26.365  27.100  1.00  0.00     0.074 A 
ATOM     54  C   UNL A   1      45.807  26.247  27.935  1.00  0.00     0.049 A 
ATOM     55  N   UNL A   1      43.234  27.555  27.515  1.00  0.00    -0.248 NA
ATOM     56  C   UNL A   1      42.344  25.649  26.604  1.00  0.00     0.031 C 
ATOM     57  C   UNL A   1      45.632  27.161  29.059  1.00  0.00     0.029 A 
ATOM     58  N   UNL A   1      47.196  26.094  27.817  1.00  0.00    -0.354 N 
ATOM     59  C   UNL A   1      41.866  27.667  27.607  1.00  0.00     0.074 A 
ATOM     60  C   UNL A   1      41.358  26.475  26.967  1.00  0.00     0.031 C 
ATOM     61  C   UNL A   1      46.820  27.707  29.361  1.00  0.00     0.029 A 
ATOM     62  C   UNL A   1      47.755  27.279  28.337  1.00  0.00     0.049 A 
ATOM     63  H   UNL A   1      47.679  25.321  27.447  1.00  0.00     0.167 HD
ATOM     64  C   UNL A   1      41.337  28.694  28.336  1.00  0.00     0.037 A 
ATOM     65  C   UNL A   1      48.517  28.113  27.576  1.00  0.00     0.037 A 
ATOM     66  C   UNL A   1      42.392  29.596  28.810  1.00  0.00     0.049 A 
ATOM     67  C   UNL A   1      47.940  29.501  27.501  1.00  0.00     0.074 A 
ATOM     68  C   UNL A   1      43.037  29.722  30.031  1.00  0.00     0.029 A 
ATOM     69  N   UNL A   1      43.153  30.317  27.892  1.00  0.00    -0.354 N 
ATOM     70  N   UNL A   1      46.677  29.761  27.699  1.00  0.00    -0.248 NA
ATOM     71  C   UNL A   1      48.726  30.694  27.218  1.00  0.00     0.031 C 
ATOM     72  C   UNL A   1      44.216  30.484  29.832  1.00  0.00     0.029 A 
ATOM     73  C   UNL A   1      44.281  30.842  28.496  1.00  0.00     0.049 A 
ATOM     74  H   UNL A   1      42.919  30.438  26.943  1.00  0.00     0.167 HD
ATOM     75  C   UNL A   1      46.471  31.108  27.591  1.00  0.00     0.074 A 
ATOM     76  C   UNL A   1      47.784  31.651  27.292  1.00  0.00     0.031 C 
ATOM     77  C   UNL A   1      45.233  31.662  27.758  1.00  0.00     0.037 A 
BRANCH  64  78
ATOM     78  C   UNL A   1      39.915  28.710  28.871  1.00  0.00     0.064 A 
ATOM     79  C   UNL A   1      38.851  29.223  28.096  1.00  0.00     0.173 A 
ATOM     80  C   UNL A   1      39.538  28.299  30.164  1.00  0.00     0.173 A 
ATOM     81  F   UNL A   1      39.013  29.541  26.805  1.00  0.00    -0.203 F 
ATOM     82  C   UNL A   1      37.568  29.431  28.615  1.00  0.00     0.198 A 
ATOM     83  C   UNL A   1      38.274  28.561  30.705  1.00  0.00     0.198 A 
ATOM     84  F   UNL A   1      40.355  27.566  30.928  1.00  0.00    -0.203 F 
ATOM     85  F   UNL A   1      36.604  29.931  27.828  1.00  0.00    -0.200 F 
ATOM     86  C   UNL A   1      37.291  29.140  29.933  1.00  0.00     0.200 A 
ATOM     87  F   UNL A   1      38.018  28.239  31.981  1.00  0.00    -0.200 F 
ATOM     88  F   UNL A   1      36.076  29.382  30.445  1.00  0.00    -0.200 F 
ENDBRANCH  64  78
BRANCH  65  89
ATOM     89  C   UNL A   1      49.262  27.409  26.499  1.00  0.00     0.064 A 
ATOM     90  C   UNL A   1      48.728  27.461  25.197  1.00  0.00     0.173 A 
ATOM     91  C   UNL A   1      50.621  27.103  26.626  1.00  0.00     0.173 A 
ATOM     92  F   UNL A   1      47.424  27.722  25.023  1.00  0.00    -0.203 F 
ATOM     93  C   UNL A   1      49.545  27.379  24.072  1.00  0.00     0.198 A 
ATOM     94  C   UNL A   1      51.434  26.990  25.494  1.00  0.00     0.198 A 
ATOM     95  F   UNL A   1      51.192  27.046  27.837  1.00  0.00    -0.203 F 
ATOM     96  F   UNL A   1      49.026  27.592  22.854  1.00  0.00    -0.200 F 
ATOM     97  C   UNL A   1      50.905  27.173  24.223  1.00  0.00     0.200 A 
ATOM     98  F   UNL A   1      52.755  26.812  25.638  1.00  0.00    -0.200 F 
ATOM     99  F   UNL A   1      51.711  27.199  23.153  1.00  0.00    -0.200 F 
ENDBRANCH  65  89
BRANCH  77 100
ATOM    100  C   UNL A   1      44.842  33.061  27.349  1.00  0.00     0.064 A 
ATOM    101  C   UNL A   1      44.085  33.353  26.202  1.00  0.00     0.173 A 
ATOM    102  C   UNL A   1      45.087  34.158  28.210  1.00  0.00     0.173 A 
ATOM    103  F   UNL A   1      43.675  32.387  25.369  1.00  0.00    -0.203 F 
ATOM    104  C   UNL A   1      43.665  34.651  25.902  1.00  0.00     0.198 A 
ATOM    105  C   UNL A   1      44.614  35.440  27.939  1.00  0.00     0.198 A 
ATOM    106  F   UNL A   1      45.767  34.013  29.357  1.00  0.00    -0.203 F 
ATOM    107  F   UNL A   1      42.983  34.880  24.771  1.00  0.00    -0.200 F 
ATOM    108  C   UNL A   1      43.916  35.691  26.776  1.00  0.00     0.200 A 
ATOM    109  F   UNL A   1      44.816  36.425  28.825  1.00  0.00    -0.200 F 
ATOM    110  F   UNL A   1      43.466  36.923  26.510  1.00  0.00    -0.200 F 
ENDBRANCH  77 100
ENDBRANCH  51  52
ENDBRANCH  43  46
ENDBRANCH  41  42
ENDBRANCH  40  41
ENDBRANCH  39  40
ENDBRANCH   1  39
TORSDOF 17
ENDMDL
MODEL 2
REMARK VINA RESULT:     -14.7      4.936     11.311
REMARK SMILES Cc1cccc(C(=O)Nc2cc(C(=O)NCCCCNC(=O)c3ccc(-c4c5nc(c(-c6c(F)c(F)c(F)c(F)c6F)c6ccc([nH]6)c(-c6c(F)c(F)c(F)c(F)c6F)c6nc(c(-c7c(F)c(F)c(F)c(F)c7F)c7ccc4[nH]7)C=C6)C=C5)cc3)ccc2N2CC[NH+](CC(=O)NC(C)(C)C)CC2)c1
REMARK SMILES IDX 16 1 15 2 13 3 14 4 12 6 10 7 11 8 88 9 87 10 86 11 9 12
REMARK SMILES IDX 7 13 8 14 6 16 1 17 2 18 3 19 103 20 4 21 5 22 89 23 90 24
REMARK SMILES IDX 102 25 91 26 101 27 92 28 93 30 94 31 95 32 96 33 97 35
REMARK SMILES IDX 98 36 99 37 100 38 17 39 18 40 19 41 20 42 21 43 22 45 23 46
REMARK SMILES IDX 24 47 85 48 25 49 84 50 26 51 27 52 28 53 78 54 29 55 83 56
REMARK SMILES IDX 77 57 79 58 30 59 82 60 76 61 75 62 31 64 63 65 43 66 62 67
REMARK SMILES IDX 44 68 47 69 61 70 80 71 45 72 46 73 60 75 81 76 48 77 32 78
REMARK SMILES IDX 33 79 41 80 34 81 35 82 39 83 42 84 36 85 37 86 40 87 38 88
REMARK SMILES IDX 64 89 65 90 73 91 66 92 67 93 71 94 74 95 68 96 69 97 72 98
REMARK SMILES IDX 70 99 49 100 50 101 58 102 51 103 52 104 56 105 59 106
REMARK SMILES IDX 53 107 54 108 57 109 55 110
REMARK H PARENT 15 5 9 15 92 29 96 34 20 44 79 63 47 74
REMARK Flexibility Score: inf
ROOT
ATOM      1  C   UNL A   1      34.070  31.390  28.015  1.00  0.00     0.116 C 
ENDROOT
BRANCH   1   2
ATOM      2  N   UNL A   1      32.944  31.863  27.220  1.00  0.00    -0.352 N 
ATOM      3  C   UNL A   1      31.909  31.242  26.555  1.00  0.00     0.251 C 
ATOM      4  O   UNL A   1      31.030  31.974  26.094  1.00  0.00    -0.269 OA
ATOM      5  H   UNL A   1      32.918  32.844  27.139  1.00  0.00     0.163 HD
BRANCH   3   6
ATOM      6  C   UNL A   1      31.765  29.765  26.385  1.00  0.00     0.042 A 
ATOM      7  C   UNL A   1      31.690  27.773  25.024  1.00  0.00     0.065 A 
ATOM      8  C   UNL A   1      31.634  29.154  25.154  1.00  0.00     0.042 A 
ATOM      9  C   UNL A   1      31.711  26.907  26.138  1.00  0.00     0.061 A 
ATOM     10  C   UNL A   1      31.749  27.517  27.392  1.00  0.00     0.029 A 
ATOM     11  C   UNL A   1      31.814  28.925  27.512  1.00  0.00     0.016 A 
BRANCH   7  12
ATOM     12  N   UNL A   1      31.830  27.240  23.732  1.00  0.00    -0.320 N 
ATOM     13  C   UNL A   1      31.013  27.478  22.638  1.00  0.00     0.255 C 
ATOM     14  O   UNL A   1      31.380  27.093  21.527  1.00  0.00    -0.269 OA
ATOM     15  H   UNL A   1      32.591  26.632  23.587  1.00  0.00     0.170 HD
BRANCH  13  16
ATOM     16  C   UNL A   1      29.726  28.232  22.736  1.00  0.00     0.040 A 
ATOM     17  C   UNL A   1      28.198  31.731  22.446  1.00  0.00     0.044 C 
ATOM     18  C   UNL A   1      28.339  30.249  22.649  1.00  0.00    -0.050 A 
ATOM     19  C   UNL A   1      27.289  29.535  23.226  1.00  0.00     0.003 A 
ATOM     20  C   UNL A   1      29.531  29.570  22.342  1.00  0.00     0.017 A 
ATOM     21  C   UNL A   1      27.441  28.180  23.501  1.00  0.00     0.001 A 
ATOM     22  C   UNL A   1      28.650  27.531  23.276  1.00  0.00     0.014 A 
ENDBRANCH  13  16
ENDBRANCH   7  12
BRANCH   9  23
ATOM     23  N   UNL A   1      31.833  25.541  25.952  1.00  0.00    -0.359 N 
ATOM     24  C   UNL A   1      30.765  24.547  26.129  1.00  0.00     0.178 C 
ATOM     25  C   UNL A   1      33.156  24.964  26.187  1.00  0.00     0.178 C 
ATOM     26  C   UNL A   1      31.088  23.249  25.301  1.00  0.00     0.284 C 
ATOM     27  C   UNL A   1      33.413  23.908  25.099  1.00  0.00     0.284 C 
ATOM     28  N   UNL A   1      32.491  22.776  25.184  1.00  0.00    -0.324 N 
ATOM     29  H   UNL A   1      32.509  22.262  24.303  1.00  0.00     0.348 HD
BRANCH  28  30
ATOM     30  C   UNL A   1      32.936  21.734  26.128  1.00  0.00     0.363 C 
BRANCH  30  31
ATOM     31  C   UNL A   1      34.255  21.050  25.788  1.00  0.00     0.275 C 
ATOM     32  O   UNL A   1      35.323  21.621  26.048  1.00  0.00    -0.268 OA
ATOM     33  N   UNL A   1      34.364  19.831  25.189  1.00  0.00    -0.347 N 
ATOM     34  H   UNL A   1      35.305  19.545  25.179  1.00  0.00     0.164 HD
BRANCH  33  35
ATOM     35  C   UNL A   1      33.506  18.794  24.544  1.00  0.00     0.032 C 
ATOM     36  C   UNL A   1      34.351  17.650  23.945  1.00  0.00     0.034 C 
ATOM     37  C   UNL A   1      32.677  18.156  25.682  1.00  0.00     0.034 C 
ATOM     38  C   UNL A   1      32.522  19.321  23.498  1.00  0.00     0.034 C 
ENDBRANCH  33  35
ENDBRANCH  30  31
ENDBRANCH  28  30
ENDBRANCH   9  23
ENDBRANCH   3   6
ENDBRANCH   1   2
BRANCH   1  39
ATOM     39  C   UNL A   1      35.290  32.327  27.984  1.00  0.00     0.023 C 
BRANCH  39  40
ATOM     40  C   UNL A   1      35.468  33.164  29.246  1.00  0.00     0.023 C 
BRANCH  40  41
ATOM     41  C   UNL A   1      34.496  32.788  30.352  1.00  0.00     0.116 C 
BRANCH  41  42
ATOM     42  N   UNL A   1      33.955  33.912  31.104  1.00  0.00    -0.352 N 
ATOM     43  C   UNL A   1      34.431  34.512  32.261  1.00  0.00     0.251 C 
ATOM     44  H   UNL A   1      33.130  34.304  30.736  1.00  0.00     0.163 HD
ATOM     45  O   UNL A   1      33.782  35.385  32.807  1.00  0.00    -0.269 OA
BRANCH  43  46
ATOM     46  C   UNL A   1      35.800  34.191  32.750  1.00  0.00     0.039 A 
ATOM     47  C   UNL A   1      36.880  34.847  32.142  1.00  0.00     0.014 A 
ATOM     48  C   UNL A   1      36.033  33.127  33.613  1.00  0.00     0.014 A 
ATOM     49  C   UNL A   1      38.147  34.269  32.188  1.00  0.00     0.010 A 
ATOM     50  C   UNL A   1      37.253  32.487  33.561  1.00  0.00     0.010 A 
ATOM     51  C   UNL A   1      38.287  33.022  32.789  1.00  0.00    -0.014 A 
BRANCH  51  52
ATOM     52  C   UNL A   1      39.403  32.122  32.532  1.00  0.00     0.031 A 
ATOM     53  C   UNL A   1      39.249  30.946  31.658  1.00  0.00     0.074 A 
ATOM     54  C   UNL A   1      40.630  32.502  32.950  1.00  0.00     0.049 A 
ATOM     55  N   UNL A   1      40.098  29.977  31.592  1.00  0.00    -0.248 NA
ATOM     56  C   UNL A   1      38.091  30.754  30.801  1.00  0.00     0.031 C 
ATOM     57  C   UNL A   1      41.924  32.014  32.486  1.00  0.00     0.029 A 
ATOM     58  N   UNL A   1      40.933  33.324  34.045  1.00  0.00    -0.354 N 
ATOM     59  C   UNL A   1      39.759  29.192  30.515  1.00  0.00     0.074 A 
ATOM     60  C   UNL A   1      38.465  29.683  30.096  1.00  0.00     0.031 C 
ATOM     61  C   UNL A   1      42.850  32.297  33.415  1.00  0.00     0.029 A 
ATOM     62  C   UNL A   1      42.147  32.831  34.566  1.00  0.00     0.049 A 
ATOM     63  H   UNL A   1      40.409  34.085  34.380  1.00  0.00     0.167 HD
ATOM     64  C   UNL A   1      40.681  28.310  30.027  1.00  0.00     0.037 A 
ATOM     65  C   UNL A   1      42.243  32.345  35.836  1.00  0.00     0.037 A 
ATOM     66  C   UNL A   1      41.882  28.290  30.870  1.00  0.00     0.049 A 
ATOM     67  C   UNL A   1      42.706  30.913  35.863  1.00  0.00     0.074 A 
ATOM     68  C   UNL A   1      43.124  28.891  30.743  1.00  0.00     0.029 A 
ATOM     69  N   UNL A   1      41.796  27.847  32.189  1.00  0.00    -0.354 N 
ATOM     70  N   UNL A   1      42.564  30.097  34.855  1.00  0.00    -0.248 NA
ATOM     71  C   UNL A   1      43.372  30.296  37.003  1.00  0.00     0.031 C 
ATOM     72  C   UNL A   1      43.767  28.850  32.005  1.00  0.00     0.029 A 
ATOM     73  C   UNL A   1      42.928  28.204  32.898  1.00  0.00     0.049 A 
ATOM     74  H   UNL A   1      41.035  27.347  32.563  1.00  0.00     0.167 HD
ATOM     75  C   UNL A   1      43.107  28.884  35.177  1.00  0.00     0.074 A 
ATOM     76  C   UNL A   1      43.603  29.058  36.530  1.00  0.00     0.031 C 
ATOM     77  C   UNL A   1      43.101  27.838  34.298  1.00  0.00     0.037 A 
BRANCH  64  78
ATOM     78  C   UNL A   1      40.622  27.703  28.635  1.00  0.00     0.064 A 
ATOM     79  C   UNL A   1      39.932  26.492  28.397  1.00  0.00     0.173 A 
ATOM     80  C   UNL A   1      41.279  28.222  27.503  1.00  0.00     0.173 A 
ATOM     81  F   UNL A   1      39.155  25.932  29.333  1.00  0.00    -0.203 F 
ATOM     82  C   UNL A   1      40.010  25.803  27.181  1.00  0.00     0.198 A 
ATOM     83  C   UNL A   1      41.408  27.507  26.307  1.00  0.00     0.198 A 
ATOM     84  F   UNL A   1      41.758  29.470  27.488  1.00  0.00    -0.203 F 
ATOM     85  F   UNL A   1      39.338  24.653  27.024  1.00  0.00    -0.200 F 
ATOM     86  C   UNL A   1      40.783  26.289  26.150  1.00  0.00     0.200 A 
ATOM     87  F   UNL A   1      42.139  28.016  25.305  1.00  0.00    -0.200 F 
ATOM     88  F   UNL A   1      40.897  25.608  25.001  1.00  0.00    -0.200 F 
ENDBRANCH  64  78
BRANCH  65  89
ATOM     89  C   UNL A   1      41.289  32.982  36.782  1.00  0.00     0.064 A 
ATOM     90  C   UNL A   1      41.696  34.174  37.412  1.00  0.00     0.173 A 
ATOM     91  C   UNL A   1      39.917  32.715  36.731  1.00  0.00     0.173 A 
ATOM     92  F   UNL A   1      43.003  34.462  37.511  1.00  0.00    -0.203 F 
ATOM     93  C   UNL A   1      40.771  35.132  37.819  1.00  0.00     0.198 A 
ATOM     94  C   UNL A   1      38.991  33.666  37.170  1.00  0.00     0.198 A 
ATOM     95  F   UNL A   1      39.466  31.601  36.140  1.00  0.00    -0.203 F 
ATOM     96  F   UNL A   1      41.198  36.322  38.267  1.00  0.00    -0.200 F 
ATOM     97  C   UNL A   1      39.418  34.889  37.669  1.00  0.00     0.200 A 
ATOM     98  F   UNL A   1      37.679  33.442  37.007  1.00  0.00    -0.200 F 
ATOM     99  F   UNL A   1      38.527  35.848  37.960  1.00  0.00    -0.200 F 
ENDBRANCH  65  89
BRANCH  77 100
ATOM    100  C   UNL A   1      43.372  26.398  34.656  1.00  0.00     0.064 A 
ATOM    101  C   UNL A   1      42.370  25.490  35.040  1.00  0.00     0.173 A 
ATOM    102  C   UNL A   1      44.657  25.836  34.462  1.00  0.00     0.173 A 
ATOM    103  F   UNL A   1      41.087  25.863  35.136  1.00  0.00    -0.203 F 
ATOM    104  C   UNL A   1      42.643  24.141  35.277  1.00  0.00     0.198 A 
ATOM    105  C   UNL A   1      44.913  24.479  34.640  1.00  0.00     0.198 A 
ATOM    106  F   UNL A   1      45.696  26.583  34.062  1.00  0.00    -0.203 F 
ATOM    107  F   UNL A   1      41.659  23.328  35.684  1.00  0.00    -0.200 F 
ATOM    108  C   UNL A   1      43.910  23.632  35.064  1.00  0.00     0.200 A 
ATOM    109  F   UNL A   1      46.133  23.991  34.373  1.00  0.00    -0.200 F 
ATOM    110  F   UNL A   1      44.156  22.328  35.243  1.00  0.00    -0.200 F 
ENDBRANCH  77 100
ENDBRANCH  51  52
ENDBRANCH  43  46
ENDBRANCH  41  42
ENDBRANCH  40  41
ENDBRANCH  39  40
ENDBRANCH   1  39
TORSDOF 17
ENDMDL
MODEL 3
REMARK VINA RESULT:     -13.8      4.299     10.733
REMARK SMILES Cc1cccc(C(=O)Nc2cc(C(=O)NCCCCNC(=O)c3ccc(-c4c5nc(c(-c6c(F)c(F)c(F)c(F)c6F)c6ccc([nH]6)c(-c6c(F)c(F)c(F)c(F)c6F)c6nc(c(-c7c(F)c(F)c(F)c(F)c7F)c7ccc4[nH]7)C=C6)C=C5)cc3)ccc2N2CC[NH+](CC(=O)NC(C)(C)C)CC2)c1
REMARK SMILES IDX 16 1 15 2 13 3 14 4 12 6 10 7 11 8 88 9 87 10 86 11 9 12
REMARK SMILES IDX 7 13 8 14 6 16 1 17 2 18 3 19 103 20 4 21 5 22 89 23 90 24
REMARK SMILES IDX 102 25 91 26 101 27 92 28 93 30 94 31 95 32 96 33 97 35
REMARK SMILES IDX 98 36 99 37 100 38 17 39 18 40 19 41 20 42 21 43 22 45 23 46
REMARK SMILES IDX 24 47 85 48 25 49 84 50 26 51 27 52 28 53 78 54 29 55 83 56
REMARK SMILES IDX 77 57 79 58 30 59 82 60 76 61 75 62 31 64 63 65 43 66 62 67
REMARK SMILES IDX 44 68 47 69 61 70 80 71 45 72 46 73 60 75 81 76 48 77 32 78
REMARK SMILES IDX 33 79 41 80 34 81 35 82 39 83 42 84 36 85 37 86 40 87 38 88
REMARK SMILES IDX 64 89 65 90 73 91 66 92 67 93 71 94 74 95 68 96 69 97 72 98
REMARK SMILES IDX 70 99 49 100 50 101 58 102 51 103 52 104 56 105 59 106
REMARK SMILES IDX 53 107 54 108 57 109 55 110
REMARK H PARENT 15 5 9 15 92 29 96 34 20 44 79 63 47 74
REMARK Flexibility Score: inf
ROOT
ATOM      1  C   UNL A   1      34.494  31.202  27.424  1.00  0.00     0.116 C 
ENDROOT
BRANCH   1   2
ATOM      2  N   UNL A   1      33.203  31.747  27.024  1.00  0.00    -0.352 N 
ATOM      3  C   UNL A   1      32.001  31.190  26.642  1.00  0.00     0.251 C 
ATOM      4  O   UNL A   1      31.050  31.964  26.509  1.00  0.00    -0.269 OA
ATOM      5  H   UNL A   1      33.185  32.732  27.027  1.00  0.00     0.163 HD
BRANCH   3   6
ATOM      6  C   UNL A   1      31.768  29.732  26.413  1.00  0.00     0.042 A 
ATOM      7  C   UNL A   1      31.536  27.811  24.970  1.00  0.00     0.065 A 
ATOM      8  C   UNL A   1      31.563  29.187  25.161  1.00  0.00     0.042 A 
ATOM      9  C   UNL A   1      31.543  26.896  26.043  1.00  0.00     0.061 A 
ATOM     10  C   UNL A   1      31.656  27.446  27.321  1.00  0.00     0.029 A 
ATOM     11  C   UNL A   1      31.805  28.841  27.500  1.00  0.00     0.016 A 
BRANCH   7  12
ATOM     12  N   UNL A   1      31.604  27.331  23.651  1.00  0.00    -0.320 N 
ATOM     13  C   UNL A   1      30.797  27.699  22.586  1.00  0.00     0.255 C 
ATOM     14  O   UNL A   1      31.108  27.335  21.452  1.00  0.00    -0.269 OA
ATOM     15  H   UNL A   1      32.300  26.661  23.464  1.00  0.00     0.170 HD
BRANCH  13  16
ATOM     16  C   UNL A   1      29.591  28.569  22.746  1.00  0.00     0.040 A 
ATOM     17  C   UNL A   1      28.450  32.219  22.925  1.00  0.00     0.044 C 
ATOM     18  C   UNL A   1      28.426  30.717  22.908  1.00  0.00    -0.050 A 
ATOM     19  C   UNL A   1      27.278  30.046  23.328  1.00  0.00     0.003 A 
ATOM     20  C   UNL A   1      29.557  29.963  22.550  1.00  0.00     0.017 A 
ATOM     21  C   UNL A   1      27.274  28.657  23.402  1.00  0.00     0.001 A 
ATOM     22  C   UNL A   1      28.420  27.919  23.130  1.00  0.00     0.014 A 
ENDBRANCH  13  16
ENDBRANCH   7  12
BRANCH   9  23
ATOM     23  N   UNL A   1      31.582  25.536  25.793  1.00  0.00    -0.359 N 
ATOM     24  C   UNL A   1      30.527  24.567  26.125  1.00  0.00     0.178 C 
ATOM     25  C   UNL A   1      32.904  24.911  25.770  1.00  0.00     0.178 C 
ATOM     26  C   UNL A   1      30.652  23.293  25.211  1.00  0.00     0.284 C 
ATOM     27  C   UNL A   1      32.927  23.891  24.620  1.00  0.00     0.284 C 
ATOM     28  N   UNL A   1      31.994  22.784  24.831  1.00  0.00    -0.324 N 
ATOM     29  H   UNL A   1      31.837  22.304  23.945  1.00  0.00     0.348 HD
BRANCH  28  30
ATOM     30  C   UNL A   1      32.561  21.694  25.646  1.00  0.00     0.363 C 
BRANCH  30  31
ATOM     31  C   UNL A   1      33.291  20.600  24.875  1.00  0.00     0.275 C 
ATOM     32  O   UNL A   1      32.652  19.633  24.436  1.00  0.00    -0.268 OA
ATOM     33  N   UNL A   1      34.631  20.586  24.631  1.00  0.00    -0.347 N 
ATOM     34  H   UNL A   1      34.854  19.850  24.018  1.00  0.00     0.164 HD
BRANCH  33  35
ATOM     35  C   UNL A   1      35.868  21.335  25.001  1.00  0.00     0.032 C 
ATOM     36  C   UNL A   1      37.109  20.419  25.002  1.00  0.00     0.034 C 
ATOM     37  C   UNL A   1      36.101  22.362  23.869  1.00  0.00     0.034 C 
ATOM     38  C   UNL A   1      35.790  22.113  26.316  1.00  0.00     0.034 C 
ENDBRANCH  33  35
ENDBRANCH  30  31
ENDBRANCH  28  30
ENDBRANCH   9  23
ENDBRANCH   3   6
ENDBRANCH   1   2
BRANCH   1  39
ATOM     39  C   UNL A   1      34.889  31.540  28.872  1.00  0.00     0.023 C 
BRANCH  39  40
ATOM     40  C   UNL A   1      34.522  32.954  29.306  1.00  0.00     0.023 C 
BRANCH  40  41
ATOM     41  C   UNL A   1      34.462  33.118  30.816  1.00  0.00     0.116 C 
BRANCH  41  42
ATOM     42  N   UNL A   1      35.477  33.996  31.379  1.00  0.00    -0.352 N 
ATOM     43  C   UNL A   1      36.807  33.734  31.676  1.00  0.00     0.251 C 
ATOM     44  H   UNL A   1      35.175  34.912  31.580  1.00  0.00     0.163 HD
ATOM     45  O   UNL A   1      37.483  34.573  32.243  1.00  0.00    -0.269 OA
BRANCH  43  46
ATOM     46  C   UNL A   1      37.444  32.488  31.169  1.00  0.00     0.039 A 
ATOM     47  C   UNL A   1      37.453  31.369  32.014  1.00  0.00     0.014 A 
ATOM     48  C   UNL A   1      38.199  32.480  30.002  1.00  0.00     0.014 A 
ATOM     49  C   UNL A   1      38.414  30.377  31.828  1.00  0.00     0.010 A 
ATOM     50  C   UNL A   1      39.227  31.569  29.884  1.00  0.00     0.010 A 
ATOM     51  C   UNL A   1      39.375  30.560  30.839  1.00  0.00    -0.014 A 
BRANCH  51  52
ATOM     52  C   UNL A   1      40.655  29.865  30.819  1.00  0.00     0.031 A 
ATOM     53  C   UNL A   1      40.843  28.633  30.034  1.00  0.00     0.074 A 
ATOM     54  C   UNL A   1      41.719  30.487  31.372  1.00  0.00     0.049 A 
ATOM     55  N   UNL A   1      41.845  27.833  30.170  1.00  0.00    -0.248 NA
ATOM     56  C   UNL A   1      39.881  28.184  29.040  1.00  0.00     0.031 C 
ATOM     57  C   UNL A   1      43.134  30.218  31.139  1.00  0.00     0.029 A 
ATOM     58  N   UNL A   1      41.704  31.411  32.426  1.00  0.00    -0.354 N 
ATOM     59  C   UNL A   1      41.817  26.938  29.125  1.00  0.00     0.074 A 
ATOM     60  C   UNL A   1      40.538  27.160  28.488  1.00  0.00     0.031 C 
ATOM     61  C   UNL A   1      43.843  30.718  32.162  1.00  0.00     0.029 A 
ATOM     62  C   UNL A   1      42.889  31.179  33.153  1.00  0.00     0.049 A 
ATOM     63  H   UNL A   1      41.010  32.082  32.619  1.00  0.00     0.167 HD
ATOM     64  C   UNL A   1      42.941  26.213  28.849  1.00  0.00     0.037 A 
ATOM     65  C   UNL A   1      42.871  30.793  34.460  1.00  0.00     0.037 A 
ATOM     66  C   UNL A   1      43.983  26.462  29.851  1.00  0.00     0.049 A 
ATOM     67  C   UNL A   1      43.564  29.475  34.673  1.00  0.00     0.074 A 
ATOM     68  C   UNL A   1      45.108  27.272  29.851  1.00  0.00     0.029 A 
ATOM     69  N   UNL A   1      43.773  26.088  31.178  1.00  0.00    -0.354 N 
ATOM     70  N   UNL A   1      43.721  28.589  33.727  1.00  0.00    -0.248 NA
ATOM     71  C   UNL A   1      44.143  29.056  35.943  1.00  0.00     0.031 C 
ATOM     72  C   UNL A   1      45.546  27.421  31.191  1.00  0.00     0.029 A 
ATOM     73  C   UNL A   1      44.703  26.686  32.007  1.00  0.00     0.049 A 
ATOM     74  H   UNL A   1      43.060  25.479  31.481  1.00  0.00     0.167 HD
ATOM     75  C   UNL A   1      44.409  27.516  34.223  1.00  0.00     0.074 A 
ATOM     76  C   UNL A   1      44.653  27.856  35.613  1.00  0.00     0.031 C 
ATOM     77  C   UNL A   1      44.719  26.439  33.444  1.00  0.00     0.037 A 
BRANCH  64  78
ATOM     78  C   UNL A   1      43.203  25.527  27.519  1.00  0.00     0.064 A 
ATOM     79  C   UNL A   1      42.573  24.304  27.194  1.00  0.00     0.173 A 
ATOM     80  C   UNL A   1      44.113  25.981  26.545  1.00  0.00     0.173 A 
ATOM     81  F   UNL A   1      41.591  23.798  27.951  1.00  0.00    -0.203 F 
ATOM     82  C   UNL A   1      42.925  23.546  26.071  1.00  0.00     0.198 A 
ATOM     83  C   UNL A   1      44.510  25.198  25.455  1.00  0.00     0.198 A 
ATOM     84  F   UNL A   1      44.598  27.227  26.572  1.00  0.00    -0.203 F 
ATOM     85  F   UNL A   1      42.295  22.388  25.826  1.00  0.00    -0.200 F 
ATOM     86  C   UNL A   1      43.925  23.973  25.225  1.00  0.00     0.200 A 
ATOM     87  F   UNL A   1      45.462  25.649  24.625  1.00  0.00    -0.200 F 
ATOM     88  F   UNL A   1      44.296  23.226  24.175  1.00  0.00    -0.200 F 
ENDBRANCH  64  78
BRANCH  65  89
ATOM     89  C   UNL A   1      41.687  31.298  35.205  1.00  0.00     0.064 A 
ATOM     90  C   UNL A   1      41.671  32.663  35.552  1.00  0.00     0.173 A 
ATOM     91  C   UNL A   1      40.461  30.625  35.178  1.00  0.00     0.173 A 
ATOM     92  F   UNL A   1      42.824  33.346  35.620  1.00  0.00    -0.203 F 
ATOM     93  C   UNL A   1      40.474  33.361  35.699  1.00  0.00     0.198 A 
ATOM     94  C   UNL A   1      39.263  31.322  35.357  1.00  0.00     0.198 A 
ATOM     95  F   UNL A   1      40.409  29.327  34.849  1.00  0.00    -0.203 F 
ATOM     96  F   UNL A   1      40.496  34.690  35.871  1.00  0.00    -0.200 F 
ATOM     97  C   UNL A   1      39.269  32.694  35.572  1.00  0.00     0.200 A 
ATOM     98  F   UNL A   1      38.093  30.683  35.213  1.00  0.00    -0.200 F 
ATOM     99  F   UNL A   1      38.117  33.378  35.607  1.00  0.00    -0.200 F 
ENDBRANCH  65  89
BRANCH  77 100
ATOM    100  C   UNL A   1      45.175  25.095  33.956  1.00  0.00     0.064 A 
ATOM    101  C   UNL A   1      44.303  24.022  34.210  1.00  0.00     0.173 A 
ATOM    102  C   UNL A   1      46.554  24.792  34.054  1.00  0.00     0.173 A 
ATOM    103  F   UNL A   1      42.981  24.137  34.031  1.00  0.00    -0.203 F 
ATOM    104  C   UNL A   1      44.769  22.764  34.598  1.00  0.00     0.198 A 
ATOM    105  C   UNL A   1      47.018  23.519  34.381  1.00  0.00     0.198 A 
ATOM    106  F   UNL A   1      47.496  25.713  33.803  1.00  0.00    -0.203 F 
ATOM    107  F   UNL A   1      43.892  21.789  34.871  1.00  0.00    -0.200 F 
ATOM    108  C   UNL A   1      46.125  22.508  34.670  1.00  0.00     0.200 A 
ATOM    109  F   UNL A   1      48.335  23.273  34.390  1.00  0.00    -0.200 F 
ATOM    110  F   UNL A   1      46.568  21.286  34.992  1.00  0.00    -0.200 F 
ENDBRANCH  77 100
ENDBRANCH  51  52
ENDBRANCH  43  46
ENDBRANCH  41  42
ENDBRANCH  40  41
ENDBRANCH  39  40
ENDBRANCH   1  39
TORSDOF 17
ENDMDL
