MODEL 1
REMARK VINA RESULT:     -11.7      0.000      0.000
REMARK SMILES C[C@H](CNS(=O)(=O)c1ccc(C(=O)NCCCCNC(=O)c2ccc(-c3c4nc(c(-c5c(F)c(F)c(F)c(F)c5F)c5ccc([nH]5)c(-c5c(F)c(F)c(F)c(F)c5F)c5nc(c(-c6c(F)c(F)c(F)c(F)c6F)c6ccc3[nH]6)C=C5)C=C4)cc2)cc1F)[NH+](C)C
REMARK SMILES IDX 15 1 14 2 12 3 13 4 11 6 8 7 9 8 86 9 10 10 85 11 87 12 5 13
REMARK SMILES IDX 6 14 7 15 4 16 3 18 2 19 1 20 88 21 89 22 90 23 16 25 17 26
REMARK SMILES IDX 18 27 19 28 20 29 21 31 22 32 23 33 84 34 24 35 83 36 25 37
REMARK SMILES IDX 26 38 27 39 77 40 28 41 82 42 76 43 78 44 29 45 81 46 75 47
REMARK SMILES IDX 74 48 30 50 62 51 42 52 61 53 43 54 46 55 60 56 79 57 44 58
REMARK SMILES IDX 45 59 59 61 80 62 47 63 31 64 32 65 40 66 33 67 34 68 38 69
REMARK SMILES IDX 41 70 35 71 36 72 39 73 37 74 63 75 64 76 72 77 65 78 66 79
REMARK SMILES IDX 70 80 73 81 67 82 68 83 71 84 69 85 48 86 49 87 57 88 50 89
REMARK SMILES IDX 51 90 55 91 58 92 52 93 53 94 56 95 54 96
REMARK H PARENT 14 5 4 17 88 24 19 30 78 49 46 60
REMARK Flexibility Score: inf
ROOT
ATOM      1  C   UNL A   1      37.457  21.837  25.450  1.00  0.00     0.116 C 
ENDROOT
BRANCH   1   2
ATOM      2  N   UNL A   1      36.328  21.970  26.346  1.00  0.00    -0.352 N 
ATOM      3  C   UNL A   1      35.135  22.633  26.238  1.00  0.00     0.251 C 
ATOM      4  O   UNL A   1      34.378  22.597  27.209  1.00  0.00    -0.269 OA
ATOM      5  H   UNL A   1      36.439  21.490  27.198  1.00  0.00     0.163 HD
BRANCH   3   6
ATOM      6  C   UNL A   1      34.683  23.329  25.000  1.00  0.00     0.042 A 
ATOM      7  C   UNL A   1      33.749  24.841  22.830  1.00  0.00     0.118 A 
ATOM      8  C   UNL A   1      34.328  25.489  23.919  1.00  0.00     0.026 A 
ATOM      9  C   UNL A   1      33.689  23.456  22.796  1.00  0.00     0.144 A 
ATOM     10  C   UNL A   1      34.792  24.732  24.997  1.00  0.00     0.015 A 
ATOM     11  C   UNL A   1      34.180  22.698  23.860  1.00  0.00     0.054 A 
ATOM     12  F   UNL A   1      33.185  22.807  21.737  1.00  0.00    -0.205 F 
BRANCH   7  13
ATOM     13  S   UNL A   1      33.049  25.766  21.507  1.00  0.00     0.243 S 
ATOM     14  O   UNL A   1      33.258  25.018  20.284  1.00  0.00    -0.207 OA
ATOM     15  O   UNL A   1      33.484  27.136  21.632  1.00  0.00    -0.207 OA
BRANCH  13  16
ATOM     16  N   UNL A   1      31.414  25.732  21.847  1.00  0.00    -0.205 NA
ATOM     17  H   UNL A   1      30.936  26.117  21.032  1.00  0.00     0.141 HD
BRANCH  16  18
ATOM     18  C   UNL A   1      30.890  26.443  23.022  1.00  0.00     0.163 C 
BRANCH  18  19
ATOM     19  C   UNL A   1      30.429  25.417  24.094  1.00  0.00     0.195 C 
ATOM     20  C   UNL A   1      30.300  24.011  23.483  1.00  0.00     0.076 C 
BRANCH  19  21
ATOM     21  N   UNL A   1      31.249  25.488  25.328  1.00  0.00    -0.337 N 
ATOM     22  C   UNL A   1      30.931  26.674  26.127  1.00  0.00     0.332 C 
ATOM     23  C   UNL A   1      31.197  24.290  26.165  1.00  0.00     0.332 C 
ATOM     24  H   UNL A   1      32.207  25.558  24.987  1.00  0.00     0.347 HD
ENDBRANCH  19  21
ENDBRANCH  18  19
ENDBRANCH  16  18
ENDBRANCH  13  16
ENDBRANCH   7  13
ENDBRANCH   3   6
ENDBRANCH   1   2
BRANCH   1  25
ATOM     25  C   UNL A   1      37.332  20.542  24.645  1.00  0.00     0.023 C 
BRANCH  25  26
ATOM     26  C   UNL A   1      38.262  19.426  25.132  1.00  0.00     0.023 C 
BRANCH  26  27
ATOM     27  C   UNL A   1      39.509  19.915  25.857  1.00  0.00     0.116 C 
BRANCH  27  28
ATOM     28  N   UNL A   1      40.590  18.942  25.855  1.00  0.00    -0.352 N 
ATOM     29  C   UNL A   1      41.930  19.161  26.061  1.00  0.00     0.251 C 
ATOM     30  H   UNL A   1      40.328  18.008  25.684  1.00  0.00     0.163 HD
ATOM     31  O   UNL A   1      42.744  18.259  25.897  1.00  0.00    -0.269 OA
BRANCH  29  32
ATOM     32  C   UNL A   1      42.379  20.511  26.450  1.00  0.00     0.039 A 
ATOM     33  C   UNL A   1      42.804  21.393  25.456  1.00  0.00     0.014 A 
ATOM     34  C   UNL A   1      42.344  20.909  27.789  1.00  0.00     0.014 A 
ATOM     35  C   UNL A   1      43.152  22.698  25.804  1.00  0.00     0.010 A 
ATOM     36  C   UNL A   1      42.601  22.233  28.120  1.00  0.00     0.010 A 
ATOM     37  C   UNL A   1      43.027  23.135  27.134  1.00  0.00    -0.014 A 
BRANCH  37  38
ATOM     38  C   UNL A   1      43.379  24.524  27.520  1.00  0.00     0.031 A 
ATOM     39  C   UNL A   1      44.821  24.949  27.549  1.00  0.00     0.074 A 
ATOM     40  C   UNL A   1      42.409  25.386  27.879  1.00  0.00     0.049 A 
ATOM     41  N   UNL A   1      45.335  26.102  27.890  1.00  0.00    -0.248 NA
ATOM     42  C   UNL A   1      45.821  23.936  27.173  1.00  0.00     0.031 C 
ATOM     43  C   UNL A   1      40.980  25.075  27.932  1.00  0.00     0.029 A 
ATOM     44  N   UNL A   1      42.478  26.700  28.266  1.00  0.00    -0.354 N 
ATOM     45  C   UNL A   1      46.710  25.948  27.778  1.00  0.00     0.074 A 
ATOM     46  C   UNL A   1      46.957  24.574  27.408  1.00  0.00     0.031 C 
ATOM     47  C   UNL A   1      40.304  26.177  28.291  1.00  0.00     0.029 A 
ATOM     48  C   UNL A   1      41.252  27.261  28.533  1.00  0.00     0.049 A 
ATOM     49  H   UNL A   1      43.325  27.195  28.346  1.00  0.00     0.167 HD
ATOM     50  C   UNL A   1      47.679  26.881  27.936  1.00  0.00     0.037 A 
ATOM     51  C   UNL A   1      40.930  28.509  28.925  1.00  0.00     0.037 A 
ATOM     52  C   UNL A   1      47.424  28.254  28.279  1.00  0.00     0.049 A 
ATOM     53  C   UNL A   1      42.026  29.526  29.102  1.00  0.00     0.074 A 
ATOM     54  C   UNL A   1      48.332  29.288  28.420  1.00  0.00     0.029 A 
ATOM     55  N   UNL A   1      46.168  28.785  28.534  1.00  0.00    -0.354 N 
ATOM     56  N   UNL A   1      43.319  29.384  28.942  1.00  0.00    -0.248 NA
ATOM     57  C   UNL A   1      41.616  30.879  29.502  1.00  0.00     0.031 C 
ATOM     58  C   UNL A   1      47.634  30.429  28.819  1.00  0.00     0.029 A 
ATOM     59  C   UNL A   1      46.281  30.129  28.851  1.00  0.00     0.049 A 
ATOM     60  H   UNL A   1      45.322  28.282  28.495  1.00  0.00     0.167 HD
ATOM     61  C   UNL A   1      43.874  30.634  29.185  1.00  0.00     0.074 A 
ATOM     62  C   UNL A   1      42.775  31.524  29.497  1.00  0.00     0.031 C 
ATOM     63  C   UNL A   1      45.176  31.009  29.143  1.00  0.00     0.037 A 
BRANCH  50  64
ATOM     64  C   UNL A   1      49.104  26.453  27.727  1.00  0.00     0.064 A 
ATOM     65  C   UNL A   1      49.950  26.233  28.824  1.00  0.00     0.173 A 
ATOM     66  C   UNL A   1      49.651  26.319  26.441  1.00  0.00     0.173 A 
ATOM     67  F   UNL A   1      49.480  26.350  30.075  1.00  0.00    -0.203 F 
ATOM     68  C   UNL A   1      51.292  25.910  28.642  1.00  0.00     0.198 A 
ATOM     69  C   UNL A   1      50.985  25.961  26.263  1.00  0.00     0.198 A 
ATOM     70  F   UNL A   1      48.884  26.504  25.356  1.00  0.00    -0.203 F 
ATOM     71  F   UNL A   1      52.088  25.741  29.707  1.00  0.00    -0.200 F 
ATOM     72  C   UNL A   1      51.807  25.768  27.363  1.00  0.00     0.200 A 
ATOM     73  F   UNL A   1      51.472  25.793  25.026  1.00  0.00    -0.200 F 
ATOM     74  F   UNL A   1      53.095  25.442  27.190  1.00  0.00    -0.200 F 
ENDBRANCH  50  64
BRANCH  51  75
ATOM     75  C   UNL A   1      39.502  28.868  29.121  1.00  0.00     0.064 A 
ATOM     76  C   UNL A   1      38.723  29.372  28.069  1.00  0.00     0.173 A 
ATOM     77  C   UNL A   1      38.897  28.753  30.381  1.00  0.00     0.173 A 
ATOM     78  F   UNL A   1      39.255  29.510  26.845  1.00  0.00    -0.203 F 
ATOM     79  C   UNL A   1      37.403  29.768  28.274  1.00  0.00     0.198 A 
ATOM     80  C   UNL A   1      37.568  29.121  30.580  1.00  0.00     0.198 A 
ATOM     81  F   UNL A   1      39.594  28.260  31.415  1.00  0.00    -0.203 F 
ATOM     82  F   UNL A   1      36.694  30.285  27.262  1.00  0.00    -0.200 F 
ATOM     83  C   UNL A   1      36.825  29.638  29.528  1.00  0.00     0.200 A 
ATOM     84  F   UNL A   1      37.007  28.971  31.786  1.00  0.00    -0.200 F 
ATOM     85  F   UNL A   1      35.553  30.009  29.723  1.00  0.00    -0.200 F 
ENDBRANCH  51  75
BRANCH  63  86
ATOM     86  C   UNL A   1      45.500  32.455  29.389  1.00  0.00     0.064 A 
ATOM     87  C   UNL A   1      45.741  32.909  30.696  1.00  0.00     0.173 A 
ATOM     88  C   UNL A   1      45.487  33.405  28.357  1.00  0.00     0.173 A 
ATOM     89  F   UNL A   1      45.753  32.044  31.722  1.00  0.00    -0.203 F 
ATOM     90  C   UNL A   1      45.940  34.260  30.961  1.00  0.00     0.198 A 
ATOM     91  C   UNL A   1      45.723  34.751  28.622  1.00  0.00     0.198 A 
ATOM     92  F   UNL A   1      45.270  33.023  27.090  1.00  0.00    -0.203 F 
ATOM     93  F   UNL A   1      46.124  34.674  32.223  1.00  0.00    -0.200 F 
ATOM     94  C   UNL A   1      45.937  35.179  29.924  1.00  0.00     0.200 A 
ATOM     95  F   UNL A   1      45.746  35.636  27.615  1.00  0.00    -0.200 F 
ATOM     96  F   UNL A   1      46.141  36.480  30.179  1.00  0.00    -0.200 F 
ENDBRANCH  63  86
ENDBRANCH  37  38
ENDBRANCH  29  32
ENDBRANCH  27  28
ENDBRANCH  26  27
ENDBRANCH  25  26
ENDBRANCH   1  25
TORSDOF 16
ENDMDL
MODEL 2
REMARK VINA RESULT:     -11.7      1.159      7.445
REMARK SMILES C[C@H](CNS(=O)(=O)c1ccc(C(=O)NCCCCNC(=O)c2ccc(-c3c4nc(c(-c5c(F)c(F)c(F)c(F)c5F)c5ccc([nH]5)c(-c5c(F)c(F)c(F)c(F)c5F)c5nc(c(-c6c(F)c(F)c(F)c(F)c6F)c6ccc3[nH]6)C=C5)C=C4)cc2)cc1F)[NH+](C)C
REMARK SMILES IDX 15 1 14 2 12 3 13 4 11 6 8 7 9 8 86 9 10 10 85 11 87 12 5 13
REMARK SMILES IDX 6 14 7 15 4 16 3 18 2 19 1 20 88 21 89 22 90 23 16 25 17 26
REMARK SMILES IDX 18 27 19 28 20 29 21 31 22 32 23 33 84 34 24 35 83 36 25 37
REMARK SMILES IDX 26 38 27 39 77 40 28 41 82 42 76 43 78 44 29 45 81 46 75 47
REMARK SMILES IDX 74 48 30 50 62 51 42 52 61 53 43 54 46 55 60 56 79 57 44 58
REMARK SMILES IDX 45 59 59 61 80 62 47 63 31 64 32 65 40 66 33 67 34 68 38 69
REMARK SMILES IDX 41 70 35 71 36 72 39 73 37 74 63 75 64 76 72 77 65 78 66 79
REMARK SMILES IDX 70 80 73 81 67 82 68 83 71 84 69 85 48 86 49 87 57 88 50 89
REMARK SMILES IDX 51 90 55 91 58 92 52 93 53 94 56 95 54 96
REMARK H PARENT 14 5 4 17 88 24 19 30 78 49 46 60
REMARK Flexibility Score: inf
ROOT
ATOM      1  C   UNL A   1      37.005  22.256  25.616  1.00  0.00     0.116 C 
ENDROOT
BRANCH   1   2
ATOM      2  N   UNL A   1      35.847  22.221  26.485  1.00  0.00    -0.352 N 
ATOM      3  C   UNL A   1      34.664  22.910  26.476  1.00  0.00     0.251 C 
ATOM      4  O   UNL A   1      33.874  22.689  27.395  1.00  0.00    -0.269 OA
ATOM      5  H   UNL A   1      35.926  21.577  27.225  1.00  0.00     0.163 HD
BRANCH   3   6
ATOM      6  C   UNL A   1      34.259  23.848  25.391  1.00  0.00     0.042 A 
ATOM      7  C   UNL A   1      33.595  25.430  23.172  1.00  0.00     0.118 A 
ATOM      8  C   UNL A   1      33.489  24.044  23.082  1.00  0.00     0.026 A 
ATOM      9  C   UNL A   1      33.972  26.023  24.369  1.00  0.00     0.144 A 
ATOM     10  C   UNL A   1      33.820  23.261  24.190  1.00  0.00     0.015 A 
ATOM     11  C   UNL A   1      34.273  25.241  25.483  1.00  0.00     0.054 A 
ATOM     12  F   UNL A   1      34.031  27.356  24.496  1.00  0.00    -0.205 F 
BRANCH   7  13
ATOM     13  S   UNL A   1      33.299  26.444  21.765  1.00  0.00     0.243 S 
ATOM     14  O   UNL A   1      33.091  25.573  20.627  1.00  0.00    -0.207 OA
ATOM     15  O   UNL A   1      34.298  27.485  21.739  1.00  0.00    -0.207 OA
BRANCH  13  16
ATOM     16  N   UNL A   1      31.837  27.169  22.122  1.00  0.00    -0.205 NA
ATOM     17  H   UNL A   1      32.051  28.036  22.614  1.00  0.00     0.141 HD
BRANCH  16  18
ATOM     18  C   UNL A   1      30.838  26.456  22.932  1.00  0.00     0.163 C 
BRANCH  18  19
ATOM     19  C   UNL A   1      30.333  27.380  24.074  1.00  0.00     0.195 C 
ATOM     20  C   UNL A   1      30.619  26.755  25.450  1.00  0.00     0.076 C 
BRANCH  19  21
ATOM     21  N   UNL A   1      30.802  28.778  23.914  1.00  0.00    -0.337 N 
ATOM     22  C   UNL A   1      29.733  29.663  23.445  1.00  0.00     0.332 C 
ATOM     23  C   UNL A   1      31.441  29.347  25.100  1.00  0.00     0.332 C 
ATOM     24  H   UNL A   1      31.527  28.718  23.199  1.00  0.00     0.347 HD
ENDBRANCH  19  21
ENDBRANCH  18  19
ENDBRANCH  16  18
ENDBRANCH  13  16
ENDBRANCH   7  13
ENDBRANCH   3   6
ENDBRANCH   1   2
BRANCH   1  25
ATOM     25  C   UNL A   1      36.954  21.083  24.635  1.00  0.00     0.023 C 
BRANCH  25  26
ATOM     26  C   UNL A   1      37.854  19.909  25.035  1.00  0.00     0.023 C 
BRANCH  26  27
ATOM     27  C   UNL A   1      39.090  20.306  25.833  1.00  0.00     0.116 C 
BRANCH  27  28
ATOM     28  N   UNL A   1      40.086  19.248  25.907  1.00  0.00    -0.352 N 
ATOM     29  C   UNL A   1      41.439  19.368  26.106  1.00  0.00     0.251 C 
ATOM     30  H   UNL A   1      39.747  18.330  25.800  1.00  0.00     0.163 HD
ATOM     31  O   UNL A   1      42.175  18.393  26.010  1.00  0.00    -0.269 OA
BRANCH  29  32
ATOM     32  C   UNL A   1      41.999  20.701  26.401  1.00  0.00     0.039 A 
ATOM     33  C   UNL A   1      42.261  21.573  25.344  1.00  0.00     0.014 A 
ATOM     34  C   UNL A   1      42.229  21.092  27.723  1.00  0.00     0.014 A 
ATOM     35  C   UNL A   1      42.712  22.864  25.619  1.00  0.00     0.010 A 
ATOM     36  C   UNL A   1      42.589  22.405  27.998  1.00  0.00     0.010 A 
ATOM     37  C   UNL A   1      42.854  23.298  26.949  1.00  0.00    -0.014 A 
BRANCH  37  38
ATOM     38  C   UNL A   1      43.319  24.672  27.260  1.00  0.00     0.031 A 
ATOM     39  C   UNL A   1      42.359  25.671  27.842  1.00  0.00     0.074 A 
ATOM     40  C   UNL A   1      44.588  25.028  26.983  1.00  0.00     0.049 A 
ATOM     41  N   UNL A   1      42.561  26.927  28.151  1.00  0.00    -0.248 NA
ATOM     42  C   UNL A   1      40.983  25.210  28.084  1.00  0.00     0.031 C 
ATOM     43  C   UNL A   1      45.596  24.158  26.377  1.00  0.00     0.029 A 
ATOM     44  N   UNL A   1      45.246  26.217  27.177  1.00  0.00    -0.354 N 
ATOM     45  C   UNL A   1      41.340  27.401  28.612  1.00  0.00     0.074 A 
ATOM     46  C   UNL A   1      40.386  26.325  28.477  1.00  0.00     0.031 C 
ATOM     47  C   UNL A   1      46.755  24.829  26.284  1.00  0.00     0.029 A 
ATOM     48  C   UNL A   1      46.562  26.187  26.785  1.00  0.00     0.049 A 
ATOM     49  H   UNL A   1      44.816  27.014  27.560  1.00  0.00     0.167 HD
ATOM     50  C   UNL A   1      41.050  28.616  29.134  1.00  0.00     0.037 A 
ATOM     51  C   UNL A   1      47.507  27.146  26.830  1.00  0.00     0.037 A 
ATOM     52  C   UNL A   1      42.011  29.673  29.290  1.00  0.00     0.049 A 
ATOM     53  C   UNL A   1      47.158  28.492  27.406  1.00  0.00     0.074 A 
ATOM     54  C   UNL A   1      41.829  30.926  29.847  1.00  0.00     0.029 A 
ATOM     55  N   UNL A   1      43.337  29.603  28.887  1.00  0.00    -0.354 N 
ATOM     56  N   UNL A   1      46.015  28.913  27.889  1.00  0.00    -0.248 NA
ATOM     57  C   UNL A   1      48.235  29.491  27.457  1.00  0.00     0.031 C 
ATOM     58  C   UNL A   1      43.026  31.635  29.728  1.00  0.00     0.029 A 
ATOM     59  C   UNL A   1      43.979  30.799  29.167  1.00  0.00     0.049 A 
ATOM     60  H   UNL A   1      43.760  28.819  28.466  1.00  0.00     0.167 HD
ATOM     61  C   UNL A   1      46.240  30.209  28.333  1.00  0.00     0.074 A 
ATOM     62  C   UNL A   1      47.634  30.503  28.068  1.00  0.00     0.031 C 
ATOM     63  C   UNL A   1      45.372  31.072  28.915  1.00  0.00     0.037 A 
BRANCH  50  64
ATOM     64  C   UNL A   1      39.639  28.864  29.589  1.00  0.00     0.064 A 
ATOM     65  C   UNL A   1      38.713  29.477  28.732  1.00  0.00     0.173 A 
ATOM     66  C   UNL A   1      39.220  28.552  30.891  1.00  0.00     0.173 A 
ATOM     67  F   UNL A   1      39.062  29.800  27.477  1.00  0.00    -0.203 F 
ATOM     68  C   UNL A   1      37.426  29.781  29.167  1.00  0.00     0.198 A 
ATOM     69  C   UNL A   1      37.920  28.824  31.310  1.00  0.00     0.198 A 
ATOM     70  F   UNL A   1      40.060  27.952  31.747  1.00  0.00    -0.203 F 
ATOM     71  F   UNL A   1      36.571  30.400  28.341  1.00  0.00    -0.200 F 
ATOM     72  C   UNL A   1      37.028  29.449  30.453  1.00  0.00     0.200 A 
ATOM     73  F   UNL A   1      37.529  28.474  32.544  1.00  0.00    -0.200 F 
ATOM     74  F   UNL A   1      35.784  29.729  30.865  1.00  0.00    -0.200 F 
ENDBRANCH  50  64
BRANCH  51  75
ATOM     75  C   UNL A   1      48.883  26.839  26.359  1.00  0.00     0.064 A 
ATOM     76  C   UNL A   1      49.256  27.023  25.019  1.00  0.00     0.173 A 
ATOM     77  C   UNL A   1      49.843  26.315  27.236  1.00  0.00     0.173 A 
ATOM     78  F   UNL A   1      48.373  27.514  24.137  1.00  0.00    -0.203 F 
ATOM     79  C   UNL A   1      50.528  26.673  24.571  1.00  0.00     0.198 A 
ATOM     80  C   UNL A   1      51.125  25.993  26.793  1.00  0.00     0.198 A 
ATOM     81  F   UNL A   1      49.542  26.137  28.530  1.00  0.00    -0.203 F 
ATOM     82  F   UNL A   1      50.844  26.820  23.277  1.00  0.00    -0.200 F 
ATOM     83  C   UNL A   1      51.463  26.163  25.458  1.00  0.00     0.200 A 
ATOM     84  F   UNL A   1      52.032  25.523  27.659  1.00  0.00    -0.200 F 
ATOM     85  F   UNL A   1      52.689  25.836  25.028  1.00  0.00    -0.200 F 
ENDBRANCH  51  75
BRANCH  63  86
ATOM     86  C   UNL A   1      45.899  32.406  29.361  1.00  0.00     0.064 A 
ATOM     87  C   UNL A   1      45.898  33.495  28.473  1.00  0.00     0.173 A 
ATOM     88  C   UNL A   1      46.480  32.591  30.624  1.00  0.00     0.173 A 
ATOM     89  F   UNL A   1      45.365  33.370  27.248  1.00  0.00    -0.203 F 
ATOM     90  C   UNL A   1      46.474  34.710  28.828  1.00  0.00     0.198 A 
ATOM     91  C   UNL A   1      47.023  33.820  30.988  1.00  0.00     0.198 A 
ATOM     92  F   UNL A   1      46.498  31.586  31.512  1.00  0.00    -0.203 F 
ATOM     93  F   UNL A   1      46.501  35.720  27.947  1.00  0.00    -0.200 F 
ATOM     94  C   UNL A   1      47.032  34.874  30.086  1.00  0.00     0.200 A 
ATOM     95  F   UNL A   1      47.538  33.985  32.214  1.00  0.00    -0.200 F 
ATOM     96  F   UNL A   1      47.576  36.050  30.432  1.00  0.00    -0.200 F 
ENDBRANCH  63  86
ENDBRANCH  37  38
ENDBRANCH  29  32
ENDBRANCH  27  28
ENDBRANCH  26  27
ENDBRANCH  25  26
ENDBRANCH   1  25
TORSDOF 16
ENDMDL
MODEL 3
REMARK VINA RESULT:     -11.6      2.840      4.337
REMARK SMILES C[C@H](CNS(=O)(=O)c1ccc(C(=O)NCCCCNC(=O)c2ccc(-c3c4nc(c(-c5c(F)c(F)c(F)c(F)c5F)c5ccc([nH]5)c(-c5c(F)c(F)c(F)c(F)c5F)c5nc(c(-c6c(F)c(F)c(F)c(F)c6F)c6ccc3[nH]6)C=C5)C=C4)cc2)cc1F)[NH+](C)C
REMARK SMILES IDX 15 1 14 2 12 3 13 4 11 6 8 7 9 8 86 9 10 10 85 11 87 12 5 13
REMARK SMILES IDX 6 14 7 15 4 16 3 18 2 19 1 20 88 21 89 22 90 23 16 25 17 26
REMARK SMILES IDX 18 27 19 28 20 29 21 31 22 32 23 33 84 34 24 35 83 36 25 37
REMARK SMILES IDX 26 38 27 39 77 40 28 41 82 42 76 43 78 44 29 45 81 46 75 47
REMARK SMILES IDX 74 48 30 50 62 51 42 52 61 53 43 54 46 55 60 56 79 57 44 58
REMARK SMILES IDX 45 59 59 61 80 62 47 63 31 64 32 65 40 66 33 67 34 68 38 69
REMARK SMILES IDX 41 70 35 71 36 72 39 73 37 74 63 75 64 76 72 77 65 78 66 79
REMARK SMILES IDX 70 80 73 81 67 82 68 83 71 84 69 85 48 86 49 87 57 88 50 89
REMARK SMILES IDX 51 90 55 91 58 92 52 93 53 94 56 95 54 96
REMARK H PARENT 14 5 4 17 88 24 19 30 78 49 46 60
REMARK Flexibility Score: inf
ROOT
ATOM      1  C   UNL A   1      33.748  22.310  27.111  1.00  0.00     0.116 C 
ENDROOT
BRANCH   1   2
ATOM      2  N   UNL A   1      33.027  21.231  26.469  1.00  0.00    -0.352 N 
ATOM      3  C   UNL A   1      32.333  21.154  25.291  1.00  0.00     0.251 C 
ATOM      4  O   UNL A   1      31.778  20.087  25.031  1.00  0.00    -0.269 OA
ATOM      5  H   UNL A   1      33.040  20.388  26.978  1.00  0.00     0.163 HD
BRANCH   3   6
ATOM      6  C   UNL A   1      32.274  22.258  24.291  1.00  0.00     0.042 A 
ATOM      7  C   UNL A   1      32.435  24.319  22.395  1.00  0.00     0.118 A 
ATOM      8  C   UNL A   1      33.324  23.248  22.322  1.00  0.00     0.026 A 
ATOM      9  C   UNL A   1      31.443  24.334  23.364  1.00  0.00     0.144 A 
ATOM     10  C   UNL A   1      33.240  22.225  23.267  1.00  0.00     0.015 A 
ATOM     11  C   UNL A   1      31.340  23.295  24.290  1.00  0.00     0.054 A 
ATOM     12  F   UNL A   1      30.543  25.325  23.423  1.00  0.00    -0.205 F 
BRANCH   7  13
ATOM     13  S   UNL A   1      32.583  25.683  21.294  1.00  0.00     0.243 S 
ATOM     14  O   UNL A   1      31.301  26.354  21.243  1.00  0.00    -0.207 OA
ATOM     15  O   UNL A   1      33.239  25.226  20.092  1.00  0.00    -0.207 OA
BRANCH  13  16
ATOM     16  N   UNL A   1      33.651  26.694  22.087  1.00  0.00    -0.205 NA
ATOM     17  H   UNL A   1      34.047  26.157  22.858  1.00  0.00     0.141 HD
BRANCH  16  18
ATOM     18  C   UNL A   1      33.180  27.966  22.654  1.00  0.00     0.163 C 
BRANCH  18  19
ATOM     19  C   UNL A   1      32.816  27.771  24.152  1.00  0.00     0.195 C 
ATOM     20  C   UNL A   1      33.764  26.757  24.815  1.00  0.00     0.076 C 
BRANCH  19  21
ATOM     21  N   UNL A   1      32.681  29.061  24.870  1.00  0.00    -0.337 N 
ATOM     22  C   UNL A   1      31.357  29.658  24.676  1.00  0.00     0.332 C 
ATOM     23  C   UNL A   1      33.002  29.003  26.295  1.00  0.00     0.332 C 
ATOM     24  H   UNL A   1      33.386  29.660  24.442  1.00  0.00     0.347 HD
ENDBRANCH  19  21
ENDBRANCH  18  19
ENDBRANCH  16  18
ENDBRANCH  13  16
ENDBRANCH   7  13
ENDBRANCH   3   6
ENDBRANCH   1   2
BRANCH   1  25
ATOM     25  C   UNL A   1      35.173  22.383  26.562  1.00  0.00     0.023 C 
BRANCH  25  26
ATOM     26  C   UNL A   1      35.492  23.707  25.858  1.00  0.00     0.023 C 
BRANCH  26  27
ATOM     27  C   UNL A   1      36.796  23.704  25.071  1.00  0.00     0.116 C 
BRANCH  27  28
ATOM     28  N   UNL A   1      37.718  22.663  25.497  1.00  0.00    -0.352 N 
ATOM     29  C   UNL A   1      38.876  22.799  26.222  1.00  0.00     0.251 C 
ATOM     30  H   UNL A   1      37.482  21.744  25.232  1.00  0.00     0.163 HD
ATOM     31  O   UNL A   1      39.624  21.843  26.392  1.00  0.00    -0.269 OA
BRANCH  29  32
ATOM     32  C   UNL A   1      39.225  24.127  26.762  1.00  0.00     0.039 A 
ATOM     33  C   UNL A   1      38.879  24.432  28.079  1.00  0.00     0.014 A 
ATOM     34  C   UNL A   1      39.924  25.047  25.977  1.00  0.00     0.014 A 
ATOM     35  C   UNL A   1      39.278  25.652  28.625  1.00  0.00     0.010 A 
ATOM     36  C   UNL A   1      40.400  26.219  26.551  1.00  0.00     0.010 A 
ATOM     37  C   UNL A   1      40.064  26.543  27.874  1.00  0.00    -0.014 A 
BRANCH  37  38
ATOM     38  C   UNL A   1      40.509  27.838  28.443  1.00  0.00     0.031 A 
ATOM     39  C   UNL A   1      41.964  28.058  28.752  1.00  0.00     0.074 A 
ATOM     40  C   UNL A   1      39.603  28.796  28.718  1.00  0.00     0.049 A 
ATOM     41  N   UNL A   1      42.547  29.102  29.282  1.00  0.00    -0.248 NA
ATOM     42  C   UNL A   1      42.883  26.948  28.452  1.00  0.00     0.031 C 
ATOM     43  C   UNL A   1      38.160  28.680  28.503  1.00  0.00     0.029 A 
ATOM     44  N   UNL A   1      39.763  30.057  29.235  1.00  0.00    -0.354 N 
ATOM     45  C   UNL A   1      43.891  28.770  29.385  1.00  0.00     0.074 A 
ATOM     46  C   UNL A   1      44.029  27.406  28.932  1.00  0.00     0.031 C 
ATOM     47  C   UNL A   1      37.571  29.836  28.848  1.00  0.00     0.029 A 
ATOM     48  C   UNL A   1      38.587  30.759  29.347  1.00  0.00     0.049 A 
ATOM     49  H   UNL A   1      40.637  30.424  29.501  1.00  0.00     0.167 HD
ATOM     50  C   UNL A   1      44.923  29.547  29.790  1.00  0.00     0.037 A 
ATOM     51  C   UNL A   1      38.356  32.007  29.798  1.00  0.00     0.037 A 
ATOM     52  C   UNL A   1      44.781  30.913  30.215  1.00  0.00     0.049 A 
ATOM     53  C   UNL A   1      39.519  32.849  30.251  1.00  0.00     0.074 A 
ATOM     54  C   UNL A   1      45.770  31.800  30.603  1.00  0.00     0.029 A 
ATOM     55  N   UNL A   1      43.574  31.592  30.309  1.00  0.00    -0.354 N 
ATOM     56  N   UNL A   1      40.793  32.544  30.294  1.00  0.00    -0.248 NA
ATOM     57  C   UNL A   1      39.214  34.213  30.705  1.00  0.00     0.031 C 
ATOM     58  C   UNL A   1      45.157  32.994  30.989  1.00  0.00     0.029 A 
ATOM     59  C   UNL A   1      43.793  32.881  30.767  1.00  0.00     0.049 A 
ATOM     60  H   UNL A   1      42.694  31.214  30.083  1.00  0.00     0.167 HD
ATOM     61  C   UNL A   1      41.445  33.685  30.744  1.00  0.00     0.074 A 
ATOM     62  C   UNL A   1      40.425  34.691  30.953  1.00  0.00     0.031 C 
ATOM     63  C   UNL A   1      42.770  33.880  30.955  1.00  0.00     0.037 A 
BRANCH  50  64
ATOM     64  C   UNL A   1      46.299  28.945  29.780  1.00  0.00     0.064 A 
ATOM     65  C   UNL A   1      46.820  28.339  30.933  1.00  0.00     0.173 A 
ATOM     66  C   UNL A   1      47.128  29.020  28.649  1.00  0.00     0.173 A 
ATOM     67  F   UNL A   1      46.073  28.243  32.044  1.00  0.00    -0.203 F 
ATOM     68  C   UNL A   1      48.121  27.845  30.959  1.00  0.00     0.198 A 
ATOM     69  C   UNL A   1      48.416  28.492  28.668  1.00  0.00     0.198 A 
ATOM     70  F   UNL A   1      46.676  29.576  27.515  1.00  0.00    -0.203 F 
ATOM     71  F   UNL A   1      48.608  27.303  32.084  1.00  0.00    -0.200 F 
ATOM     72  C   UNL A   1      48.916  27.916  29.825  1.00  0.00     0.200 A 
ATOM     73  F   UNL A   1      49.171  28.533  27.561  1.00  0.00    -0.200 F 
ATOM     74  F   UNL A   1      50.163  27.426  29.847  1.00  0.00    -0.200 F 
ENDBRANCH  50  64
BRANCH  51  75
ATOM     75  C   UNL A   1      36.970  32.544  29.788  1.00  0.00     0.064 A 
ATOM     76  C   UNL A   1      36.471  33.261  28.690  1.00  0.00     0.173 A 
ATOM     77  C   UNL A   1      36.129  32.384  30.898  1.00  0.00     0.173 A 
ATOM     78  F   UNL A   1      37.238  33.449  27.606  1.00  0.00    -0.203 F 
ATOM     79  C   UNL A   1      35.194  33.816  28.713  1.00  0.00     0.198 A 
ATOM     80  C   UNL A   1      34.841  32.914  30.909  1.00  0.00     0.198 A 
ATOM     81  F   UNL A   1      36.553  31.692  31.965  1.00  0.00    -0.203 F 
ATOM     82  F   UNL A   1      34.757  34.532  27.668  1.00  0.00    -0.200 F 
ATOM     83  C   UNL A   1      34.377  33.639  29.820  1.00  0.00     0.200 A 
ATOM     84  F   UNL A   1      34.047  32.720  31.970  1.00  0.00    -0.200 F 
ATOM     85  F   UNL A   1      33.146  34.165  29.838  1.00  0.00    -0.200 F 
ENDBRANCH  51  75
BRANCH  63  86
ATOM     86  C   UNL A   1      43.219  35.246  31.388  1.00  0.00     0.064 A 
ATOM     87  C   UNL A   1      43.623  36.190  30.429  1.00  0.00     0.173 A 
ATOM     88  C   UNL A   1      43.334  35.596  32.741  1.00  0.00     0.173 A 
ATOM     89  F   UNL A   1      43.544  35.903  29.121  1.00  0.00    -0.203 F 
ATOM     90  C   UNL A   1      44.140  37.424  30.811  1.00  0.00     0.198 A 
ATOM     91  C   UNL A   1      43.819  36.846  33.118  1.00  0.00     0.198 A 
ATOM     92  F   UNL A   1      42.955  34.734  33.697  1.00  0.00    -0.203 F 
ATOM     93  F   UNL A   1      44.560  38.290  29.878  1.00  0.00    -0.200 F 
ATOM     94  C   UNL A   1      44.232  37.753  32.154  1.00  0.00     0.200 A 
ATOM     95  F   UNL A   1      43.883  37.173  34.416  1.00  0.00    -0.200 F 
ATOM     96  F   UNL A   1      44.719  38.948  32.520  1.00  0.00    -0.200 F 
ENDBRANCH  63  86
ENDBRANCH  37  38
ENDBRANCH  29  32
ENDBRANCH  27  28
ENDBRANCH  26  27
ENDBRANCH  25  26
ENDBRANCH   1  25
TORSDOF 16
ENDMDL
