MODEL 1
REMARK VINA RESULT:     -13.0      0.000      0.000
REMARK SMILES CC1(C)CCN(S(=O)(=O)c2ccc(O)c(C(=O)NCCCCNC(=O)c3ccc(-c4c5nc(c(-c6c(F)c(F)c(F)c(F)c6F)c6ccc([nH]6)c(-c6c(F)c(F)c(F)c(F)c6F)c6nc(c(-c7c(F)c(F)c(F)c(F)c7F)c7ccc4[nH]7)C=C6)C=C5)cc3)c2)C1
REMARK SMILES IDX 20 1 19 2 18 3 16 4 17 5 15 7 10 8 11 9 89 10 12 11 13 12
REMARK SMILES IDX 7 13 8 14 9 15 6 16 1 17 2 18 3 19 4 20 90 21 5 22 14 23
REMARK SMILES IDX 21 25 22 26 23 27 24 28 25 30 26 31 27 32 88 33 28 34 87 35
REMARK SMILES IDX 29 36 30 37 31 38 81 39 32 40 86 41 80 42 82 43 33 44 85 45
REMARK SMILES IDX 79 46 78 47 34 49 66 50 46 51 65 52 47 53 50 54 64 55 83 56
REMARK SMILES IDX 48 57 49 58 63 60 84 61 51 62 35 63 36 64 44 65 37 66 38 67
REMARK SMILES IDX 42 68 45 69 39 70 40 71 43 72 41 73 67 74 68 75 76 76 69 77
REMARK SMILES IDX 70 78 74 79 77 80 71 81 72 82 75 83 73 84 52 85 53 86 61 87
REMARK SMILES IDX 54 88 55 89 59 90 62 91 56 92 57 93 60 94 58 95
REMARK H PARENT 18 6 14 24 23 29 82 48 50 59
REMARK Flexibility Score: inf
ROOT
ATOM      1  C   UNL A   1      31.653  30.534  26.504  1.00  0.00     0.023 C 
ENDROOT
BRANCH   1   2
ATOM      2  C   UNL A   1      33.082  30.025  26.279  1.00  0.00     0.116 C 
BRANCH   2   3
ATOM      3  N   UNL A   1      33.350  29.846  24.872  1.00  0.00    -0.352 N 
ATOM      4  C   UNL A   1      32.891  28.960  23.934  1.00  0.00     0.255 C 
ATOM      5  O   UNL A   1      33.359  29.118  22.802  1.00  0.00    -0.269 OA
ATOM      6  H   UNL A   1      33.997  30.495  24.511  1.00  0.00     0.163 HD
BRANCH   4   7
ATOM      7  C   UNL A   1      31.888  27.856  24.134  1.00  0.00     0.082 A 
ATOM      8  C   UNL A   1      31.582  25.661  25.197  1.00  0.00     0.083 A 
ATOM      9  C   UNL A   1      30.214  25.718  24.952  1.00  0.00     0.025 A 
ATOM     10  C   UNL A   1      32.411  26.715  24.793  1.00  0.00     0.039 A 
ATOM     11  C   UNL A   1      29.687  26.793  24.254  1.00  0.00     0.048 A 
ATOM     12  C   UNL A   1      30.509  27.859  23.863  1.00  0.00     0.128 A 
BRANCH   8  13
ATOM     13  S   UNL A   1      32.219  24.340  26.203  1.00  0.00     0.243 S 
ATOM     14  O   UNL A   1      31.265  24.123  27.274  1.00  0.00    -0.207 OA
ATOM     15  O   UNL A   1      33.607  24.615  26.491  1.00  0.00    -0.207 OA
BRANCH  13  16
ATOM     16  N   UNL A   1      32.172  22.965  25.191  1.00  0.00    -0.197 NA
ATOM     17  C   UNL A   1      32.394  20.164  23.734  1.00  0.00     0.012 C 
ATOM     18  C   UNL A   1      33.426  21.029  24.470  1.00  0.00    -0.020 C 
ATOM     19  C   UNL A   1      34.623  20.160  24.870  1.00  0.00     0.012 C 
ATOM     20  C   UNL A   1      33.853  22.236  23.635  1.00  0.00     0.024 C 
ATOM     21  C   UNL A   1      32.816  21.719  25.695  1.00  0.00     0.109 C 
ATOM     22  C   UNL A   1      32.709  23.227  23.818  1.00  0.00     0.103 C 
ENDBRANCH  13  16
ENDBRANCH   8  13
BRANCH  12  23
ATOM     23  O   UNL A   1      29.862  28.898  23.272  1.00  0.00    -0.507 OA
ATOM     24  H   UNL A   1      29.046  29.199  23.618  1.00  0.00     0.293 HD
ENDBRANCH  12  23
ENDBRANCH   4   7
ENDBRANCH   2   3
ENDBRANCH   1   2
BRANCH   1  25
ATOM     25  C   UNL A   1      31.506  32.051  26.585  1.00  0.00     0.023 C 
BRANCH  25  26
ATOM     26  C   UNL A   1      32.646  32.760  27.302  1.00  0.00     0.116 C 
BRANCH  26  27
ATOM     27  N   UNL A   1      32.349  34.141  27.654  1.00  0.00    -0.352 N 
ATOM     28  C   UNL A   1      32.986  34.933  28.581  1.00  0.00     0.251 C 
ATOM     29  H   UNL A   1      31.601  34.560  27.171  1.00  0.00     0.163 HD
ATOM     30  O   UNL A   1      32.580  36.062  28.832  1.00  0.00    -0.269 OA
BRANCH  28  31
ATOM     31  C   UNL A   1      34.139  34.376  29.312  1.00  0.00     0.039 A 
ATOM     32  C   UNL A   1      33.907  33.650  30.482  1.00  0.00     0.014 A 
ATOM     33  C   UNL A   1      35.433  34.509  28.800  1.00  0.00     0.014 A 
ATOM     34  C   UNL A   1      34.970  32.993  31.103  1.00  0.00     0.010 A 
ATOM     35  C   UNL A   1      36.474  33.795  29.376  1.00  0.00     0.010 A 
ATOM     36  C   UNL A   1      36.252  33.029  30.531  1.00  0.00    -0.014 A 
BRANCH  36  37
ATOM     37  C   UNL A   1      37.383  32.279  31.127  1.00  0.00     0.031 A 
ATOM     38  C   UNL A   1      37.879  32.647  32.496  1.00  0.00     0.074 A 
ATOM     39  C   UNL A   1      38.010  31.331  30.406  1.00  0.00     0.049 A 
ATOM     40  N   UNL A   1      38.913  32.188  33.153  1.00  0.00    -0.248 NA
ATOM     41  C   UNL A   1      37.128  33.693  33.209  1.00  0.00     0.031 C 
ATOM     42  C   UNL A   1      37.652  30.925  29.046  1.00  0.00     0.029 A 
ATOM     43  N   UNL A   1      39.094  30.547  30.713  1.00  0.00    -0.354 N 
ATOM     44  C   UNL A   1      38.949  32.904  34.342  1.00  0.00     0.074 A 
ATOM     45  C   UNL A   1      37.864  33.859  34.297  1.00  0.00     0.031 C 
ATOM     46  C   UNL A   1      38.489  29.956  28.642  1.00  0.00     0.029 A 
ATOM     47  C   UNL A   1      39.462  29.696  29.699  1.00  0.00     0.049 A 
ATOM     48  H   UNL A   1      39.563  30.591  31.576  1.00  0.00     0.167 HD
ATOM     49  C   UNL A   1      39.799  32.759  35.386  1.00  0.00     0.037 A 
ATOM     50  C   UNL A   1      40.474  28.810  29.633  1.00  0.00     0.037 A 
ATOM     51  C   UNL A   1      40.852  31.783  35.441  1.00  0.00     0.049 A 
ATOM     52  C   UNL A   1      41.390  28.656  30.817  1.00  0.00     0.074 A 
ATOM     53  C   UNL A   1      41.728  31.515  36.477  1.00  0.00     0.029 A 
ATOM     54  N   UNL A   1      41.166  30.907  34.412  1.00  0.00    -0.354 N 
ATOM     55  N   UNL A   1      41.377  29.293  31.961  1.00  0.00    -0.248 NA
ATOM     56  C   UNL A   1      42.456  27.652  30.702  1.00  0.00     0.031 C 
ATOM     57  C   UNL A   1      42.594  30.497  36.064  1.00  0.00     0.029 A 
ATOM     58  C   UNL A   1      42.231  30.103  34.785  1.00  0.00     0.049 A 
ATOM     59  H   UNL A   1      40.703  30.863  33.544  1.00  0.00     0.167 HD
ATOM     60  C   UNL A   1      42.410  28.751  32.713  1.00  0.00     0.074 A 
ATOM     61  C   UNL A   1      43.024  27.723  31.898  1.00  0.00     0.031 C 
ATOM     62  C   UNL A   1      42.815  29.074  33.965  1.00  0.00     0.037 A 
BRANCH  49  63
ATOM     63  C   UNL A   1      39.612  33.674  36.560  1.00  0.00     0.064 A 
ATOM     64  C   UNL A   1      40.211  34.941  36.604  1.00  0.00     0.173 A 
ATOM     65  C   UNL A   1      38.802  33.292  37.639  1.00  0.00     0.173 A 
ATOM     66  F   UNL A   1      41.008  35.346  35.603  1.00  0.00    -0.203 F 
ATOM     67  C   UNL A   1      40.027  35.781  37.699  1.00  0.00     0.198 A 
ATOM     68  C   UNL A   1      38.598  34.146  38.719  1.00  0.00     0.198 A 
ATOM     69  F   UNL A   1      38.203  32.091  37.644  1.00  0.00    -0.203 F 
ATOM     70  F   UNL A   1      40.648  36.969  37.740  1.00  0.00    -0.200 F 
ATOM     71  C   UNL A   1      39.216  35.387  38.751  1.00  0.00     0.200 A 
ATOM     72  F   UNL A   1      37.804  33.768  39.731  1.00  0.00    -0.200 F 
ATOM     73  F   UNL A   1      39.035  36.200  39.801  1.00  0.00    -0.200 F 
ENDBRANCH  49  63
BRANCH  50  74
ATOM     74  C   UNL A   1      40.655  27.978  28.417  1.00  0.00     0.064 A 
ATOM     75  C   UNL A   1      40.061  26.713  28.320  1.00  0.00     0.173 A 
ATOM     76  C   UNL A   1      41.429  28.422  27.335  1.00  0.00     0.173 A 
ATOM     77  F   UNL A   1      39.329  26.237  29.337  1.00  0.00    -0.203 F 
ATOM     78  C   UNL A   1      40.249  25.913  27.194  1.00  0.00     0.198 A 
ATOM     79  C   UNL A   1      41.597  27.632  26.199  1.00  0.00     0.198 A 
ATOM     80  F   UNL A   1      42.014  29.628  27.378  1.00  0.00    -0.203 F 
ATOM     81  F   UNL A   1      39.705  24.690  27.146  1.00  0.00    -0.200 F 
ATOM     82  C   UNL A   1      41.013  26.375  26.133  1.00  0.00     0.200 A 
ATOM     83  F   UNL A   1      42.326  28.086  25.171  1.00  0.00    -0.200 F 
ATOM     84  F   UNL A   1      41.195  25.606  25.051  1.00  0.00    -0.200 F 
ENDBRANCH  50  74
BRANCH  62  85
ATOM     85  C   UNL A   1      43.945  28.282  34.548  1.00  0.00     0.064 A 
ATOM     86  C   UNL A   1      45.277  28.705  34.426  1.00  0.00     0.173 A 
ATOM     87  C   UNL A   1      43.688  27.113  35.278  1.00  0.00     0.173 A 
ATOM     88  F   UNL A   1      45.574  29.809  33.725  1.00  0.00    -0.203 F 
ATOM     89  C   UNL A   1      46.312  27.973  35.002  1.00  0.00     0.198 A 
ATOM     90  C   UNL A   1      44.723  26.398  35.873  1.00  0.00     0.198 A 
ATOM     91  F   UNL A   1      42.429  26.672  35.426  1.00  0.00    -0.203 F 
ATOM     92  F   UNL A   1      47.581  28.373  34.843  1.00  0.00    -0.200 F 
ATOM     93  C   UNL A   1      46.034  26.826  35.730  1.00  0.00     0.200 A 
ATOM     94  F   UNL A   1      44.451  25.297  36.586  1.00  0.00    -0.200 F 
ATOM     95  F   UNL A   1      47.031  26.128  36.290  1.00  0.00    -0.200 F 
ENDBRANCH  62  85
ENDBRANCH  36  37
ENDBRANCH  28  31
ENDBRANCH  26  27
ENDBRANCH  25  26
ENDBRANCH   1  25
TORSDOF 14
ENDMDL
MODEL 2
REMARK VINA RESULT:     -13.0      0.627      7.299
REMARK SMILES CC1(C)CCN(S(=O)(=O)c2ccc(O)c(C(=O)NCCCCNC(=O)c3ccc(-c4c5nc(c(-c6c(F)c(F)c(F)c(F)c6F)c6ccc([nH]6)c(-c6c(F)c(F)c(F)c(F)c6F)c6nc(c(-c7c(F)c(F)c(F)c(F)c7F)c7ccc4[nH]7)C=C6)C=C5)cc3)c2)C1
REMARK SMILES IDX 20 1 19 2 18 3 16 4 17 5 15 7 10 8 11 9 89 10 12 11 13 12
REMARK SMILES IDX 7 13 8 14 9 15 6 16 1 17 2 18 3 19 4 20 90 21 5 22 14 23
REMARK SMILES IDX 21 25 22 26 23 27 24 28 25 30 26 31 27 32 88 33 28 34 87 35
REMARK SMILES IDX 29 36 30 37 31 38 81 39 32 40 86 41 80 42 82 43 33 44 85 45
REMARK SMILES IDX 79 46 78 47 34 49 66 50 46 51 65 52 47 53 50 54 64 55 83 56
REMARK SMILES IDX 48 57 49 58 63 60 84 61 51 62 35 63 36 64 44 65 37 66 38 67
REMARK SMILES IDX 42 68 45 69 39 70 40 71 43 72 41 73 67 74 68 75 76 76 69 77
REMARK SMILES IDX 70 78 74 79 77 80 71 81 72 82 75 83 73 84 52 85 53 86 61 87
REMARK SMILES IDX 54 88 55 89 59 90 62 91 56 92 57 93 60 94 58 95
REMARK H PARENT 18 6 14 24 23 29 82 48 50 59
REMARK Flexibility Score: inf
ROOT
ATOM      1  C   UNL A   1      31.939  30.320  26.884  1.00  0.00     0.023 C 
ENDROOT
BRANCH   1   2
ATOM      2  C   UNL A   1      33.349  29.782  26.615  1.00  0.00     0.116 C 
BRANCH   2   3
ATOM      3  N   UNL A   1      33.603  29.689  25.197  1.00  0.00    -0.352 N 
ATOM      4  C   UNL A   1      33.118  28.874  24.209  1.00  0.00     0.255 C 
ATOM      5  O   UNL A   1      33.581  29.095  23.084  1.00  0.00    -0.269 OA
ATOM      6  H   UNL A   1      34.260  30.346  24.873  1.00  0.00     0.163 HD
BRANCH   4   7
ATOM      7  C   UNL A   1      32.095  27.780  24.346  1.00  0.00     0.082 A 
ATOM      8  C   UNL A   1      31.762  25.515  25.238  1.00  0.00     0.083 A 
ATOM      9  C   UNL A   1      30.390  25.621  25.035  1.00  0.00     0.025 A 
ATOM     10  C   UNL A   1      32.606  26.579  24.898  1.00  0.00     0.039 A 
ATOM     11  C   UNL A   1      29.872  26.759  24.439  1.00  0.00     0.048 A 
ATOM     12  C   UNL A   1      30.710  27.835  24.113  1.00  0.00     0.128 A 
BRANCH   8  13
ATOM     13  S   UNL A   1      32.391  24.103  26.119  1.00  0.00     0.243 S 
ATOM     14  O   UNL A   1      31.401  23.749  27.118  1.00  0.00    -0.207 OA
ATOM     15  O   UNL A   1      33.760  24.372  26.494  1.00  0.00    -0.207 OA
BRANCH  13  16
ATOM     16  N   UNL A   1      32.418  22.848  24.960  1.00  0.00    -0.197 NA
ATOM     17  C   UNL A   1      32.261  20.194  23.242  1.00  0.00     0.012 C 
ATOM     18  C   UNL A   1      32.776  20.477  24.660  1.00  0.00    -0.020 C 
ATOM     19  C   UNL A   1      32.834  19.165  25.449  1.00  0.00     0.012 C 
ATOM     20  C   UNL A   1      34.128  21.189  24.640  1.00  0.00     0.024 C 
ATOM     21  C   UNL A   1      31.908  21.513  25.383  1.00  0.00     0.109 C 
ATOM     22  C   UNL A   1      33.769  22.642  24.348  1.00  0.00     0.103 C 
ENDBRANCH  13  16
ENDBRANCH   8  13
BRANCH  12  23
ATOM     23  O   UNL A   1      30.074  28.933  23.624  1.00  0.00    -0.507 OA
ATOM     24  H   UNL A   1      29.372  29.322  24.107  1.00  0.00     0.293 HD
ENDBRANCH  12  23
ENDBRANCH   4   7
ENDBRANCH   2   3
ENDBRANCH   1   2
BRANCH   1  25
ATOM     25  C   UNL A   1      31.770  31.827  26.707  1.00  0.00     0.023 C 
BRANCH  25  26
ATOM     26  C   UNL A   1      32.847  32.667  27.376  1.00  0.00     0.116 C 
BRANCH  26  27
ATOM     27  N   UNL A   1      32.436  34.036  27.655  1.00  0.00    -0.352 N 
ATOM     28  C   UNL A   1      32.984  34.917  28.557  1.00  0.00     0.251 C 
ATOM     29  H   UNL A   1      31.670  34.372  27.135  1.00  0.00     0.163 HD
ATOM     30  O   UNL A   1      32.485  36.022  28.744  1.00  0.00    -0.269 OA
BRANCH  28  31
ATOM     31  C   UNL A   1      34.157  34.486  29.340  1.00  0.00     0.039 A 
ATOM     32  C   UNL A   1      33.951  33.881  30.582  1.00  0.00     0.014 A 
ATOM     33  C   UNL A   1      35.445  34.615  28.815  1.00  0.00     0.014 A 
ATOM     34  C   UNL A   1      35.037  33.335  31.266  1.00  0.00     0.010 A 
ATOM     35  C   UNL A   1      36.513  34.008  29.461  1.00  0.00     0.010 A 
ATOM     36  C   UNL A   1      36.318  33.361  30.691  1.00  0.00    -0.014 A 
BRANCH  36  37
ATOM     37  C   UNL A   1      37.477  32.724  31.361  1.00  0.00     0.031 A 
ATOM     38  C   UNL A   1      38.194  31.590  30.685  1.00  0.00     0.074 A 
ATOM     39  C   UNL A   1      37.827  33.111  32.601  1.00  0.00     0.049 A 
ATOM     40  N   UNL A   1      39.159  30.834  31.140  1.00  0.00    -0.248 NA
ATOM     41  C   UNL A   1      37.742  31.240  29.329  1.00  0.00     0.031 C 
ATOM     42  C   UNL A   1      37.172  34.164  33.378  1.00  0.00     0.029 A 
ATOM     43  N   UNL A   1      38.815  32.648  33.435  1.00  0.00    -0.354 N 
ATOM     44  C   UNL A   1      39.414  29.908  30.137  1.00  0.00     0.074 A 
ATOM     45  C   UNL A   1      38.471  30.165  29.071  1.00  0.00     0.031 C 
ATOM     46  C   UNL A   1      37.785  34.280  34.567  1.00  0.00     0.029 A 
ATOM     47  C   UNL A   1      38.853  33.288  34.650  1.00  0.00     0.049 A 
ATOM     48  H   UNL A   1      39.435  31.927  33.186  1.00  0.00     0.167 HD
ATOM     49  C   UNL A   1      40.365  28.945  30.102  1.00  0.00     0.037 A 
ATOM     50  C   UNL A   1      39.659  33.091  35.711  1.00  0.00     0.037 A 
ATOM     51  C   UNL A   1      41.324  28.718  31.148  1.00  0.00     0.049 A 
ATOM     52  C   UNL A   1      40.720  32.027  35.635  1.00  0.00     0.074 A 
ATOM     53  C   UNL A   1      42.365  27.809  31.183  1.00  0.00     0.029 A 
ATOM     54  N   UNL A   1      41.360  29.416  32.347  1.00  0.00    -0.354 N 
ATOM     55  N   UNL A   1      40.993  31.199  34.658  1.00  0.00    -0.248 NA
ATOM     56  C   UNL A   1      41.591  31.877  36.809  1.00  0.00     0.031 C 
ATOM     57  C   UNL A   1      43.013  27.934  32.416  1.00  0.00     0.029 A 
ATOM     58  C   UNL A   1      42.400  28.951  33.133  1.00  0.00     0.049 A 
ATOM     59  H   UNL A   1      40.737  30.136  32.601  1.00  0.00     0.167 HD
ATOM     60  C   UNL A   1      42.082  30.451  35.083  1.00  0.00     0.074 A 
ATOM     61  C   UNL A   1      42.427  30.931  36.405  1.00  0.00     0.031 C 
ATOM     62  C   UNL A   1      42.737  29.456  34.438  1.00  0.00     0.037 A 
BRANCH  49  63
ATOM     63  C   UNL A   1      40.420  28.073  28.883  1.00  0.00     0.064 A 
ATOM     64  C   UNL A   1      39.712  26.864  28.814  1.00  0.00     0.173 A 
ATOM     65  C   UNL A   1      41.164  28.464  27.760  1.00  0.00     0.173 A 
ATOM     66  F   UNL A   1      38.998  26.439  29.868  1.00  0.00    -0.203 F 
ATOM     67  C   UNL A   1      39.769  26.065  27.675  1.00  0.00     0.198 A 
ATOM     68  C   UNL A   1      41.196  27.676  26.613  1.00  0.00     0.198 A 
ATOM     69  F   UNL A   1      41.857  29.613  27.774  1.00  0.00    -0.203 F 
ATOM     70  F   UNL A   1      39.122  24.892  27.650  1.00  0.00    -0.200 F 
ATOM     71  C   UNL A   1      40.504  26.474  26.574  1.00  0.00     0.200 A 
ATOM     72  F   UNL A   1      41.899  28.077  25.544  1.00  0.00    -0.200 F 
ATOM     73  F   UNL A   1      40.552  25.707  25.476  1.00  0.00    -0.200 F 
ENDBRANCH  49  63
BRANCH  50  74
ATOM     74  C   UNL A   1      39.515  33.938  36.922  1.00  0.00     0.064 A 
ATOM     75  C   UNL A   1      38.750  33.502  38.012  1.00  0.00     0.173 A 
ATOM     76  C   UNL A   1      40.126  35.196  37.013  1.00  0.00     0.173 A 
ATOM     77  F   UNL A   1      38.129  32.315  37.964  1.00  0.00    -0.203 F 
ATOM     78  C   UNL A   1      38.585  34.303  39.142  1.00  0.00     0.198 A 
ATOM     79  C   UNL A   1      39.982  35.985  38.152  1.00  0.00     0.198 A 
ATOM     80  F   UNL A   1      40.873  35.655  35.997  1.00  0.00    -0.203 F 
ATOM     81  F   UNL A   1      37.812  33.881  40.152  1.00  0.00    -0.200 F 
ATOM     82  C   UNL A   1      39.204  35.541  39.212  1.00  0.00     0.200 A 
ATOM     83  F   UNL A   1      40.591  37.176  38.222  1.00  0.00    -0.200 F 
ATOM     84  F   UNL A   1      39.046  36.311  40.298  1.00  0.00    -0.200 F 
ENDBRANCH  50  74
BRANCH  62  85
ATOM     85  C   UNL A   1      43.919  28.849  35.132  1.00  0.00     0.064 A 
ATOM     86  C   UNL A   1      45.199  29.415  35.034  1.00  0.00     0.173 A 
ATOM     87  C   UNL A   1      43.758  27.716  35.943  1.00  0.00     0.173 A 
ATOM     88  F   UNL A   1      45.403  30.489  34.259  1.00  0.00    -0.203 F 
ATOM     89  C   UNL A   1      46.279  28.856  35.712  1.00  0.00     0.198 A 
ATOM     90  C   UNL A   1      44.836  27.175  36.639  1.00  0.00     0.198 A 
ATOM     91  F   UNL A   1      42.552  27.142  36.073  1.00  0.00    -0.203 F 
ATOM     92  F   UNL A   1      47.500  29.389  35.575  1.00  0.00    -0.200 F 
ATOM     93  C   UNL A   1      46.095  27.742  36.518  1.00  0.00     0.200 A 
ATOM     94  F   UNL A   1      44.655  26.107  37.427  1.00  0.00    -0.200 F 
ATOM     95  F   UNL A   1      47.135  27.212  37.175  1.00  0.00    -0.200 F 
ENDBRANCH  62  85
ENDBRANCH  36  37
ENDBRANCH  28  31
ENDBRANCH  26  27
ENDBRANCH  25  26
ENDBRANCH   1  25
TORSDOF 14
ENDMDL
MODEL 3
REMARK VINA RESULT:     -12.9      0.966      7.365
REMARK SMILES CC1(C)CCN(S(=O)(=O)c2ccc(O)c(C(=O)NCCCCNC(=O)c3ccc(-c4c5nc(c(-c6c(F)c(F)c(F)c(F)c6F)c6ccc([nH]6)c(-c6c(F)c(F)c(F)c(F)c6F)c6nc(c(-c7c(F)c(F)c(F)c(F)c7F)c7ccc4[nH]7)C=C6)C=C5)cc3)c2)C1
REMARK SMILES IDX 20 1 19 2 18 3 16 4 17 5 15 7 10 8 11 9 89 10 12 11 13 12
REMARK SMILES IDX 7 13 8 14 9 15 6 16 1 17 2 18 3 19 4 20 90 21 5 22 14 23
REMARK SMILES IDX 21 25 22 26 23 27 24 28 25 30 26 31 27 32 88 33 28 34 87 35
REMARK SMILES IDX 29 36 30 37 31 38 81 39 32 40 86 41 80 42 82 43 33 44 85 45
REMARK SMILES IDX 79 46 78 47 34 49 66 50 46 51 65 52 47 53 50 54 64 55 83 56
REMARK SMILES IDX 48 57 49 58 63 60 84 61 51 62 35 63 36 64 44 65 37 66 38 67
REMARK SMILES IDX 42 68 45 69 39 70 40 71 43 72 41 73 67 74 68 75 76 76 69 77
REMARK SMILES IDX 70 78 74 79 77 80 71 81 72 82 75 83 73 84 52 85 53 86 61 87
REMARK SMILES IDX 54 88 55 89 59 90 62 91 56 92 57 93 60 94 58 95
REMARK H PARENT 18 6 14 24 23 29 82 48 50 59
REMARK Flexibility Score: inf
ROOT
ATOM      1  C   UNL A   1      31.816  30.332  26.890  1.00  0.00     0.023 C 
ENDROOT
BRANCH   1   2
ATOM      2  C   UNL A   1      33.205  29.687  26.822  1.00  0.00     0.116 C 
BRANCH   2   3
ATOM      3  N   UNL A   1      33.657  29.579  25.455  1.00  0.00    -0.352 N 
ATOM      4  C   UNL A   1      33.249  28.822  24.389  1.00  0.00     0.255 C 
ATOM      5  O   UNL A   1      33.893  29.004  23.351  1.00  0.00    -0.269 OA
ATOM      6  H   UNL A   1      34.415  30.171  25.245  1.00  0.00     0.163 HD
BRANCH   4   7
ATOM      7  C   UNL A   1      32.116  27.832  24.351  1.00  0.00     0.082 A 
ATOM      8  C   UNL A   1      31.479  25.562  25.041  1.00  0.00     0.083 A 
ATOM      9  C   UNL A   1      30.151  25.821  24.720  1.00  0.00     0.025 A 
ATOM     10  C   UNL A   1      32.451  26.553  24.860  1.00  0.00     0.039 A 
ATOM     11  C   UNL A   1      29.807  27.042  24.163  1.00  0.00     0.048 A 
ATOM     12  C   UNL A   1      30.773  28.044  23.995  1.00  0.00     0.128 A 
BRANCH   8  13
ATOM     13  S   UNL A   1      31.878  24.040  25.872  1.00  0.00     0.243 S 
ATOM     14  O   UNL A   1      31.507  22.958  24.979  1.00  0.00    -0.207 OA
ATOM     15  O   UNL A   1      31.356  24.104  27.217  1.00  0.00    -0.207 OA
BRANCH  13  16
ATOM     16  N   UNL A   1      33.582  24.045  25.987  1.00  0.00    -0.197 NA
ATOM     17  C   UNL A   1      36.725  23.881  25.648  1.00  0.00     0.012 C 
ATOM     18  C   UNL A   1      35.592  22.930  25.240  1.00  0.00    -0.020 C 
ATOM     19  C   UNL A   1      36.098  21.973  24.155  1.00  0.00     0.012 C 
ATOM     20  C   UNL A   1      35.024  22.177  26.442  1.00  0.00     0.024 C 
ATOM     21  C   UNL A   1      34.354  23.695  24.761  1.00  0.00     0.109 C 
ATOM     22  C   UNL A   1      34.099  23.193  27.104  1.00  0.00     0.103 C 
ENDBRANCH  13  16
ENDBRANCH   8  13
BRANCH  12  23
ATOM     23  O   UNL A   1      30.298  29.230  23.530  1.00  0.00    -0.507 OA
ATOM     24  H   UNL A   1      29.835  29.263  22.717  1.00  0.00     0.293 HD
ENDBRANCH  12  23
ENDBRANCH   4   7
ENDBRANCH   2   3
ENDBRANCH   1   2
BRANCH   1  25
ATOM     25  C   UNL A   1      31.779  31.833  26.613  1.00  0.00     0.023 C 
BRANCH  25  26
ATOM     26  C   UNL A   1      32.819  32.642  27.372  1.00  0.00     0.116 C 
BRANCH  26  27
ATOM     27  N   UNL A   1      32.414  34.015  27.642  1.00  0.00    -0.352 N 
ATOM     28  C   UNL A   1      32.967  34.899  28.538  1.00  0.00     0.251 C 
ATOM     29  H   UNL A   1      31.650  34.351  27.119  1.00  0.00     0.163 HD
ATOM     30  O   UNL A   1      32.474  36.007  28.717  1.00  0.00    -0.269 OA
BRANCH  28  31
ATOM     31  C   UNL A   1      34.137  34.468  29.324  1.00  0.00     0.039 A 
ATOM     32  C   UNL A   1      33.928  33.862  30.565  1.00  0.00     0.014 A 
ATOM     33  C   UNL A   1      35.427  34.598  28.803  1.00  0.00     0.014 A 
ATOM     34  C   UNL A   1      35.013  33.316  31.252  1.00  0.00     0.010 A 
ATOM     35  C   UNL A   1      36.493  33.991  29.452  1.00  0.00     0.010 A 
ATOM     36  C   UNL A   1      36.295  33.342  30.681  1.00  0.00    -0.014 A 
BRANCH  36  37
ATOM     37  C   UNL A   1      37.452  32.705  31.353  1.00  0.00     0.031 A 
ATOM     38  C   UNL A   1      38.159  31.559  30.688  1.00  0.00     0.074 A 
ATOM     39  C   UNL A   1      37.810  33.104  32.588  1.00  0.00     0.049 A 
ATOM     40  N   UNL A   1      39.121  30.801  31.148  1.00  0.00    -0.248 NA
ATOM     41  C   UNL A   1      37.699  31.196  29.338  1.00  0.00     0.031 C 
ATOM     42  C   UNL A   1      37.165  34.171  33.355  1.00  0.00     0.029 A 
ATOM     43  N   UNL A   1      38.797  32.644  33.424  1.00  0.00    -0.354 N 
ATOM     44  C   UNL A   1      39.365  29.862  30.155  1.00  0.00     0.074 A 
ATOM     45  C   UNL A   1      38.420  30.113  29.090  1.00  0.00     0.031 C 
ATOM     46  C   UNL A   1      37.783  34.296  34.540  1.00  0.00     0.029 A 
ATOM     47  C   UNL A   1      38.844  33.298  34.631  1.00  0.00     0.049 A 
ATOM     48  H   UNL A   1      39.412  31.916  33.181  1.00  0.00     0.167 HD
ATOM     49  C   UNL A   1      40.309  28.892  30.127  1.00  0.00     0.037 A 
ATOM     50  C   UNL A   1      39.653  33.107  35.691  1.00  0.00     0.037 A 
ATOM     51  C   UNL A   1      41.271  28.671  31.173  1.00  0.00     0.049 A 
ATOM     52  C   UNL A   1      40.707  32.036  35.624  1.00  0.00     0.074 A 
ATOM     53  C   UNL A   1      42.306  27.755  31.214  1.00  0.00     0.029 A 
ATOM     54  N   UNL A   1      41.316  29.383  32.363  1.00  0.00    -0.354 N 
ATOM     55  N   UNL A   1      40.971  31.194  34.655  1.00  0.00    -0.248 NA
ATOM     56  C   UNL A   1      41.582  31.893  36.796  1.00  0.00     0.031 C 
ATOM     57  C   UNL A   1      42.960  27.890  32.443  1.00  0.00     0.029 A 
ATOM     58  C   UNL A   1      42.357  28.919  33.151  1.00  0.00     0.049 A 
ATOM     59  H   UNL A   1      40.700  30.109  32.611  1.00  0.00     0.167 HD
ATOM     60  C   UNL A   1      42.056  30.444  35.085  1.00  0.00     0.074 A 
ATOM     61  C   UNL A   1      42.409  30.936  36.400  1.00  0.00     0.031 C 
ATOM     62  C   UNL A   1      42.702  29.436  34.449  1.00  0.00     0.037 A 
BRANCH  49  63
ATOM     63  C   UNL A   1      40.354  28.006  28.918  1.00  0.00     0.064 A 
ATOM     64  C   UNL A   1      41.105  28.350  27.785  1.00  0.00     0.173 A 
ATOM     65  C   UNL A   1      39.662  26.786  28.903  1.00  0.00     0.173 A 
ATOM     66  F   UNL A   1      41.771  29.515  27.744  1.00  0.00    -0.203 F 
ATOM     67  C   UNL A   1      41.140  27.517  26.670  1.00  0.00     0.198 A 
ATOM     68  C   UNL A   1      39.723  25.942  27.797  1.00  0.00     0.198 A 
ATOM     69  F   UNL A   1      38.932  26.409  29.964  1.00  0.00    -0.203 F 
ATOM     70  F   UNL A   1      41.826  27.888  25.580  1.00  0.00    -0.200 F 
ATOM     71  C   UNL A   1      40.455  26.312  26.679  1.00  0.00     0.200 A 
ATOM     72  F   UNL A   1      39.069  24.772  27.812  1.00  0.00    -0.200 F 
ATOM     73  F   UNL A   1      40.496  25.508  25.608  1.00  0.00    -0.200 F 
ENDBRANCH  49  63
BRANCH  50  74
ATOM     74  C   UNL A   1      39.519  33.969  36.892  1.00  0.00     0.064 A 
ATOM     75  C   UNL A   1      40.160  35.214  36.955  1.00  0.00     0.173 A 
ATOM     76  C   UNL A   1      38.761  33.567  38.001  1.00  0.00     0.173 A 
ATOM     77  F   UNL A   1      40.913  35.632  35.927  1.00  0.00    -0.203 F 
ATOM     78  C   UNL A   1      40.063  36.017  38.090  1.00  0.00     0.198 A 
ATOM     79  C   UNL A   1      38.645  34.381  39.125  1.00  0.00     0.198 A 
ATOM     80  F   UNL A   1      38.125  32.386  37.987  1.00  0.00    -0.203 F 
ATOM     81  F   UNL A   1      40.722  37.183  38.141  1.00  0.00    -0.200 F 
ATOM     82  C   UNL A   1      39.303  35.602  39.172  1.00  0.00     0.200 A 
ATOM     83  F   UNL A   1      37.900  33.983  40.166  1.00  0.00    -0.200 F 
ATOM     84  F   UNL A   1      39.210  36.374  40.264  1.00  0.00    -0.200 F 
ENDBRANCH  50  74
BRANCH  62  85
ATOM     85  C   UNL A   1      43.882  28.829  35.145  1.00  0.00     0.064 A 
ATOM     86  C   UNL A   1      45.175  29.352  34.989  1.00  0.00     0.173 A 
ATOM     87  C   UNL A   1      43.709  27.744  36.015  1.00  0.00     0.173 A 
ATOM     88  F   UNL A   1      45.392  30.380  34.156  1.00  0.00    -0.203 F 
ATOM     89  C   UNL A   1      46.254  28.795  35.670  1.00  0.00     0.198 A 
ATOM     90  C   UNL A   1      44.786  27.206  36.713  1.00  0.00     0.198 A 
ATOM     91  F   UNL A   1      42.489  27.214  36.201  1.00  0.00    -0.203 F 
ATOM     92  F   UNL A   1      47.487  29.284  35.478  1.00  0.00    -0.200 F 
ATOM     93  C   UNL A   1      46.058  27.729  36.534  1.00  0.00     0.200 A 
ATOM     94  F   UNL A   1      44.594  26.184  37.557  1.00  0.00    -0.200 F 
ATOM     95  F   UNL A   1      47.098  27.200  37.194  1.00  0.00    -0.200 F 
ENDBRANCH  62  85
ENDBRANCH  36  37
ENDBRANCH  28  31
ENDBRANCH  26  27
ENDBRANCH  25  26
ENDBRANCH   1  25
TORSDOF 14
ENDMDL
