MODEL 1
REMARK VINA RESULT:     -11.6      0.000      0.000
REMARK SMILES O=C(NCCCCNC(=O)[C@H](CO)NC(=O)[C@H](CS)NC(=O)c1ccc(F)cc1)c1ccc(-c2c3nc(c(-c4c(F)c(F)c(F)c(F)c4F)c4ccc([nH]4)c(-c4c(F)c(F)c(F)c(F)c4F)c4nc(c(-c5c(F)c(F)c(F)c(F)c5F)c5ccc2[nH]5)C=C4)C=C3)cc1
REMARK SMILES IDX 6 1 5 2 4 3 3 4 1 5 2 6 30 8 31 9 92 10 32 11 91 12 33 13
REMARK SMILES IDX 34 14 35 15 85 16 36 17 90 18 84 19 86 20 37 21 89 22 83 23
REMARK SMILES IDX 82 24 38 26 70 27 50 28 69 29 51 30 54 31 68 32 87 33 52 34
REMARK SMILES IDX 53 35 67 37 88 38 55 39 39 40 40 41 48 42 41 43 42 44 46 45
REMARK SMILES IDX 49 46 43 47 44 48 47 49 45 50 71 51 72 52 80 53 73 54 74 55
REMARK SMILES IDX 78 56 81 57 75 58 76 59 79 60 77 61 56 62 57 63 65 64 58 65
REMARK SMILES IDX 59 66 63 67 66 68 60 69 61 70 64 71 62 72 7 73 8 74 9 75
REMARK SMILES IDX 10 77 11 78 14 79 15 80 16 82 17 83 20 84 21 85 22 87 23 88
REMARK SMILES IDX 24 89 29 90 25 91 28 92 26 93 27 94 18 95 19 96 12 98 13 99
REMARK H PARENT 3 7 86 25 54 36 8 76 14 81 20 86 19 97 13 100
REMARK Flexibility Score: inf
ROOT
ATOM      1  C   UNL A   1      31.780  30.575  26.474  1.00  0.00     0.023 C 
ENDROOT
BRANCH   1   2
ATOM      2  C   UNL A   1      31.451  32.039  26.778  1.00  0.00     0.023 C 
BRANCH   2   3
ATOM      3  C   UNL A   1      32.655  32.956  26.945  1.00  0.00     0.116 C 
BRANCH   3   4
ATOM      4  N   UNL A   1      32.353  34.204  27.626  1.00  0.00    -0.352 N 
ATOM      5  O   UNL A   1      32.580  35.774  29.239  1.00  0.00    -0.269 OA
ATOM      6  C   UNL A   1      32.998  34.751  28.710  1.00  0.00     0.251 C 
ATOM      7  H   UNL A   1      31.594  34.720  27.267  1.00  0.00     0.163 HD
BRANCH   6   8
ATOM      8  C   UNL A   1      34.184  34.061  29.256  1.00  0.00     0.039 A 
ATOM      9  C   UNL A   1      34.031  32.985  30.133  1.00  0.00     0.014 A 
ATOM     10  C   UNL A   1      35.458  34.522  28.912  1.00  0.00     0.014 A 
ATOM     11  C   UNL A   1      35.146  32.454  30.766  1.00  0.00     0.010 A 
ATOM     12  C   UNL A   1      36.584  33.936  29.493  1.00  0.00     0.010 A 
ATOM     13  C   UNL A   1      36.434  32.915  30.444  1.00  0.00    -0.014 A 
BRANCH  13  14
ATOM     14  C   UNL A   1      37.607  32.255  31.065  1.00  0.00     0.031 A 
ATOM     15  C   UNL A   1      38.038  32.584  32.464  1.00  0.00     0.074 A 
ATOM     16  C   UNL A   1      38.252  31.307  30.358  1.00  0.00     0.049 A 
ATOM     17  N   UNL A   1      39.017  32.069  33.165  1.00  0.00    -0.248 NA
ATOM     18  C   UNL A   1      37.278  33.625  33.175  1.00  0.00     0.031 C 
ATOM     19  C   UNL A   1      37.915  30.913  28.988  1.00  0.00     0.029 A 
ATOM     20  N   UNL A   1      39.295  30.485  30.694  1.00  0.00    -0.354 N 
ATOM     21  C   UNL A   1      39.001  32.727  34.386  1.00  0.00     0.074 A 
ATOM     22  C   UNL A   1      37.927  33.696  34.330  1.00  0.00     0.031 C 
ATOM     23  C   UNL A   1      38.694  29.886  28.622  1.00  0.00     0.029 A 
ATOM     24  C   UNL A   1      39.625  29.590  29.706  1.00  0.00     0.049 A 
ATOM     25  H   UNL A   1      39.762  30.532  31.560  1.00  0.00     0.167 HD
ATOM     26  C   UNL A   1      39.809  32.530  35.455  1.00  0.00     0.037 A 
ATOM     27  C   UNL A   1      40.577  28.642  29.672  1.00  0.00     0.037 A 
ATOM     28  C   UNL A   1      40.864  31.551  35.507  1.00  0.00     0.049 A 
ATOM     29  C   UNL A   1      41.469  28.464  30.865  1.00  0.00     0.074 A 
ATOM     30  C   UNL A   1      41.719  31.260  36.557  1.00  0.00     0.029 A 
ATOM     31  N   UNL A   1      41.205  30.699  34.468  1.00  0.00    -0.354 N 
ATOM     32  N   UNL A   1      41.439  29.090  32.016  1.00  0.00    -0.248 NA
ATOM     33  C   UNL A   1      42.535  27.461  30.751  1.00  0.00     0.031 C 
ATOM     34  C   UNL A   1      42.602  30.260  36.139  1.00  0.00     0.029 A 
ATOM     35  C   UNL A   1      42.270  29.897  34.844  1.00  0.00     0.049 A 
ATOM     36  H   UNL A   1      40.756  30.668  33.592  1.00  0.00     0.167 HD
ATOM     37  C   UNL A   1      42.479  28.559  32.764  1.00  0.00     0.074 A 
ATOM     38  C   UNL A   1      43.104  27.539  31.947  1.00  0.00     0.031 C 
ATOM     39  C   UNL A   1      42.886  28.896  34.011  1.00  0.00     0.037 A 
BRANCH  26  40
ATOM     40  C   UNL A   1      39.600  33.389  36.667  1.00  0.00     0.064 A 
ATOM     41  C   UNL A   1      38.703  32.994  37.671  1.00  0.00     0.173 A 
ATOM     42  C   UNL A   1      40.209  34.647  36.787  1.00  0.00     0.173 A 
ATOM     43  F   UNL A   1      38.091  31.803  37.599  1.00  0.00    -0.203 F 
ATOM     44  C   UNL A   1      38.409  33.836  38.741  1.00  0.00     0.198 A 
ATOM     45  C   UNL A   1      39.927  35.478  37.869  1.00  0.00     0.198 A 
ATOM     46  F   UNL A   1      41.082  35.065  35.858  1.00  0.00    -0.203 F 
ATOM     47  F   UNL A   1      37.523  33.452  39.670  1.00  0.00    -0.200 F 
ATOM     48  C   UNL A   1      39.021  35.076  38.839  1.00  0.00     0.200 A 
ATOM     49  F   UNL A   1      40.531  36.670  37.971  1.00  0.00    -0.200 F 
ATOM     50  F   UNL A   1      38.735  35.886  39.867  1.00  0.00    -0.200 F 
ENDBRANCH  26  40
BRANCH  27  51
ATOM     51  C   UNL A   1      40.722  27.794  28.463  1.00  0.00     0.064 A 
ATOM     52  C   UNL A   1      41.513  28.203  27.378  1.00  0.00     0.173 A 
ATOM     53  C   UNL A   1      40.036  26.579  28.350  1.00  0.00     0.173 A 
ATOM     54  F   UNL A   1      42.185  29.363  27.437  1.00  0.00    -0.203 F 
ATOM     55  C   UNL A   1      41.590  27.440  26.217  1.00  0.00     0.198 A 
ATOM     56  C   UNL A   1      40.135  25.802  27.198  1.00  0.00     0.198 A 
ATOM     57  F   UNL A   1      39.281  26.140  29.368  1.00  0.00    -0.203 F 
ATOM     58  F   UNL A   1      42.319  27.874  25.180  1.00  0.00    -0.200 F 
ATOM     59  C   UNL A   1      40.904  26.238  26.129  1.00  0.00     0.200 A 
ATOM     60  F   UNL A   1      39.487  24.632  27.124  1.00  0.00    -0.200 F 
ATOM     61  F   UNL A   1      40.985  25.499  25.014  1.00  0.00    -0.200 F 
ENDBRANCH  27  51
BRANCH  39  62
ATOM     62  C   UNL A   1      44.066  28.158  34.566  1.00  0.00     0.064 A 
ATOM     63  C   UNL A   1      43.891  26.957  35.269  1.00  0.00     0.173 A 
ATOM     64  C   UNL A   1      45.365  28.670  34.443  1.00  0.00     0.173 A 
ATOM     65  F   UNL A   1      42.666  26.431  35.417  1.00  0.00    -0.203 F 
ATOM     66  C   UNL A   1      44.977  26.298  35.836  1.00  0.00     0.198 A 
ATOM     67  C   UNL A   1      46.452  27.996  34.992  1.00  0.00     0.198 A 
ATOM     68  F   UNL A   1      45.580  29.807  33.766  1.00  0.00    -0.203 F 
ATOM     69  F   UNL A   1      44.787  25.163  36.523  1.00  0.00    -0.200 F 
ATOM     70  C   UNL A   1      46.257  26.815  35.693  1.00  0.00     0.200 A 
ATOM     71  F   UNL A   1      47.690  28.484  34.832  1.00  0.00    -0.200 F 
ATOM     72  F   UNL A   1      47.304  26.172  36.228  1.00  0.00    -0.200 F 
ENDBRANCH  39  62
ENDBRANCH  13  14
ENDBRANCH   6   8
ENDBRANCH   3   4
ENDBRANCH   2   3
ENDBRANCH   1   2
BRANCH   1  73
ATOM     73  C   UNL A   1      31.166  30.035  25.186  1.00  0.00     0.116 C 
BRANCH  73  74
ATOM     74  N   UNL A   1      32.183  29.703  24.209  1.00  0.00    -0.354 N 
ATOM     75  C   UNL A   1      32.198  28.873  23.135  1.00  0.00     0.244 C 
ATOM     76  H   UNL A   1      33.035  30.173  24.353  1.00  0.00     0.163 HD
ATOM     77  O   UNL A   1      33.255  28.838  22.491  1.00  0.00    -0.273 OA
BRANCH  75  78
ATOM     78  C   UNL A   1      31.002  28.010  22.663  1.00  0.00     0.197 C 
BRANCH  78  79
ATOM     79  N   UNL A   1      30.333  27.138  23.630  1.00  0.00    -0.340 N 
ATOM     80  C   UNL A   1      30.724  26.057  24.353  1.00  0.00     0.244 C 
ATOM     81  H   UNL A   1      29.395  27.390  23.792  1.00  0.00     0.164 HD
ATOM     82  O   UNL A   1      29.905  25.674  25.198  1.00  0.00    -0.273 OA
BRANCH  80  83
ATOM     83  C   UNL A   1      32.008  25.223  24.095  1.00  0.00     0.181 C 
BRANCH  83  84
ATOM     84  N   UNL A   1      32.238  24.799  22.716  1.00  0.00    -0.339 N 
ATOM     85  C   UNL A   1      33.134  23.882  22.221  1.00  0.00     0.251 C 
ATOM     86  H   UNL A   1      31.669  25.236  22.042  1.00  0.00     0.164 HD
ATOM     87  O   UNL A   1      33.280  23.792  21.006  1.00  0.00    -0.269 OA
BRANCH  85  88
ATOM     88  C   UNL A   1      33.933  23.012  23.120  1.00  0.00     0.040 A 
ATOM     89  C   UNL A   1      33.370  21.956  23.849  1.00  0.00     0.017 A 
ATOM     90  C   UNL A   1      35.317  23.231  23.176  1.00  0.00     0.017 A 
ATOM     91  C   UNL A   1      34.172  21.169  24.678  1.00  0.00     0.040 A 
ATOM     92  C   UNL A   1      36.119  22.434  23.996  1.00  0.00     0.040 A 
ATOM     93  C   UNL A   1      35.537  21.418  24.748  1.00  0.00     0.123 A 
ATOM     94  F   UNL A   1      36.304  20.661  25.542  1.00  0.00    -0.207 F 
ENDBRANCH  85  88
ENDBRANCH  83  84
BRANCH  83  95
ATOM     95  C   UNL A   1      33.210  26.015  24.661  1.00  0.00     0.101 C 
BRANCH  95  96
ATOM     96  S   UNL A   1      32.907  26.766  26.297  1.00  0.00    -0.177 SA
ATOM     97  H   UNL A   1      33.895  27.658  26.575  1.00  0.00     0.102 HD
ENDBRANCH  95  96
ENDBRANCH  83  95
ENDBRANCH  80  83
ENDBRANCH  78  79
BRANCH  78  98
ATOM     98  C   UNL A   1      29.986  28.976  22.015  1.00  0.00     0.191 C 
BRANCH  98  99
ATOM     99  O   UNL A   1      30.645  30.076  21.389  1.00  0.00    -0.394 OA
ATOM    100  H   UNL A   1      31.576  30.094  21.664  1.00  0.00     0.210 HD
ENDBRANCH  98  99
ENDBRANCH  78  98
ENDBRANCH  75  78
ENDBRANCH  73  74
ENDBRANCH   1  73
TORSDOF 19
ENDMDL
MODEL 2
REMARK VINA RESULT:     -11.5      1.211      1.935
REMARK SMILES O=C(NCCCCNC(=O)[C@H](CO)NC(=O)[C@H](CS)NC(=O)c1ccc(F)cc1)c1ccc(-c2c3nc(c(-c4c(F)c(F)c(F)c(F)c4F)c4ccc([nH]4)c(-c4c(F)c(F)c(F)c(F)c4F)c4nc(c(-c5c(F)c(F)c(F)c(F)c5F)c5ccc2[nH]5)C=C4)C=C3)cc1
REMARK SMILES IDX 6 1 5 2 4 3 3 4 1 5 2 6 30 8 31 9 92 10 32 11 91 12 33 13
REMARK SMILES IDX 34 14 35 15 85 16 36 17 90 18 84 19 86 20 37 21 89 22 83 23
REMARK SMILES IDX 82 24 38 26 70 27 50 28 69 29 51 30 54 31 68 32 87 33 52 34
REMARK SMILES IDX 53 35 67 37 88 38 55 39 39 40 40 41 48 42 41 43 42 44 46 45
REMARK SMILES IDX 49 46 43 47 44 48 47 49 45 50 71 51 72 52 80 53 73 54 74 55
REMARK SMILES IDX 78 56 81 57 75 58 76 59 79 60 77 61 56 62 57 63 65 64 58 65
REMARK SMILES IDX 59 66 63 67 66 68 60 69 61 70 64 71 62 72 7 73 8 74 9 75
REMARK SMILES IDX 10 77 11 78 14 79 15 80 16 82 17 83 20 84 21 85 22 87 23 88
REMARK SMILES IDX 24 89 29 90 25 91 28 92 26 93 27 94 18 95 19 96 12 98 13 99
REMARK H PARENT 3 7 86 25 54 36 8 76 14 81 20 86 19 97 13 100
REMARK Flexibility Score: inf
ROOT
ATOM      1  C   UNL A   1      31.765  30.769  26.733  1.00  0.00     0.023 C 
ENDROOT
BRANCH   1   2
ATOM      2  C   UNL A   1      31.516  32.275  26.843  1.00  0.00     0.023 C 
BRANCH   2   3
ATOM      3  C   UNL A   1      32.724  33.106  27.256  1.00  0.00     0.116 C 
BRANCH   3   4
ATOM      4  N   UNL A   1      32.386  34.439  27.728  1.00  0.00    -0.352 N 
ATOM      5  O   UNL A   1      32.541  36.239  29.091  1.00  0.00    -0.269 OA
ATOM      6  C   UNL A   1      32.986  35.152  28.739  1.00  0.00     0.251 C 
ATOM      7  H   UNL A   1      31.637  34.883  27.269  1.00  0.00     0.163 HD
BRANCH   6   8
ATOM      8  C   UNL A   1      34.157  34.570  29.424  1.00  0.00     0.039 A 
ATOM      9  C   UNL A   1      35.418  34.617  28.826  1.00  0.00     0.014 A 
ATOM     10  C   UNL A   1      33.981  33.941  30.660  1.00  0.00     0.014 A 
ATOM     11  C   UNL A   1      36.475  33.924  29.400  1.00  0.00     0.010 A 
ATOM     12  C   UNL A   1      35.063  33.308  31.273  1.00  0.00     0.010 A 
ATOM     13  C   UNL A   1      36.312  33.273  30.634  1.00  0.00    -0.014 A 
BRANCH  13  14
ATOM     14  C   UNL A   1      37.489  32.629  31.266  1.00  0.00     0.031 A 
ATOM     15  C   UNL A   1      37.930  32.996  32.652  1.00  0.00     0.074 A 
ATOM     16  C   UNL A   1      38.126  31.661  30.580  1.00  0.00     0.049 A 
ATOM     17  N   UNL A   1      38.913  32.498  33.359  1.00  0.00    -0.248 NA
ATOM     18  C   UNL A   1      37.177  34.058  33.338  1.00  0.00     0.031 C 
ATOM     19  C   UNL A   1      37.779  31.229  29.224  1.00  0.00     0.029 A 
ATOM     20  N   UNL A   1      39.170  30.846  30.931  1.00  0.00    -0.354 N 
ATOM     21  C   UNL A   1      38.907  33.190  34.562  1.00  0.00     0.074 A 
ATOM     22  C   UNL A   1      37.834  34.160  34.487  1.00  0.00     0.031 C 
ATOM     23  C   UNL A   1      38.554  30.191  28.882  1.00  0.00     0.029 A 
ATOM     24  C   UNL A   1      39.492  29.924  29.967  1.00  0.00     0.049 A 
ATOM     25  H   UNL A   1      39.643  30.916  31.792  1.00  0.00     0.167 HD
ATOM     26  C   UNL A   1      39.723  33.022  35.630  1.00  0.00     0.037 A 
ATOM     27  C   UNL A   1      40.442  28.973  29.953  1.00  0.00     0.037 A 
ATOM     28  C   UNL A   1      40.775  32.042  35.702  1.00  0.00     0.049 A 
ATOM     29  C   UNL A   1      41.342  28.826  31.144  1.00  0.00     0.074 A 
ATOM     30  C   UNL A   1      41.638  31.779  36.754  1.00  0.00     0.029 A 
ATOM     31  N   UNL A   1      41.107  31.161  34.684  1.00  0.00    -0.354 N 
ATOM     32  N   UNL A   1      41.321  29.483  32.277  1.00  0.00    -0.248 NA
ATOM     33  C   UNL A   1      42.405  27.818  31.050  1.00  0.00     0.031 C 
ATOM     34  C   UNL A   1      42.516  30.766  36.358  1.00  0.00     0.029 A 
ATOM     35  C   UNL A   1      42.174  30.368  35.075  1.00  0.00     0.049 A 
ATOM     36  H   UNL A   1      40.652  31.106  33.813  1.00  0.00     0.167 HD
ATOM     37  C   UNL A   1      42.366  28.972  33.032  1.00  0.00     0.074 A 
ATOM     38  C   UNL A   1      42.983  27.929  32.239  1.00  0.00     0.031 C 
ATOM     39  C   UNL A   1      42.782  29.342  34.267  1.00  0.00     0.037 A 
BRANCH  26  40
ATOM     40  C   UNL A   1      39.524  33.914  36.820  1.00  0.00     0.064 A 
ATOM     41  C   UNL A   1      40.175  35.155  36.893  1.00  0.00     0.173 A 
ATOM     42  C   UNL A   1      38.772  33.499  37.928  1.00  0.00     0.173 A 
ATOM     43  F   UNL A   1      40.910  35.594  35.861  1.00  0.00    -0.203 F 
ATOM     44  C   UNL A   1      40.095  35.939  38.041  1.00  0.00     0.198 A 
ATOM     45  C   UNL A   1      38.679  34.295  39.068  1.00  0.00     0.198 A 
ATOM     46  F   UNL A   1      38.123  32.326  37.902  1.00  0.00    -0.203 F 
ATOM     47  F   UNL A   1      40.753  37.105  38.102  1.00  0.00    -0.200 F 
ATOM     48  C   UNL A   1      39.349  35.509  39.127  1.00  0.00     0.200 A 
ATOM     49  F   UNL A   1      37.943  33.886  40.111  1.00  0.00    -0.200 F 
ATOM     50  F   UNL A   1      39.275  36.262  40.233  1.00  0.00    -0.200 F 
ENDBRANCH  26  40
BRANCH  27  51
ATOM     51  C   UNL A   1      40.577  28.091  28.766  1.00  0.00     0.064 A 
ATOM     52  C   UNL A   1      41.367  28.465  27.668  1.00  0.00     0.173 A 
ATOM     53  C   UNL A   1      39.882  26.878  28.689  1.00  0.00     0.173 A 
ATOM     54  F   UNL A   1      42.046  29.621  27.693  1.00  0.00    -0.203 F 
ATOM     55  C   UNL A   1      41.434  27.670  26.528  1.00  0.00     0.198 A 
ATOM     56  C   UNL A   1      39.971  26.070  27.559  1.00  0.00     0.198 A 
ATOM     57  F   UNL A   1      39.128  26.472  29.721  1.00  0.00    -0.203 F 
ATOM     58  F   UNL A   1      42.162  28.071  25.477  1.00  0.00    -0.200 F 
ATOM     59  C   UNL A   1      40.739  26.471  26.475  1.00  0.00     0.200 A 
ATOM     60  F   UNL A   1      39.316  24.902  27.519  1.00  0.00    -0.200 F 
ATOM     61  F   UNL A   1      40.811  25.701  25.381  1.00  0.00    -0.200 F 
ENDBRANCH  27  51
BRANCH  39  62
ATOM     62  C   UNL A   1      43.964  28.618  34.833  1.00  0.00     0.064 A 
ATOM     63  C   UNL A   1      43.791  27.455  35.598  1.00  0.00     0.173 A 
ATOM     64  C   UNL A   1      45.267  29.107  34.659  1.00  0.00     0.173 A 
ATOM     65  F   UNL A   1      42.562  26.953  35.796  1.00  0.00    -0.203 F 
ATOM     66  C   UNL A   1      44.881  26.811  36.175  1.00  0.00     0.198 A 
ATOM     67  C   UNL A   1      46.357  28.447  35.218  1.00  0.00     0.198 A 
ATOM     68  F   UNL A   1      45.481  30.207  33.922  1.00  0.00    -0.203 F 
ATOM     69  F   UNL A   1      44.692  25.714  36.921  1.00  0.00    -0.200 F 
ATOM     70  C   UNL A   1      46.162  27.305  35.981  1.00  0.00     0.200 A 
ATOM     71  F   UNL A   1      47.597  28.910  35.010  1.00  0.00    -0.200 F 
ATOM     72  F   UNL A   1      47.213  26.676  36.526  1.00  0.00    -0.200 F 
ENDBRANCH  39  62
ENDBRANCH  13  14
ENDBRANCH   6   8
ENDBRANCH   3   4
ENDBRANCH   2   3
ENDBRANCH   1   2
BRANCH   1  73
ATOM     73  C   UNL A   1      31.456  30.167  25.364  1.00  0.00     0.116 C 
BRANCH  73  74
ATOM     74  N   UNL A   1      32.636  29.584  24.759  1.00  0.00    -0.354 N 
ATOM     75  C   UNL A   1      32.842  28.454  24.038  1.00  0.00     0.244 C 
ATOM     76  H   UNL A   1      33.452  30.115  24.901  1.00  0.00     0.163 HD
ATOM     77  O   UNL A   1      34.003  28.260  23.652  1.00  0.00    -0.273 OA
BRANCH  75  78
ATOM     78  C   UNL A   1      31.744  27.431  23.657  1.00  0.00     0.197 C 
BRANCH  78  79
ATOM     79  N   UNL A   1      30.807  26.980  24.687  1.00  0.00    -0.340 N 
ATOM     80  C   UNL A   1      30.806  25.951  25.574  1.00  0.00     0.244 C 
ATOM     81  H   UNL A   1      30.004  27.545  24.752  1.00  0.00     0.164 HD
ATOM     82  O   UNL A   1      29.892  25.987  26.408  1.00  0.00    -0.273 OA
BRANCH  80  83
ATOM     83  C   UNL A   1      31.743  24.715  25.515  1.00  0.00     0.181 C 
BRANCH  83  84
ATOM     84  N   UNL A   1      31.950  23.999  26.771  1.00  0.00    -0.339 N 
ATOM     85  C   UNL A   1      32.917  23.081  27.104  1.00  0.00     0.251 C 
ATOM     86  H   UNL A   1      31.301  24.203  27.482  1.00  0.00     0.164 HD
ATOM     87  O   UNL A   1      32.816  22.472  28.165  1.00  0.00    -0.269 OA
BRANCH  85  88
ATOM     88  C   UNL A   1      34.068  22.803  26.209  1.00  0.00     0.040 A 
ATOM     89  C   UNL A   1      35.077  23.742  25.960  1.00  0.00     0.017 A 
ATOM     90  C   UNL A   1      34.165  21.520  25.653  1.00  0.00     0.017 A 
ATOM     91  C   UNL A   1      36.138  23.424  25.110  1.00  0.00     0.040 A 
ATOM     92  C   UNL A   1      35.234  21.200  24.813  1.00  0.00     0.040 A 
ATOM     93  C   UNL A   1      36.204  22.158  24.541  1.00  0.00     0.123 A 
ATOM     94  F   UNL A   1      37.223  21.855  23.727  1.00  0.00    -0.207 F 
ENDBRANCH  85  88
ENDBRANCH  83  84
BRANCH  83  95
ATOM     95  C   UNL A   1      31.224  23.780  24.398  1.00  0.00     0.101 C 
BRANCH  95  96
ATOM     96  S   UNL A   1      32.344  23.631  22.964  1.00  0.00    -0.177 SA
ATOM     97  H   UNL A   1      33.471  24.357  23.193  1.00  0.00     0.102 HD
ENDBRANCH  95  96
ENDBRANCH  83  95
ENDBRANCH  80  83
ENDBRANCH  78  79
BRANCH  78  98
ATOM     98  C   UNL A   1      30.978  28.030  22.456  1.00  0.00     0.191 C 
BRANCH  98  99
ATOM     99  O   UNL A   1      31.594  29.232  21.998  1.00  0.00    -0.394 OA
ATOM    100  H   UNL A   1      31.280  29.436  21.103  1.00  0.00     0.210 HD
ENDBRANCH  98  99
ENDBRANCH  78  98
ENDBRANCH  75  78
ENDBRANCH  73  74
ENDBRANCH   1  73
TORSDOF 19
ENDMDL
MODEL 3
REMARK VINA RESULT:     -11.5      5.279     10.860
REMARK SMILES O=C(NCCCCNC(=O)[C@H](CO)NC(=O)[C@H](CS)NC(=O)c1ccc(F)cc1)c1ccc(-c2c3nc(c(-c4c(F)c(F)c(F)c(F)c4F)c4ccc([nH]4)c(-c4c(F)c(F)c(F)c(F)c4F)c4nc(c(-c5c(F)c(F)c(F)c(F)c5F)c5ccc2[nH]5)C=C4)C=C3)cc1
REMARK SMILES IDX 6 1 5 2 4 3 3 4 1 5 2 6 30 8 31 9 92 10 32 11 91 12 33 13
REMARK SMILES IDX 34 14 35 15 85 16 36 17 90 18 84 19 86 20 37 21 89 22 83 23
REMARK SMILES IDX 82 24 38 26 70 27 50 28 69 29 51 30 54 31 68 32 87 33 52 34
REMARK SMILES IDX 53 35 67 37 88 38 55 39 39 40 40 41 48 42 41 43 42 44 46 45
REMARK SMILES IDX 49 46 43 47 44 48 47 49 45 50 71 51 72 52 80 53 73 54 74 55
REMARK SMILES IDX 78 56 81 57 75 58 76 59 79 60 77 61 56 62 57 63 65 64 58 65
REMARK SMILES IDX 59 66 63 67 66 68 60 69 61 70 64 71 62 72 7 73 8 74 9 75
REMARK SMILES IDX 10 77 11 78 14 79 15 80 16 82 17 83 20 84 21 85 22 87 23 88
REMARK SMILES IDX 24 89 29 90 25 91 28 92 26 93 27 94 18 95 19 96 12 98 13 99
REMARK H PARENT 3 7 86 25 54 36 8 76 14 81 20 86 19 97 13 100
REMARK Flexibility Score: inf
ROOT
ATOM      1  C   UNL A   1      37.156  21.069  24.917  1.00  0.00     0.023 C 
ENDROOT
BRANCH   1   2
ATOM      2  C   UNL A   1      38.186  19.939  24.989  1.00  0.00     0.023 C 
BRANCH   2   3
ATOM      3  C   UNL A   1      39.292  20.130  26.017  1.00  0.00     0.116 C 
BRANCH   3   4
ATOM      4  N   UNL A   1      40.345  19.131  25.939  1.00  0.00    -0.352 N 
ATOM      5  O   UNL A   1      42.486  18.398  25.901  1.00  0.00    -0.269 OA
ATOM      6  C   UNL A   1      41.700  19.322  26.078  1.00  0.00     0.251 C 
ATOM      7  H   UNL A   1      40.053  18.207  25.765  1.00  0.00     0.163 HD
BRANCH   6   8
ATOM      8  C   UNL A   1      42.200  20.672  26.405  1.00  0.00     0.039 A 
ATOM      9  C   UNL A   1      42.345  21.066  27.737  1.00  0.00     0.014 A 
ATOM     10  C   UNL A   1      42.491  21.561  25.366  1.00  0.00     0.014 A 
ATOM     11  C   UNL A   1      42.655  22.386  28.031  1.00  0.00     0.010 A 
ATOM     12  C   UNL A   1      42.877  22.869  25.665  1.00  0.00     0.010 A 
ATOM     13  C   UNL A   1      42.937  23.298  27.000  1.00  0.00    -0.014 A 
BRANCH  13  14
ATOM     14  C   UNL A   1      43.363  24.672  27.355  1.00  0.00     0.031 A 
ATOM     15  C   UNL A   1      44.753  25.157  27.068  1.00  0.00     0.074 A 
ATOM     16  C   UNL A   1      42.449  25.500  27.898  1.00  0.00     0.049 A 
ATOM     17  N   UNL A   1      45.269  26.342  27.281  1.00  0.00    -0.248 NA
ATOM     18  C   UNL A   1      45.690  24.196  26.466  1.00  0.00     0.031 C 
ATOM     19  C   UNL A   1      41.070  25.127  28.220  1.00  0.00     0.029 A 
ATOM     20  N   UNL A   1      42.526  26.823  28.245  1.00  0.00    -0.354 N 
ATOM     21  C   UNL A   1      46.588  26.266  26.855  1.00  0.00     0.074 A 
ATOM     22  C   UNL A   1      46.804  24.913  26.387  1.00  0.00     0.031 C 
ATOM     23  C   UNL A   1      40.413  26.209  28.660  1.00  0.00     0.029 A 
ATOM     24  C   UNL A   1      41.339  27.335  28.710  1.00  0.00     0.049 A 
ATOM     25  H   UNL A   1      43.351  27.354  28.169  1.00  0.00     0.167 HD
ATOM     26  C   UNL A   1      47.526  27.243  26.852  1.00  0.00     0.037 A 
ATOM     27  C   UNL A   1      41.033  28.572  29.137  1.00  0.00     0.037 A 
ATOM     28  C   UNL A   1      47.296  28.591  27.303  1.00  0.00     0.049 A 
ATOM     29  C   UNL A   1      42.100  29.626  29.140  1.00  0.00     0.074 A 
ATOM     30  C   UNL A   1      48.177  29.659  27.314  1.00  0.00     0.029 A 
ATOM     31  N   UNL A   1      46.096  29.060  27.818  1.00  0.00    -0.354 N 
ATOM     32  N   UNL A   1      43.341  29.542  28.730  1.00  0.00    -0.248 NA
ATOM     33  C   UNL A   1      41.730  30.941  29.679  1.00  0.00     0.031 C 
ATOM     34  C   UNL A   1      47.524  30.762  27.871  1.00  0.00     0.029 A 
ATOM     35  C   UNL A   1      46.222  30.394  28.169  1.00  0.00     0.049 A 
ATOM     36  H   UNL A   1      45.277  28.524  27.919  1.00  0.00     0.167 HD
ATOM     37  C   UNL A   1      43.903  30.789  28.960  1.00  0.00     0.074 A 
ATOM     38  C   UNL A   1      42.858  31.621  29.520  1.00  0.00     0.031 C 
ATOM     39  C   UNL A   1      45.173  31.202  28.737  1.00  0.00     0.037 A 
BRANCH  26  40
ATOM     40  C   UNL A   1      48.899  26.905  26.351  1.00  0.00     0.064 A 
ATOM     41  C   UNL A   1      49.221  27.074  24.996  1.00  0.00     0.173 A 
ATOM     42  C   UNL A   1      49.859  26.320  27.188  1.00  0.00     0.173 A 
ATOM     43  F   UNL A   1      48.334  27.623  24.153  1.00  0.00    -0.203 F 
ATOM     44  C   UNL A   1      50.450  26.652  24.494  1.00  0.00     0.198 A 
ATOM     45  C   UNL A   1      51.095  25.917  26.686  1.00  0.00     0.198 A 
ATOM     46  F   UNL A   1      49.601  26.147  28.493  1.00  0.00    -0.203 F 
ATOM     47  F   UNL A   1      50.724  26.792  23.189  1.00  0.00    -0.200 F 
ATOM     48  C   UNL A   1      51.385  26.074  25.338  1.00  0.00     0.200 A 
ATOM     49  F   UNL A   1      52.005  25.373  27.507  1.00  0.00    -0.200 F 
ATOM     50  F   UNL A   1      52.566  25.665  24.854  1.00  0.00    -0.200 F 
ENDBRANCH  26  40
BRANCH  27  51
ATOM     51  C   UNL A   1      39.651  28.867  29.591  1.00  0.00     0.064 A 
ATOM     52  C   UNL A   1      39.245  28.603  30.908  1.00  0.00     0.173 A 
ATOM     53  C   UNL A   1      38.695  29.377  28.703  1.00  0.00     0.173 A 
ATOM     54  F   UNL A   1      40.123  28.107  31.794  1.00  0.00    -0.203 F 
ATOM     55  C   UNL A   1      37.930  28.813  31.312  1.00  0.00     0.198 A 
ATOM     56  C   UNL A   1      37.386  29.614  29.115  1.00  0.00     0.198 A 
ATOM     57  F   UNL A   1      39.042  29.661  27.439  1.00  0.00    -0.203 F 
ATOM     58  F   UNL A   1      37.560  28.512  32.563  1.00  0.00    -0.200 F 
ATOM     59  C   UNL A   1      37.002  29.322  30.415  1.00  0.00     0.200 A 
ATOM     60  F   UNL A   1      36.497  30.124  28.253  1.00  0.00    -0.200 F 
ATOM     61  F   UNL A   1      35.738  29.533  30.806  1.00  0.00    -0.200 F 
ENDBRANCH  27  51
BRANCH  39  62
ATOM     62  C   UNL A   1      45.505  32.616  29.104  1.00  0.00     0.064 A 
ATOM     63  C   UNL A   1      45.986  32.927  30.384  1.00  0.00     0.173 A 
ATOM     64  C   UNL A   1      45.296  33.668  28.202  1.00  0.00     0.173 A 
ATOM     65  F   UNL A   1      46.197  31.954  31.283  1.00  0.00    -0.203 F 
ATOM     66  C   UNL A   1      46.240  34.245  30.750  1.00  0.00     0.198 A 
ATOM     67  C   UNL A   1      45.573  34.984  28.563  1.00  0.00     0.198 A 
ATOM     68  F   UNL A   1      44.851  33.415  26.962  1.00  0.00    -0.203 F 
ATOM     69  F   UNL A   1      46.679  34.525  31.985  1.00  0.00    -0.200 F 
ATOM     70  C   UNL A   1      46.038  35.271  29.839  1.00  0.00     0.200 A 
ATOM     71  F   UNL A   1      45.401  35.971  27.674  1.00  0.00    -0.200 F 
ATOM     72  F   UNL A   1      46.296  36.539  30.187  1.00  0.00    -0.200 F 
ENDBRANCH  39  62
ENDBRANCH  13  14
ENDBRANCH   6   8
ENDBRANCH   3   4
ENDBRANCH   2   3
ENDBRANCH   1   2
BRANCH   1  73
ATOM     73  C   UNL A   1      35.701  20.617  25.013  1.00  0.00     0.116 C 
BRANCH  73  74
ATOM     74  N   UNL A   1      35.071  21.103  26.224  1.00  0.00    -0.354 N 
ATOM     75  C   UNL A   1      34.001  21.907  26.450  1.00  0.00     0.244 C 
ATOM     76  H   UNL A   1      35.505  20.786  27.047  1.00  0.00     0.163 HD
ATOM     77  O   UNL A   1      33.719  22.113  27.639  1.00  0.00    -0.273 OA
BRANCH  75  78
ATOM     78  C   UNL A   1      33.123  22.548  25.349  1.00  0.00     0.197 C 
BRANCH  78  79
ATOM     79  N   UNL A   1      33.650  22.640  23.986  1.00  0.00    -0.340 N 
ATOM     80  C   UNL A   1      33.784  23.656  23.094  1.00  0.00     0.244 C 
ATOM     81  H   UNL A   1      33.981  21.779  23.641  1.00  0.00     0.164 HD
ATOM     82  O   UNL A   1      34.432  23.373  22.079  1.00  0.00    -0.273 OA
BRANCH  80  83
ATOM     83  C   UNL A   1      33.081  25.037  23.196  1.00  0.00     0.181 C 
BRANCH  83  84
ATOM     84  N   UNL A   1      33.672  26.123  22.419  1.00  0.00    -0.339 N 
ATOM     85  C   UNL A   1      33.659  27.476  22.659  1.00  0.00     0.251 C 
ATOM     86  H   UNL A   1      34.148  25.845  21.604  1.00  0.00     0.164 HD
ATOM     87  O   UNL A   1      34.078  28.235  21.790  1.00  0.00    -0.269 OA
BRANCH  85  88
ATOM     88  C   UNL A   1      33.142  28.036  23.932  1.00  0.00     0.040 A 
ATOM     89  C   UNL A   1      33.792  27.853  25.159  1.00  0.00     0.017 A 
ATOM     90  C   UNL A   1      31.991  28.834  23.872  1.00  0.00     0.017 A 
ATOM     91  C   UNL A   1      33.260  28.406  26.326  1.00  0.00     0.040 A 
ATOM     92  C   UNL A   1      31.467  29.396  25.038  1.00  0.00     0.040 A 
ATOM     93  C   UNL A   1      32.101  29.168  26.256  1.00  0.00     0.123 A 
ATOM     94  F   UNL A   1      31.593  29.698  27.375  1.00  0.00    -0.207 F 
ENDBRANCH  85  88
ENDBRANCH  83  84
BRANCH  83  95
ATOM     95  C   UNL A   1      31.586  24.834  22.856  1.00  0.00     0.101 C 
BRANCH  95  96
ATOM     96  S   UNL A   1      30.439  25.373  24.170  1.00  0.00    -0.177 SA
ATOM     97  H   UNL A   1      31.094  26.192  25.035  1.00  0.00     0.102 HD
ENDBRANCH  95  96
ENDBRANCH  83  95
ENDBRANCH  80  83
ENDBRANCH  78  79
BRANCH  78  98
ATOM     98  C   UNL A   1      31.778  21.787  25.356  1.00  0.00     0.191 C 
BRANCH  98  99
ATOM     99  O   UNL A   1      31.955  20.429  25.754  1.00  0.00    -0.394 OA
ATOM    100  H   UNL A   1      31.374  19.858  25.226  1.00  0.00     0.210 HD
ENDBRANCH  98  99
ENDBRANCH  78  98
ENDBRANCH  75  78
ENDBRANCH  73  74
ENDBRANCH   1  73
TORSDOF 19
ENDMDL
