MODEL 1
REMARK VINA RESULT:     -14.0      0.000      0.000
REMARK SMILES CC(C)=Cc1c(C(=O)NCCCCNC(=O)c2ccc(-c3c4nc(c(-c5c(F)c(F)c(F)c(F)c5F)c5ccc([nH]5)c(-c5c(F)c(F)c(F)c(F)c5F)c5nc(c(-c6c(F)c(F)c(F)c(F)c6F)c6ccc3[nH]6)C=C5)C=C4)cc2)nnn1-c1ccc(C(C)C)cc1
REMARK SMILES IDX 11 1 10 2 9 3 7 4 8 5 6 7 5 8 82 9 80 10 81 11 4 12 1 13
REMARK SMILES IDX 2 14 3 15 83 16 84 17 91 18 85 19 90 20 86 21 87 22 88 23
REMARK SMILES IDX 89 24 12 25 13 26 14 27 15 28 16 30 17 31 18 32 79 33 19 34
REMARK SMILES IDX 78 35 20 36 21 37 22 38 72 39 23 40 77 41 71 42 73 43 24 44
REMARK SMILES IDX 76 45 70 46 69 47 25 49 57 50 37 51 56 52 38 53 41 54 55 55
REMARK SMILES IDX 74 56 39 57 40 58 54 60 75 61 42 62 26 63 27 64 35 65 28 66
REMARK SMILES IDX 29 67 33 68 36 69 30 70 31 71 34 72 32 73 58 74 59 75 67 76
REMARK SMILES IDX 60 77 61 78 65 79 68 80 62 81 63 82 66 83 64 84 43 85 44 86
REMARK SMILES IDX 52 87 45 88 46 89 50 90 53 91 47 92 48 93 51 94 49 95
REMARK H PARENT 9 6 14 29 73 48 41 59
REMARK Flexibility Score: inf
ROOT
ATOM      1  C   UNL A   1      35.349  22.651  24.408  1.00  0.00     0.023 C 
ENDROOT
BRANCH   1   2
ATOM      2  C   UNL A   1      34.895  23.820  25.272  1.00  0.00     0.116 C 
BRANCH   2   3
ATOM      3  N   UNL A   1      33.959  23.488  26.317  1.00  0.00    -0.351 N 
ATOM      4  C   UNL A   1      32.602  23.677  26.465  1.00  0.00     0.274 C 
ATOM      5  O   UNL A   1      32.150  23.230  27.526  1.00  0.00    -0.267 OA
ATOM      6  H   UNL A   1      34.376  23.031  27.082  1.00  0.00     0.163 HD
BRANCH   4   7
ATOM      7  C   UNL A   1      31.710  24.360  25.513  1.00  0.00     0.178 A 
ATOM      8  C   UNL A   1      31.117  25.620  25.431  1.00  0.00     0.100 A 
ATOM      9  N   UNL A   1      30.455  25.611  24.198  1.00  0.00    -0.213 N 
ATOM     10  N   UNL A   1      31.312  23.640  24.398  1.00  0.00    -0.124 NA
ATOM     11  N   UNL A   1      30.483  24.370  23.673  1.00  0.00    -0.061 NA
BRANCH   8  12
ATOM     12  C   UNL A   1      31.027  26.763  26.267  1.00  0.00     0.029 C 
ATOM     13  C   UNL A   1      33.424  27.514  25.808  1.00  0.00     0.039 C 
ATOM     14  C   UNL A   1      32.050  27.634  26.425  1.00  0.00    -0.074 C 
ATOM     15  C   UNL A   1      31.863  28.883  27.246  1.00  0.00     0.039 C 
ENDBRANCH   8  12
BRANCH   9  16
ATOM     16  C   UNL A   1      29.710  26.650  23.579  1.00  0.00     0.067 A 
ATOM     17  C   UNL A   1      28.348  26.768  23.864  1.00  0.00     0.029 A 
ATOM     18  C   UNL A   1      30.354  27.628  22.813  1.00  0.00     0.029 A 
ATOM     19  C   UNL A   1      27.674  27.936  23.501  1.00  0.00     0.006 A 
ATOM     20  C   UNL A   1      29.669  28.779  22.434  1.00  0.00     0.006 A 
ATOM     21  C   UNL A   1      28.334  28.966  22.810  1.00  0.00    -0.045 A 
BRANCH  21  22
ATOM     22  C   UNL A   1      27.652  30.284  22.494  1.00  0.00     0.013 C 
ATOM     23  C   UNL A   1      27.694  31.239  23.686  1.00  0.00     0.012 C 
ATOM     24  C   UNL A   1      28.257  30.927  21.242  1.00  0.00     0.012 C 
ENDBRANCH  21  22
ENDBRANCH   9  16
ENDBRANCH   4   7
ENDBRANCH   2   3
ENDBRANCH   1   2
BRANCH   1  25
ATOM     25  C   UNL A   1      36.857  22.408  24.337  1.00  0.00     0.023 C 
BRANCH  25  26
ATOM     26  C   UNL A   1      37.673  23.045  25.460  1.00  0.00     0.116 C 
BRANCH  26  27
ATOM     27  N   UNL A   1      38.526  22.098  26.173  1.00  0.00    -0.352 N 
ATOM     28  C   UNL A   1      39.709  22.362  26.836  1.00  0.00     0.251 C 
ATOM     29  H   UNL A   1      38.221  21.163  26.183  1.00  0.00     0.163 HD
ATOM     30  O   UNL A   1      40.513  21.472  27.076  1.00  0.00    -0.269 OA
BRANCH  28  31
ATOM     31  C   UNL A   1      39.991  23.743  27.263  1.00  0.00     0.039 A 
ATOM     32  C   UNL A   1      39.009  24.735  27.182  1.00  0.00     0.014 A 
ATOM     33  C   UNL A   1      41.256  24.030  27.772  1.00  0.00     0.014 A 
ATOM     34  C   UNL A   1      39.278  25.998  27.705  1.00  0.00     0.010 A 
ATOM     35  C   UNL A   1      41.490  25.244  28.375  1.00  0.00     0.010 A 
ATOM     36  C   UNL A   1      40.514  26.239  28.323  1.00  0.00    -0.014 A 
BRANCH  36  37
ATOM     37  C   UNL A   1      40.745  27.477  29.064  1.00  0.00     0.031 A 
ATOM     38  C   UNL A   1      41.796  28.368  28.485  1.00  0.00     0.074 A 
ATOM     39  C   UNL A   1      39.884  27.921  30.005  1.00  0.00     0.049 A 
ATOM     40  N   UNL A   1      42.863  28.834  29.049  1.00  0.00    -0.248 NA
ATOM     41  C   UNL A   1      41.690  28.711  27.055  1.00  0.00     0.031 C 
ATOM     42  C   UNL A   1      38.608  27.316  30.405  1.00  0.00     0.029 A 
ATOM     43  N   UNL A   1      39.892  29.088  30.705  1.00  0.00    -0.354 N 
ATOM     44  C   UNL A   1      43.472  29.668  28.108  1.00  0.00     0.074 A 
ATOM     45  C   UNL A   1      42.809  29.409  26.859  1.00  0.00     0.031 C 
ATOM     46  C   UNL A   1      37.871  28.224  31.078  1.00  0.00     0.029 A 
ATOM     47  C   UNL A   1      38.672  29.417  31.288  1.00  0.00     0.049 A 
ATOM     48  H   UNL A   1      40.694  29.653  30.792  1.00  0.00     0.167 HD
ATOM     49  C   UNL A   1      44.305  30.677  28.490  1.00  0.00     0.037 A 
ATOM     50  C   UNL A   1      38.332  30.603  31.853  1.00  0.00     0.037 A 
ATOM     51  C   UNL A   1      44.783  30.460  29.834  1.00  0.00     0.049 A 
ATOM     52  C   UNL A   1      39.592  31.344  32.113  1.00  0.00     0.074 A 
ATOM     53  C   UNL A   1      45.484  29.451  30.467  1.00  0.00     0.029 A 
ATOM     54  N   UNL A   1      44.237  31.214  30.844  1.00  0.00    -0.354 N 
ATOM     55  N   UNL A   1      40.472  31.004  33.011  1.00  0.00    -0.248 NA
ATOM     56  C   UNL A   1      40.074  32.235  31.068  1.00  0.00     0.031 C 
ATOM     57  C   UNL A   1      44.903  29.359  31.766  1.00  0.00     0.029 A 
ATOM     58  C   UNL A   1      43.939  30.361  31.871  1.00  0.00     0.049 A 
ATOM     59  H   UNL A   1      44.089  32.186  30.831  1.00  0.00     0.167 HD
ATOM     60  C   UNL A   1      41.694  31.267  32.416  1.00  0.00     0.074 A 
ATOM     61  C   UNL A   1      41.389  32.115  31.268  1.00  0.00     0.031 C 
ATOM     62  C   UNL A   1      42.799  30.532  32.738  1.00  0.00     0.037 A 
BRANCH  49  63
ATOM     63  C   UNL A   1      44.378  32.044  27.827  1.00  0.00     0.064 A 
ATOM     64  C   UNL A   1      45.444  32.309  26.936  1.00  0.00     0.173 A 
ATOM     65  C   UNL A   1      43.662  33.185  28.251  1.00  0.00     0.173 A 
ATOM     66  F   UNL A   1      46.193  31.310  26.446  1.00  0.00    -0.203 F 
ATOM     67  C   UNL A   1      45.839  33.610  26.613  1.00  0.00     0.198 A 
ATOM     68  C   UNL A   1      44.027  34.480  27.881  1.00  0.00     0.198 A 
ATOM     69  F   UNL A   1      42.648  33.121  29.118  1.00  0.00    -0.203 F 
ATOM     70  F   UNL A   1      46.952  33.805  25.892  1.00  0.00    -0.200 F 
ATOM     71  C   UNL A   1      45.139  34.697  27.098  1.00  0.00     0.200 A 
ATOM     72  F   UNL A   1      43.335  35.521  28.367  1.00  0.00    -0.200 F 
ATOM     73  F   UNL A   1      45.558  35.944  26.854  1.00  0.00    -0.200 F 
ENDBRANCH  49  63
BRANCH  50  74
ATOM     74  C   UNL A   1      37.008  31.261  31.963  1.00  0.00     0.064 A 
ATOM     75  C   UNL A   1      36.606  31.865  33.166  1.00  0.00     0.173 A 
ATOM     76  C   UNL A   1      36.234  31.561  30.826  1.00  0.00     0.173 A 
ATOM     77  F   UNL A   1      37.306  31.660  34.292  1.00  0.00    -0.203 F 
ATOM     78  C   UNL A   1      35.522  32.748  33.221  1.00  0.00     0.198 A 
ATOM     79  C   UNL A   1      35.145  32.433  30.884  1.00  0.00     0.198 A 
ATOM     80  F   UNL A   1      36.574  31.090  29.617  1.00  0.00    -0.203 F 
ATOM     81  F   UNL A   1      35.218  33.361  34.374  1.00  0.00    -0.200 F 
ATOM     82  C   UNL A   1      34.801  33.041  32.078  1.00  0.00     0.200 A 
ATOM     83  F   UNL A   1      34.473  32.732  29.763  1.00  0.00    -0.200 F 
ATOM     84  F   UNL A   1      33.806  33.938  32.114  1.00  0.00    -0.200 F 
ENDBRANCH  50  74
BRANCH  62  85
ATOM     85  C   UNL A   1      42.736  29.652  33.952  1.00  0.00     0.064 A 
ATOM     86  C   UNL A   1      42.205  28.351  33.962  1.00  0.00     0.173 A 
ATOM     87  C   UNL A   1      43.381  30.094  35.115  1.00  0.00     0.173 A 
ATOM     88  F   UNL A   1      41.662  27.815  32.861  1.00  0.00    -0.203 F 
ATOM     89  C   UNL A   1      42.281  27.550  35.100  1.00  0.00     0.198 A 
ATOM     90  C   UNL A   1      43.491  29.279  36.236  1.00  0.00     0.198 A 
ATOM     91  F   UNL A   1      43.953  31.309  35.145  1.00  0.00    -0.203 F 
ATOM     92  F   UNL A   1      41.755  26.316  35.090  1.00  0.00    -0.200 F 
ATOM     93  C   UNL A   1      42.932  28.011  36.232  1.00  0.00     0.200 A 
ATOM     94  F   UNL A   1      44.166  29.711  37.310  1.00  0.00    -0.200 F 
ATOM     95  F   UNL A   1      43.045  27.224  37.310  1.00  0.00    -0.200 F 
ENDBRANCH  62  85
ENDBRANCH  36  37
ENDBRANCH  28  31
ENDBRANCH  26  27
ENDBRANCH  25  26
ENDBRANCH   1  25
TORSDOF 14
ENDMDL
MODEL 2
REMARK VINA RESULT:     -13.9      3.510      8.929
REMARK SMILES CC(C)=Cc1c(C(=O)NCCCCNC(=O)c2ccc(-c3c4nc(c(-c5c(F)c(F)c(F)c(F)c5F)c5ccc([nH]5)c(-c5c(F)c(F)c(F)c(F)c5F)c5nc(c(-c6c(F)c(F)c(F)c(F)c6F)c6ccc3[nH]6)C=C5)C=C4)cc2)nnn1-c1ccc(C(C)C)cc1
REMARK SMILES IDX 11 1 10 2 9 3 7 4 8 5 6 7 5 8 82 9 80 10 81 11 4 12 1 13
REMARK SMILES IDX 2 14 3 15 83 16 84 17 91 18 85 19 90 20 86 21 87 22 88 23
REMARK SMILES IDX 89 24 12 25 13 26 14 27 15 28 16 30 17 31 18 32 79 33 19 34
REMARK SMILES IDX 78 35 20 36 21 37 22 38 72 39 23 40 77 41 71 42 73 43 24 44
REMARK SMILES IDX 76 45 70 46 69 47 25 49 57 50 37 51 56 52 38 53 41 54 55 55
REMARK SMILES IDX 74 56 39 57 40 58 54 60 75 61 42 62 26 63 27 64 35 65 28 66
REMARK SMILES IDX 29 67 33 68 36 69 30 70 31 71 34 72 32 73 58 74 59 75 67 76
REMARK SMILES IDX 60 77 61 78 65 79 68 80 62 81 63 82 66 83 64 84 43 85 44 86
REMARK SMILES IDX 52 87 45 88 46 89 50 90 53 91 47 92 48 93 51 94 49 95
REMARK H PARENT 9 6 14 29 73 48 41 59
REMARK Flexibility Score: inf
ROOT
ATOM      1  C   UNL A   1      33.424  27.649  25.993  1.00  0.00     0.023 C 
ENDROOT
BRANCH   1   2
ATOM      2  C   UNL A   1      32.425  27.462  24.859  1.00  0.00     0.116 C 
BRANCH   2   3
ATOM      3  N   UNL A   1      33.004  27.288  23.550  1.00  0.00    -0.351 N 
ATOM      4  C   UNL A   1      33.137  26.202  22.712  1.00  0.00     0.274 C 
ATOM      5  O   UNL A   1      33.696  26.466  21.641  1.00  0.00    -0.267 OA
ATOM      6  H   UNL A   1      33.382  28.118  23.178  1.00  0.00     0.163 HD
BRANCH   4   7
ATOM      7  C   UNL A   1      32.707  24.824  23.000  1.00  0.00     0.178 A 
ATOM      8  C   UNL A   1      33.349  23.606  23.226  1.00  0.00     0.100 A 
ATOM      9  N   UNL A   1      32.310  22.717  23.523  1.00  0.00    -0.213 N 
ATOM     10  N   UNL A   1      31.342  24.595  23.080  1.00  0.00    -0.124 NA
ATOM     11  N   UNL A   1      31.122  23.310  23.295  1.00  0.00    -0.061 NA
BRANCH   8  12
ATOM     12  C   UNL A   1      34.687  23.133  23.182  1.00  0.00     0.029 C 
ATOM     13  C   UNL A   1      35.295  24.094  25.469  1.00  0.00     0.039 C 
ATOM     14  C   UNL A   1      35.563  23.326  24.195  1.00  0.00    -0.074 C 
ATOM     15  C   UNL A   1      36.938  22.715  24.135  1.00  0.00     0.039 C 
ENDBRANCH   8  12
BRANCH   9  16
ATOM     16  C   UNL A   1      32.386  21.342  23.869  1.00  0.00     0.067 A 
ATOM     17  C   UNL A   1      32.195  20.381  22.873  1.00  0.00     0.029 A 
ATOM     18  C   UNL A   1      32.789  20.953  25.151  1.00  0.00     0.029 A 
ATOM     19  C   UNL A   1      32.548  19.054  23.129  1.00  0.00     0.006 A 
ATOM     20  C   UNL A   1      33.116  19.623  25.406  1.00  0.00     0.006 A 
ATOM     21  C   UNL A   1      33.041  18.667  24.386  1.00  0.00    -0.045 A 
BRANCH  21  22
ATOM     22  C   UNL A   1      33.525  17.255  24.657  1.00  0.00     0.013 C 
ATOM     23  C   UNL A   1      32.449  16.414  25.342  1.00  0.00     0.012 C 
ATOM     24  C   UNL A   1      34.021  16.589  23.371  1.00  0.00     0.012 C 
ENDBRANCH  21  22
ENDBRANCH   9  16
ENDBRANCH   4   7
ENDBRANCH   2   3
ENDBRANCH   1   2
BRANCH   1  25
ATOM     25  C   UNL A   1      33.218  28.877  26.880  1.00  0.00     0.023 C 
BRANCH  25  26
ATOM     26  C   UNL A   1      34.488  29.652  27.225  1.00  0.00     0.116 C 
BRANCH  26  27
ATOM     27  N   UNL A   1      34.233  30.928  27.888  1.00  0.00    -0.352 N 
ATOM     28  C   UNL A   1      34.867  31.442  29.003  1.00  0.00     0.251 C 
ATOM     29  H   UNL A   1      33.526  31.488  27.493  1.00  0.00     0.163 HD
ATOM     30  O   UNL A   1      34.348  32.319  29.679  1.00  0.00    -0.269 OA
BRANCH  28  31
ATOM     31  C   UNL A   1      36.196  30.921  29.367  1.00  0.00     0.039 A 
ATOM     32  C   UNL A   1      36.359  29.596  29.779  1.00  0.00     0.014 A 
ATOM     33  C   UNL A   1      37.289  31.780  29.267  1.00  0.00     0.014 A 
ATOM     34  C   UNL A   1      37.647  29.110  30.000  1.00  0.00     0.010 A 
ATOM     35  C   UNL A   1      38.564  31.278  29.391  1.00  0.00     0.010 A 
ATOM     36  C   UNL A   1      38.747  29.951  29.780  1.00  0.00    -0.014 A 
BRANCH  36  37
ATOM     37  C   UNL A   1      40.107  29.415  29.797  1.00  0.00     0.031 A 
ATOM     38  C   UNL A   1      40.698  29.245  31.160  1.00  0.00     0.074 A 
ATOM     39  C   UNL A   1      40.664  28.840  28.710  1.00  0.00     0.049 A 
ATOM     40  N   UNL A   1      41.798  29.734  31.631  1.00  0.00    -0.248 NA
ATOM     41  C   UNL A   1      39.908  28.504  32.159  1.00  0.00     0.031 C 
ATOM     42  C   UNL A   1      40.040  28.609  27.402  1.00  0.00     0.029 A 
ATOM     43  N   UNL A   1      41.862  28.205  28.583  1.00  0.00    -0.354 N 
ATOM     44  C   UNL A   1      41.931  29.224  32.925  1.00  0.00     0.074 A 
ATOM     45  C   UNL A   1      40.664  28.631  33.251  1.00  0.00     0.031 C 
ATOM     46  C   UNL A   1      40.755  27.693  26.716  1.00  0.00     0.029 A 
ATOM     47  C   UNL A   1      41.962  27.385  27.463  1.00  0.00     0.049 A 
ATOM     48  H   UNL A   1      42.596  28.317  29.229  1.00  0.00     0.167 HD
ATOM     49  C   UNL A   1      43.152  29.120  33.523  1.00  0.00     0.037 A 
ATOM     50  C   UNL A   1      42.939  26.481  27.200  1.00  0.00     0.037 A 
ATOM     51  C   UNL A   1      44.114  29.974  32.868  1.00  0.00     0.049 A 
ATOM     52  C   UNL A   1      44.084  26.799  28.089  1.00  0.00     0.074 A 
ATOM     53  C   UNL A   1      44.196  31.330  32.614  1.00  0.00     0.029 A 
ATOM     54  N   UNL A   1      45.037  29.390  32.037  1.00  0.00    -0.354 N 
ATOM     55  N   UNL A   1      44.833  27.858  27.971  1.00  0.00    -0.248 NA
ATOM     56  C   UNL A   1      44.132  26.138  29.385  1.00  0.00     0.031 C 
ATOM     57  C   UNL A   1      44.775  31.424  31.313  1.00  0.00     0.029 A 
ATOM     58  C   UNL A   1      45.076  30.131  30.888  1.00  0.00     0.049 A 
ATOM     59  H   UNL A   1      45.572  28.587  32.232  1.00  0.00     0.167 HD
ATOM     60  C   UNL A   1      45.093  28.246  29.275  1.00  0.00     0.074 A 
ATOM     61  C   UNL A   1      44.725  27.098  30.098  1.00  0.00     0.031 C 
ATOM     62  C   UNL A   1      45.302  29.559  29.583  1.00  0.00     0.037 A 
BRANCH  49  63
ATOM     63  C   UNL A   1      43.585  27.974  34.424  1.00  0.00     0.064 A 
ATOM     64  C   UNL A   1      43.488  26.651  33.933  1.00  0.00     0.173 A 
ATOM     65  C   UNL A   1      43.783  28.075  35.818  1.00  0.00     0.173 A 
ATOM     66  F   UNL A   1      43.315  26.416  32.623  1.00  0.00    -0.203 F 
ATOM     67  C   UNL A   1      43.453  25.541  34.781  1.00  0.00     0.198 A 
ATOM     68  C   UNL A   1      43.802  26.959  36.657  1.00  0.00     0.198 A 
ATOM     69  F   UNL A   1      43.862  29.247  36.454  1.00  0.00    -0.203 F 
ATOM     70  F   UNL A   1      43.200  24.326  34.275  1.00  0.00    -0.200 F 
ATOM     71  C   UNL A   1      43.595  25.697  36.146  1.00  0.00     0.200 A 
ATOM     72  F   UNL A   1      43.938  27.134  37.980  1.00  0.00    -0.200 F 
ATOM     73  F   UNL A   1      43.486  24.647  36.969  1.00  0.00    -0.200 F 
ENDBRANCH  49  63
BRANCH  50  74
ATOM     74  C   UNL A   1      42.883  25.216  26.428  1.00  0.00     0.064 A 
ATOM     75  C   UNL A   1      43.788  24.976  25.380  1.00  0.00     0.173 A 
ATOM     76  C   UNL A   1      42.141  24.107  26.877  1.00  0.00     0.173 A 
ATOM     77  F   UNL A   1      44.560  25.969  24.914  1.00  0.00    -0.203 F 
ATOM     78  C   UNL A   1      43.971  23.698  24.843  1.00  0.00     0.198 A 
ATOM     79  C   UNL A   1      42.314  22.833  26.332  1.00  0.00     0.198 A 
ATOM     80  F   UNL A   1      41.301  24.215  27.916  1.00  0.00    -0.203 F 
ATOM     81  F   UNL A   1      44.898  23.497  23.896  1.00  0.00    -0.200 F 
ATOM     82  C   UNL A   1      43.243  22.625  25.327  1.00  0.00     0.200 A 
ATOM     83  F   UNL A   1      41.625  21.798  26.830  1.00  0.00    -0.200 F 
ATOM     84  F   UNL A   1      43.464  21.388  24.861  1.00  0.00    -0.200 F 
ENDBRANCH  50  74
BRANCH  62  85
ATOM     85  C   UNL A   1      45.545  30.522  28.458  1.00  0.00     0.064 A 
ATOM     86  C   UNL A   1      44.528  31.159  27.725  1.00  0.00     0.173 A 
ATOM     87  C   UNL A   1      46.865  30.928  28.217  1.00  0.00     0.173 A 
ATOM     88  F   UNL A   1      43.236  30.903  27.966  1.00  0.00    -0.203 F 
ATOM     89  C   UNL A   1      44.828  32.126  26.767  1.00  0.00     0.198 A 
ATOM     90  C   UNL A   1      47.158  31.921  27.290  1.00  0.00     0.198 A 
ATOM     91  F   UNL A   1      47.872  30.390  28.925  1.00  0.00    -0.203 F 
ATOM     92  F   UNL A   1      43.842  32.711  26.072  1.00  0.00    -0.200 F 
ATOM     93  C   UNL A   1      46.141  32.513  26.558  1.00  0.00     0.200 A 
ATOM     94  F   UNL A   1      48.424  32.327  27.127  1.00  0.00    -0.200 F 
ATOM     95  F   UNL A   1      46.425  33.475  25.670  1.00  0.00    -0.200 F 
ENDBRANCH  62  85
ENDBRANCH  36  37
ENDBRANCH  28  31
ENDBRANCH  26  27
ENDBRANCH  25  26
ENDBRANCH   1  25
TORSDOF 14
ENDMDL
MODEL 3
REMARK VINA RESULT:     -13.8      3.527      8.837
REMARK SMILES CC(C)=Cc1c(C(=O)NCCCCNC(=O)c2ccc(-c3c4nc(c(-c5c(F)c(F)c(F)c(F)c5F)c5ccc([nH]5)c(-c5c(F)c(F)c(F)c(F)c5F)c5nc(c(-c6c(F)c(F)c(F)c(F)c6F)c6ccc3[nH]6)C=C5)C=C4)cc2)nnn1-c1ccc(C(C)C)cc1
REMARK SMILES IDX 11 1 10 2 9 3 7 4 8 5 6 7 5 8 82 9 80 10 81 11 4 12 1 13
REMARK SMILES IDX 2 14 3 15 83 16 84 17 91 18 85 19 90 20 86 21 87 22 88 23
REMARK SMILES IDX 89 24 12 25 13 26 14 27 15 28 16 30 17 31 18 32 79 33 19 34
REMARK SMILES IDX 78 35 20 36 21 37 22 38 72 39 23 40 77 41 71 42 73 43 24 44
REMARK SMILES IDX 76 45 70 46 69 47 25 49 57 50 37 51 56 52 38 53 41 54 55 55
REMARK SMILES IDX 74 56 39 57 40 58 54 60 75 61 42 62 26 63 27 64 35 65 28 66
REMARK SMILES IDX 29 67 33 68 36 69 30 70 31 71 34 72 32 73 58 74 59 75 67 76
REMARK SMILES IDX 60 77 61 78 65 79 68 80 62 81 63 82 66 83 64 84 43 85 44 86
REMARK SMILES IDX 52 87 45 88 46 89 50 90 53 91 47 92 48 93 51 94 49 95
REMARK H PARENT 9 6 14 29 73 48 41 59
REMARK Flexibility Score: inf
ROOT
ATOM      1  C   UNL A   1      31.805  28.122  26.134  1.00  0.00     0.023 C 
ENDROOT
BRANCH   1   2
ATOM      2  C   UNL A   1      32.555  28.225  24.812  1.00  0.00     0.116 C 
BRANCH   2   3
ATOM      3  N   UNL A   1      31.731  28.179  23.630  1.00  0.00    -0.351 N 
ATOM      4  C   UNL A   1      31.470  27.199  22.697  1.00  0.00     0.274 C 
ATOM      5  O   UNL A   1      30.679  27.551  21.814  1.00  0.00    -0.267 OA
ATOM      6  H   UNL A   1      31.256  29.023  23.453  1.00  0.00     0.163 HD
BRANCH   4   7
ATOM      7  C   UNL A   1      32.056  25.849  22.668  1.00  0.00     0.178 A 
ATOM      8  C   UNL A   1      31.772  24.626  23.276  1.00  0.00     0.100 A 
ATOM      9  N   UNL A   1      32.701  23.739  22.719  1.00  0.00    -0.213 N 
ATOM     10  N   UNL A   1      33.171  25.664  21.865  1.00  0.00    -0.124 NA
ATOM     11  N   UNL A   1      33.601  24.421  21.985  1.00  0.00    -0.061 NA
BRANCH   8  12
ATOM     12  C   UNL A   1      30.861  24.162  24.260  1.00  0.00     0.029 C 
ATOM     13  C   UNL A   1      32.468  24.572  26.202  1.00  0.00     0.039 C 
ATOM     14  C   UNL A   1      31.155  24.155  25.581  1.00  0.00    -0.074 C 
ATOM     15  C   UNL A   1      30.113  23.746  26.588  1.00  0.00     0.039 C 
ENDBRANCH   8  12
BRANCH   9  16
ATOM     16  C   UNL A   1      32.850  22.346  22.949  1.00  0.00     0.067 A 
ATOM     17  C   UNL A   1      33.636  21.917  24.022  1.00  0.00     0.029 A 
ATOM     18  C   UNL A   1      32.108  21.419  22.208  1.00  0.00     0.029 A 
ATOM     19  C   UNL A   1      33.560  20.584  24.433  1.00  0.00     0.006 A 
ATOM     20  C   UNL A   1      32.056  20.086  22.611  1.00  0.00     0.006 A 
ATOM     21  C   UNL A   1      32.747  19.663  23.752  1.00  0.00    -0.045 A 
BRANCH  21  22
ATOM     22  C   UNL A   1      32.570  18.237  24.239  1.00  0.00     0.013 C 
ATOM     23  C   UNL A   1      33.512  17.275  23.516  1.00  0.00     0.012 C 
ATOM     24  C   UNL A   1      32.742  18.152  25.758  1.00  0.00     0.012 C 
ENDBRANCH  21  22
ENDBRANCH   9  16
ENDBRANCH   4   7
ENDBRANCH   2   3
ENDBRANCH   1   2
BRANCH   1  25
ATOM     25  C   UNL A   1      32.292  29.033  27.261  1.00  0.00     0.023 C 
BRANCH  25  26
ATOM     26  C   UNL A   1      33.772  29.408  27.202  1.00  0.00     0.116 C 
BRANCH  26  27
ATOM     27  N   UNL A   1      34.007  30.840  27.038  1.00  0.00    -0.352 N 
ATOM     28  C   UNL A   1      34.997  31.605  27.623  1.00  0.00     0.251 C 
ATOM     29  H   UNL A   1      33.386  31.315  26.440  1.00  0.00     0.163 HD
ATOM     30  O   UNL A   1      34.889  32.820  27.713  1.00  0.00    -0.269 OA
BRANCH  28  31
ATOM     31  C   UNL A   1      36.204  30.933  28.135  1.00  0.00     0.039 A 
ATOM     32  C   UNL A   1      36.413  29.568  27.917  1.00  0.00     0.014 A 
ATOM     33  C   UNL A   1      37.142  31.699  28.823  1.00  0.00     0.014 A 
ATOM     34  C   UNL A   1      37.621  28.996  28.314  1.00  0.00     0.010 A 
ATOM     35  C   UNL A   1      38.370  31.161  29.129  1.00  0.00     0.010 A 
ATOM     36  C   UNL A   1      38.606  29.805  28.899  1.00  0.00    -0.014 A 
BRANCH  36  37
ATOM     37  C   UNL A   1      39.952  29.286  29.130  1.00  0.00     0.031 A 
ATOM     38  C   UNL A   1      40.316  29.106  30.569  1.00  0.00     0.074 A 
ATOM     39  C   UNL A   1      40.687  28.731  28.142  1.00  0.00     0.049 A 
ATOM     40  N   UNL A   1      41.319  29.603  31.218  1.00  0.00    -0.248 NA
ATOM     41  C   UNL A   1      39.386  28.342  31.419  1.00  0.00     0.031 C 
ATOM     42  C   UNL A   1      40.286  28.510  26.748  1.00  0.00     0.029 A 
ATOM     43  N   UNL A   1      41.898  28.113  28.205  1.00  0.00    -0.354 N 
ATOM     44  C   UNL A   1      41.247  29.078  32.511  1.00  0.00     0.074 A 
ATOM     45  C   UNL A   1      39.952  28.465  32.620  1.00  0.00     0.031 C 
ATOM     46  C   UNL A   1      41.116  27.611  26.178  1.00  0.00     0.029 A 
ATOM     47  C   UNL A   1      42.190  27.309  27.108  1.00  0.00     0.049 A 
ATOM     48  H   UNL A   1      42.515  28.226  28.963  1.00  0.00     0.167 HD
ATOM     49  C   UNL A   1      42.356  28.981  33.298  1.00  0.00     0.037 A 
ATOM     50  C   UNL A   1      43.209  26.420  26.997  1.00  0.00     0.037 A 
ATOM     51  C   UNL A   1      43.399  29.855  32.817  1.00  0.00     0.049 A 
ATOM     52  C   UNL A   1      44.191  26.741  28.063  1.00  0.00     0.074 A 
ATOM     53  C   UNL A   1      43.503  31.215  32.594  1.00  0.00     0.029 A 
ATOM     54  N   UNL A   1      44.454  29.293  32.141  1.00  0.00    -0.354 N 
ATOM     55  N   UNL A   1      44.933  27.811  28.080  1.00  0.00    -0.248 NA
ATOM     56  C   UNL A   1      44.037  26.065  29.343  1.00  0.00     0.031 C 
ATOM     57  C   UNL A   1      44.283  31.333  31.405  1.00  0.00     0.029 A 
ATOM     58  C   UNL A   1      44.668  30.049  31.021  1.00  0.00     0.049 A 
ATOM     59  H   UNL A   1      44.961  28.495  32.412  1.00  0.00     0.167 HD
ATOM     60  C   UNL A   1      44.973  28.185  29.413  1.00  0.00     0.074 A 
ATOM     61  C   UNL A   1      44.493  27.023  30.153  1.00  0.00     0.031 C 
ATOM     62  C   UNL A   1      45.110  29.497  29.764  1.00  0.00     0.037 A 
BRANCH  49  63
ATOM     63  C   UNL A   1      42.654  27.829  34.245  1.00  0.00     0.064 A 
ATOM     64  C   UNL A   1      43.179  26.630  33.711  1.00  0.00     0.173 A 
ATOM     65  C   UNL A   1      42.166  27.725  35.566  1.00  0.00     0.173 A 
ATOM     66  F   UNL A   1      43.690  26.597  32.470  1.00  0.00    -0.203 F 
ATOM     67  C   UNL A   1      43.095  25.411  34.389  1.00  0.00     0.198 A 
ATOM     68  C   UNL A   1      42.133  26.515  36.261  1.00  0.00     0.198 A 
ATOM     69  F   UNL A   1      41.605  28.750  36.212  1.00  0.00    -0.203 F 
ATOM     70  F   UNL A   1      43.464  24.281  33.771  1.00  0.00    -0.200 F 
ATOM     71  C   UNL A   1      42.557  25.351  35.659  1.00  0.00     0.200 A 
ATOM     72  F   UNL A   1      41.603  26.479  37.493  1.00  0.00    -0.200 F 
ATOM     73  F   UNL A   1      42.404  24.176  36.282  1.00  0.00    -0.200 F 
ENDBRANCH  49  63
BRANCH  50  74
ATOM     74  C   UNL A   1      43.298  25.164  26.214  1.00  0.00     0.064 A 
ATOM     75  C   UNL A   1      44.354  24.957  25.310  1.00  0.00     0.173 A 
ATOM     76  C   UNL A   1      42.521  24.035  26.535  1.00  0.00     0.173 A 
ATOM     77  F   UNL A   1      45.165  25.971  24.974  1.00  0.00    -0.203 F 
ATOM     78  C   UNL A   1      44.643  23.690  24.793  1.00  0.00     0.198 A 
ATOM     79  C   UNL A   1      42.803  22.772  26.009  1.00  0.00     0.198 A 
ATOM     80  F   UNL A   1      41.534  24.112  27.438  1.00  0.00    -0.203 F 
ATOM     81  F   UNL A   1      45.706  23.521  23.993  1.00  0.00    -0.200 F 
ATOM     82  C   UNL A   1      43.875  22.596  25.153  1.00  0.00     0.200 A 
ATOM     83  F   UNL A   1      42.070  21.716  26.389  1.00  0.00    -0.200 F 
ATOM     84  F   UNL A   1      44.191  21.370  24.713  1.00  0.00    -0.200 F 
ENDBRANCH  50  74
BRANCH  62  85
ATOM     85  C   UNL A   1      45.519  30.477  28.704  1.00  0.00     0.064 A 
ATOM     86  C   UNL A   1      44.624  31.120  27.830  1.00  0.00     0.173 A 
ATOM     87  C   UNL A   1      46.857  30.892  28.677  1.00  0.00     0.173 A 
ATOM     88  F   UNL A   1      43.312  30.854  27.863  1.00  0.00    -0.203 F 
ATOM     89  C   UNL A   1      45.063  32.101  26.944  1.00  0.00     0.198 A 
ATOM     90  C   UNL A   1      47.285  31.900  27.820  1.00  0.00     0.198 A 
ATOM     91  F   UNL A   1      47.745  30.349  29.526  1.00  0.00    -0.203 F 
ATOM     92  F   UNL A   1      44.193  32.692  26.111  1.00  0.00    -0.200 F 
ATOM     93  C   UNL A   1      46.390  32.497  26.947  1.00  0.00     0.200 A 
ATOM     94  F   UNL A   1      48.558  32.314  27.862  1.00  0.00    -0.200 F 
ATOM     95  F   UNL A   1      46.802  33.473  26.127  1.00  0.00    -0.200 F 
ENDBRANCH  62  85
ENDBRANCH  36  37
ENDBRANCH  28  31
ENDBRANCH  26  27
ENDBRANCH  25  26
ENDBRANCH   1  25
TORSDOF 14
ENDMDL
