MODEL 1
REMARK VINA RESULT:     -11.7      0.000      0.000
REMARK SMILES Cc1csc2nc(C(=O)NCCCCNC(=O)c3ccc(-c4c5nc(c(-c6c(F)c(F)c(F)c(F)c6F)c6ccc([nH]6)c(-c6c(F)c(F)c(F)c(F)c6F)c6nc(c(-c7c(F)c(F)c(F)c(F)c7F)c7ccc4[nH]7)C=C6)C=C5)cc3)cn12
REMARK SMILES IDX 13 1 12 2 11 3 10 4 8 5 9 6 7 8 1 9 2 10 3 11 82 12 4 13
REMARK SMILES IDX 5 14 81 15 6 16 14 17 15 18 16 19 17 21 18 22 19 23 80 24
REMARK SMILES IDX 20 25 79 26 21 27 22 28 23 29 73 30 24 31 78 32 72 33 74 34
REMARK SMILES IDX 25 35 77 36 71 37 70 38 26 40 58 41 38 42 57 43 39 44 42 45
REMARK SMILES IDX 56 46 75 47 40 48 41 49 55 51 76 52 43 53 27 54 28 55 36 56
REMARK SMILES IDX 29 57 30 58 34 59 37 60 31 61 32 62 35 63 33 64 59 65 60 66
REMARK SMILES IDX 68 67 61 68 62 69 66 70 69 71 63 72 64 73 67 74 65 75 44 76
REMARK SMILES IDX 45 77 53 78 46 79 47 80 51 81 54 82 48 83 49 84 52 85 50 86
REMARK H PARENT 10 7 15 20 74 39 42 50
REMARK Flexibility Score: inf
ROOT
ATOM      1  C   UNL A   1      33.070  34.426  28.442  1.00  0.00     0.023 C 
ENDROOT
BRANCH   1   2
ATOM      2  C   UNL A   1      34.063  33.322  28.044  1.00  0.00     0.023 C 
BRANCH   2   3
ATOM      3  C   UNL A   1      33.463  31.924  27.881  1.00  0.00     0.116 C 
BRANCH   3   4
ATOM      4  N   UNL A   1      34.458  30.871  27.997  1.00  0.00    -0.351 N 
ATOM      5  C   UNL A   1      34.538  29.635  27.391  1.00  0.00     0.271 C 
ATOM      6  O   UNL A   1      35.540  28.955  27.625  1.00  0.00    -0.267 OA
ATOM      7  H   UNL A   1      35.199  31.073  28.612  1.00  0.00     0.163 HD
BRANCH   5   8
ATOM      8  C   UNL A   1      33.480  29.151  26.493  1.00  0.00     0.148 A 
ATOM      9  C   UNL A   1      30.369  25.921  25.960  1.00  0.00     0.066 C 
ATOM     10  C   UNL A   1      30.851  27.099  25.194  1.00  0.00     0.032 A 
ATOM     11  C   UNL A   1      30.369  27.533  24.011  1.00  0.00     0.090 A 
ATOM     12  N   UNL A   1      31.866  27.926  25.646  1.00  0.00    -0.294 N 
ATOM     13  S   UNL A   1      31.172  28.993  23.415  1.00  0.00    -0.105 S 
ATOM     14  C   UNL A   1      32.160  28.981  24.838  1.00  0.00     0.194 A 
ATOM     15  C   UNL A   1      32.703  28.010  26.718  1.00  0.00     0.128 A 
ATOM     16  N   UNL A   1      33.097  29.757  25.299  1.00  0.00    -0.214 NA
ENDBRANCH   5   8
ENDBRANCH   3   4
ENDBRANCH   2   3
ENDBRANCH   1   2
BRANCH   1  17
ATOM     17  C   UNL A   1      33.682  35.618  29.175  1.00  0.00     0.116 C 
BRANCH  17  18
ATOM     18  N   UNL A   1      33.033  35.907  30.451  1.00  0.00    -0.352 N 
ATOM     19  C   UNL A   1      33.167  35.228  31.642  1.00  0.00     0.251 C 
ATOM     20  H   UNL A   1      32.424  36.681  30.461  1.00  0.00     0.163 HD
ATOM     21  O   UNL A   1      32.293  35.294  32.507  1.00  0.00    -0.269 OA
BRANCH  19  22
ATOM     22  C   UNL A   1      34.368  34.407  31.877  1.00  0.00     0.039 A 
ATOM     23  C   UNL A   1      34.329  33.022  31.699  1.00  0.00     0.014 A 
ATOM     24  C   UNL A   1      35.548  35.039  32.267  1.00  0.00     0.014 A 
ATOM     25  C   UNL A   1      35.510  32.295  31.814  1.00  0.00     0.010 A 
ATOM     26  C   UNL A   1      36.737  34.339  32.272  1.00  0.00     0.010 A 
ATOM     27  C   UNL A   1      36.724  32.963  32.063  1.00  0.00    -0.014 A 
BRANCH  27  28
ATOM     28  C   UNL A   1      37.989  32.241  31.896  1.00  0.00     0.031 A 
ATOM     29  C   UNL A   1      38.682  31.973  33.186  1.00  0.00     0.074 A 
ATOM     30  C   UNL A   1      38.410  31.674  30.743  1.00  0.00     0.049 A 
ATOM     31  N   UNL A   1      39.804  32.468  33.589  1.00  0.00    -0.248 NA
ATOM     32  C   UNL A   1      37.984  31.180  34.214  1.00  0.00     0.031 C 
ATOM     33  C   UNL A   1      37.658  31.567  29.488  1.00  0.00     0.029 A 
ATOM     34  N   UNL A   1      39.554  30.970  30.467  1.00  0.00    -0.354 N 
ATOM     35  C   UNL A   1      40.072  31.855  34.812  1.00  0.00     0.074 A 
ATOM     36  C   UNL A   1      38.841  31.247  35.237  1.00  0.00     0.031 C 
ATOM     37  C   UNL A   1      38.240  30.650  28.685  1.00  0.00     0.029 A 
ATOM     38  C   UNL A   1      39.497  30.237  29.283  1.00  0.00     0.049 A 
ATOM     39  H   UNL A   1      40.344  30.982  31.053  1.00  0.00     0.167 HD
ATOM     40  C   UNL A   1      41.365  31.624  35.177  1.00  0.00     0.037 A 
ATOM     41  C   UNL A   1      40.408  29.348  28.816  1.00  0.00     0.037 A 
ATOM     42  C   UNL A   1      42.259  32.398  34.354  1.00  0.00     0.049 A 
ATOM     43  C   UNL A   1      41.703  29.641  29.466  1.00  0.00     0.074 A 
ATOM     44  C   UNL A   1      42.689  33.702  34.264  1.00  0.00     0.029 A 
ATOM     45  N   UNL A   1      42.546  31.792  33.162  1.00  0.00    -0.354 N 
ATOM     46  N   UNL A   1      42.396  30.720  29.231  1.00  0.00    -0.248 NA
ATOM     47  C   UNL A   1      42.107  28.875  30.641  1.00  0.00     0.031 C 
ATOM     48  C   UNL A   1      43.170  33.878  32.930  1.00  0.00     0.029 A 
ATOM     49  C   UNL A   1      43.061  32.668  32.251  1.00  0.00     0.049 A 
ATOM     50  H   UNL A   1      42.399  30.836  32.983  1.00  0.00     0.167 HD
ATOM     51  C   UNL A   1      42.997  30.996  30.439  1.00  0.00     0.074 A 
ATOM     52  C   UNL A   1      42.951  29.751  31.194  1.00  0.00     0.031 C 
ATOM     53  C   UNL A   1      43.137  32.284  30.861  1.00  0.00     0.037 A 
BRANCH  40  54
ATOM     54  C   UNL A   1      41.871  30.349  35.838  1.00  0.00     0.064 A 
ATOM     55  C   UNL A   1      42.906  30.456  36.797  1.00  0.00     0.173 A 
ATOM     56  C   UNL A   1      41.649  29.046  35.344  1.00  0.00     0.173 A 
ATOM     57  F   UNL A   1      43.219  31.644  37.338  1.00  0.00    -0.203 F 
ATOM     58  C   UNL A   1      43.710  29.366  37.152  1.00  0.00     0.198 A 
ATOM     59  C   UNL A   1      42.424  27.953  35.736  1.00  0.00     0.198 A 
ATOM     60  F   UNL A   1      40.758  28.783  34.383  1.00  0.00    -0.203 F 
ATOM     61  F   UNL A   1      44.759  29.548  37.964  1.00  0.00    -0.200 F 
ATOM     62  C   UNL A   1      43.474  28.118  36.613  1.00  0.00     0.200 A 
ATOM     63  F   UNL A   1      42.192  26.752  35.183  1.00  0.00    -0.200 F 
ATOM     64  F   UNL A   1      44.279  27.086  36.897  1.00  0.00    -0.200 F 
ENDBRANCH  40  54
BRANCH  41  65
ATOM     65  C   UNL A   1      40.227  28.149  27.963  1.00  0.00     0.064 A 
ATOM     66  C   UNL A   1      40.952  27.994  26.767  1.00  0.00     0.173 A 
ATOM     67  C   UNL A   1      39.574  27.000  28.449  1.00  0.00     0.173 A 
ATOM     68  F   UNL A   1      41.626  29.030  26.245  1.00  0.00    -0.203 F 
ATOM     69  C   UNL A   1      41.063  26.756  26.127  1.00  0.00     0.198 A 
ATOM     70  C   UNL A   1      39.680  25.765  27.806  1.00  0.00     0.198 A 
ATOM     71  F   UNL A   1      38.906  27.034  29.611  1.00  0.00    -0.203 F 
ATOM     72  F   UNL A   1      41.829  26.633  25.035  1.00  0.00    -0.200 F 
ATOM     73  C   UNL A   1      40.441  25.638  26.658  1.00  0.00     0.200 A 
ATOM     74  F   UNL A   1      39.099  24.684  28.345  1.00  0.00    -0.200 F 
ATOM     75  F   UNL A   1      40.609  24.436  26.091  1.00  0.00    -0.200 F 
ENDBRANCH  41  65
BRANCH  53  76
ATOM     76  C   UNL A   1      43.218  33.350  29.820  1.00  0.00     0.064 A 
ATOM     77  C   UNL A   1      44.347  33.618  29.030  1.00  0.00     0.173 A 
ATOM     78  C   UNL A   1      42.061  34.106  29.582  1.00  0.00     0.173 A 
ATOM     79  F   UNL A   1      45.465  32.889  29.152  1.00  0.00    -0.203 F 
ATOM     80  C   UNL A   1      44.323  34.628  28.069  1.00  0.00     0.198 A 
ATOM     81  C   UNL A   1      42.029  35.085  28.597  1.00  0.00     0.198 A 
ATOM     82  F   UNL A   1      40.946  33.869  30.291  1.00  0.00    -0.203 F 
ATOM     83  F   UNL A   1      45.418  34.888  27.339  1.00  0.00    -0.200 F 
ATOM     84  C   UNL A   1      43.163  35.355  27.850  1.00  0.00     0.200 A 
ATOM     85  F   UNL A   1      40.893  35.756  28.365  1.00  0.00    -0.200 F 
ATOM     86  F   UNL A   1      43.130  36.305  26.904  1.00  0.00    -0.200 F 
ENDBRANCH  53  76
ENDBRANCH  27  28
ENDBRANCH  19  22
ENDBRANCH  17  18
ENDBRANCH   1  17
TORSDOF 11
ENDMDL
MODEL 2
REMARK VINA RESULT:     -11.2      3.923      8.932
REMARK SMILES Cc1csc2nc(C(=O)NCCCCNC(=O)c3ccc(-c4c5nc(c(-c6c(F)c(F)c(F)c(F)c6F)c6ccc([nH]6)c(-c6c(F)c(F)c(F)c(F)c6F)c6nc(c(-c7c(F)c(F)c(F)c(F)c7F)c7ccc4[nH]7)C=C6)C=C5)cc3)cn12
REMARK SMILES IDX 13 1 12 2 11 3 10 4 8 5 9 6 7 8 1 9 2 10 3 11 82 12 4 13
REMARK SMILES IDX 5 14 81 15 6 16 14 17 15 18 16 19 17 21 18 22 19 23 80 24
REMARK SMILES IDX 20 25 79 26 21 27 22 28 23 29 73 30 24 31 78 32 72 33 74 34
REMARK SMILES IDX 25 35 77 36 71 37 70 38 26 40 58 41 38 42 57 43 39 44 42 45
REMARK SMILES IDX 56 46 75 47 40 48 41 49 55 51 76 52 43 53 27 54 28 55 36 56
REMARK SMILES IDX 29 57 30 58 34 59 37 60 31 61 32 62 35 63 33 64 59 65 60 66
REMARK SMILES IDX 68 67 61 68 62 69 66 70 69 71 63 72 64 73 67 74 65 75 44 76
REMARK SMILES IDX 45 77 53 78 46 79 47 80 51 81 54 82 48 83 49 84 52 85 50 86
REMARK H PARENT 10 7 15 20 74 39 42 50
REMARK Flexibility Score: inf
ROOT
ATOM      1  C   UNL A   1      33.337  28.543  27.277  1.00  0.00     0.023 C 
ENDROOT
BRANCH   1   2
ATOM      2  C   UNL A   1      32.954  27.673  26.068  1.00  0.00     0.023 C 
BRANCH   2   3
ATOM      3  C   UNL A   1      33.434  28.187  24.709  1.00  0.00     0.116 C 
BRANCH   3   4
ATOM      4  N   UNL A   1      33.286  27.200  23.652  1.00  0.00    -0.351 N 
ATOM      5  C   UNL A   1      32.312  27.048  22.690  1.00  0.00     0.271 C 
ATOM      6  O   UNL A   1      32.469  26.144  21.865  1.00  0.00    -0.267 OA
ATOM      7  H   UNL A   1      34.002  26.525  23.619  1.00  0.00     0.163 HD
BRANCH   5   8
ATOM      8  C   UNL A   1      31.138  27.931  22.639  1.00  0.00     0.148 A 
ATOM      9  C   UNL A   1      26.725  28.164  23.569  1.00  0.00     0.066 C 
ATOM     10  C   UNL A   1      27.757  29.054  22.978  1.00  0.00     0.032 A 
ATOM     11  C   UNL A   1      27.569  30.322  22.556  1.00  0.00     0.090 A 
ATOM     12  N   UNL A   1      29.079  28.673  22.820  1.00  0.00    -0.294 N 
ATOM     13  S   UNL A   1      29.042  31.085  21.939  1.00  0.00    -0.105 S 
ATOM     14  C   UNL A   1      29.900  29.622  22.295  1.00  0.00     0.194 A 
ATOM     15  C   UNL A   1      29.851  27.572  23.049  1.00  0.00     0.128 A 
ATOM     16  N   UNL A   1      31.140  29.248  22.183  1.00  0.00    -0.214 NA
ENDBRANCH   5   8
ENDBRANCH   3   4
ENDBRANCH   2   3
ENDBRANCH   1   2
BRANCH   1  17
ATOM     17  C   UNL A   1      34.803  28.962  27.338  1.00  0.00     0.116 C 
BRANCH  17  18
ATOM     18  N   UNL A   1      35.047  30.082  28.243  1.00  0.00    -0.352 N 
ATOM     19  C   UNL A   1      36.107  30.259  29.106  1.00  0.00     0.251 C 
ATOM     20  H   UNL A   1      34.371  30.798  28.238  1.00  0.00     0.163 HD
ATOM     21  O   UNL A   1      36.005  30.998  30.086  1.00  0.00    -0.269 OA
BRANCH  19  22
ATOM     22  C   UNL A   1      37.372  29.547  28.855  1.00  0.00     0.039 A 
ATOM     23  C   UNL A   1      38.125  29.817  27.709  1.00  0.00     0.014 A 
ATOM     24  C   UNL A   1      37.813  28.610  29.788  1.00  0.00     0.014 A 
ATOM     25  C   UNL A   1      39.371  29.214  27.565  1.00  0.00     0.010 A 
ATOM     26  C   UNL A   1      39.091  28.099  29.703  1.00  0.00     0.010 A 
ATOM     27  C   UNL A   1      39.871  28.383  28.585  1.00  0.00    -0.014 A 
BRANCH  27  28
ATOM     28  C   UNL A   1      41.283  27.990  28.565  1.00  0.00     0.031 A 
ATOM     29  C   UNL A   1      41.524  26.723  27.820  1.00  0.00     0.074 A 
ATOM     30  C   UNL A   1      42.310  28.769  28.974  1.00  0.00     0.049 A 
ATOM     31  N   UNL A   1      41.921  25.594  28.304  1.00  0.00    -0.248 NA
ATOM     32  C   UNL A   1      41.142  26.653  26.398  1.00  0.00     0.031 C 
ATOM     33  C   UNL A   1      42.236  30.169  29.403  1.00  0.00     0.029 A 
ATOM     34  N   UNL A   1      43.658  28.521  28.993  1.00  0.00    -0.354 N 
ATOM     35  C   UNL A   1      42.078  24.745  27.210  1.00  0.00     0.074 A 
ATOM     36  C   UNL A   1      41.395  25.372  26.112  1.00  0.00     0.031 C 
ATOM     37  C   UNL A   1      43.472  30.713  29.400  1.00  0.00     0.029 A 
ATOM     38  C   UNL A   1      44.443  29.663  29.146  1.00  0.00     0.049 A 
ATOM     39  H   UNL A   1      44.038  27.617  28.906  1.00  0.00     0.167 HD
ATOM     40  C   UNL A   1      43.043  23.784  27.240  1.00  0.00     0.037 A 
ATOM     41  C   UNL A   1      45.793  29.756  29.067  1.00  0.00     0.037 A 
ATOM     42  C   UNL A   1      43.513  23.593  28.589  1.00  0.00     0.049 A 
ATOM     43  C   UNL A   1      46.355  28.410  29.311  1.00  0.00     0.074 A 
ATOM     44  C   UNL A   1      43.085  22.969  29.738  1.00  0.00     0.029 A 
ATOM     45  N   UNL A   1      44.476  24.493  28.950  1.00  0.00    -0.354 N 
ATOM     46  N   UNL A   1      46.302  27.809  30.467  1.00  0.00    -0.248 NA
ATOM     47  C   UNL A   1      46.718  27.565  28.178  1.00  0.00     0.031 C 
ATOM     48  C   UNL A   1      43.774  23.597  30.820  1.00  0.00     0.029 A 
ATOM     49  C   UNL A   1      44.636  24.560  30.304  1.00  0.00     0.049 A 
ATOM     50  H   UNL A   1      44.995  25.030  28.308  1.00  0.00     0.167 HD
ATOM     51  C   UNL A   1      46.180  26.477  30.141  1.00  0.00     0.074 A 
ATOM     52  C   UNL A   1      46.635  26.367  28.762  1.00  0.00     0.031 C 
ATOM     53  C   UNL A   1      45.379  25.657  30.878  1.00  0.00     0.037 A 
BRANCH  40  54
ATOM     54  C   UNL A   1      43.953  23.422  26.073  1.00  0.00     0.064 A 
ATOM     55  C   UNL A   1      44.032  22.066  25.678  1.00  0.00     0.173 A 
ATOM     56  C   UNL A   1      44.980  24.250  25.570  1.00  0.00     0.173 A 
ATOM     57  F   UNL A   1      43.117  21.177  26.097  1.00  0.00    -0.203 F 
ATOM     58  C   UNL A   1      45.102  21.569  24.927  1.00  0.00     0.198 A 
ATOM     59  C   UNL A   1      46.021  23.758  24.781  1.00  0.00     0.198 A 
ATOM     60  F   UNL A   1      45.092  25.539  25.903  1.00  0.00    -0.203 F 
ATOM     61  F   UNL A   1      45.198  20.254  24.691  1.00  0.00    -0.200 F 
ATOM     62  C   UNL A   1      46.101  22.414  24.487  1.00  0.00     0.200 A 
ATOM     63  F   UNL A   1      46.993  24.592  24.383  1.00  0.00    -0.200 F 
ATOM     64  F   UNL A   1      47.162  21.934  23.824  1.00  0.00    -0.200 F 
ENDBRANCH  40  54
BRANCH  41  65
ATOM     65  C   UNL A   1      46.654  30.885  28.640  1.00  0.00     0.064 A 
ATOM     66  C   UNL A   1      46.463  31.509  27.394  1.00  0.00     0.173 A 
ATOM     67  C   UNL A   1      47.473  31.566  29.559  1.00  0.00     0.173 A 
ATOM     68  F   UNL A   1      45.677  30.943  26.466  1.00  0.00    -0.203 F 
ATOM     69  C   UNL A   1      47.012  32.763  27.106  1.00  0.00     0.198 A 
ATOM     70  C   UNL A   1      48.026  32.814  29.269  1.00  0.00     0.198 A 
ATOM     71  F   UNL A   1      47.668  31.078  30.794  1.00  0.00    -0.203 F 
ATOM     72  F   UNL A   1      46.740  33.359  25.937  1.00  0.00    -0.200 F 
ATOM     73  C   UNL A   1      47.778  33.422  28.052  1.00  0.00     0.200 A 
ATOM     74  F   UNL A   1      48.742  33.458  30.203  1.00  0.00    -0.200 F 
ATOM     75  F   UNL A   1      48.240  34.656  27.808  1.00  0.00    -0.200 F 
ENDBRANCH  41  65
BRANCH  53  76
ATOM     76  C   UNL A   1      45.150  26.013  32.309  1.00  0.00     0.064 A 
ATOM     77  C   UNL A   1      44.034  26.710  32.795  1.00  0.00     0.173 A 
ATOM     78  C   UNL A   1      46.101  25.573  33.241  1.00  0.00     0.173 A 
ATOM     79  F   UNL A   1      43.050  27.099  31.973  1.00  0.00    -0.203 F 
ATOM     80  C   UNL A   1      43.900  26.985  34.156  1.00  0.00     0.198 A 
ATOM     81  C   UNL A   1      45.944  25.815  34.600  1.00  0.00     0.198 A 
ATOM     82  F   UNL A   1      47.173  24.877  32.830  1.00  0.00    -0.203 F 
ATOM     83  F   UNL A   1      42.838  27.674  34.601  1.00  0.00    -0.200 F 
ATOM     84  C   UNL A   1      44.851  26.531  35.056  1.00  0.00     0.200 A 
ATOM     85  F   UNL A   1      46.848  25.339  35.468  1.00  0.00    -0.200 F 
ATOM     86  F   UNL A   1      44.706  26.768  36.368  1.00  0.00    -0.200 F 
ENDBRANCH  53  76
ENDBRANCH  27  28
ENDBRANCH  19  22
ENDBRANCH  17  18
ENDBRANCH   1  17
TORSDOF 11
ENDMDL
MODEL 3
REMARK VINA RESULT:     -11.2      3.218      8.889
REMARK SMILES Cc1csc2nc(C(=O)NCCCCNC(=O)c3ccc(-c4c5nc(c(-c6c(F)c(F)c(F)c(F)c6F)c6ccc([nH]6)c(-c6c(F)c(F)c(F)c(F)c6F)c6nc(c(-c7c(F)c(F)c(F)c(F)c7F)c7ccc4[nH]7)C=C6)C=C5)cc3)cn12
REMARK SMILES IDX 13 1 12 2 11 3 10 4 8 5 9 6 7 8 1 9 2 10 3 11 82 12 4 13
REMARK SMILES IDX 5 14 81 15 6 16 14 17 15 18 16 19 17 21 18 22 19 23 80 24
REMARK SMILES IDX 20 25 79 26 21 27 22 28 23 29 73 30 24 31 78 32 72 33 74 34
REMARK SMILES IDX 25 35 77 36 71 37 70 38 26 40 58 41 38 42 57 43 39 44 42 45
REMARK SMILES IDX 56 46 75 47 40 48 41 49 55 51 76 52 43 53 27 54 28 55 36 56
REMARK SMILES IDX 29 57 30 58 34 59 37 60 31 61 32 62 35 63 33 64 59 65 60 66
REMARK SMILES IDX 68 67 61 68 62 69 66 70 69 71 63 72 64 73 67 74 65 75 44 76
REMARK SMILES IDX 45 77 53 78 46 79 47 80 51 81 54 82 48 83 49 84 52 85 50 86
REMARK H PARENT 10 7 15 20 74 39 42 50
REMARK Flexibility Score: inf
ROOT
ATOM      1  C   UNL A   1      38.450  21.510  25.381  1.00  0.00     0.023 C 
ENDROOT
BRANCH   1   2
ATOM      2  C   UNL A   1      37.536  22.633  24.865  1.00  0.00     0.023 C 
BRANCH   2   3
ATOM      3  C   UNL A   1      37.005  23.592  25.933  1.00  0.00     0.116 C 
BRANCH   3   4
ATOM      4  N   UNL A   1      35.772  23.122  26.544  1.00  0.00    -0.351 N 
ATOM      5  C   UNL A   1      34.463  23.506  26.344  1.00  0.00     0.271 C 
ATOM      6  O   UNL A   1      33.593  22.887  26.962  1.00  0.00    -0.267 OA
ATOM      7  H   UNL A   1      35.892  22.411  27.214  1.00  0.00     0.163 HD
BRANCH   5   8
ATOM      8  C   UNL A   1      34.116  24.599  25.426  1.00  0.00     0.148 A 
ATOM      9  C   UNL A   1      32.768  25.512  21.213  1.00  0.00     0.066 C 
ATOM     10  C   UNL A   1      33.124  26.287  22.430  1.00  0.00     0.032 A 
ATOM     11  C   UNL A   1      33.088  27.629  22.559  1.00  0.00     0.090 A 
ATOM     12  N   UNL A   1      33.517  25.688  23.615  1.00  0.00    -0.294 N 
ATOM     13  S   UNL A   1      33.550  28.195  24.170  1.00  0.00    -0.105 S 
ATOM     14  C   UNL A   1      33.773  26.542  24.642  1.00  0.00     0.194 A 
ATOM     15  C   UNL A   1      33.732  24.429  24.092  1.00  0.00     0.128 A 
ATOM     16  N   UNL A   1      34.113  25.953  25.751  1.00  0.00    -0.214 NA
ENDBRANCH   5   8
ENDBRANCH   3   4
ENDBRANCH   2   3
ENDBRANCH   1   2
BRANCH   1  17
ATOM     17  C   UNL A   1      39.418  21.916  26.489  1.00  0.00     0.116 C 
BRANCH  17  18
ATOM     18  N   UNL A   1      40.811  21.956  26.054  1.00  0.00    -0.352 N 
ATOM     19  C   UNL A   1      41.630  23.058  25.935  1.00  0.00     0.251 C 
ATOM     20  H   UNL A   1      41.215  21.090  25.816  1.00  0.00     0.163 HD
ATOM     21  O   UNL A   1      42.611  23.036  25.191  1.00  0.00    -0.269 OA
BRANCH  19  22
ATOM     22  C   UNL A   1      41.321  24.277  26.702  1.00  0.00     0.039 A 
ATOM     23  C   UNL A   1      41.848  24.466  27.982  1.00  0.00     0.014 A 
ATOM     24  C   UNL A   1      40.504  25.247  26.121  1.00  0.00     0.014 A 
ATOM     25  C   UNL A   1      41.632  25.680  28.626  1.00  0.00     0.010 A 
ATOM     26  C   UNL A   1      40.383  26.489  26.709  1.00  0.00     0.010 A 
ATOM     27  C   UNL A   1      40.930  26.709  27.970  1.00  0.00    -0.014 A 
BRANCH  27  28
ATOM     28  C   UNL A   1      40.956  28.064  28.526  1.00  0.00     0.031 A 
ATOM     29  C   UNL A   1      42.072  28.892  27.990  1.00  0.00     0.074 A 
ATOM     30  C   UNL A   1      39.974  28.613  29.276  1.00  0.00     0.049 A 
ATOM     31  N   UNL A   1      43.095  29.341  28.638  1.00  0.00    -0.248 NA
ATOM     32  C   UNL A   1      42.143  29.131  26.537  1.00  0.00     0.031 C 
ATOM     33  C   UNL A   1      38.667  28.022  29.583  1.00  0.00     0.029 A 
ATOM     34  N   UNL A   1      39.877  29.860  29.837  1.00  0.00    -0.354 N 
ATOM     35  C   UNL A   1      43.805  30.126  27.730  1.00  0.00     0.074 A 
ATOM     36  C   UNL A   1      43.299  29.792  26.427  1.00  0.00     0.031 C 
ATOM     37  C   UNL A   1      37.833  28.978  30.047  1.00  0.00     0.029 A 
ATOM     38  C   UNL A   1      38.588  30.203  30.240  1.00  0.00     0.049 A 
ATOM     39  H   UNL A   1      40.650  30.460  29.944  1.00  0.00     0.167 HD
ATOM     40  C   UNL A   1      44.495  31.211  28.179  1.00  0.00     0.037 A 
ATOM     41  C   UNL A   1      38.156  31.404  30.699  1.00  0.00     0.037 A 
ATOM     42  C   UNL A   1      44.648  31.146  29.610  1.00  0.00     0.049 A 
ATOM     43  C   UNL A   1      39.332  32.147  31.200  1.00  0.00     0.074 A 
ATOM     44  C   UNL A   1      45.433  30.476  30.520  1.00  0.00     0.029 A 
ATOM     45  N   UNL A   1      43.562  31.626  30.286  1.00  0.00    -0.354 N 
ATOM     46  N   UNL A   1      40.000  31.799  32.264  1.00  0.00    -0.248 NA
ATOM     47  C   UNL A   1      39.984  33.128  30.338  1.00  0.00     0.031 C 
ATOM     48  C   UNL A   1      44.724  30.500  31.760  1.00  0.00     0.029 A 
ATOM     49  C   UNL A   1      43.544  31.219  31.588  1.00  0.00     0.049 A 
ATOM     50  H   UNL A   1      42.872  32.200  29.880  1.00  0.00     0.167 HD
ATOM     51  C   UNL A   1      41.297  32.159  31.971  1.00  0.00     0.074 A 
ATOM     52  C   UNL A   1      41.200  33.131  30.890  1.00  0.00     0.031 C 
ATOM     53  C   UNL A   1      42.337  31.371  32.364  1.00  0.00     0.037 A 
BRANCH  40  54
ATOM     54  C   UNL A   1      44.541  32.565  27.483  1.00  0.00     0.064 A 
ATOM     55  C   UNL A   1      45.651  32.858  26.656  1.00  0.00     0.173 A 
ATOM     56  C   UNL A   1      43.760  33.683  27.849  1.00  0.00     0.173 A 
ATOM     57  F   UNL A   1      46.475  31.880  26.246  1.00  0.00    -0.203 F 
ATOM     58  C   UNL A   1      46.001  34.168  26.311  1.00  0.00     0.198 A 
ATOM     59  C   UNL A   1      44.087  34.984  27.464  1.00  0.00     0.198 A 
ATOM     60  F   UNL A   1      42.719  33.591  28.682  1.00  0.00    -0.203 F 
ATOM     61  F   UNL A   1      47.134  34.401  25.637  1.00  0.00    -0.200 F 
ATOM     62  C   UNL A   1      45.223  35.231  26.724  1.00  0.00     0.200 A 
ATOM     63  F   UNL A   1      43.330  36.005  27.894  1.00  0.00    -0.200 F 
ATOM     64  F   UNL A   1      45.587  36.492  26.453  1.00  0.00    -0.200 F 
ENDBRANCH  40  54
BRANCH  41  65
ATOM     65  C   UNL A   1      36.823  32.044  30.601  1.00  0.00     0.064 A 
ATOM     66  C   UNL A   1      35.942  32.055  31.697  1.00  0.00     0.173 A 
ATOM     67  C   UNL A   1      36.508  32.914  29.539  1.00  0.00     0.173 A 
ATOM     68  F   UNL A   1      36.179  31.276  32.764  1.00  0.00    -0.203 F 
ATOM     69  C   UNL A   1      34.847  32.923  31.754  1.00  0.00     0.198 A 
ATOM     70  C   UNL A   1      35.411  33.775  29.594  1.00  0.00     0.198 A 
ATOM     71  F   UNL A   1      37.318  33.016  28.475  1.00  0.00    -0.203 F 
ATOM     72  F   UNL A   1      34.079  32.959  32.851  1.00  0.00    -0.200 F 
ATOM     73  C   UNL A   1      34.593  33.795  30.709  1.00  0.00     0.200 A 
ATOM     74  F   UNL A   1      35.191  34.636  28.590  1.00  0.00    -0.200 F 
ATOM     75  F   UNL A   1      33.591  34.680  30.794  1.00  0.00    -0.200 F 
ENDBRANCH  41  65
BRANCH  53  76
ATOM     76  C   UNL A   1      42.142  30.517  33.572  1.00  0.00     0.064 A 
ATOM     77  C   UNL A   1      42.260  30.960  34.898  1.00  0.00     0.173 A 
ATOM     78  C   UNL A   1      41.761  29.184  33.362  1.00  0.00     0.173 A 
ATOM     79  F   UNL A   1      42.551  32.238  35.177  1.00  0.00    -0.203 F 
ATOM     80  C   UNL A   1      42.044  30.089  35.965  1.00  0.00     0.198 A 
ATOM     81  C   UNL A   1      41.508  28.329  34.428  1.00  0.00     0.198 A 
ATOM     82  F   UNL A   1      41.605  28.718  32.112  1.00  0.00    -0.203 F 
ATOM     83  F   UNL A   1      42.186  30.522  37.227  1.00  0.00    -0.200 F 
ATOM     84  C   UNL A   1      41.662  28.777  35.728  1.00  0.00     0.200 A 
ATOM     85  F   UNL A   1      41.102  27.074  34.190  1.00  0.00    -0.200 F 
ATOM     86  F   UNL A   1      41.423  27.948  36.754  1.00  0.00    -0.200 F 
ENDBRANCH  53  76
ENDBRANCH  27  28
ENDBRANCH  19  22
ENDBRANCH  17  18
ENDBRANCH   1  17
TORSDOF 11
ENDMDL
