MODEL 1
REMARK VINA RESULT:     -12.5      0.000      0.000
REMARK SMILES Cc1cc(N2CC[C@H](CC(=O)NCCCCNC(=O)c3ccc(-c4c5nc(c(-c6c(F)c(F)c(F)c(F)c6F)c6ccc([nH]6)c(-c6c(F)c(F)c(F)c(F)c6F)c6nc(c(-c7c(F)c(F)c(F)c(F)c7F)c7ccc4[nH]7)C=C6)C=C5)cc3)C2)ncc1[N+](=O)[O-]
REMARK SMILES IDX 14 1 13 2 12 3 10 4 11 5 9 7 8 8 5 9 6 10 83 11 7 12 4 13
REMARK SMILES IDX 1 14 2 15 3 16 86 17 85 18 84 19 87 20 88 21 89 22 15 23
REMARK SMILES IDX 16 24 17 25 18 26 19 28 20 29 21 30 82 31 22 32 81 33 23 34
REMARK SMILES IDX 24 35 25 36 75 37 26 38 80 39 74 40 76 41 27 42 79 43 73 44
REMARK SMILES IDX 72 45 28 47 60 48 40 49 59 50 41 51 44 52 58 53 77 54 42 55
REMARK SMILES IDX 43 56 57 58 78 59 45 60 29 61 30 62 38 63 31 64 32 65 36 66
REMARK SMILES IDX 39 67 33 68 34 69 37 70 35 71 61 72 62 73 70 74 63 75 64 76
REMARK SMILES IDX 68 77 71 78 65 79 66 80 69 81 67 82 46 83 47 84 55 85 48 86
REMARK SMILES IDX 49 87 53 88 56 89 50 90 51 91 54 92 52 93
REMARK H PARENT 12 6 17 27 76 46 44 57
REMARK Flexibility Score: inf
ROOT
ATOM      1  C   UNL A   1      36.543  20.502  24.875  1.00  0.00     0.023 C 
ENDROOT
BRANCH   1   2
ATOM      2  C   UNL A   1      36.580  21.960  25.333  1.00  0.00     0.116 C 
BRANCH   2   3
ATOM      3  N   UNL A   1      35.828  22.135  26.563  1.00  0.00    -0.356 N 
ATOM      4  C   UNL A   1      34.728  22.899  26.813  1.00  0.00     0.220 C 
ATOM      5  O   UNL A   1      34.330  22.991  27.976  1.00  0.00    -0.275 OA
ATOM      6  H   UNL A   1      36.163  21.621  27.333  1.00  0.00     0.163 HD
BRANCH   4   7
ATOM      7  C   UNL A   1      34.007  23.614  25.686  1.00  0.00     0.105 C 
BRANCH   7   8
ATOM      8  C   UNL A   1      32.949  22.751  24.999  1.00  0.00     0.019 C 
ATOM      9  N   UNL A   1      32.284  20.513  24.628  1.00  0.00    -0.356 N 
ATOM     10  C   UNL A   1      32.492  21.088  23.308  1.00  0.00     0.118 C 
ATOM     11  C   UNL A   1      32.785  21.389  25.684  1.00  0.00     0.122 C 
ATOM     12  C   UNL A   1      33.300  22.345  23.573  1.00  0.00     0.027 C 
BRANCH   9  13
ATOM     13  C   UNL A   1      32.587  19.168  24.745  1.00  0.00     0.129 A 
ATOM     14  C   UNL A   1      34.392  16.639  22.605  1.00  0.00     0.052 C 
ATOM     15  C   UNL A   1      33.653  17.211  23.778  1.00  0.00     0.032 A 
ATOM     16  C   UNL A   1      33.235  18.546  23.682  1.00  0.00     0.057 A 
ATOM     17  C   UNL A   1      33.340  16.535  24.961  1.00  0.00     0.290 A 
ATOM     18  C   UNL A   1      32.681  17.216  25.978  1.00  0.00     0.199 A 
ATOM     19  N   UNL A   1      32.305  18.516  25.891  1.00  0.00    -0.232 NA
BRANCH  17  20
ATOM     20  N   UNL A   1      33.662  15.138  25.196  1.00  0.00     0.064 N 
ATOM     21  O   UNL A   1      34.862  14.839  25.279  1.00  0.00    -0.258 OA
ATOM     22  O   UNL A   1      32.724  14.342  25.334  1.00  0.00    -0.258 OA
ENDBRANCH  17  20
ENDBRANCH   9  13
ENDBRANCH   7   8
ENDBRANCH   4   7
ENDBRANCH   2   3
ENDBRANCH   1   2
BRANCH   1  23
ATOM     23  C   UNL A   1      37.900  19.841  24.704  1.00  0.00     0.023 C 
BRANCH  23  24
ATOM     24  C   UNL A   1      38.809  19.961  25.911  1.00  0.00     0.116 C 
BRANCH  24  25
ATOM     25  N   UNL A   1      39.991  19.110  25.847  1.00  0.00    -0.352 N 
ATOM     26  C   UNL A   1      41.298  19.445  26.110  1.00  0.00     0.251 C 
ATOM     27  H   UNL A   1      39.832  18.174  25.583  1.00  0.00     0.163 HD
ATOM     28  O   UNL A   1      42.205  18.642  25.941  1.00  0.00    -0.269 OA
BRANCH  26  29
ATOM     29  C   UNL A   1      41.592  20.823  26.553  1.00  0.00     0.039 A 
ATOM     30  C   UNL A   1      42.202  21.022  27.793  1.00  0.00     0.014 A 
ATOM     31  C   UNL A   1      41.365  21.896  25.688  1.00  0.00     0.014 A 
ATOM     32  C   UNL A   1      42.669  22.294  28.127  1.00  0.00     0.010 A 
ATOM     33  C   UNL A   1      41.924  23.131  25.976  1.00  0.00     0.010 A 
ATOM     34  C   UNL A   1      42.577  23.344  27.201  1.00  0.00    -0.014 A 
BRANCH  34  35
ATOM     35  C   UNL A   1      43.125  24.692  27.488  1.00  0.00     0.031 A 
ATOM     36  C   UNL A   1      42.228  25.739  28.085  1.00  0.00     0.074 A 
ATOM     37  C   UNL A   1      44.386  25.000  27.130  1.00  0.00     0.049 A 
ATOM     38  N   UNL A   1      42.458  27.009  28.295  1.00  0.00    -0.248 NA
ATOM     39  C   UNL A   1      40.870  25.307  28.454  1.00  0.00     0.031 C 
ATOM     40  C   UNL A   1      45.336  24.088  26.490  1.00  0.00     0.029 A 
ATOM     41  N   UNL A   1      45.083  26.177  27.246  1.00  0.00    -0.354 N 
ATOM     42  C   UNL A   1      41.267  27.529  28.782  1.00  0.00     0.074 A 
ATOM     43  C   UNL A   1      40.300  26.455  28.779  1.00  0.00     0.031 C 
ATOM     44  C   UNL A   1      46.502  24.727  26.304  1.00  0.00     0.029 A 
ATOM     45  C   UNL A   1      46.371  26.103  26.776  1.00  0.00     0.049 A 
ATOM     46  H   UNL A   1      44.696  26.996  27.630  1.00  0.00     0.167 HD
ATOM     47  C   UNL A   1      41.010  28.782  29.224  1.00  0.00     0.037 A 
ATOM     48  C   UNL A   1      47.335  27.042  26.735  1.00  0.00     0.037 A 
ATOM     49  C   UNL A   1      41.991  29.831  29.277  1.00  0.00     0.049 A 
ATOM     50  C   UNL A   1      47.036  28.419  27.262  1.00  0.00     0.074 A 
ATOM     51  C   UNL A   1      41.857  31.117  29.771  1.00  0.00     0.029 A 
ATOM     52  N   UNL A   1      43.298  29.706  28.829  1.00  0.00    -0.354 N 
ATOM     53  N   UNL A   1      45.924  28.888  27.771  1.00  0.00    -0.248 NA
ATOM     54  C   UNL A   1      48.132  29.398  27.210  1.00  0.00     0.031 C 
ATOM     55  C   UNL A   1      43.077  31.779  29.597  1.00  0.00     0.029 A 
ATOM     56  C   UNL A   1      43.981  30.895  29.028  1.00  0.00     0.049 A 
ATOM     57  H   UNL A   1      43.683  28.893  28.429  1.00  0.00     0.167 HD
ATOM     58  C   UNL A   1      46.190  30.202  28.128  1.00  0.00     0.074 A 
ATOM     59  C   UNL A   1      47.574  30.455  27.783  1.00  0.00     0.031 C 
ATOM     60  C   UNL A   1      45.363  31.117  28.690  1.00  0.00     0.037 A 
BRANCH  47  61
ATOM     61  C   UNL A   1      39.615  29.069  29.693  1.00  0.00     0.064 A 
ATOM     62  C   UNL A   1      39.230  28.860  31.027  1.00  0.00     0.173 A 
ATOM     63  C   UNL A   1      38.646  29.546  28.798  1.00  0.00     0.173 A 
ATOM     64  F   UNL A   1      40.115  28.387  31.918  1.00  0.00    -0.203 F 
ATOM     65  C   UNL A   1      37.918  29.075  31.437  1.00  0.00     0.198 A 
ATOM     66  C   UNL A   1      37.341  29.792  29.220  1.00  0.00     0.198 A 
ATOM     67  F   UNL A   1      38.961  29.766  27.513  1.00  0.00    -0.203 F 
ATOM     68  F   UNL A   1      37.559  28.803  32.700  1.00  0.00    -0.200 F 
ATOM     69  C   UNL A   1      36.975  29.545  30.535  1.00  0.00     0.200 A 
ATOM     70  F   UNL A   1      36.433  30.254  28.350  1.00  0.00    -0.200 F 
ATOM     71  F   UNL A   1      35.711  29.748  30.930  1.00  0.00    -0.200 F 
ENDBRANCH  47  61
BRANCH  48  72
ATOM     72  C   UNL A   1      48.685  26.695  26.227  1.00  0.00     0.064 A 
ATOM     73  C   UNL A   1      49.624  26.082  27.069  1.00  0.00     0.173 A 
ATOM     74  C   UNL A   1      49.065  26.951  24.902  1.00  0.00     0.173 A 
ATOM     75  F   UNL A   1      49.313  25.835  28.350  1.00  0.00    -0.203 F 
ATOM     76  C   UNL A   1      50.897  25.751  26.608  1.00  0.00     0.198 A 
ATOM     77  C   UNL A   1      50.330  26.599  24.436  1.00  0.00     0.198 A 
ATOM     78  F   UNL A   1      48.200  27.530  24.057  1.00  0.00    -0.203 F 
ATOM     79  F   UNL A   1      51.785  25.195  27.443  1.00  0.00    -0.200 F 
ATOM     80  C   UNL A   1      51.247  26.004  25.291  1.00  0.00     0.200 A 
ATOM     81  F   UNL A   1      50.662  26.836  23.159  1.00  0.00    -0.200 F 
ATOM     82  F   UNL A   1      52.468  25.680  24.847  1.00  0.00    -0.200 F 
ENDBRANCH  48  72
BRANCH  60  83
ATOM     83  C   UNL A   1      45.944  32.462  29.006  1.00  0.00     0.064 A 
ATOM     84  C   UNL A   1      46.586  32.714  30.227  1.00  0.00     0.173 A 
ATOM     85  C   UNL A   1      45.900  33.493  28.056  1.00  0.00     0.173 A 
ATOM     86  F   UNL A   1      46.639  31.764  31.171  1.00  0.00    -0.203 F 
ATOM     87  C   UNL A   1      47.150  33.959  30.490  1.00  0.00     0.198 A 
ATOM     88  C   UNL A   1      46.486  34.727  28.313  1.00  0.00     0.198 A 
ATOM     89  F   UNL A   1      45.300  33.296  26.872  1.00  0.00    -0.203 F 
ATOM     90  F   UNL A   1      47.729  34.193  31.677  1.00  0.00    -0.200 F 
ATOM     91  C   UNL A   1      47.107  34.961  29.532  1.00  0.00     0.200 A 
ATOM     92  F   UNL A   1      46.453  35.691  27.383  1.00  0.00    -0.200 F 
ATOM     93  F   UNL A   1      47.658  36.157  29.785  1.00  0.00    -0.200 F 
ENDBRANCH  60  83
ENDBRANCH  34  35
ENDBRANCH  26  29
ENDBRANCH  24  25
ENDBRANCH  23  24
ENDBRANCH   1  23
TORSDOF 14
ENDMDL
MODEL 2
REMARK VINA RESULT:     -12.4      0.723      1.821
REMARK SMILES Cc1cc(N2CC[C@H](CC(=O)NCCCCNC(=O)c3ccc(-c4c5nc(c(-c6c(F)c(F)c(F)c(F)c6F)c6ccc([nH]6)c(-c6c(F)c(F)c(F)c(F)c6F)c6nc(c(-c7c(F)c(F)c(F)c(F)c7F)c7ccc4[nH]7)C=C6)C=C5)cc3)C2)ncc1[N+](=O)[O-]
REMARK SMILES IDX 14 1 13 2 12 3 10 4 11 5 9 7 8 8 5 9 6 10 83 11 7 12 4 13
REMARK SMILES IDX 1 14 2 15 3 16 86 17 85 18 84 19 87 20 88 21 89 22 15 23
REMARK SMILES IDX 16 24 17 25 18 26 19 28 20 29 21 30 82 31 22 32 81 33 23 34
REMARK SMILES IDX 24 35 25 36 75 37 26 38 80 39 74 40 76 41 27 42 79 43 73 44
REMARK SMILES IDX 72 45 28 47 60 48 40 49 59 50 41 51 44 52 58 53 77 54 42 55
REMARK SMILES IDX 43 56 57 58 78 59 45 60 29 61 30 62 38 63 31 64 32 65 36 66
REMARK SMILES IDX 39 67 33 68 34 69 37 70 35 71 61 72 62 73 70 74 63 75 64 76
REMARK SMILES IDX 68 77 71 78 65 79 66 80 69 81 67 82 46 83 47 84 55 85 48 86
REMARK SMILES IDX 49 87 53 88 56 89 50 90 51 91 54 92 52 93
REMARK H PARENT 12 6 17 27 76 46 44 57
REMARK Flexibility Score: inf
ROOT
ATOM      1  C   UNL A   1      37.285  22.014  24.604  1.00  0.00     0.023 C 
ENDROOT
BRANCH   1   2
ATOM      2  C   UNL A   1      36.520  22.743  25.709  1.00  0.00     0.116 C 
BRANCH   2   3
ATOM      3  N   UNL A   1      35.971  23.994  25.219  1.00  0.00    -0.356 N 
ATOM      4  C   UNL A   1      34.695  24.469  25.274  1.00  0.00     0.220 C 
ATOM      5  O   UNL A   1      34.431  25.513  24.675  1.00  0.00    -0.275 OA
ATOM      6  H   UNL A   1      36.619  24.591  24.781  1.00  0.00     0.163 HD
BRANCH   4   7
ATOM      7  C   UNL A   1      33.628  23.734  26.063  1.00  0.00     0.105 C 
BRANCH   7   8
ATOM      8  C   UNL A   1      32.722  22.863  25.192  1.00  0.00     0.019 C 
ATOM      9  N   UNL A   1      32.213  20.620  24.646  1.00  0.00    -0.356 N 
ATOM     10  C   UNL A   1      32.597  21.254  23.395  1.00  0.00     0.118 C 
ATOM     11  C   UNL A   1      32.510  21.470  25.796  1.00  0.00     0.122 C 
ATOM     12  C   UNL A   1      33.304  22.527  23.824  1.00  0.00     0.027 C 
BRANCH   9  13
ATOM     13  C   UNL A   1      32.548  19.283  24.762  1.00  0.00     0.129 A 
ATOM     14  C   UNL A   1      34.237  16.748  22.536  1.00  0.00     0.052 C 
ATOM     15  C   UNL A   1      33.576  17.327  23.751  1.00  0.00     0.032 A 
ATOM     16  C   UNL A   1      33.127  18.653  23.665  1.00  0.00     0.057 A 
ATOM     17  C   UNL A   1      33.363  16.667  24.965  1.00  0.00     0.290 A 
ATOM     18  C   UNL A   1      32.769  17.354  26.017  1.00  0.00     0.199 A 
ATOM     19  N   UNL A   1      32.363  18.646  25.937  1.00  0.00    -0.232 NA
BRANCH  17  20
ATOM     20  N   UNL A   1      33.728  15.281  25.199  1.00  0.00     0.064 N 
ATOM     21  O   UNL A   1      34.934  15.024  25.321  1.00  0.00    -0.258 OA
ATOM     22  O   UNL A   1      32.815  14.450  25.295  1.00  0.00    -0.258 OA
ENDBRANCH  17  20
ENDBRANCH   9  13
ENDBRANCH   7   8
ENDBRANCH   4   7
ENDBRANCH   2   3
ENDBRANCH   1   2
BRANCH   1  23
ATOM     23  C   UNL A   1      37.884  20.676  25.003  1.00  0.00     0.023 C 
BRANCH  23  24
ATOM     24  C   UNL A   1      39.121  20.780  25.872  1.00  0.00     0.116 C 
BRANCH  24  25
ATOM     25  N   UNL A   1      39.940  19.575  25.880  1.00  0.00    -0.352 N 
ATOM     26  C   UNL A   1      41.296  19.467  26.089  1.00  0.00     0.251 C 
ATOM     27  H   UNL A   1      39.462  18.729  25.716  1.00  0.00     0.163 HD
ATOM     28  O   UNL A   1      41.868  18.390  25.992  1.00  0.00    -0.269 OA
BRANCH  26  29
ATOM     29  C   UNL A   1      42.059  20.696  26.383  1.00  0.00     0.039 A 
ATOM     30  C   UNL A   1      42.444  21.525  25.328  1.00  0.00     0.014 A 
ATOM     31  C   UNL A   1      42.289  21.073  27.708  1.00  0.00     0.014 A 
ATOM     32  C   UNL A   1      42.980  22.782  25.609  1.00  0.00     0.010 A 
ATOM     33  C   UNL A   1      42.720  22.362  27.982  1.00  0.00     0.010 A 
ATOM     34  C   UNL A   1      43.075  23.228  26.936  1.00  0.00    -0.014 A 
BRANCH  34  35
ATOM     35  C   UNL A   1      43.571  24.584  27.274  1.00  0.00     0.031 A 
ATOM     36  C   UNL A   1      42.615  25.599  27.833  1.00  0.00     0.074 A 
ATOM     37  C   UNL A   1      44.844  24.927  26.996  1.00  0.00     0.049 A 
ATOM     38  N   UNL A   1      42.801  26.871  28.073  1.00  0.00    -0.248 NA
ATOM     39  C   UNL A   1      41.249  25.129  28.113  1.00  0.00     0.031 C 
ATOM     40  C   UNL A   1      45.852  24.048  26.401  1.00  0.00     0.029 A 
ATOM     41  N   UNL A   1      45.503  26.118  27.170  1.00  0.00    -0.354 N 
ATOM     42  C   UNL A   1      41.571  27.354  28.497  1.00  0.00     0.074 A 
ATOM     43  C   UNL A   1      40.632  26.258  28.421  1.00  0.00     0.031 C 
ATOM     44  C   UNL A   1      47.010  24.718  26.294  1.00  0.00     0.029 A 
ATOM     45  C   UNL A   1      46.818  26.082  26.776  1.00  0.00     0.049 A 
ATOM     46  H   UNL A   1      45.074  26.921  27.542  1.00  0.00     0.167 HD
ATOM     47  C   UNL A   1      41.258  28.594  28.940  1.00  0.00     0.037 A 
ATOM     48  C   UNL A   1      47.759  27.045  26.806  1.00  0.00     0.037 A 
ATOM     49  C   UNL A   1      42.208  29.665  29.067  1.00  0.00     0.049 A 
ATOM     50  C   UNL A   1      47.396  28.406  27.334  1.00  0.00     0.074 A 
ATOM     51  C   UNL A   1      42.013  30.939  29.570  1.00  0.00     0.029 A 
ATOM     52  N   UNL A   1      43.542  29.578  28.695  1.00  0.00    -0.354 N 
ATOM     53  N   UNL A   1      46.244  28.839  27.783  1.00  0.00    -0.248 NA
ATOM     54  C   UNL A   1      48.469  29.410  27.362  1.00  0.00     0.031 C 
ATOM     55  C   UNL A   1      43.225  31.632  29.479  1.00  0.00     0.029 A 
ATOM     56  C   UNL A   1      44.182  30.779  28.951  1.00  0.00     0.049 A 
ATOM     57  H   UNL A   1      43.970  28.781  28.307  1.00  0.00     0.167 HD
ATOM     58  C   UNL A   1      46.457  30.154  28.174  1.00  0.00     0.074 A 
ATOM     59  C   UNL A   1      47.852  30.445  27.915  1.00  0.00     0.031 C 
ATOM     60  C   UNL A   1      45.576  31.039  28.699  1.00  0.00     0.037 A 
BRANCH  47  61
ATOM     61  C   UNL A   1      39.831  28.841  29.330  1.00  0.00     0.064 A 
ATOM     62  C   UNL A   1      39.371  28.593  30.633  1.00  0.00     0.173 A 
ATOM     63  C   UNL A   1      38.906  29.317  28.388  1.00  0.00     0.173 A 
ATOM     64  F   UNL A   1      40.212  28.119  31.566  1.00  0.00    -0.203 F 
ATOM     65  C   UNL A   1      38.032  28.771  30.968  1.00  0.00     0.198 A 
ATOM     66  C   UNL A   1      37.574  29.525  28.735  1.00  0.00     0.198 A 
ATOM     67  F   UNL A   1      39.293  29.571  27.130  1.00  0.00    -0.203 F 
ATOM     68  F   UNL A   1      37.605  28.463  32.200  1.00  0.00    -0.200 F 
ATOM     69  C   UNL A   1      37.135  29.240  30.020  1.00  0.00     0.200 A 
ATOM     70  F   UNL A   1      36.709  29.987  27.821  1.00  0.00    -0.200 F 
ATOM     71  F   UNL A   1      35.845  29.407  30.342  1.00  0.00    -0.200 F 
ENDBRANCH  47  61
BRANCH  48  72
ATOM     72  C   UNL A   1      49.146  26.738  26.374  1.00  0.00     0.064 A 
ATOM     73  C   UNL A   1      49.532  26.926  25.040  1.00  0.00     0.173 A 
ATOM     74  C   UNL A   1      50.112  26.267  27.274  1.00  0.00     0.173 A 
ATOM     75  F   UNL A   1      48.636  27.357  24.139  1.00  0.00    -0.203 F 
ATOM     76  C   UNL A   1      50.829  26.642  24.619  1.00  0.00     0.198 A 
ATOM     77  C   UNL A   1      51.415  26.004  26.857  1.00  0.00     0.198 A 
ATOM     78  F   UNL A   1      49.793  26.077  28.563  1.00  0.00    -0.203 F 
ATOM     79  F   UNL A   1      51.162  26.799  23.330  1.00  0.00    -0.200 F 
ATOM     80  C   UNL A   1      51.771  26.186  25.528  1.00  0.00     0.200 A 
ATOM     81  F   UNL A   1      52.327  25.574  27.740  1.00  0.00    -0.200 F 
ATOM     82  F   UNL A   1      53.020  25.919  25.123  1.00  0.00    -0.200 F 
ENDBRANCH  48  72
BRANCH  60  83
ATOM     83  C   UNL A   1      46.104  32.393  29.068  1.00  0.00     0.064 A 
ATOM     84  C   UNL A   1      46.159  33.438  28.135  1.00  0.00     0.173 A 
ATOM     85  C   UNL A   1      46.511  32.659  30.384  1.00  0.00     0.173 A 
ATOM     86  F   UNL A   1      45.794  33.225  26.862  1.00  0.00    -0.203 F 
ATOM     87  C   UNL A   1      46.620  34.698  28.504  1.00  0.00     0.198 A 
ATOM     88  C   UNL A   1      46.948  33.927  30.754  1.00  0.00     0.198 A 
ATOM     89  F   UNL A   1      46.471  31.692  31.313  1.00  0.00    -0.203 F 
ATOM     90  F   UNL A   1      46.699  35.675  27.588  1.00  0.00    -0.200 F 
ATOM     91  C   UNL A   1      47.006  34.944  29.813  1.00  0.00     0.200 A 
ATOM     92  F   UNL A   1      47.310  34.165  32.022  1.00  0.00    -0.200 F 
ATOM     93  F   UNL A   1      47.442  36.161  30.168  1.00  0.00    -0.200 F 
ENDBRANCH  60  83
ENDBRANCH  34  35
ENDBRANCH  26  29
ENDBRANCH  24  25
ENDBRANCH  23  24
ENDBRANCH   1  23
TORSDOF 14
ENDMDL
MODEL 3
REMARK VINA RESULT:     -12.3      7.194     11.486
REMARK SMILES Cc1cc(N2CC[C@H](CC(=O)NCCCCNC(=O)c3ccc(-c4c5nc(c(-c6c(F)c(F)c(F)c(F)c6F)c6ccc([nH]6)c(-c6c(F)c(F)c(F)c(F)c6F)c6nc(c(-c7c(F)c(F)c(F)c(F)c7F)c7ccc4[nH]7)C=C6)C=C5)cc3)C2)ncc1[N+](=O)[O-]
REMARK SMILES IDX 14 1 13 2 12 3 10 4 11 5 9 7 8 8 5 9 6 10 83 11 7 12 4 13
REMARK SMILES IDX 1 14 2 15 3 16 86 17 85 18 84 19 87 20 88 21 89 22 15 23
REMARK SMILES IDX 16 24 17 25 18 26 19 28 20 29 21 30 82 31 22 32 81 33 23 34
REMARK SMILES IDX 24 35 25 36 75 37 26 38 80 39 74 40 76 41 27 42 79 43 73 44
REMARK SMILES IDX 72 45 28 47 60 48 40 49 59 50 41 51 44 52 58 53 77 54 42 55
REMARK SMILES IDX 43 56 57 58 78 59 45 60 29 61 30 62 38 63 31 64 32 65 36 66
REMARK SMILES IDX 39 67 33 68 34 69 37 70 35 71 61 72 62 73 70 74 63 75 64 76
REMARK SMILES IDX 68 77 71 78 65 79 66 80 69 81 67 82 46 83 47 84 55 85 48 86
REMARK SMILES IDX 49 87 53 88 56 89 50 90 51 91 54 92 52 93
REMARK H PARENT 12 6 17 27 76 46 44 57
REMARK Flexibility Score: inf
ROOT
ATOM      1  C   UNL A   1      34.577  33.464  28.602  1.00  0.00     0.023 C 
ENDROOT
BRANCH   1   2
ATOM      2  C   UNL A   1      34.268  32.075  28.043  1.00  0.00     0.116 C 
BRANCH   2   3
ATOM      3  N   UNL A   1      35.483  31.293  27.900  1.00  0.00    -0.356 N 
ATOM      4  C   UNL A   1      35.647  29.944  27.800  1.00  0.00     0.220 C 
ATOM      5  O   UNL A   1      36.793  29.491  27.814  1.00  0.00    -0.275 OA
ATOM      6  H   UNL A   1      36.315  31.818  27.870  1.00  0.00     0.163 HD
BRANCH   4   7
ATOM      7  C   UNL A   1      34.448  29.025  27.668  1.00  0.00     0.105 C 
BRANCH   7   8
ATOM      8  C   UNL A   1      34.282  28.442  26.265  1.00  0.00     0.019 C 
ATOM      9  N   UNL A   1      32.812  28.354  24.417  1.00  0.00    -0.356 N 
ATOM     10  C   UNL A   1      33.008  26.974  24.832  1.00  0.00     0.118 C 
ATOM     11  C   UNL A   1      33.351  29.295  25.395  1.00  0.00     0.122 C 
ATOM     12  C   UNL A   1      33.590  27.085  26.229  1.00  0.00     0.027 C 
BRANCH   9  13
ATOM     13  C   UNL A   1      31.562  28.647  23.901  1.00  0.00     0.129 A 
ATOM     14  C   UNL A   1      29.191  31.573  24.144  1.00  0.00     0.052 C 
ATOM     15  C   UNL A   1      29.739  30.243  23.718  1.00  0.00     0.032 A 
ATOM     16  C   UNL A   1      30.960  29.844  24.280  1.00  0.00     0.057 A 
ATOM     17  C   UNL A   1      29.142  29.361  22.812  1.00  0.00     0.290 A 
ATOM     18  C   UNL A   1      29.795  28.177  22.487  1.00  0.00     0.199 A 
ATOM     19  N   UNL A   1      30.991  27.810  23.011  1.00  0.00    -0.232 NA
BRANCH  17  20
ATOM     20  N   UNL A   1      27.858  29.607  22.180  1.00  0.00     0.064 N 
ATOM     21  O   UNL A   1      27.870  30.002  21.006  1.00  0.00    -0.258 OA
ATOM     22  O   UNL A   1      26.835  29.375  22.837  1.00  0.00    -0.258 OA
ENDBRANCH  17  20
ENDBRANCH   9  13
ENDBRANCH   7   8
ENDBRANCH   4   7
ENDBRANCH   2   3
ENDBRANCH   1   2
BRANCH   1  23
ATOM     23  C   UNL A   1      33.380  34.386  28.748  1.00  0.00     0.023 C 
BRANCH  23  24
ATOM     24  C   UNL A   1      33.667  35.668  29.504  1.00  0.00     0.116 C 
BRANCH  24  25
ATOM     25  N   UNL A   1      32.626  36.040  30.454  1.00  0.00    -0.352 N 
ATOM     26  C   UNL A   1      32.581  35.802  31.808  1.00  0.00     0.251 C 
ATOM     27  H   UNL A   1      31.855  36.526  30.077  1.00  0.00     0.163 HD
ATOM     28  O   UNL A   1      31.601  36.107  32.473  1.00  0.00    -0.269 OA
BRANCH  26  29
ATOM     29  C   UNL A   1      33.728  35.115  32.436  1.00  0.00     0.039 A 
ATOM     30  C   UNL A   1      33.575  33.797  32.870  1.00  0.00     0.014 A 
ATOM     31  C   UNL A   1      34.974  35.744  32.485  1.00  0.00     0.014 A 
ATOM     32  C   UNL A   1      34.701  33.077  33.272  1.00  0.00     0.010 A 
ATOM     33  C   UNL A   1      36.101  34.994  32.781  1.00  0.00     0.010 A 
ATOM     34  C   UNL A   1      35.976  33.655  33.183  1.00  0.00    -0.014 A 
BRANCH  34  35
ATOM     35  C   UNL A   1      37.205  32.900  33.531  1.00  0.00     0.031 A 
ATOM     36  C   UNL A   1      37.891  33.176  34.839  1.00  0.00     0.074 A 
ATOM     37  C   UNL A   1      37.748  32.046  32.643  1.00  0.00     0.049 A 
ATOM     38  N   UNL A   1      39.038  32.732  35.285  1.00  0.00    -0.248 NA
ATOM     39  C   UNL A   1      37.217  34.115  35.749  1.00  0.00     0.031 C 
ATOM     40  C   UNL A   1      37.208  31.737  31.318  1.00  0.00     0.029 A 
ATOM     41  N   UNL A   1      38.888  31.286  32.722  1.00  0.00    -0.354 N 
ATOM     42  C   UNL A   1      39.234  33.366  36.504  1.00  0.00     0.074 A 
ATOM     43  C   UNL A   1      38.124  34.270  36.699  1.00  0.00     0.031 C 
ATOM     44  C   UNL A   1      37.995  30.826  30.724  1.00  0.00     0.029 A 
ATOM     45  C   UNL A   1      39.114  30.516  31.608  1.00  0.00     0.049 A 
ATOM     46  H   UNL A   1      39.487  31.293  33.502  1.00  0.00     0.167 HD
ATOM     47  C   UNL A   1      40.236  33.187  37.397  1.00  0.00     0.037 A 
ATOM     48  C   UNL A   1      40.113  29.654  31.337  1.00  0.00     0.037 A 
ATOM     49  C   UNL A   1      41.308  32.246  37.224  1.00  0.00     0.049 A 
ATOM     50  C   UNL A   1      41.198  29.447  32.359  1.00  0.00     0.074 A 
ATOM     51  C   UNL A   1      42.335  31.935  38.096  1.00  0.00     0.029 A 
ATOM     52  N   UNL A   1      41.480  31.453  36.099  1.00  0.00    -0.354 N 
ATOM     53  N   UNL A   1      41.348  30.011  33.532  1.00  0.00    -0.248 NA
ATOM     54  C   UNL A   1      42.251  28.480  32.018  1.00  0.00     0.031 C 
ATOM     55  C   UNL A   1      43.145  30.970  37.487  1.00  0.00     0.029 A 
ATOM     56  C   UNL A   1      42.603  30.656  36.251  1.00  0.00     0.049 A 
ATOM     57  H   UNL A   1      40.893  31.456  35.309  1.00  0.00     0.167 HD
ATOM     58  C   UNL A   1      42.491  29.449  34.083  1.00  0.00     0.074 A 
ATOM     59  C   UNL A   1      42.992  28.493  33.117  1.00  0.00     0.031 C 
ATOM     60  C   UNL A   1      43.073  29.701  35.280  1.00  0.00     0.037 A 
BRANCH  47  61
ATOM     61  C   UNL A   1      40.198  34.023  38.642  1.00  0.00     0.064 A 
ATOM     62  C   UNL A   1      39.475  33.621  39.776  1.00  0.00     0.173 A 
ATOM     63  C   UNL A   1      40.882  35.247  38.700  1.00  0.00     0.173 A 
ATOM     64  F   UNL A   1      38.789  32.468  39.764  1.00  0.00    -0.203 F 
ATOM     65  C   UNL A   1      39.400  34.432  40.904  1.00  0.00     0.198 A 
ATOM     66  C   UNL A   1      40.832  36.041  39.844  1.00  0.00     0.198 A 
ATOM     67  F   UNL A   1      41.590  35.677  37.646  1.00  0.00    -0.203 F 
ATOM     68  F   UNL A   1      38.648  34.058  41.948  1.00  0.00    -0.200 F 
ATOM     69  C   UNL A   1      40.082  35.639  40.939  1.00  0.00     0.200 A 
ATOM     70  F   UNL A   1      41.498  37.203  39.879  1.00  0.00    -0.200 F 
ATOM     71  F   UNL A   1      40.007  36.421  42.025  1.00  0.00    -0.200 F 
ENDBRANCH  47  61
BRANCH  48  72
ATOM     72  C   UNL A   1      40.102  28.883  30.069  1.00  0.00     0.064 A 
ATOM     73  C   UNL A   1      39.477  27.629  30.006  1.00  0.00     0.173 A 
ATOM     74  C   UNL A   1      40.695  29.377  28.899  1.00  0.00     0.173 A 
ATOM     75  F   UNL A   1      38.913  27.107  31.105  1.00  0.00    -0.203 F 
ATOM     76  C   UNL A   1      39.459  26.893  28.823  1.00  0.00     0.198 A 
ATOM     77  C   UNL A   1      40.657  28.650  27.711  1.00  0.00     0.198 A 
ATOM     78  F   UNL A   1      41.299  30.574  28.907  1.00  0.00    -0.203 F 
ATOM     79  F   UNL A   1      38.884  25.682  28.800  1.00  0.00    -0.200 F 
ATOM     80  C   UNL A   1      40.044  27.405  27.676  1.00  0.00     0.200 A 
ATOM     81  F   UNL A   1      41.213  29.153  26.601  1.00  0.00    -0.200 F 
ATOM     82  F   UNL A   1      40.020  26.699  26.538  1.00  0.00    -0.200 F 
ENDBRANCH  48  72
BRANCH  60  83
ATOM     83  C   UNL A   1      44.292  28.903  35.631  1.00  0.00     0.064 A 
ATOM     84  C   UNL A   1      44.198  27.682  36.313  1.00  0.00     0.173 A 
ATOM     85  C   UNL A   1      45.564  29.343  35.234  1.00  0.00     0.173 A 
ATOM     86  F   UNL A   1      43.005  27.229  36.726  1.00  0.00    -0.203 F 
ATOM     87  C   UNL A   1      45.338  26.938  36.601  1.00  0.00     0.198 A 
ATOM     88  C   UNL A   1      46.698  28.584  35.502  1.00  0.00     0.198 A 
ATOM     89  F   UNL A   1      45.702  30.503  34.574  1.00  0.00    -0.203 F 
ATOM     90  F   UNL A   1      45.231  25.790  37.286  1.00  0.00    -0.200 F 
ATOM     91  C   UNL A   1      46.585  27.384  36.189  1.00  0.00     0.200 A 
ATOM     92  F   UNL A   1      47.901  29.012  35.094  1.00  0.00    -0.200 F 
ATOM     93  F   UNL A   1      47.681  26.661  36.460  1.00  0.00    -0.200 F 
ENDBRANCH  60  83
ENDBRANCH  34  35
ENDBRANCH  26  29
ENDBRANCH  24  25
ENDBRANCH  23  24
ENDBRANCH   1  23
TORSDOF 14
ENDMDL
