MODEL 1
REMARK VINA RESULT:     -11.5      0.000      0.000
REMARK SMILES C[C@@H]([C@H](C)O)[C@@H](Cc1ccccc1)C(=O)NCCCCNC(=O)c1ccc(-c2c3nc(c(-c4c(F)c(F)c(F)c(F)c4F)c4ccc([nH]4)c(-c4c(F)c(F)c(F)c(F)c4F)c4nc(c(-c5c(F)c(F)c(F)c(F)c5F)c5ccc2[nH]5)C=C4)C=C3)cc1
REMARK SMILES IDX 18 1 17 2 16 3 14 4 15 5 6 7 2 8 1 9 3 10 4 11 5 12 7 14
REMARK SMILES IDX 8 15 9 16 13 17 10 18 12 19 11 20 19 21 20 22 21 23 22 24
REMARK SMILES IDX 23 26 24 27 25 28 86 29 26 30 85 31 27 32 28 33 29 34 79 35
REMARK SMILES IDX 30 36 84 37 78 38 80 39 31 40 83 41 77 42 76 43 32 45 64 46
REMARK SMILES IDX 44 47 63 48 45 49 48 50 62 51 81 52 46 53 47 54 61 56 82 57
REMARK SMILES IDX 49 58 33 59 34 60 42 61 35 62 36 63 40 64 43 65 37 66 38 67
REMARK SMILES IDX 41 68 39 69 65 70 66 71 74 72 67 73 68 74 72 75 75 76 69 77
REMARK SMILES IDX 70 78 73 79 71 80 50 81 51 82 59 83 52 84 53 85 57 86 60 87
REMARK SMILES IDX 54 88 55 89 58 90 56 91
REMARK H PARENT 16 6 5 13 21 25 80 44 48 55
REMARK Flexibility Score: inf
ROOT
ATOM      1  C   UNL A   1      31.580  30.755  26.126  1.00  0.00     0.023 C 
ENDROOT
BRANCH   1   2
ATOM      2  C   UNL A   1      32.345  29.775  27.000  1.00  0.00     0.116 C 
BRANCH   2   3
ATOM      3  N   UNL A   1      31.679  28.509  27.213  1.00  0.00    -0.356 N 
ATOM      4  C   UNL A   1      31.390  27.519  26.324  1.00  0.00     0.223 C 
ATOM      5  O   UNL A   1      31.037  26.431  26.792  1.00  0.00    -0.275 OA
ATOM      6  H   UNL A   1      31.390  28.337  28.138  1.00  0.00     0.163 HD
BRANCH   4   7
ATOM      7  C   UNL A   1      31.450  27.702  24.799  1.00  0.00     0.088 C 
BRANCH   7   8
ATOM      8  C   UNL A   1      32.800  27.261  24.158  1.00  0.00     0.027 C 
ATOM      9  C   UNL A   1      32.635  26.092  23.174  1.00  0.00     0.011 C 
BRANCH   8  10
ATOM     10  C   UNL A   1      33.548  28.458  23.493  1.00  0.00     0.115 C 
ATOM     11  C   UNL A   1      34.119  28.188  22.102  1.00  0.00     0.038 C 
BRANCH  10  12
ATOM     12  O   UNL A   1      34.606  28.888  24.354  1.00  0.00    -0.393 OA
ATOM     13  H   UNL A   1      34.314  29.662  24.863  1.00  0.00     0.210 HD
ENDBRANCH  10  12
ENDBRANCH   8  10
ENDBRANCH   7   8
BRANCH   7  14
ATOM     14  C   UNL A   1      30.120  27.317  24.099  1.00  0.00     0.049 C 
BRANCH  14  15
ATOM     15  C   UNL A   1      29.405  28.335  23.245  1.00  0.00    -0.047 A 
ATOM     16  C   UNL A   1      30.144  29.222  22.446  1.00  0.00     0.004 A 
ATOM     17  C   UNL A   1      28.007  28.435  23.240  1.00  0.00     0.004 A 
ATOM     18  C   UNL A   1      29.504  30.223  21.711  1.00  0.00     0.000 A 
ATOM     19  C   UNL A   1      27.369  29.446  22.515  1.00  0.00     0.000 A 
ATOM     20  C   UNL A   1      28.118  30.346  21.761  1.00  0.00     0.000 A 
ENDBRANCH  14  15
ENDBRANCH   7  14
ENDBRANCH   4   7
ENDBRANCH   2   3
ENDBRANCH   1   2
BRANCH   1  21
ATOM     21  C   UNL A   1      31.345  32.127  26.753  1.00  0.00     0.023 C 
BRANCH  21  22
ATOM     22  C   UNL A   1      32.593  32.886  27.204  1.00  0.00     0.116 C 
BRANCH  22  23
ATOM     23  N   UNL A   1      32.335  34.228  27.704  1.00  0.00    -0.352 N 
ATOM     24  C   UNL A   1      33.014  34.930  28.675  1.00  0.00     0.251 C 
ATOM     25  H   UNL A   1      31.572  34.696  27.295  1.00  0.00     0.163 HD
ATOM     26  O   UNL A   1      32.638  36.041  29.019  1.00  0.00    -0.269 OA
BRANCH  24  27
ATOM     27  C   UNL A   1      34.193  34.315  29.324  1.00  0.00     0.039 A 
ATOM     28  C   UNL A   1      33.994  33.421  30.379  1.00  0.00     0.014 A 
ATOM     29  C   UNL A   1      35.487  34.605  28.882  1.00  0.00     0.014 A 
ATOM     30  C   UNL A   1      35.092  32.769  30.950  1.00  0.00     0.010 A 
ATOM     31  C   UNL A   1      36.569  33.898  29.398  1.00  0.00     0.010 A 
ATOM     32  C   UNL A   1      36.384  32.981  30.444  1.00  0.00    -0.014 A 
BRANCH  32  33
ATOM     33  C   UNL A   1      37.560  32.278  31.021  1.00  0.00     0.031 A 
ATOM     34  C   UNL A   1      38.062  32.655  32.388  1.00  0.00     0.074 A 
ATOM     35  C   UNL A   1      38.207  31.341  30.300  1.00  0.00     0.049 A 
ATOM     36  N   UNL A   1      39.093  32.192  33.051  1.00  0.00    -0.248 NA
ATOM     37  C   UNL A   1      37.325  33.716  33.092  1.00  0.00     0.031 C 
ATOM     38  C   UNL A   1      37.855  30.925  28.942  1.00  0.00     0.029 A 
ATOM     39  N   UNL A   1      39.302  30.575  30.609  1.00  0.00    -0.354 N 
ATOM     40  C   UNL A   1      39.134  32.915  34.236  1.00  0.00     0.074 A 
ATOM     41  C   UNL A   1      38.065  33.887  34.177  1.00  0.00     0.031 C 
ATOM     42  C   UNL A   1      38.700  29.961  28.545  1.00  0.00     0.029 A 
ATOM     43  C   UNL A   1      39.670  29.709  29.607  1.00  0.00     0.049 A 
ATOM     44  H   UNL A   1      39.779  30.637  31.468  1.00  0.00     0.167 HD
ATOM     45  C   UNL A   1      39.967  32.762  35.293  1.00  0.00     0.037 A 
ATOM     46  C   UNL A   1      40.673  28.812  29.556  1.00  0.00     0.037 A 
ATOM     47  C   UNL A   1      41.011  31.773  35.363  1.00  0.00     0.049 A 
ATOM     48  C   UNL A   1      41.574  28.647  30.752  1.00  0.00     0.074 A 
ATOM     49  C   UNL A   1      41.877  31.504  36.408  1.00  0.00     0.029 A 
ATOM     50  N   UNL A   1      41.326  30.888  34.344  1.00  0.00    -0.354 N 
ATOM     51  N   UNL A   1      41.557  29.286  31.896  1.00  0.00    -0.248 NA
ATOM     52  C   UNL A   1      42.623  27.621  30.654  1.00  0.00     0.031 C 
ATOM     53  C   UNL A   1      42.742  30.481  36.007  1.00  0.00     0.029 A 
ATOM     54  C   UNL A   1      42.381  30.077  34.732  1.00  0.00     0.049 A 
ATOM     55  H   UNL A   1      40.869  30.842  33.473  1.00  0.00     0.167 HD
ATOM     56  C   UNL A   1      42.563  28.716  32.666  1.00  0.00     0.074 A 
ATOM     57  C   UNL A   1      43.163  27.673  31.862  1.00  0.00     0.031 C 
ATOM     58  C   UNL A   1      42.952  29.027  33.928  1.00  0.00     0.037 A 
BRANCH  45  59
ATOM     59  C   UNL A   1      39.775  33.682  36.463  1.00  0.00     0.064 A 
ATOM     60  C   UNL A   1      40.428  34.923  36.539  1.00  0.00     0.173 A 
ATOM     61  C   UNL A   1      38.913  33.332  37.513  1.00  0.00     0.173 A 
ATOM     62  F   UNL A   1      41.274  35.300  35.568  1.00  0.00    -0.203 F 
ATOM     63  C   UNL A   1      40.251  35.762  37.636  1.00  0.00     0.198 A 
ATOM     64  C   UNL A   1      38.713  34.188  38.593  1.00  0.00     0.198 A 
ATOM     65  F   UNL A   1      38.260  32.160  37.490  1.00  0.00    -0.203 F 
ATOM     66  F   UNL A   1      40.929  36.915  37.712  1.00  0.00    -0.200 F 
ATOM     67  C   UNL A   1      39.389  35.396  38.659  1.00  0.00     0.200 A 
ATOM     68  F   UNL A   1      37.870  33.840  39.575  1.00  0.00    -0.200 F 
ATOM     69  F   UNL A   1      39.217  36.207  39.712  1.00  0.00    -0.200 F 
ENDBRANCH  45  59
BRANCH  46  70
ATOM     70  C   UNL A   1      40.855  27.966  28.348  1.00  0.00     0.064 A 
ATOM     71  C   UNL A   1      40.245  26.706  28.255  1.00  0.00     0.173 A 
ATOM     72  C   UNL A   1      41.647  28.386  27.271  1.00  0.00     0.173 A 
ATOM     73  F   UNL A   1      39.494  26.250  29.268  1.00  0.00    -0.203 F 
ATOM     74  C   UNL A   1      40.442  25.889  27.143  1.00  0.00     0.198 A 
ATOM     75  C   UNL A   1      41.821  27.581  26.147  1.00  0.00     0.198 A 
ATOM     76  F   UNL A   1      42.248  29.585  27.307  1.00  0.00    -0.203 F 
ATOM     77  F   UNL A   1      39.888  24.670  27.104  1.00  0.00    -0.200 F 
ATOM     78  C   UNL A   1      41.226  26.330  26.088  1.00  0.00     0.200 A 
ATOM     79  F   UNL A   1      42.569  28.015  25.124  1.00  0.00    -0.200 F 
ATOM     80  F   UNL A   1      41.415  25.545  25.019  1.00  0.00    -0.200 F 
ENDBRANCH  46  70
BRANCH  58  81
ATOM     81  C   UNL A   1      44.040  28.193  34.540  1.00  0.00     0.064 A 
ATOM     82  C   UNL A   1      45.388  28.575  34.482  1.00  0.00     0.173 A 
ATOM     83  C   UNL A   1      43.720  27.011  35.224  1.00  0.00     0.173 A 
ATOM     84  F   UNL A   1      45.746  29.691  33.828  1.00  0.00    -0.203 F 
ATOM     85  C   UNL A   1      46.380  27.788  35.060  1.00  0.00     0.198 A 
ATOM     86  C   UNL A   1      44.711  26.242  35.828  1.00  0.00     0.198 A 
ATOM     87  F   UNL A   1      42.445  26.605  35.316  1.00  0.00    -0.203 F 
ATOM     88  F   UNL A   1      47.666  28.144  34.949  1.00  0.00    -0.200 F 
ATOM     89  C   UNL A   1      46.040  26.626  35.739  1.00  0.00     0.200 A 
ATOM     90  F   UNL A   1      44.379  25.128  36.496  1.00  0.00    -0.200 F 
ATOM     91  F   UNL A   1      46.996  25.872  36.300  1.00  0.00    -0.200 F 
ENDBRANCH  58  81
ENDBRANCH  32  33
ENDBRANCH  24  27
ENDBRANCH  22  23
ENDBRANCH  21  22
ENDBRANCH   1  21
TORSDOF 16
ENDMDL
MODEL 2
REMARK VINA RESULT:     -11.5      0.835      7.412
REMARK SMILES C[C@@H]([C@H](C)O)[C@@H](Cc1ccccc1)C(=O)NCCCCNC(=O)c1ccc(-c2c3nc(c(-c4c(F)c(F)c(F)c(F)c4F)c4ccc([nH]4)c(-c4c(F)c(F)c(F)c(F)c4F)c4nc(c(-c5c(F)c(F)c(F)c(F)c5F)c5ccc2[nH]5)C=C4)C=C3)cc1
REMARK SMILES IDX 18 1 17 2 16 3 14 4 15 5 6 7 2 8 1 9 3 10 4 11 5 12 7 14
REMARK SMILES IDX 8 15 9 16 13 17 10 18 12 19 11 20 19 21 20 22 21 23 22 24
REMARK SMILES IDX 23 26 24 27 25 28 86 29 26 30 85 31 27 32 28 33 29 34 79 35
REMARK SMILES IDX 30 36 84 37 78 38 80 39 31 40 83 41 77 42 76 43 32 45 64 46
REMARK SMILES IDX 44 47 63 48 45 49 48 50 62 51 81 52 46 53 47 54 61 56 82 57
REMARK SMILES IDX 49 58 33 59 34 60 42 61 35 62 36 63 40 64 43 65 37 66 38 67
REMARK SMILES IDX 41 68 39 69 65 70 66 71 74 72 67 73 68 74 72 75 75 76 69 77
REMARK SMILES IDX 70 78 73 79 71 80 50 81 51 82 59 83 52 84 53 85 57 86 60 87
REMARK SMILES IDX 54 88 55 89 58 90 56 91
REMARK H PARENT 16 6 5 13 21 25 80 44 48 55
REMARK Flexibility Score: inf
ROOT
ATOM      1  C   UNL A   1      31.697  30.761  25.980  1.00  0.00     0.023 C 
ENDROOT
BRANCH   1   2
ATOM      2  C   UNL A   1      32.500  29.703  26.721  1.00  0.00     0.116 C 
BRANCH   2   3
ATOM      3  N   UNL A   1      31.757  28.510  27.062  1.00  0.00    -0.356 N 
ATOM      4  C   UNL A   1      31.482  27.412  26.307  1.00  0.00     0.223 C 
ATOM      5  O   UNL A   1      31.042  26.420  26.898  1.00  0.00    -0.275 OA
ATOM      6  H   UNL A   1      31.395  28.489  27.977  1.00  0.00     0.163 HD
BRANCH   4   7
ATOM      7  C   UNL A   1      31.660  27.364  24.781  1.00  0.00     0.088 C 
BRANCH   7   8
ATOM      8  C   UNL A   1      32.990  26.698  24.316  1.00  0.00     0.027 C 
ATOM      9  C   UNL A   1      32.835  25.193  24.043  1.00  0.00     0.011 C 
BRANCH   8  10
ATOM     10  C   UNL A   1      33.613  27.433  23.089  1.00  0.00     0.115 C 
ATOM     11  C   UNL A   1      33.729  28.951  23.219  1.00  0.00     0.038 C 
BRANCH  10  12
ATOM     12  O   UNL A   1      32.852  27.123  21.919  1.00  0.00    -0.393 OA
ATOM     13  H   UNL A   1      32.954  27.836  21.269  1.00  0.00     0.210 HD
ENDBRANCH  10  12
ENDBRANCH   8  10
ENDBRANCH   7   8
BRANCH   7  14
ATOM     14  C   UNL A   1      30.342  27.020  24.036  1.00  0.00     0.049 C 
BRANCH  14  15
ATOM     15  C   UNL A   1      29.525  28.128  23.419  1.00  0.00    -0.047 A 
ATOM     16  C   UNL A   1      28.125  28.032  23.387  1.00  0.00     0.004 A 
ATOM     17  C   UNL A   1      30.132  29.258  22.853  1.00  0.00     0.004 A 
ATOM     18  C   UNL A   1      27.357  29.010  22.749  1.00  0.00     0.000 A 
ATOM     19  C   UNL A   1      29.363  30.228  22.203  1.00  0.00     0.000 A 
ATOM     20  C   UNL A   1      27.977  30.097  22.141  1.00  0.00     0.000 A 
ENDBRANCH  14  15
ENDBRANCH   7  14
ENDBRANCH   4   7
ENDBRANCH   2   3
ENDBRANCH   1   2
BRANCH   1  21
ATOM     21  C   UNL A   1      31.404  32.025  26.785  1.00  0.00     0.023 C 
BRANCH  21  22
ATOM     22  C   UNL A   1      32.618  32.834  27.236  1.00  0.00     0.116 C 
BRANCH  22  23
ATOM     23  N   UNL A   1      32.320  34.203  27.629  1.00  0.00    -0.352 N 
ATOM     24  C   UNL A   1      32.935  34.978  28.587  1.00  0.00     0.251 C 
ATOM     25  H   UNL A   1      31.577  34.632  27.146  1.00  0.00     0.163 HD
ATOM     26  O   UNL A   1      32.530  36.105  28.833  1.00  0.00    -0.269 OA
BRANCH  24  27
ATOM     27  C   UNL A   1      34.081  34.424  29.342  1.00  0.00     0.039 A 
ATOM     28  C   UNL A   1      33.837  33.740  30.536  1.00  0.00     0.014 A 
ATOM     29  C   UNL A   1      35.387  34.563  28.866  1.00  0.00     0.014 A 
ATOM     30  C   UNL A   1      34.898  33.141  31.220  1.00  0.00     0.010 A 
ATOM     31  C   UNL A   1      36.431  33.900  29.505  1.00  0.00     0.010 A 
ATOM     32  C   UNL A   1      36.200  33.192  30.694  1.00  0.00    -0.014 A 
BRANCH  32  33
ATOM     33  C   UNL A   1      37.337  32.539  31.393  1.00  0.00     0.031 A 
ATOM     34  C   UNL A   1      38.064  31.398  30.737  1.00  0.00     0.074 A 
ATOM     35  C   UNL A   1      37.683  32.935  32.634  1.00  0.00     0.049 A 
ATOM     36  N   UNL A   1      39.054  30.671  31.195  1.00  0.00    -0.248 NA
ATOM     37  C   UNL A   1      37.599  31.000  29.400  1.00  0.00     0.031 C 
ATOM     38  C   UNL A   1      37.022  33.991  33.401  1.00  0.00     0.029 A 
ATOM     39  N   UNL A   1      38.675  32.488  33.470  1.00  0.00    -0.354 N 
ATOM     40  C   UNL A   1      39.313  29.726  30.211  1.00  0.00     0.074 A 
ATOM     41  C   UNL A   1      38.341  29.930  29.160  1.00  0.00     0.031 C 
ATOM     42  C   UNL A   1      37.642  34.129  34.584  1.00  0.00     0.029 A 
ATOM     43  C   UNL A   1      38.726  33.154  34.671  1.00  0.00     0.049 A 
ATOM     44  H   UNL A   1      39.293  31.759  33.232  1.00  0.00     0.167 HD
ATOM     45  C   UNL A   1      40.293  28.791  30.172  1.00  0.00     0.037 A 
ATOM     46  C   UNL A   1      39.557  32.998  35.719  1.00  0.00     0.037 A 
ATOM     47  C   UNL A   1      41.279  28.609  31.205  1.00  0.00     0.049 A 
ATOM     48  C   UNL A   1      40.652  31.965  35.643  1.00  0.00     0.074 A 
ATOM     49  C   UNL A   1      42.342  27.724  31.238  1.00  0.00     0.029 A 
ATOM     50  N   UNL A   1      41.322  29.330  32.388  1.00  0.00    -0.354 N 
ATOM     51  N   UNL A   1      40.932  31.126  34.676  1.00  0.00    -0.248 NA
ATOM     52  C   UNL A   1      41.555  31.871  36.799  1.00  0.00     0.031 C 
ATOM     53  C   UNL A   1      43.006  27.884  32.458  1.00  0.00     0.029 A 
ATOM     54  C   UNL A   1      42.389  28.904  33.163  1.00  0.00     0.049 A 
ATOM     55  H   UNL A   1      40.688  30.041  32.640  1.00  0.00     0.167 HD
ATOM     56  C   UNL A   1      42.064  30.434  35.088  1.00  0.00     0.074 A 
ATOM     57  C   UNL A   1      42.423  30.959  36.389  1.00  0.00     0.031 C 
ATOM     58  C   UNL A   1      42.746  29.453  34.446  1.00  0.00     0.037 A 
BRANCH  45  59
ATOM     59  C   UNL A   1      40.350  27.900  28.965  1.00  0.00     0.064 A 
ATOM     60  C   UNL A   1      41.116  28.236  27.838  1.00  0.00     0.173 A 
ATOM     61  C   UNL A   1      39.648  26.686  28.940  1.00  0.00     0.173 A 
ATOM     62  F   UNL A   1      41.795  29.393  27.804  1.00  0.00    -0.203 F 
ATOM     63  C   UNL A   1      41.150  27.408  26.720  1.00  0.00     0.198 A 
ATOM     64  C   UNL A   1      39.710  25.844  27.833  1.00  0.00     0.198 A 
ATOM     65  F   UNL A   1      38.903  26.313  29.992  1.00  0.00    -0.203 F 
ATOM     66  F   UNL A   1      41.843  27.778  25.634  1.00  0.00    -0.200 F 
ATOM     67  C   UNL A   1      40.452  26.210  26.720  1.00  0.00     0.200 A 
ATOM     68  F   UNL A   1      39.046  24.679  27.839  1.00  0.00    -0.200 F 
ATOM     69  F   UNL A   1      40.489  25.411  25.645  1.00  0.00    -0.200 F 
ENDBRANCH  45  59
BRANCH  46  70
ATOM     70  C   UNL A   1      39.420  33.869  36.915  1.00  0.00     0.064 A 
ATOM     71  C   UNL A   1      38.694  33.441  38.036  1.00  0.00     0.173 A 
ATOM     72  C   UNL A   1      39.995  35.147  36.961  1.00  0.00     0.173 A 
ATOM     73  F   UNL A   1      38.108  32.235  38.033  1.00  0.00    -0.203 F 
ATOM     74  C   UNL A   1      38.527  34.267  39.146  1.00  0.00     0.198 A 
ATOM     75  C   UNL A   1      39.851  35.961  38.082  1.00  0.00     0.198 A 
ATOM     76  F   UNL A   1      40.704  35.601  35.917  1.00  0.00    -0.203 F 
ATOM     77  F   UNL A   1      37.785  33.852  40.182  1.00  0.00    -0.200 F 
ATOM     78  C   UNL A   1      39.110  35.525  39.170  1.00  0.00     0.200 A 
ATOM     79  F   UNL A   1      40.427  37.171  38.107  1.00  0.00    -0.200 F 
ATOM     80  F   UNL A   1      38.950  36.319  40.237  1.00  0.00    -0.200 F 
ENDBRANCH  46  70
BRANCH  58  81
ATOM     81  C   UNL A   1      43.983  28.924  35.111  1.00  0.00     0.064 A 
ATOM     82  C   UNL A   1      45.245  29.497  34.893  1.00  0.00     0.173 A 
ATOM     83  C   UNL A   1      43.896  27.847  36.006  1.00  0.00     0.173 A 
ATOM     84  F   UNL A   1      45.382  30.521  34.037  1.00  0.00    -0.203 F 
ATOM     85  C   UNL A   1      46.378  28.992  35.524  1.00  0.00     0.198 A 
ATOM     86  C   UNL A   1      45.027  27.363  36.658  1.00  0.00     0.198 A 
ATOM     87  F   UNL A   1      42.712  27.268  36.255  1.00  0.00    -0.203 F 
ATOM     88  F   UNL A   1      47.581  29.521  35.262  1.00  0.00    -0.200 F 
ATOM     89  C   UNL A   1      46.267  27.931  36.410  1.00  0.00     0.200 A 
ATOM     90  F   UNL A   1      44.915  26.348  37.526  1.00  0.00    -0.200 F 
ATOM     91  F   UNL A   1      47.359  27.449  37.021  1.00  0.00    -0.200 F 
ENDBRANCH  58  81
ENDBRANCH  32  33
ENDBRANCH  24  27
ENDBRANCH  22  23
ENDBRANCH  21  22
ENDBRANCH   1  21
TORSDOF 16
ENDMDL
MODEL 3
REMARK VINA RESULT:     -11.5      1.790      2.627
REMARK SMILES C[C@@H]([C@H](C)O)[C@@H](Cc1ccccc1)C(=O)NCCCCNC(=O)c1ccc(-c2c3nc(c(-c4c(F)c(F)c(F)c(F)c4F)c4ccc([nH]4)c(-c4c(F)c(F)c(F)c(F)c4F)c4nc(c(-c5c(F)c(F)c(F)c(F)c5F)c5ccc2[nH]5)C=C4)C=C3)cc1
REMARK SMILES IDX 18 1 17 2 16 3 14 4 15 5 6 7 2 8 1 9 3 10 4 11 5 12 7 14
REMARK SMILES IDX 8 15 9 16 13 17 10 18 12 19 11 20 19 21 20 22 21 23 22 24
REMARK SMILES IDX 23 26 24 27 25 28 86 29 26 30 85 31 27 32 28 33 29 34 79 35
REMARK SMILES IDX 30 36 84 37 78 38 80 39 31 40 83 41 77 42 76 43 32 45 64 46
REMARK SMILES IDX 44 47 63 48 45 49 48 50 62 51 81 52 46 53 47 54 61 56 82 57
REMARK SMILES IDX 49 58 33 59 34 60 42 61 35 62 36 63 40 64 43 65 37 66 38 67
REMARK SMILES IDX 41 68 39 69 65 70 66 71 74 72 67 73 68 74 72 75 75 76 69 77
REMARK SMILES IDX 70 78 73 79 71 80 50 81 51 82 59 83 52 84 53 85 57 86 60 87
REMARK SMILES IDX 54 88 55 89 58 90 56 91
REMARK H PARENT 16 6 5 13 21 25 80 44 48 55
REMARK Flexibility Score: inf
ROOT
ATOM      1  C   UNL A   1      32.069  27.591  26.939  1.00  0.00     0.023 C 
ENDROOT
BRANCH   1   2
ATOM      2  C   UNL A   1      32.143  26.790  25.648  1.00  0.00     0.116 C 
BRANCH   2   3
ATOM      3  N   UNL A   1      30.891  26.198  25.234  1.00  0.00    -0.356 N 
ATOM      4  C   UNL A   1      30.060  26.546  24.213  1.00  0.00     0.223 C 
ATOM      5  O   UNL A   1      29.177  25.737  23.908  1.00  0.00    -0.275 OA
ATOM      6  H   UNL A   1      30.594  25.427  25.770  1.00  0.00     0.163 HD
BRANCH   4   7
ATOM      7  C   UNL A   1      30.150  27.885  23.464  1.00  0.00     0.088 C 
BRANCH   7   8
ATOM      8  C   UNL A   1      31.243  27.921  22.354  1.00  0.00     0.027 C 
ATOM      9  C   UNL A   1      32.407  28.864  22.699  1.00  0.00     0.011 C 
BRANCH   8  10
ATOM     10  C   UNL A   1      31.760  26.493  21.999  1.00  0.00     0.115 C 
ATOM     11  C   UNL A   1      33.267  26.283  22.138  1.00  0.00     0.038 C 
BRANCH  10  12
ATOM     12  O   UNL A   1      31.367  26.170  20.662  1.00  0.00    -0.393 OA
ATOM     13  H   UNL A   1      32.094  26.377  20.053  1.00  0.00     0.210 HD
ENDBRANCH  10  12
ENDBRANCH   8  10
ENDBRANCH   7   8
BRANCH   7  14
ATOM     14  C   UNL A   1      28.755  28.500  23.171  1.00  0.00     0.049 C 
BRANCH  14  15
ATOM     15  C   UNL A   1      28.657  29.924  22.682  1.00  0.00    -0.047 A 
ATOM     16  C   UNL A   1      28.870  30.987  23.574  1.00  0.00     0.004 A 
ATOM     17  C   UNL A   1      28.339  30.221  21.349  1.00  0.00     0.004 A 
ATOM     18  C   UNL A   1      28.704  32.311  23.158  1.00  0.00     0.000 A 
ATOM     19  C   UNL A   1      28.161  31.545  20.939  1.00  0.00     0.000 A 
ATOM     20  C   UNL A   1      28.332  32.589  21.846  1.00  0.00     0.000 A 
ENDBRANCH  14  15
ENDBRANCH   7  14
ENDBRANCH   4   7
ENDBRANCH   2   3
ENDBRANCH   1   2
BRANCH   1  21
ATOM     21  C   UNL A   1      31.712  29.065  26.760  1.00  0.00     0.023 C 
BRANCH  21  22
ATOM     22  C   UNL A   1      32.842  29.981  26.293  1.00  0.00     0.116 C 
BRANCH  22  23
ATOM     23  N   UNL A   1      32.649  31.388  26.613  1.00  0.00    -0.352 N 
ATOM     24  C   UNL A   1      33.433  32.209  27.392  1.00  0.00     0.251 C 
ATOM     25  H   UNL A   1      31.851  31.808  26.220  1.00  0.00     0.163 HD
ATOM     26  O   UNL A   1      33.105  33.367  27.605  1.00  0.00    -0.269 OA
BRANCH  24  27
ATOM     27  C   UNL A   1      34.670  31.669  27.999  1.00  0.00     0.039 A 
ATOM     28  C   UNL A   1      35.780  32.507  28.132  1.00  0.00     0.014 A 
ATOM     29  C   UNL A   1      34.729  30.348  28.451  1.00  0.00     0.014 A 
ATOM     30  C   UNL A   1      36.929  32.038  28.776  1.00  0.00     0.010 A 
ATOM     31  C   UNL A   1      35.842  29.908  29.161  1.00  0.00     0.010 A 
ATOM     32  C   UNL A   1      36.958  30.744  29.321  1.00  0.00    -0.014 A 
BRANCH  32  33
ATOM     33  C   UNL A   1      38.161  30.237  30.031  1.00  0.00     0.031 A 
ATOM     34  C   UNL A   1      38.440  30.677  31.442  1.00  0.00     0.074 A 
ATOM     35  C   UNL A   1      39.028  29.424  29.396  1.00  0.00     0.049 A 
ATOM     36  N   UNL A   1      39.451  30.381  32.220  1.00  0.00    -0.248 NA
ATOM     37  C   UNL A   1      37.467  31.597  32.051  1.00  0.00     0.031 C 
ATOM     38  C   UNL A   1      38.901  28.969  28.011  1.00  0.00     0.029 A 
ATOM     39  N   UNL A   1      40.192  28.842  29.832  1.00  0.00    -0.354 N 
ATOM     40  C   UNL A   1      39.242  31.090  33.396  1.00  0.00     0.074 A 
ATOM     41  C   UNL A   1      38.043  31.876  33.209  1.00  0.00     0.031 C 
ATOM     42  C   UNL A   1      39.931  28.158  27.718  1.00  0.00     0.029 A 
ATOM     43  C   UNL A   1      40.804  28.058  28.884  1.00  0.00     0.049 A 
ATOM     44  H   UNL A   1      40.553  28.973  30.738  1.00  0.00     0.167 HD
ATOM     45  C   UNL A   1      39.966  31.065  34.541  1.00  0.00     0.037 A 
ATOM     46  C   UNL A   1      41.939  27.336  28.954  1.00  0.00     0.037 A 
ATOM     47  C   UNL A   1      41.142  30.258  34.735  1.00  0.00     0.049 A 
ATOM     48  C   UNL A   1      42.716  27.308  30.244  1.00  0.00     0.074 A 
ATOM     49  C   UNL A   1      41.919  30.124  35.873  1.00  0.00     0.029 A 
ATOM     50  N   UNL A   1      41.709  29.446  33.766  1.00  0.00    -0.354 N 
ATOM     51  N   UNL A   1      42.468  27.925  31.373  1.00  0.00    -0.248 NA
ATOM     52  C   UNL A   1      43.922  26.467  30.272  1.00  0.00     0.031 C 
ATOM     53  C   UNL A   1      42.977  29.258  35.579  1.00  0.00     0.029 A 
ATOM     54  C   UNL A   1      42.832  28.813  34.276  1.00  0.00     0.049 A 
ATOM     55  H   UNL A   1      41.365  29.334  32.850  1.00  0.00     0.167 HD
ATOM     56  C   UNL A   1      43.461  27.519  32.255  1.00  0.00     0.074 A 
ATOM     57  C   UNL A   1      44.309  26.594  31.533  1.00  0.00     0.031 C 
ATOM     58  C   UNL A   1      43.652  27.877  33.550  1.00  0.00     0.037 A 
BRANCH  45  59
ATOM     59  C   UNL A   1      39.498  31.931  35.674  1.00  0.00     0.064 A 
ATOM     60  C   UNL A   1      39.994  33.231  35.860  1.00  0.00     0.173 A 
ATOM     61  C   UNL A   1      38.527  31.466  36.573  1.00  0.00     0.173 A 
ATOM     62  F   UNL A   1      40.935  33.719  35.037  1.00  0.00    -0.203 F 
ATOM     63  C   UNL A   1      39.561  34.019  36.923  1.00  0.00     0.198 A 
ATOM     64  C   UNL A   1      38.072  32.269  37.616  1.00  0.00     0.198 A 
ATOM     65  F   UNL A   1      38.015  30.234  36.439  1.00  0.00    -0.203 F 
ATOM     66  F   UNL A   1      40.092  35.235  37.113  1.00  0.00    -0.200 F 
ATOM     67  C   UNL A   1      38.596  33.540  37.796  1.00  0.00     0.200 A 
ATOM     68  F   UNL A   1      37.130  31.811  38.452  1.00  0.00    -0.200 F 
ATOM     69  F   UNL A   1      38.177  34.302  38.816  1.00  0.00    -0.200 F 
ENDBRANCH  45  59
BRANCH  46  70
ATOM     70  C   UNL A   1      42.389  26.542  27.781  1.00  0.00     0.064 A 
ATOM     71  C   UNL A   1      43.332  27.060  26.881  1.00  0.00     0.173 A 
ATOM     72  C   UNL A   1      41.882  25.260  27.525  1.00  0.00     0.173 A 
ATOM     73  F   UNL A   1      43.833  28.290  27.071  1.00  0.00    -0.203 F 
ATOM     74  C   UNL A   1      43.731  26.338  25.757  1.00  0.00     0.198 A 
ATOM     75  C   UNL A   1      42.301  24.528  26.416  1.00  0.00     0.198 A 
ATOM     76  F   UNL A   1      40.982  24.717  28.358  1.00  0.00    -0.203 F 
ATOM     77  F   UNL A   1      44.594  26.879  24.887  1.00  0.00    -0.200 F 
ATOM     78  C   UNL A   1      43.218  25.070  25.529  1.00  0.00     0.200 A 
ATOM     79  F   UNL A   1      41.813  23.298  26.206  1.00  0.00    -0.200 F 
ATOM     80  F   UNL A   1      43.600  24.376  24.449  1.00  0.00    -0.200 F 
ENDBRANCH  46  70
BRANCH  58  81
ATOM     81  C   UNL A   1      44.785  27.226  34.287  1.00  0.00     0.064 A 
ATOM     82  C   UNL A   1      46.062  27.803  34.343  1.00  0.00     0.173 A 
ATOM     83  C   UNL A   1      44.578  26.020  34.975  1.00  0.00     0.173 A 
ATOM     84  F   UNL A   1      46.315  28.948  33.691  1.00  0.00    -0.203 F 
ATOM     85  C   UNL A   1      47.098  27.182  35.036  1.00  0.00     0.198 A 
ATOM     86  C   UNL A   1      45.607  25.418  35.692  1.00  0.00     0.198 A 
ATOM     87  F   UNL A   1      43.373  25.431  34.959  1.00  0.00    -0.203 F 
ATOM     88  F   UNL A   1      48.323  27.725  35.035  1.00  0.00    -0.200 F 
ATOM     89  C   UNL A   1      46.868  25.995  35.716  1.00  0.00     0.200 A 
ATOM     90  F   UNL A   1      45.379  24.279  36.360  1.00  0.00    -0.200 F 
ATOM     91  F   UNL A   1      47.865  25.402  36.387  1.00  0.00    -0.200 F 
ENDBRANCH  58  81
ENDBRANCH  32  33
ENDBRANCH  24  27
ENDBRANCH  22  23
ENDBRANCH  21  22
ENDBRANCH   1  21
TORSDOF 16
ENDMDL
