MODEL 1
REMARK VINA RESULT:     -13.2      0.000      0.000
REMARK SMILES CCC(=O)Nc1ccc(NC(=O)[C@@H]2CC=CC[C@@H]2C(=O)NCCCCNC(=O)c2ccc(-c3c4nc(c(-c5c(F)c(F)c(F)c(F)c5F)c5ccc([nH]5)c(-c5c(F)c(F)c(F)c(F)c5F)c5nc(c(-c6c(F)c(F)c(F)c(F)c6F)c6ccc3[nH]6)C=C5)C=C4)cc2)cc1
REMARK SMILES IDX 22 1 21 2 19 3 20 4 18 6 13 7 14 8 15 9 17 10 16 11 11 12
REMARK SMILES IDX 10 13 12 15 9 16 6 17 7 18 93 19 8 20 92 21 5 22 3 23 4 24
REMARK SMILES IDX 2 26 1 27 23 28 24 29 25 30 26 31 27 32 28 34 29 35 30 36
REMARK SMILES IDX 91 37 31 38 90 39 32 40 33 41 34 42 84 43 35 44 89 45 83 46
REMARK SMILES IDX 85 47 36 48 88 49 82 50 81 51 37 53 69 54 49 55 68 56 50 57
REMARK SMILES IDX 53 58 67 59 86 60 51 61 52 62 66 64 87 65 54 66 38 67 39 68
REMARK SMILES IDX 47 69 40 70 41 71 45 72 48 73 42 74 43 75 46 76 44 77 70 78
REMARK SMILES IDX 71 79 79 80 72 81 73 82 77 83 80 84 74 85 75 86 78 87 76 88
REMARK SMILES IDX 55 89 56 90 64 91 57 92 58 93 62 94 65 95 59 96 60 97 63 98
REMARK SMILES IDX 61 99
REMARK H PARENT 21 5 10 14 5 25 26 33 85 52 53 63
REMARK Flexibility Score: inf
ROOT
ATOM      1  C   UNL A   1      31.287  29.891  25.205  1.00  0.00     0.116 C 
ENDROOT
BRANCH   1   2
ATOM      2  N   UNL A   1      32.303  29.731  24.179  1.00  0.00    -0.356 N 
ATOM      3  C   UNL A   1      32.655  28.629  23.448  1.00  0.00     0.224 C 
ATOM      4  O   UNL A   1      33.574  28.757  22.646  1.00  0.00    -0.275 OA
ATOM      5  H   UNL A   1      32.820  30.545  23.977  1.00  0.00     0.163 HD
BRANCH   3   6
ATOM      6  C   UNL A   1      31.887  27.328  23.672  1.00  0.00     0.095 C 
ATOM      7  C   UNL A   1      32.749  26.099  24.025  1.00  0.00     0.095 C 
ATOM      8  C   UNL A   1      33.717  25.728  22.892  1.00  0.00     0.041 C 
ATOM      9  C   UNL A   1      33.002  25.683  21.568  1.00  0.00    -0.030 C 
ATOM     10  C   UNL A   1      31.043  26.996  22.422  1.00  0.00     0.041 C 
ATOM     11  C   UNL A   1      31.791  26.225  21.369  1.00  0.00    -0.030 C 
BRANCH   7  12
ATOM     12  C   UNL A   1      33.439  26.217  25.367  1.00  0.00     0.228 C 
ATOM     13  N   UNL A   1      33.712  25.124  26.139  1.00  0.00    -0.326 N 
ATOM     14  H   UNL A   1      34.207  25.368  26.954  1.00  0.00     0.169 HD
ATOM     15  O   UNL A   1      33.826  27.303  25.804  1.00  0.00    -0.274 OA
BRANCH  13  16
ATOM     16  C   UNL A   1      33.469  23.740  26.071  1.00  0.00     0.041 A 
ATOM     17  C   UNL A   1      33.167  20.935  26.263  1.00  0.00     0.041 A 
ATOM     18  C   UNL A   1      32.130  21.723  25.783  1.00  0.00     0.028 A 
ATOM     19  C   UNL A   1      34.396  21.531  26.515  1.00  0.00     0.028 A 
ATOM     20  C   UNL A   1      32.283  23.113  25.693  1.00  0.00     0.028 A 
ATOM     21  C   UNL A   1      34.541  22.920  26.440  1.00  0.00     0.028 A 
BRANCH  17  22
ATOM     22  N   UNL A   1      32.953  19.562  26.406  1.00  0.00    -0.326 N 
ATOM     23  C   UNL A   1      32.793  18.600  25.446  1.00  0.00     0.224 C 
ATOM     24  O   UNL A   1      32.414  17.478  25.788  1.00  0.00    -0.275 OA
ATOM     25  H   UNL A   1      32.910  19.238  27.335  1.00  0.00     0.169 HD
BRANCH  23  26
ATOM     26  C   UNL A   1      33.236  18.864  24.015  1.00  0.00     0.097 C 
ATOM     27  C   UNL A   1      32.371  18.230  22.945  1.00  0.00     0.014 C 
ENDBRANCH  23  26
ENDBRANCH  17  22
ENDBRANCH  13  16
ENDBRANCH   7  12
ENDBRANCH   3   6
ENDBRANCH   1   2
BRANCH   1  28
ATOM     28  C   UNL A   1      31.860  30.459  26.501  1.00  0.00     0.023 C 
BRANCH  28  29
ATOM     29  C   UNL A   1      31.614  31.953  26.717  1.00  0.00     0.023 C 
BRANCH  29  30
ATOM     30  C   UNL A   1      32.813  32.745  27.224  1.00  0.00     0.116 C 
BRANCH  30  31
ATOM     31  N   UNL A   1      32.473  34.109  27.597  1.00  0.00    -0.352 N 
ATOM     32  C   UNL A   1      33.002  34.899  28.588  1.00  0.00     0.251 C 
ATOM     33  H   UNL A   1      31.759  34.526  27.062  1.00  0.00     0.163 HD
ATOM     34  O   UNL A   1      32.482  35.981  28.856  1.00  0.00    -0.269 OA
BRANCH  32  35
ATOM     35  C   UNL A   1      34.175  34.437  29.361  1.00  0.00     0.039 A 
ATOM     36  C   UNL A   1      33.966  33.796  30.584  1.00  0.00     0.014 A 
ATOM     37  C   UNL A   1      35.475  34.622  28.880  1.00  0.00     0.014 A 
ATOM     38  C   UNL A   1      35.053  33.271  31.287  1.00  0.00     0.010 A 
ATOM     39  C   UNL A   1      36.548  34.029  29.541  1.00  0.00     0.010 A 
ATOM     40  C   UNL A   1      36.349  33.345  30.749  1.00  0.00    -0.014 A 
BRANCH  40  41
ATOM     41  C   UNL A   1      37.498  32.689  31.425  1.00  0.00     0.031 A 
ATOM     42  C   UNL A   1      38.194  31.519  30.790  1.00  0.00     0.074 A 
ATOM     43  C   UNL A   1      37.871  33.103  32.652  1.00  0.00     0.049 A 
ATOM     44  N   UNL A   1      39.177  30.788  31.252  1.00  0.00    -0.248 NA
ATOM     45  C   UNL A   1      37.701  31.099  29.470  1.00  0.00     0.031 C 
ATOM     46  C   UNL A   1      37.237  34.187  33.403  1.00  0.00     0.029 A 
ATOM     47  N   UNL A   1      38.861  32.652  33.489  1.00  0.00    -0.354 N 
ATOM     48  C   UNL A   1      39.411  29.817  30.287  1.00  0.00     0.074 A 
ATOM     49  C   UNL A   1      38.426  30.014  29.245  1.00  0.00     0.031 C 
ATOM     50  C   UNL A   1      37.863  34.329  34.581  1.00  0.00     0.029 A 
ATOM     51  C   UNL A   1      38.914  33.320  34.687  1.00  0.00     0.049 A 
ATOM     52  H   UNL A   1      39.473  31.919  33.253  1.00  0.00     0.167 HD
ATOM     53  C   UNL A   1      40.374  28.863  30.260  1.00  0.00     0.037 A 
ATOM     54  C   UNL A   1      39.709  33.134  35.759  1.00  0.00     0.037 A 
ATOM     55  C   UNL A   1      41.353  28.672  31.301  1.00  0.00     0.049 A 
ATOM     56  C   UNL A   1      40.761  32.062  35.718  1.00  0.00     0.074 A 
ATOM     57  C   UNL A   1      42.408  27.778  31.339  1.00  0.00     0.029 A 
ATOM     58  N   UNL A   1      41.384  29.378  32.496  1.00  0.00    -0.354 N 
ATOM     59  N   UNL A   1      41.032  31.205  34.763  1.00  0.00    -0.248 NA
ATOM     60  C   UNL A   1      41.625  31.936  36.899  1.00  0.00     0.031 C 
ATOM     61  C   UNL A   1      43.038  27.898  32.584  1.00  0.00     0.029 A 
ATOM     62  C   UNL A   1      42.419  28.913  33.295  1.00  0.00     0.049 A 
ATOM     63  H   UNL A   1      40.764  30.101  32.740  1.00  0.00     0.167 HD
ATOM     64  C   UNL A   1      42.104  30.450  35.217  1.00  0.00     0.074 A 
ATOM     65  C   UNL A   1      42.448  30.965  36.527  1.00  0.00     0.031 C 
ATOM     66  C   UNL A   1      42.746  29.424  34.604  1.00  0.00     0.037 A 
BRANCH  53  67
ATOM     67  C   UNL A   1      40.400  27.946  29.069  1.00  0.00     0.064 A 
ATOM     68  C   UNL A   1      41.166  28.236  27.927  1.00  0.00     0.173 A 
ATOM     69  C   UNL A   1      39.649  26.760  29.065  1.00  0.00     0.173 A 
ATOM     70  F   UNL A   1      41.898  29.358  27.873  1.00  0.00    -0.203 F 
ATOM     71  C   UNL A   1      41.136  27.403  26.811  1.00  0.00     0.198 A 
ATOM     72  C   UNL A   1      39.652  25.910  27.961  1.00  0.00     0.198 A 
ATOM     73  F   UNL A   1      38.906  26.425  30.130  1.00  0.00    -0.203 F 
ATOM     74  F   UNL A   1      41.817  27.742  25.707  1.00  0.00    -0.200 F 
ATOM     75  C   UNL A   1      40.383  26.240  26.830  1.00  0.00     0.200 A 
ATOM     76  F   UNL A   1      38.936  24.777  27.988  1.00  0.00    -0.200 F 
ATOM     77  F   UNL A   1      40.352  25.442  25.754  1.00  0.00    -0.200 F 
ENDBRANCH  53  67
BRANCH  54  78
ATOM     78  C   UNL A   1      39.539  34.005  36.951  1.00  0.00     0.064 A 
ATOM     79  C   UNL A   1      38.766  33.593  38.044  1.00  0.00     0.173 A 
ATOM     80  C   UNL A   1      40.179  35.252  37.036  1.00  0.00     0.173 A 
ATOM     81  F   UNL A   1      38.120  32.418  38.002  1.00  0.00    -0.203 F 
ATOM     82  C   UNL A   1      38.633  34.397  39.175  1.00  0.00     0.198 A 
ATOM     83  C   UNL A   1      40.069  36.040  38.179  1.00  0.00     0.198 A 
ATOM     84  F   UNL A   1      40.936  35.688  36.019  1.00  0.00    -0.203 F 
ATOM     85  F   UNL A   1      37.863  33.993  40.195  1.00  0.00    -0.200 F 
ATOM     86  C   UNL A   1      39.293  35.615  39.245  1.00  0.00     0.200 A 
ATOM     87  F   UNL A   1      40.724  37.207  38.250  1.00  0.00    -0.200 F 
ATOM     88  F   UNL A   1      39.180  36.378  40.341  1.00  0.00    -0.200 F 
ENDBRANCH  54  78
BRANCH  66  89
ATOM     89  C   UNL A   1      43.900  28.797  35.335  1.00  0.00     0.064 A 
ATOM     90  C   UNL A   1      43.732  27.667  36.149  1.00  0.00     0.173 A 
ATOM     91  C   UNL A   1      45.197  29.312  35.189  1.00  0.00     0.173 A 
ATOM     92  F   UNL A   1      42.511  27.143  36.336  1.00  0.00    -0.203 F 
ATOM     93  C   UNL A   1      44.815  27.094  36.811  1.00  0.00     0.198 A 
ATOM     94  C   UNL A   1      46.283  28.715  35.824  1.00  0.00     0.198 A 
ATOM     95  F   UNL A   1      45.416  30.387  34.418  1.00  0.00    -0.203 F 
ATOM     96  F   UNL A   1      44.623  26.046  37.625  1.00  0.00    -0.200 F 
ATOM     97  C   UNL A   1      46.090  27.612  36.642  1.00  0.00     0.200 A 
ATOM     98  F   UNL A   1      47.516  29.209  35.646  1.00  0.00    -0.200 F 
ATOM     99  F   UNL A   1      47.132  27.053  37.272  1.00  0.00    -0.200 F 
ENDBRANCH  66  89
ENDBRANCH  40  41
ENDBRANCH  32  35
ENDBRANCH  30  31
ENDBRANCH  29  30
ENDBRANCH  28  29
ENDBRANCH   1  28
TORSDOF 15
ENDMDL
MODEL 2
REMARK VINA RESULT:     -13.2      5.458     11.284
REMARK SMILES CCC(=O)Nc1ccc(NC(=O)[C@@H]2CC=CC[C@@H]2C(=O)NCCCCNC(=O)c2ccc(-c3c4nc(c(-c5c(F)c(F)c(F)c(F)c5F)c5ccc([nH]5)c(-c5c(F)c(F)c(F)c(F)c5F)c5nc(c(-c6c(F)c(F)c(F)c(F)c6F)c6ccc3[nH]6)C=C5)C=C4)cc2)cc1
REMARK SMILES IDX 22 1 21 2 19 3 20 4 18 6 13 7 14 8 15 9 17 10 16 11 11 12
REMARK SMILES IDX 10 13 12 15 9 16 6 17 7 18 93 19 8 20 92 21 5 22 3 23 4 24
REMARK SMILES IDX 2 26 1 27 23 28 24 29 25 30 26 31 27 32 28 34 29 35 30 36
REMARK SMILES IDX 91 37 31 38 90 39 32 40 33 41 34 42 84 43 35 44 89 45 83 46
REMARK SMILES IDX 85 47 36 48 88 49 82 50 81 51 37 53 69 54 49 55 68 56 50 57
REMARK SMILES IDX 53 58 67 59 86 60 51 61 52 62 66 64 87 65 54 66 38 67 39 68
REMARK SMILES IDX 47 69 40 70 41 71 45 72 48 73 42 74 43 75 46 76 44 77 70 78
REMARK SMILES IDX 71 79 79 80 72 81 73 82 77 83 80 84 74 85 75 86 78 87 76 88
REMARK SMILES IDX 55 89 56 90 64 91 57 92 58 93 62 94 65 95 59 96 60 97 63 98
REMARK SMILES IDX 61 99
REMARK H PARENT 21 5 10 14 5 25 26 33 85 52 53 63
REMARK Flexibility Score: inf
ROOT
ATOM      1  C   UNL A   1      35.509  20.690  25.052  1.00  0.00     0.116 C 
ENDROOT
BRANCH   1   2
ATOM      2  N   UNL A   1      34.937  21.163  26.301  1.00  0.00    -0.356 N 
ATOM      3  C   UNL A   1      33.872  21.991  26.528  1.00  0.00     0.224 C 
ATOM      4  O   UNL A   1      33.602  22.254  27.695  1.00  0.00    -0.275 OA
ATOM      5  H   UNL A   1      35.388  20.836  27.114  1.00  0.00     0.163 HD
BRANCH   3   6
ATOM      6  C   UNL A   1      33.092  22.522  25.327  1.00  0.00     0.095 C 
ATOM      7  C   UNL A   1      32.858  24.047  25.308  1.00  0.00     0.095 C 
ATOM      8  C   UNL A   1      32.007  24.516  26.497  1.00  0.00     0.041 C 
ATOM      9  C   UNL A   1      30.782  23.654  26.652  1.00  0.00    -0.030 C 
ATOM     10  C   UNL A   1      31.724  21.813  25.235  1.00  0.00     0.041 C 
ATOM     11  C   UNL A   1      30.645  22.458  26.061  1.00  0.00    -0.030 C 
BRANCH   7  12
ATOM     12  C   UNL A   1      34.134  24.846  25.152  1.00  0.00     0.228 C 
ATOM     13  N   UNL A   1      34.151  26.072  24.551  1.00  0.00    -0.326 N 
ATOM     14  H   UNL A   1      35.048  26.478  24.576  1.00  0.00     0.169 HD
ATOM     15  O   UNL A   1      35.209  24.445  25.603  1.00  0.00    -0.274 OA
BRANCH  13  16
ATOM     16  C   UNL A   1      33.220  26.905  23.904  1.00  0.00     0.041 A 
ATOM     17  C   UNL A   1      31.647  28.779  22.487  1.00  0.00     0.041 A 
ATOM     18  C   UNL A   1      31.315  27.431  22.475  1.00  0.00     0.028 A 
ATOM     19  C   UNL A   1      32.678  29.205  23.314  1.00  0.00     0.028 A 
ATOM     20  C   UNL A   1      32.100  26.505  23.176  1.00  0.00     0.028 A 
ATOM     21  C   UNL A   1      33.469  28.278  23.998  1.00  0.00     0.028 A 
BRANCH  17  22
ATOM     22  N   UNL A   1      30.883  29.661  21.719  1.00  0.00    -0.326 N 
ATOM     23  C   UNL A   1      29.679  30.246  22.002  1.00  0.00     0.224 C 
ATOM     24  O   UNL A   1      29.080  30.837  21.101  1.00  0.00    -0.275 OA
ATOM     25  H   UNL A   1      31.269  29.898  20.844  1.00  0.00     0.169 HD
BRANCH  23  26
ATOM     26  C   UNL A   1      29.175  30.308  23.436  1.00  0.00     0.097 C 
ATOM     27  C   UNL A   1      27.777  30.868  23.604  1.00  0.00     0.014 C 
ENDBRANCH  23  26
ENDBRANCH  17  22
ENDBRANCH  13  16
ENDBRANCH   7  12
ENDBRANCH   3   6
ENDBRANCH   1   2
BRANCH   1  28
ATOM     28  C   UNL A   1      36.953  21.150  24.867  1.00  0.00     0.023 C 
BRANCH  28  29
ATOM     29  C   UNL A   1      38.003  20.042  24.960  1.00  0.00     0.023 C 
BRANCH  29  30
ATOM     30  C   UNL A   1      39.169  20.326  25.899  1.00  0.00     0.116 C 
BRANCH  30  31
ATOM     31  N   UNL A   1      40.156  19.257  25.914  1.00  0.00    -0.352 N 
ATOM     32  C   UNL A   1      41.518  19.331  26.069  1.00  0.00     0.251 C 
ATOM     33  H   UNL A   1      39.794  18.349  25.794  1.00  0.00     0.163 HD
ATOM     34  O   UNL A   1      42.212  18.330  25.903  1.00  0.00    -0.269 OA
BRANCH  32  35
ATOM     35  C   UNL A   1      42.160  20.622  26.400  1.00  0.00     0.039 A 
ATOM     36  C   UNL A   1      42.616  21.434  25.359  1.00  0.00     0.014 A 
ATOM     37  C   UNL A   1      42.301  21.039  27.727  1.00  0.00     0.014 A 
ATOM     38  C   UNL A   1      43.143  22.695  25.644  1.00  0.00     0.010 A 
ATOM     39  C   UNL A   1      42.751  22.327  28.004  1.00  0.00     0.010 A 
ATOM     40  C   UNL A   1      43.174  23.171  26.966  1.00  0.00    -0.014 A 
BRANCH  40  41
ATOM     41  C   UNL A   1      43.620  24.555  27.274  1.00  0.00     0.031 A 
ATOM     42  C   UNL A   1      42.645  25.577  27.783  1.00  0.00     0.074 A 
ATOM     43  C   UNL A   1      44.895  24.912  27.023  1.00  0.00     0.049 A 
ATOM     44  N   UNL A   1      42.838  26.844  28.055  1.00  0.00    -0.248 NA
ATOM     45  C   UNL A   1      41.263  25.123  27.990  1.00  0.00     0.031 C 
ATOM     46  C   UNL A   1      45.924  24.030  26.470  1.00  0.00     0.029 A 
ATOM     47  N   UNL A   1      45.538  26.114  27.185  1.00  0.00    -0.354 N 
ATOM     48  C   UNL A   1      41.603  27.337  28.453  1.00  0.00     0.074 A 
ATOM     49  C   UNL A   1      40.656  26.250  28.325  1.00  0.00     0.031 C 
ATOM     50  C   UNL A   1      47.072  24.714  26.355  1.00  0.00     0.029 A 
ATOM     51  C   UNL A   1      46.851  26.092  26.785  1.00  0.00     0.049 A 
ATOM     52  H   UNL A   1      45.099  26.914  27.552  1.00  0.00     0.167 HD
ATOM     53  C   UNL A   1      41.290  28.577  28.905  1.00  0.00     0.037 A 
ATOM     54  C   UNL A   1      47.773  27.074  26.753  1.00  0.00     0.037 A 
ATOM     55  C   UNL A   1      42.238  29.655  29.030  1.00  0.00     0.049 A 
ATOM     56  C   UNL A   1      47.405  28.446  27.244  1.00  0.00     0.074 A 
ATOM     57  C   UNL A   1      42.037  30.926  29.538  1.00  0.00     0.029 A 
ATOM     58  N   UNL A   1      43.565  29.592  28.627  1.00  0.00    -0.354 N 
ATOM     59  N   UNL A   1      46.255  28.879  27.701  1.00  0.00    -0.248 NA
ATOM     60  C   UNL A   1      48.465  29.463  27.224  1.00  0.00     0.031 C 
ATOM     61  C   UNL A   1      43.223  31.653  29.381  1.00  0.00     0.029 A 
ATOM     62  C   UNL A   1      44.185  30.815  28.840  1.00  0.00     0.049 A 
ATOM     63  H   UNL A   1      44.002  28.797  28.246  1.00  0.00     0.167 HD
ATOM     64  C   UNL A   1      46.453  30.211  28.038  1.00  0.00     0.074 A 
ATOM     65  C   UNL A   1      47.843  30.508  27.752  1.00  0.00     0.031 C 
ATOM     66  C   UNL A   1      45.566  31.106  28.540  1.00  0.00     0.037 A 
BRANCH  53  67
ATOM     67  C   UNL A   1      39.857  28.829  29.283  1.00  0.00     0.064 A 
ATOM     68  C   UNL A   1      39.382  28.598  30.585  1.00  0.00     0.173 A 
ATOM     69  C   UNL A   1      38.942  29.308  28.331  1.00  0.00     0.173 A 
ATOM     70  F   UNL A   1      40.210  28.134  31.532  1.00  0.00    -0.203 F 
ATOM     71  C   UNL A   1      38.039  28.785  30.903  1.00  0.00     0.198 A 
ATOM     72  C   UNL A   1      37.608  29.530  28.665  1.00  0.00     0.198 A 
ATOM     73  F   UNL A   1      39.340  29.556  27.075  1.00  0.00    -0.203 F 
ATOM     74  F   UNL A   1      37.597  28.484  32.133  1.00  0.00    -0.200 F 
ATOM     75  C   UNL A   1      37.155  29.255  29.946  1.00  0.00     0.200 A 
ATOM     76  F   UNL A   1      36.758  30.001  27.741  1.00  0.00    -0.200 F 
ATOM     77  F   UNL A   1      35.862  29.430  30.253  1.00  0.00    -0.200 F 
ENDBRANCH  53  67
BRANCH  54  78
ATOM     78  C   UNL A   1      49.139  26.774  26.249  1.00  0.00     0.064 A 
ATOM     79  C   UNL A   1      50.110  26.208  27.084  1.00  0.00     0.173 A 
ATOM     80  C   UNL A   1      49.487  27.013  24.910  1.00  0.00     0.173 A 
ATOM     81  F   UNL A   1      49.831  25.979  28.376  1.00  0.00    -0.203 F 
ATOM     82  C   UNL A   1      51.381  25.898  26.602  1.00  0.00     0.198 A 
ATOM     83  C   UNL A   1      50.747  26.675  24.423  1.00  0.00     0.198 A 
ATOM     84  F   UNL A   1      48.589  27.547  24.068  1.00  0.00    -0.203 F 
ATOM     85  F   UNL A   1      52.302  25.385  27.430  1.00  0.00    -0.200 F 
ATOM     86  C   UNL A   1      51.694  26.123  25.270  1.00  0.00     0.200 A 
ATOM     87  F   UNL A   1      51.038  26.875  23.131  1.00  0.00    -0.200 F 
ATOM     88  F   UNL A   1      52.911  25.806  24.803  1.00  0.00    -0.200 F 
ENDBRANCH  54  78
BRANCH  66  89
ATOM     89  C   UNL A   1      46.071  32.491  28.830  1.00  0.00     0.064 A 
ATOM     90  C   UNL A   1      46.629  32.828  30.073  1.00  0.00     0.173 A 
ATOM     91  C   UNL A   1      46.031  33.484  27.839  1.00  0.00     0.173 A 
ATOM     92  F   UNL A   1      46.677  31.921  31.060  1.00  0.00    -0.203 F 
ATOM     93  C   UNL A   1      47.101  34.115  30.320  1.00  0.00     0.198 A 
ATOM     94  C   UNL A   1      46.537  34.759  28.078  1.00  0.00     0.198 A 
ATOM     95  F   UNL A   1      45.515  33.214  26.631  1.00  0.00    -0.203 F 
ATOM     96  F   UNL A   1      47.582  34.428  31.532  1.00  0.00    -0.200 F 
ATOM     97  C   UNL A   1      47.063  35.076  29.321  1.00  0.00     0.200 A 
ATOM     98  F   UNL A   1      46.513  35.681  27.107  1.00  0.00    -0.200 F 
ATOM     99  F   UNL A   1      47.527  36.310  29.559  1.00  0.00    -0.200 F 
ENDBRANCH  66  89
ENDBRANCH  40  41
ENDBRANCH  32  35
ENDBRANCH  30  31
ENDBRANCH  29  30
ENDBRANCH  28  29
ENDBRANCH   1  28
TORSDOF 15
ENDMDL
MODEL 3
REMARK VINA RESULT:     -13.0      5.388     11.220
REMARK SMILES CCC(=O)Nc1ccc(NC(=O)[C@@H]2CC=CC[C@@H]2C(=O)NCCCCNC(=O)c2ccc(-c3c4nc(c(-c5c(F)c(F)c(F)c(F)c5F)c5ccc([nH]5)c(-c5c(F)c(F)c(F)c(F)c5F)c5nc(c(-c6c(F)c(F)c(F)c(F)c6F)c6ccc3[nH]6)C=C5)C=C4)cc2)cc1
REMARK SMILES IDX 22 1 21 2 19 3 20 4 18 6 13 7 14 8 15 9 17 10 16 11 11 12
REMARK SMILES IDX 10 13 12 15 9 16 6 17 7 18 93 19 8 20 92 21 5 22 3 23 4 24
REMARK SMILES IDX 2 26 1 27 23 28 24 29 25 30 26 31 27 32 28 34 29 35 30 36
REMARK SMILES IDX 91 37 31 38 90 39 32 40 33 41 34 42 84 43 35 44 89 45 83 46
REMARK SMILES IDX 85 47 36 48 88 49 82 50 81 51 37 53 69 54 49 55 68 56 50 57
REMARK SMILES IDX 53 58 67 59 86 60 51 61 52 62 66 64 87 65 54 66 38 67 39 68
REMARK SMILES IDX 47 69 40 70 41 71 45 72 48 73 42 74 43 75 46 76 44 77 70 78
REMARK SMILES IDX 71 79 79 80 72 81 73 82 77 83 80 84 74 85 75 86 78 87 76 88
REMARK SMILES IDX 55 89 56 90 64 91 57 92 58 93 62 94 65 95 59 96 60 97 63 98
REMARK SMILES IDX 61 99
REMARK H PARENT 21 5 10 14 5 25 26 33 85 52 53 63
REMARK Flexibility Score: inf
ROOT
ATOM      1  C   UNL A   1      35.452  20.506  24.908  1.00  0.00     0.116 C 
ENDROOT
BRANCH   1   2
ATOM      2  N   UNL A   1      34.834  20.809  26.187  1.00  0.00    -0.356 N 
ATOM      3  C   UNL A   1      33.808  21.660  26.494  1.00  0.00     0.224 C 
ATOM      4  O   UNL A   1      33.483  21.748  27.673  1.00  0.00    -0.275 OA
ATOM      5  H   UNL A   1      35.214  20.324  26.956  1.00  0.00     0.163 HD
BRANCH   3   6
ATOM      6  C   UNL A   1      33.136  22.432  25.360  1.00  0.00     0.095 C 
ATOM      7  C   UNL A   1      32.991  23.951  25.585  1.00  0.00     0.095 C 
ATOM      8  C   UNL A   1      32.094  24.274  26.789  1.00  0.00     0.041 C 
ATOM      9  C   UNL A   1      30.815  23.482  26.733  1.00  0.00    -0.030 C 
ATOM     10  C   UNL A   1      31.739  21.840  25.078  1.00  0.00     0.041 C 
ATOM     11  C   UNL A   1      30.648  22.411  25.943  1.00  0.00    -0.030 C 
BRANCH   7  12
ATOM     12  C   UNL A   1      34.317  24.679  25.633  1.00  0.00     0.228 C 
ATOM     13  N   UNL A   1      34.400  26.040  25.552  1.00  0.00    -0.326 N 
ATOM     14  H   UNL A   1      35.327  26.355  25.649  1.00  0.00     0.169 HD
ATOM     15  O   UNL A   1      35.382  24.077  25.792  1.00  0.00    -0.274 OA
BRANCH  13  16
ATOM     16  C   UNL A   1      33.503  27.107  25.365  1.00  0.00     0.041 A 
ATOM     17  C   UNL A   1      31.641  29.109  24.644  1.00  0.00     0.041 A 
ATOM     18  C   UNL A   1      31.649  28.587  25.930  1.00  0.00     0.028 A 
ATOM     19  C   UNL A   1      32.647  28.732  23.765  1.00  0.00     0.028 A 
ATOM     20  C   UNL A   1      32.572  27.592  26.282  1.00  0.00     0.028 A 
ATOM     21  C   UNL A   1      33.555  27.728  24.112  1.00  0.00     0.028 A 
BRANCH  17  22
ATOM     22  N   UNL A   1      30.661  30.047  24.311  1.00  0.00    -0.326 N 
ATOM     23  C   UNL A   1      29.737  30.021  23.301  1.00  0.00     0.224 C 
ATOM     24  O   UNL A   1      29.094  31.044  23.059  1.00  0.00    -0.275 OA
ATOM     25  H   UNL A   1      30.629  30.845  24.887  1.00  0.00     0.169 HD
BRANCH  23  26
ATOM     26  C   UNL A   1      29.394  28.710  22.610  1.00  0.00     0.097 C 
ATOM     27  C   UNL A   1      28.512  27.772  23.407  1.00  0.00     0.014 C 
ENDBRANCH  23  26
ENDBRANCH  17  22
ENDBRANCH  13  16
ENDBRANCH   7  12
ENDBRANCH   3   6
ENDBRANCH   1   2
BRANCH   1  28
ATOM     28  C   UNL A   1      36.902  20.980  24.841  1.00  0.00     0.023 C 
BRANCH  28  29
ATOM     29  C   UNL A   1      37.951  19.876  24.983  1.00  0.00     0.023 C 
BRANCH  29  30
ATOM     30  C   UNL A   1      39.178  20.245  25.807  1.00  0.00     0.116 C 
BRANCH  30  31
ATOM     31  N   UNL A   1      40.156  19.170  25.876  1.00  0.00    -0.352 N 
ATOM     32  C   UNL A   1      41.512  19.239  26.081  1.00  0.00     0.251 C 
ATOM     33  H   UNL A   1      39.794  18.263  25.756  1.00  0.00     0.163 HD
ATOM     34  O   UNL A   1      42.205  18.231  25.957  1.00  0.00    -0.269 OA
BRANCH  32  35
ATOM     35  C   UNL A   1      42.149  20.530  26.418  1.00  0.00     0.039 A 
ATOM     36  C   UNL A   1      42.620  21.339  25.380  1.00  0.00     0.014 A 
ATOM     37  C   UNL A   1      42.273  20.951  27.745  1.00  0.00     0.014 A 
ATOM     38  C   UNL A   1      43.143  22.602  25.668  1.00  0.00     0.010 A 
ATOM     39  C   UNL A   1      42.719  22.241  28.024  1.00  0.00     0.010 A 
ATOM     40  C   UNL A   1      43.156  23.081  26.989  1.00  0.00    -0.014 A 
BRANCH  40  41
ATOM     41  C   UNL A   1      43.598  24.466  27.298  1.00  0.00     0.031 A 
ATOM     42  C   UNL A   1      42.616  25.491  27.790  1.00  0.00     0.074 A 
ATOM     43  C   UNL A   1      44.876  24.823  27.065  1.00  0.00     0.049 A 
ATOM     44  N   UNL A   1      42.805  26.758  28.061  1.00  0.00    -0.248 NA
ATOM     45  C   UNL A   1      41.231  25.037  27.978  1.00  0.00     0.031 C 
ATOM     46  C   UNL A   1      45.912  23.939  26.530  1.00  0.00     0.029 A 
ATOM     47  N   UNL A   1      45.517  26.025  27.232  1.00  0.00    -0.354 N 
ATOM     48  C   UNL A   1      41.564  27.253  28.439  1.00  0.00     0.074 A 
ATOM     49  C   UNL A   1      40.619  26.166  28.301  1.00  0.00     0.031 C 
ATOM     50  C   UNL A   1      47.062  24.622  26.429  1.00  0.00     0.029 A 
ATOM     51  C   UNL A   1      46.836  26.002  26.851  1.00  0.00     0.049 A 
ATOM     52  H   UNL A   1      45.073  26.827  27.590  1.00  0.00     0.167 HD
ATOM     53  C   UNL A   1      41.245  28.494  28.882  1.00  0.00     0.037 A 
ATOM     54  C   UNL A   1      47.758  26.983  26.829  1.00  0.00     0.037 A 
ATOM     55  C   UNL A   1      42.191  29.572  29.017  1.00  0.00     0.049 A 
ATOM     56  C   UNL A   1      47.383  28.357  27.310  1.00  0.00     0.074 A 
ATOM     57  C   UNL A   1      41.983  30.845  29.518  1.00  0.00     0.029 A 
ATOM     58  N   UNL A   1      43.524  29.508  28.634  1.00  0.00    -0.354 N 
ATOM     59  N   UNL A   1      46.227  28.792  27.749  1.00  0.00    -0.248 NA
ATOM     60  C   UNL A   1      48.443  29.373  27.302  1.00  0.00     0.031 C 
ATOM     61  C   UNL A   1      43.171  31.572  29.376  1.00  0.00     0.029 A 
ATOM     62  C   UNL A   1      44.141  30.732  28.852  1.00  0.00     0.049 A 
ATOM     63  H   UNL A   1      43.966  28.712  28.262  1.00  0.00     0.167 HD
ATOM     64  C   UNL A   1      46.420  30.125  28.085  1.00  0.00     0.074 A 
ATOM     65  C   UNL A   1      47.814  30.421  27.818  1.00  0.00     0.031 C 
ATOM     66  C   UNL A   1      45.526  31.021  28.571  1.00  0.00     0.037 A 
BRANCH  53  67
ATOM     67  C   UNL A   1      39.806  28.748  29.238  1.00  0.00     0.064 A 
ATOM     68  C   UNL A   1      38.889  29.253  28.301  1.00  0.00     0.173 A 
ATOM     69  C   UNL A   1      39.335  28.485  30.534  1.00  0.00     0.173 A 
ATOM     70  F   UNL A   1      39.286  29.529  27.050  1.00  0.00    -0.203 F 
ATOM     71  C   UNL A   1      37.574  29.534  28.662  1.00  0.00     0.198 A 
ATOM     72  C   UNL A   1      38.008  28.731  30.880  1.00  0.00     0.198 A 
ATOM     73  F   UNL A   1      40.161  27.993  31.468  1.00  0.00    -0.203 F 
ATOM     74  F   UNL A   1      36.740  30.086  27.769  1.00  0.00    -0.200 F 
ATOM     75  C   UNL A   1      37.133  29.269  29.949  1.00  0.00     0.200 A 
ATOM     76  F   UNL A   1      37.580  28.459  32.121  1.00  0.00    -0.200 F 
ATOM     77  F   UNL A   1      35.868  29.544  30.296  1.00  0.00    -0.200 F 
ENDBRANCH  53  67
BRANCH  54  78
ATOM     78  C   UNL A   1      49.131  26.682  26.346  1.00  0.00     0.064 A 
ATOM     79  C   UNL A   1      49.499  26.922  25.016  1.00  0.00     0.173 A 
ATOM     80  C   UNL A   1      50.113  26.183  27.216  1.00  0.00     0.173 A 
ATOM     81  F   UNL A   1      48.590  27.380  24.142  1.00  0.00    -0.203 F 
ATOM     82  C   UNL A   1      50.795  26.669  24.572  1.00  0.00     0.198 A 
ATOM     83  C   UNL A   1      51.416  25.959  26.777  1.00  0.00     0.198 A 
ATOM     84  F   UNL A   1      49.813  25.943  28.501  1.00  0.00    -0.203 F 
ATOM     85  F   UNL A   1      51.113  26.878  23.286  1.00  0.00    -0.200 F 
ATOM     86  C   UNL A   1      51.755  26.197  25.455  1.00  0.00     0.200 A 
ATOM     87  F   UNL A   1      52.344  25.522  27.639  1.00  0.00    -0.200 F 
ATOM     88  F   UNL A   1      53.006  25.972  25.031  1.00  0.00    -0.200 F 
ENDBRANCH  54  78
BRANCH  66  89
ATOM     89  C   UNL A   1      46.027  32.407  28.864  1.00  0.00     0.064 A 
ATOM     90  C   UNL A   1      45.958  33.435  27.911  1.00  0.00     0.173 A 
ATOM     91  C   UNL A   1      46.551  32.721  30.128  1.00  0.00     0.173 A 
ATOM     92  F   UNL A   1      45.481  33.185  26.682  1.00  0.00    -0.203 F 
ATOM     93  C   UNL A   1      46.419  34.716  28.204  1.00  0.00     0.198 A 
ATOM     94  C   UNL A   1      46.978  34.011  30.429  1.00  0.00     0.198 A 
ATOM     95  F   UNL A   1      46.635  31.778  31.078  1.00  0.00    -0.203 F 
ATOM     96  F   UNL A   1      46.391  35.668  27.261  1.00  0.00    -0.200 F 
ATOM     97  C   UNL A   1      46.921  35.005  29.464  1.00  0.00     0.200 A 
ATOM     98  F   UNL A   1      47.447  34.292  31.652  1.00  0.00    -0.200 F 
ATOM     99  F   UNL A   1      47.355  36.241  29.746  1.00  0.00    -0.200 F 
ENDBRANCH  66  89
ENDBRANCH  40  41
ENDBRANCH  32  35
ENDBRANCH  30  31
ENDBRANCH  29  30
ENDBRANCH  28  29
ENDBRANCH   1  28
TORSDOF 15
ENDMDL
