MODEL 1
REMARK VINA RESULT:     -11.7      0.000      0.000
REMARK SMILES C#CCN(CC(=O)NCCCCNC(=O)c1ccc(-c2c3nc(c(-c4c(F)c(F)c(F)c(F)c4F)c4ccc([nH]4)c(-c4c(F)c(F)c(F)c(F)c4F)c4nc(c(-c5c(F)c(F)c(F)c(F)c5F)c5ccc2[nH]5)C=C4)C=C3)cc1)C(=O)N1CC[N@@H+]2CCC[C@H]2C1
REMARK SMILES IDX 10 1 9 2 8 3 6 4 7 5 5 7 4 8 3 9 2 10 1 11 79 12 80 13 81 14
REMARK SMILES IDX 82 15 89 16 83 17 88 18 84 19 87 20 85 21 86 23 11 24 12 25
REMARK SMILES IDX 13 26 14 27 15 29 16 30 17 31 78 32 18 33 77 34 19 35 20 36
REMARK SMILES IDX 21 37 71 38 22 39 76 40 70 41 72 42 23 43 75 44 69 45 68 46
REMARK SMILES IDX 24 48 56 49 36 50 55 51 37 52 40 53 54 54 73 55 38 56 39 57
REMARK SMILES IDX 53 59 74 60 41 61 25 62 26 63 34 64 27 65 28 66 32 67 35 68
REMARK SMILES IDX 29 69 30 70 33 71 31 72 57 73 58 74 66 75 59 76 60 77 64 78
REMARK SMILES IDX 67 79 61 80 62 81 65 82 63 83 42 84 43 85 51 86 44 87 45 88
REMARK SMILES IDX 49 89 52 90 46 91 47 92 50 93 48 94
REMARK H PARENT 8 6 84 22 13 28 72 47 40 58
REMARK Flexibility Score: inf
ROOT
ATOM      1  C   UNL A   1      31.845  30.409  26.622  1.00  0.00     0.023 C 
ENDROOT
BRANCH   1   2
ATOM      2  C   UNL A   1      31.622  29.724  25.274  1.00  0.00     0.116 C 
BRANCH   2   3
ATOM      3  N   UNL A   1      32.782  29.728  24.414  1.00  0.00    -0.355 N 
ATOM      4  C   UNL A   1      33.516  28.695  23.910  1.00  0.00     0.239 C 
ATOM      5  O   UNL A   1      34.274  28.969  22.973  1.00  0.00    -0.273 OA
ATOM      6  H   UNL A   1      33.095  30.624  24.147  1.00  0.00     0.163 HD
BRANCH   4   7
ATOM      7  C   UNL A   1      33.348  27.233  24.365  1.00  0.00     0.222 C 
BRANCH   7   8
ATOM      8  N   UNL A   1      32.621  26.329  23.474  1.00  0.00    -0.304 N 
BRANCH   8   9
ATOM      9  C   UNL A   1      31.167  26.450  23.442  1.00  0.00     0.211 C 
BRANCH   9  10
ATOM     10  C   UNL A   1      30.520  26.097  24.771  1.00  0.00    -0.085 C 
ATOM     11  C   UNL A   1      29.966  25.793  25.912  1.00  0.00     0.006 C 
ENDBRANCH   9  10
ENDBRANCH   8   9
BRANCH   8  12
ATOM     12  C   UNL A   1      33.224  25.481  22.546  1.00  0.00     0.321 C 
ATOM     13  O   UNL A   1      33.593  25.870  21.439  1.00  0.00    -0.248 OA
BRANCH  12  14
ATOM     14  N   UNL A   1      33.509  24.204  22.973  1.00  0.00    -0.313 N 
ATOM     15  C   UNL A   1      32.832  23.025  22.416  1.00  0.00     0.183 C 
ATOM     16  C   UNL A   1      34.875  23.908  23.428  1.00  0.00     0.186 C 
ATOM     17  C   UNL A   1      32.787  21.871  23.443  1.00  0.00     0.284 C 
ATOM     18  C   UNL A   1      34.819  22.748  24.432  1.00  0.00     0.204 C 
ATOM     19  N   UNL A   1      34.156  21.557  23.862  1.00  0.00    -0.330 N 
ATOM     20  C   UNL A   1      36.140  22.144  24.874  1.00  0.00     0.073 C 
ATOM     21  C   UNL A   1      34.296  20.537  24.889  1.00  0.00     0.262 C 
ATOM     22  H   UNL A   1      34.573  21.215  22.996  1.00  0.00     0.348 HD
ATOM     23  C   UNL A   1      35.764  20.711  25.287  1.00  0.00     0.068 C 
ENDBRANCH  12  14
ENDBRANCH   8  12
ENDBRANCH   7   8
ENDBRANCH   4   7
ENDBRANCH   2   3
ENDBRANCH   1   2
BRANCH   1  24
ATOM     24  C   UNL A   1      31.656  31.924  26.640  1.00  0.00     0.023 C 
BRANCH  24  25
ATOM     25  C   UNL A   1      32.764  32.716  27.319  1.00  0.00     0.116 C 
BRANCH  25  26
ATOM     26  N   UNL A   1      32.394  34.082  27.651  1.00  0.00    -0.352 N 
ATOM     27  C   UNL A   1      32.975  34.935  28.561  1.00  0.00     0.251 C 
ATOM     28  H   UNL A   1      31.623  34.446  27.158  1.00  0.00     0.163 HD
ATOM     29  O   UNL A   1      32.495  36.040  28.769  1.00  0.00    -0.269 OA
BRANCH  27  30
ATOM     30  C   UNL A   1      34.159  34.482  29.324  1.00  0.00     0.039 A 
ATOM     31  C   UNL A   1      33.962  33.905  30.581  1.00  0.00     0.014 A 
ATOM     32  C   UNL A   1      35.444  34.591  28.790  1.00  0.00     0.014 A 
ATOM     33  C   UNL A   1      35.050  33.365  31.268  1.00  0.00     0.010 A 
ATOM     34  C   UNL A   1      36.515  33.986  29.441  1.00  0.00     0.010 A 
ATOM     35  C   UNL A   1      36.327  33.364  30.685  1.00  0.00    -0.014 A 
BRANCH  35  36
ATOM     36  C   UNL A   1      37.480  32.712  31.355  1.00  0.00     0.031 A 
ATOM     37  C   UNL A   1      38.195  31.573  30.685  1.00  0.00     0.074 A 
ATOM     38  C   UNL A   1      37.835  33.099  32.595  1.00  0.00     0.049 A 
ATOM     39  N   UNL A   1      39.169  30.824  31.139  1.00  0.00    -0.248 NA
ATOM     40  C   UNL A   1      37.735  31.205  29.338  1.00  0.00     0.031 C 
ATOM     41  C   UNL A   1      37.186  34.159  33.370  1.00  0.00     0.029 A 
ATOM     42  N   UNL A   1      38.822  32.636  33.429  1.00  0.00    -0.354 N 
ATOM     43  C   UNL A   1      39.426  29.894  30.142  1.00  0.00     0.074 A 
ATOM     44  C   UNL A   1      38.471  30.135  29.081  1.00  0.00     0.031 C 
ATOM     45  C   UNL A   1      37.806  34.279  34.554  1.00  0.00     0.029 A 
ATOM     46  C   UNL A   1      38.868  33.282  34.640  1.00  0.00     0.049 A 
ATOM     47  H   UNL A   1      39.439  31.908  33.183  1.00  0.00     0.167 HD
ATOM     48  C   UNL A   1      40.388  28.941  30.104  1.00  0.00     0.037 A 
ATOM     49  C   UNL A   1      39.673  33.087  35.702  1.00  0.00     0.037 A 
ATOM     50  C   UNL A   1      41.352  28.722  31.150  1.00  0.00     0.049 A 
ATOM     51  C   UNL A   1      40.731  32.019  35.634  1.00  0.00     0.074 A 
ATOM     52  C   UNL A   1      42.402  27.821  31.181  1.00  0.00     0.029 A 
ATOM     53  N   UNL A   1      41.381  29.412  32.353  1.00  0.00    -0.354 N 
ATOM     54  N   UNL A   1      41.010  31.189  34.658  1.00  0.00    -0.248 NA
ATOM     55  C   UNL A   1      41.591  31.864  36.816  1.00  0.00     0.031 C 
ATOM     56  C   UNL A   1      43.040  27.936  32.419  1.00  0.00     0.029 A 
ATOM     57  C   UNL A   1      42.419  28.942  33.141  1.00  0.00     0.049 A 
ATOM     58  H   UNL A   1      40.756  30.128  32.609  1.00  0.00     0.167 HD
ATOM     59  C   UNL A   1      42.092  30.438  35.093  1.00  0.00     0.074 A 
ATOM     60  C   UNL A   1      42.429  30.917  36.417  1.00  0.00     0.031 C 
ATOM     61  C   UNL A   1      42.748  29.438  34.453  1.00  0.00     0.037 A 
BRANCH  48  62
ATOM     62  C   UNL A   1      40.448  28.066  28.886  1.00  0.00     0.064 A 
ATOM     63  C   UNL A   1      39.742  26.855  28.815  1.00  0.00     0.173 A 
ATOM     64  C   UNL A   1      41.193  28.457  27.763  1.00  0.00     0.173 A 
ATOM     65  F   UNL A   1      39.025  26.429  29.867  1.00  0.00    -0.203 F 
ATOM     66  C   UNL A   1      39.803  26.054  27.678  1.00  0.00     0.198 A 
ATOM     67  C   UNL A   1      41.226  27.669  26.615  1.00  0.00     0.198 A 
ATOM     68  F   UNL A   1      41.882  29.608  27.775  1.00  0.00    -0.203 F 
ATOM     69  F   UNL A   1      39.162  24.878  27.653  1.00  0.00    -0.200 F 
ATOM     70  C   UNL A   1      40.539  26.465  26.577  1.00  0.00     0.200 A 
ATOM     71  F   UNL A   1      41.927  28.072  25.547  1.00  0.00    -0.200 F 
ATOM     72  F   UNL A   1      40.591  25.696  25.480  1.00  0.00    -0.200 F 
ENDBRANCH  48  62
BRANCH  49  73
ATOM     73  C   UNL A   1      39.529  33.940  36.910  1.00  0.00     0.064 A 
ATOM     74  C   UNL A   1      38.759  33.515  38.001  1.00  0.00     0.173 A 
ATOM     75  C   UNL A   1      40.149  35.195  36.998  1.00  0.00     0.173 A 
ATOM     76  F   UNL A   1      38.129  32.332  37.956  1.00  0.00    -0.203 F 
ATOM     77  C   UNL A   1      38.597  34.320  39.127  1.00  0.00     0.198 A 
ATOM     78  C   UNL A   1      40.009  35.988  38.135  1.00  0.00     0.198 A 
ATOM     79  F   UNL A   1      40.900  35.646  35.982  1.00  0.00    -0.203 F 
ATOM     80  F   UNL A   1      37.817  33.909  40.135  1.00  0.00    -0.200 F 
ATOM     81  C   UNL A   1      39.226  35.554  39.194  1.00  0.00     0.200 A 
ATOM     82  F   UNL A   1      40.630  37.173  38.203  1.00  0.00    -0.200 F 
ATOM     83  F   UNL A   1      39.072  36.328  40.277  1.00  0.00    -0.200 F 
ENDBRANCH  49  73
BRANCH  61  84
ATOM     84  C   UNL A   1      43.920  28.822  35.159  1.00  0.00     0.064 A 
ATOM     85  C   UNL A   1      43.779  27.690  35.974  1.00  0.00     0.173 A 
ATOM     86  C   UNL A   1      45.209  29.350  34.984  1.00  0.00     0.173 A 
ATOM     87  F   UNL A   1      42.565  27.158  36.185  1.00  0.00    -0.203 F 
ATOM     88  C   UNL A   1      44.881  27.122  36.607  1.00  0.00     0.198 A 
ATOM     89  C   UNL A   1      46.313  28.761  35.594  1.00  0.00     0.198 A 
ATOM     90  F   UNL A   1      45.400  30.428  34.209  1.00  0.00    -0.203 F 
ATOM     91  F   UNL A   1      44.715  26.068  37.419  1.00  0.00    -0.200 F 
ATOM     92  C   UNL A   1      46.148  27.653  36.411  1.00  0.00     0.200 A 
ATOM     93  F   UNL A   1      47.537  29.268  35.393  1.00  0.00    -0.200 F 
ATOM     94  F   UNL A   1      47.208  27.100  37.015  1.00  0.00    -0.200 F 
ENDBRANCH  61  84
ENDBRANCH  35  36
ENDBRANCH  27  30
ENDBRANCH  25  26
ENDBRANCH  24  25
ENDBRANCH   1  24
TORSDOF 16
ENDMDL
MODEL 2
REMARK VINA RESULT:     -11.7      0.719      1.850
REMARK SMILES C#CCN(CC(=O)NCCCCNC(=O)c1ccc(-c2c3nc(c(-c4c(F)c(F)c(F)c(F)c4F)c4ccc([nH]4)c(-c4c(F)c(F)c(F)c(F)c4F)c4nc(c(-c5c(F)c(F)c(F)c(F)c5F)c5ccc2[nH]5)C=C4)C=C3)cc1)C(=O)N1CC[N@@H+]2CCC[C@H]2C1
REMARK SMILES IDX 10 1 9 2 8 3 6 4 7 5 5 7 4 8 3 9 2 10 1 11 79 12 80 13 81 14
REMARK SMILES IDX 82 15 89 16 83 17 88 18 84 19 87 20 85 21 86 23 11 24 12 25
REMARK SMILES IDX 13 26 14 27 15 29 16 30 17 31 78 32 18 33 77 34 19 35 20 36
REMARK SMILES IDX 21 37 71 38 22 39 76 40 70 41 72 42 23 43 75 44 69 45 68 46
REMARK SMILES IDX 24 48 56 49 36 50 55 51 37 52 40 53 54 54 73 55 38 56 39 57
REMARK SMILES IDX 53 59 74 60 41 61 25 62 26 63 34 64 27 65 28 66 32 67 35 68
REMARK SMILES IDX 29 69 30 70 33 71 31 72 57 73 58 74 66 75 59 76 60 77 64 78
REMARK SMILES IDX 67 79 61 80 62 81 65 82 63 83 42 84 43 85 51 86 44 87 45 88
REMARK SMILES IDX 49 89 52 90 46 91 47 92 50 93 48 94
REMARK H PARENT 8 6 84 22 13 28 72 47 40 58
REMARK Flexibility Score: inf
ROOT
ATOM      1  C   UNL A   1      31.869  30.424  26.474  1.00  0.00     0.023 C 
ENDROOT
BRANCH   1   2
ATOM      2  C   UNL A   1      33.333  30.008  26.601  1.00  0.00     0.116 C 
BRANCH   2   3
ATOM      3  N   UNL A   1      33.914  29.520  25.371  1.00  0.00    -0.355 N 
ATOM      4  C   UNL A   1      33.793  28.311  24.752  1.00  0.00     0.239 C 
ATOM      5  O   UNL A   1      34.160  28.261  23.572  1.00  0.00    -0.273 OA
ATOM      6  H   UNL A   1      34.492  30.166  24.904  1.00  0.00     0.163 HD
BRANCH   4   7
ATOM      7  C   UNL A   1      33.126  27.086  25.404  1.00  0.00     0.222 C 
BRANCH   7   8
ATOM      8  N   UNL A   1      32.020  26.456  24.682  1.00  0.00    -0.304 N 
BRANCH   8   9
ATOM      9  C   UNL A   1      30.704  27.076  24.802  1.00  0.00     0.211 C 
BRANCH   9  10
ATOM     10  C   UNL A   1      30.500  28.212  23.813  1.00  0.00    -0.085 C 
ATOM     11  C   UNL A   1      30.324  29.186  22.964  1.00  0.00     0.006 C 
ENDBRANCH   9  10
ENDBRANCH   8   9
BRANCH   8  12
ATOM     12  C   UNL A   1      32.168  25.413  23.769  1.00  0.00     0.321 C 
ATOM     13  O   UNL A   1      31.643  25.429  22.657  1.00  0.00    -0.248 OA
BRANCH  12  14
ATOM     14  N   UNL A   1      33.039  24.406  24.121  1.00  0.00    -0.313 N 
ATOM     15  C   UNL A   1      32.602  23.225  24.877  1.00  0.00     0.183 C 
ATOM     16  C   UNL A   1      34.170  24.117  23.227  1.00  0.00     0.186 C 
ATOM     17  C   UNL A   1      33.765  22.633  25.705  1.00  0.00     0.284 C 
ATOM     18  C   UNL A   1      35.310  23.512  24.056  1.00  0.00     0.204 C 
ATOM     19  N   UNL A   1      34.874  22.312  24.800  1.00  0.00    -0.330 N 
ATOM     20  C   UNL A   1      36.500  22.949  23.300  1.00  0.00     0.073 C 
ATOM     21  C   UNL A   1      36.088  21.810  25.424  1.00  0.00     0.262 C 
ATOM     22  H   UNL A   1      34.472  21.577  24.219  1.00  0.00     0.348 HD
ATOM     23  C   UNL A   1      37.082  21.902  24.264  1.00  0.00     0.068 C 
ENDBRANCH  12  14
ENDBRANCH   8  12
ENDBRANCH   7   8
ENDBRANCH   4   7
ENDBRANCH   2   3
ENDBRANCH   1   2
BRANCH   1  24
ATOM     24  C   UNL A   1      31.570  31.900  26.729  1.00  0.00     0.023 C 
BRANCH  24  25
ATOM     25  C   UNL A   1      32.715  32.710  27.317  1.00  0.00     0.116 C 
BRANCH  25  26
ATOM     26  N   UNL A   1      32.363  34.083  27.637  1.00  0.00    -0.352 N 
ATOM     27  C   UNL A   1      32.957  34.938  28.538  1.00  0.00     0.251 C 
ATOM     28  H   UNL A   1      31.594  34.451  27.144  1.00  0.00     0.163 HD
ATOM     29  O   UNL A   1      32.491  36.050  28.737  1.00  0.00    -0.269 OA
BRANCH  27  30
ATOM     30  C   UNL A   1      34.138  34.478  29.301  1.00  0.00     0.039 A 
ATOM     31  C   UNL A   1      33.936  33.873  30.544  1.00  0.00     0.014 A 
ATOM     32  C   UNL A   1      35.427  34.608  28.780  1.00  0.00     0.014 A 
ATOM     33  C   UNL A   1      35.022  33.328  31.229  1.00  0.00     0.010 A 
ATOM     34  C   UNL A   1      36.497  33.998  29.427  1.00  0.00     0.010 A 
ATOM     35  C   UNL A   1      36.304  33.348  30.656  1.00  0.00    -0.014 A 
BRANCH  35  36
ATOM     36  C   UNL A   1      37.456  32.691  31.322  1.00  0.00     0.031 A 
ATOM     37  C   UNL A   1      38.164  31.550  30.649  1.00  0.00     0.074 A 
ATOM     38  C   UNL A   1      37.817  33.076  32.561  1.00  0.00     0.049 A 
ATOM     39  N   UNL A   1      39.137  30.796  31.100  1.00  0.00    -0.248 NA
ATOM     40  C   UNL A   1      37.698  31.184  29.303  1.00  0.00     0.031 C 
ATOM     41  C   UNL A   1      37.176  34.139  33.338  1.00  0.00     0.029 A 
ATOM     42  N   UNL A   1      38.805  32.608  33.392  1.00  0.00    -0.354 N 
ATOM     43  C   UNL A   1      39.387  29.866  30.101  1.00  0.00     0.074 A 
ATOM     44  C   UNL A   1      38.430  30.111  29.044  1.00  0.00     0.031 C 
ATOM     45  C   UNL A   1      37.799  34.255  34.521  1.00  0.00     0.029 A 
ATOM     46  C   UNL A   1      38.858  33.254  34.602  1.00  0.00     0.049 A 
ATOM     47  H   UNL A   1      39.418  31.879  33.143  1.00  0.00     0.167 HD
ATOM     48  C   UNL A   1      40.345  28.909  30.059  1.00  0.00     0.037 A 
ATOM     49  C   UNL A   1      39.666  33.055  35.661  1.00  0.00     0.037 A 
ATOM     50  C   UNL A   1      41.311  28.685  31.102  1.00  0.00     0.049 A 
ATOM     51  C   UNL A   1      40.719  31.983  35.590  1.00  0.00     0.074 A 
ATOM     52  C   UNL A   1      42.357  27.781  31.129  1.00  0.00     0.029 A 
ATOM     53  N   UNL A   1      41.348  29.375  32.305  1.00  0.00    -0.354 N 
ATOM     54  N   UNL A   1      40.991  31.153  34.612  1.00  0.00    -0.248 NA
ATOM     55  C   UNL A   1      41.582  31.824  36.768  1.00  0.00     0.031 C 
ATOM     56  C   UNL A   1      43.001  27.892  32.365  1.00  0.00     0.029 A 
ATOM     57  C   UNL A   1      42.387  28.901  33.089  1.00  0.00     0.049 A 
ATOM     58  H   UNL A   1      40.726  30.094  32.563  1.00  0.00     0.167 HD
ATOM     59  C   UNL A   1      42.072  30.397  35.043  1.00  0.00     0.074 A 
ATOM     60  C   UNL A   1      42.415  30.874  36.366  1.00  0.00     0.031 C 
ATOM     61  C   UNL A   1      42.722  29.395  34.401  1.00  0.00     0.037 A 
BRANCH  48  62
ATOM     62  C   UNL A   1      40.397  28.035  28.840  1.00  0.00     0.064 A 
ATOM     63  C   UNL A   1      41.148  28.394  27.710  1.00  0.00     0.173 A 
ATOM     64  C   UNL A   1      39.717  26.808  28.813  1.00  0.00     0.173 A 
ATOM     65  F   UNL A   1      41.806  29.562  27.680  1.00  0.00    -0.203 F 
ATOM     66  C   UNL A   1      41.191  27.571  26.587  1.00  0.00     0.198 A 
ATOM     67  C   UNL A   1      39.788  25.973  27.701  1.00  0.00     0.198 A 
ATOM     68  F   UNL A   1      38.989  26.414  29.869  1.00  0.00    -0.203 F 
ATOM     69  F   UNL A   1      41.872  27.959  25.500  1.00  0.00    -0.200 F 
ATOM     70  C   UNL A   1      40.517  26.360  26.586  1.00  0.00     0.200 A 
ATOM     71  F   UNL A   1      39.148  24.797  27.705  1.00  0.00    -0.200 F 
ATOM     72  F   UNL A   1      40.566  25.566  25.507  1.00  0.00    -0.200 F 
ENDBRANCH  48  62
BRANCH  49  73
ATOM     73  C   UNL A   1      39.529  33.909  36.870  1.00  0.00     0.064 A 
ATOM     74  C   UNL A   1      40.170  35.153  36.946  1.00  0.00     0.173 A 
ATOM     75  C   UNL A   1      38.766  33.500  37.973  1.00  0.00     0.173 A 
ATOM     76  F   UNL A   1      40.929  35.579  35.926  1.00  0.00    -0.203 F 
ATOM     77  C   UNL A   1      40.069  35.947  38.087  1.00  0.00     0.198 A 
ATOM     78  C   UNL A   1      38.643  34.306  39.102  1.00  0.00     0.198 A 
ATOM     79  F   UNL A   1      38.130  32.319  37.948  1.00  0.00    -0.203 F 
ATOM     80  F   UNL A   1      40.731  37.111  38.151  1.00  0.00    -0.200 F 
ATOM     81  C   UNL A   1      39.302  35.525  39.162  1.00  0.00     0.200 A 
ATOM     82  F   UNL A   1      37.889  33.901  40.133  1.00  0.00    -0.200 F 
ATOM     83  F   UNL A   1      39.203  36.288  40.258  1.00  0.00    -0.200 F 
ENDBRANCH  49  73
BRANCH  61  84
ATOM     84  C   UNL A   1      43.894  28.774  35.102  1.00  0.00     0.064 A 
ATOM     85  C   UNL A   1      43.748  27.649  35.928  1.00  0.00     0.173 A 
ATOM     86  C   UNL A   1      45.186  29.287  34.912  1.00  0.00     0.173 A 
ATOM     87  F   UNL A   1      42.531  27.132  36.154  1.00  0.00    -0.203 F 
ATOM     88  C   UNL A   1      44.850  27.077  36.557  1.00  0.00     0.198 A 
ATOM     89  C   UNL A   1      46.289  28.693  35.519  1.00  0.00     0.198 A 
ATOM     90  F   UNL A   1      45.381  30.357  34.126  1.00  0.00    -0.203 F 
ATOM     91  F   UNL A   1      44.681  26.032  37.379  1.00  0.00    -0.200 F 
ATOM     92  C   UNL A   1      46.120  27.594  36.346  1.00  0.00     0.200 A 
ATOM     93  F   UNL A   1      47.517  29.186  35.302  1.00  0.00    -0.200 F 
ATOM     94  F   UNL A   1      47.180  27.036  36.946  1.00  0.00    -0.200 F 
ENDBRANCH  61  84
ENDBRANCH  35  36
ENDBRANCH  27  30
ENDBRANCH  25  26
ENDBRANCH  24  25
ENDBRANCH   1  24
TORSDOF 16
ENDMDL
MODEL 3
REMARK VINA RESULT:     -11.6      5.578     11.255
REMARK SMILES C#CCN(CC(=O)NCCCCNC(=O)c1ccc(-c2c3nc(c(-c4c(F)c(F)c(F)c(F)c4F)c4ccc([nH]4)c(-c4c(F)c(F)c(F)c(F)c4F)c4nc(c(-c5c(F)c(F)c(F)c(F)c5F)c5ccc2[nH]5)C=C4)C=C3)cc1)C(=O)N1CC[N@@H+]2CCC[C@H]2C1
REMARK SMILES IDX 10 1 9 2 8 3 6 4 7 5 5 7 4 8 3 9 2 10 1 11 79 12 80 13 81 14
REMARK SMILES IDX 82 15 89 16 83 17 88 18 84 19 87 20 85 21 86 23 11 24 12 25
REMARK SMILES IDX 13 26 14 27 15 29 16 30 17 31 78 32 18 33 77 34 19 35 20 36
REMARK SMILES IDX 21 37 71 38 22 39 76 40 70 41 72 42 23 43 75 44 69 45 68 46
REMARK SMILES IDX 24 48 56 49 36 50 55 51 37 52 40 53 54 54 73 55 38 56 39 57
REMARK SMILES IDX 53 59 74 60 41 61 25 62 26 63 34 64 27 65 28 66 32 67 35 68
REMARK SMILES IDX 29 69 30 70 33 71 31 72 57 73 58 74 66 75 59 76 60 77 64 78
REMARK SMILES IDX 67 79 61 80 62 81 65 82 63 83 42 84 43 85 51 86 44 87 45 88
REMARK SMILES IDX 49 89 52 90 46 91 47 92 50 93 48 94
REMARK H PARENT 8 6 84 22 13 28 72 47 40 58
REMARK Flexibility Score: inf
ROOT
ATOM      1  C   UNL A   1      37.119  21.208  24.771  1.00  0.00     0.023 C 
ENDROOT
BRANCH   1   2
ATOM      2  C   UNL A   1      35.629  20.942  24.980  1.00  0.00     0.116 C 
BRANCH   2   3
ATOM      3  N   UNL A   1      35.179  21.149  26.337  1.00  0.00    -0.355 N 
ATOM      4  C   UNL A   1      34.369  22.111  26.865  1.00  0.00     0.239 C 
ATOM      5  O   UNL A   1      33.916  21.886  27.993  1.00  0.00    -0.273 OA
ATOM      6  H   UNL A   1      35.512  20.489  26.987  1.00  0.00     0.163 HD
BRANCH   4   7
ATOM      7  C   UNL A   1      33.915  23.361  26.088  1.00  0.00     0.222 C 
BRANCH   7   8
ATOM      8  N   UNL A   1      32.523  23.408  25.642  1.00  0.00    -0.304 N 
BRANCH   8   9
ATOM      9  C   UNL A   1      32.133  22.499  24.569  1.00  0.00     0.211 C 
BRANCH   9  10
ATOM     10  C   UNL A   1      32.776  22.855  23.238  1.00  0.00    -0.085 C 
ATOM     11  C   UNL A   1      33.327  23.160  22.096  1.00  0.00     0.006 C 
ENDBRANCH   9  10
ENDBRANCH   8   9
BRANCH   8  12
ATOM     12  C   UNL A   1      31.517  24.139  26.274  1.00  0.00     0.321 C 
ATOM     13  O   UNL A   1      30.938  23.732  27.279  1.00  0.00    -0.248 OA
BRANCH  12  14
ATOM     14  N   UNL A   1      31.283  25.408  25.792  1.00  0.00    -0.313 N 
ATOM     15  C   UNL A   1      30.251  25.682  24.783  1.00  0.00     0.183 C 
ATOM     16  C   UNL A   1      31.511  26.548  26.691  1.00  0.00     0.186 C 
ATOM     17  C   UNL A   1      30.612  26.927  23.942  1.00  0.00     0.284 C 
ATOM     18  C   UNL A   1      31.849  27.783  25.843  1.00  0.00     0.204 C 
ATOM     19  N   UNL A   1      30.800  28.068  24.843  1.00  0.00    -0.330 N 
ATOM     20  C   UNL A   1      31.921  29.121  26.557  1.00  0.00     0.073 C 
ATOM     21  C   UNL A   1      31.219  29.315  24.222  1.00  0.00     0.262 C 
ATOM     22  H   UNL A   1      29.865  28.190  25.233  1.00  0.00     0.348 HD
ATOM     23  C   UNL A   1      31.617  30.141  25.448  1.00  0.00     0.068 C 
ENDBRANCH  12  14
ENDBRANCH   8  12
ENDBRANCH   7   8
ENDBRANCH   4   7
ENDBRANCH   2   3
ENDBRANCH   1   2
BRANCH   1  24
ATOM     24  C   UNL A   1      38.046  20.013  24.985  1.00  0.00     0.023 C 
BRANCH  24  25
ATOM     25  C   UNL A   1      39.274  20.280  25.844  1.00  0.00     0.116 C 
BRANCH  25  26
ATOM     26  N   UNL A   1      40.219  19.176  25.881  1.00  0.00    -0.352 N 
ATOM     27  C   UNL A   1      41.572  19.209  26.127  1.00  0.00     0.251 C 
ATOM     28  H   UNL A   1      39.839  18.285  25.705  1.00  0.00     0.163 HD
ATOM     29  O   UNL A   1      42.240  18.188  26.054  1.00  0.00    -0.269 OA
BRANCH  27  30
ATOM     30  C   UNL A   1      42.222  20.502  26.432  1.00  0.00     0.039 A 
ATOM     31  C   UNL A   1      42.650  21.301  25.368  1.00  0.00     0.014 A 
ATOM     32  C   UNL A   1      42.372  20.940  27.749  1.00  0.00     0.014 A 
ATOM     33  C   UNL A   1      43.159  22.575  25.626  1.00  0.00     0.010 A 
ATOM     34  C   UNL A   1      42.808  22.238  27.999  1.00  0.00     0.010 A 
ATOM     35  C   UNL A   1      43.202  23.069  26.939  1.00  0.00    -0.014 A 
BRANCH  35  36
ATOM     36  C   UNL A   1      43.650  24.454  27.228  1.00  0.00     0.031 A 
ATOM     37  C   UNL A   1      42.670  25.471  27.741  1.00  0.00     0.074 A 
ATOM     38  C   UNL A   1      44.920  24.813  26.958  1.00  0.00     0.049 A 
ATOM     39  N   UNL A   1      42.847  26.747  27.977  1.00  0.00    -0.248 NA
ATOM     40  C   UNL A   1      41.300  24.999  27.995  1.00  0.00     0.031 C 
ATOM     41  C   UNL A   1      45.951  23.929  26.411  1.00  0.00     0.029 A 
ATOM     42  N   UNL A   1      45.557  26.021  27.097  1.00  0.00    -0.354 N 
ATOM     43  C   UNL A   1      41.614  27.228  28.392  1.00  0.00     0.074 A 
ATOM     44  C   UNL A   1      40.682  26.123  28.325  1.00  0.00     0.031 C 
ATOM     45  C   UNL A   1      47.096  24.619  26.281  1.00  0.00     0.029 A 
ATOM     46  C   UNL A   1      46.871  25.999  26.699  1.00  0.00     0.049 A 
ATOM     47  H   UNL A   1      45.114  26.827  27.448  1.00  0.00     0.167 HD
ATOM     48  C   UNL A   1      41.293  28.475  28.815  1.00  0.00     0.037 A 
ATOM     49  C   UNL A   1      47.789  26.984  26.667  1.00  0.00     0.037 A 
ATOM     50  C   UNL A   1      42.228  29.565  28.905  1.00  0.00     0.049 A 
ATOM     51  C   UNL A   1      47.405  28.360  27.139  1.00  0.00     0.074 A 
ATOM     52  C   UNL A   1      42.015  30.848  29.377  1.00  0.00     0.029 A 
ATOM     53  N   UNL A   1      43.557  29.499  28.514  1.00  0.00    -0.354 N 
ATOM     54  N   UNL A   1      46.252  28.788  27.595  1.00  0.00    -0.248 NA
ATOM     55  C   UNL A   1      48.452  29.390  27.099  1.00  0.00     0.031 C 
ATOM     56  C   UNL A   1      43.202  31.571  29.230  1.00  0.00     0.029 A 
ATOM     57  C   UNL A   1      44.170  30.725  28.714  1.00  0.00     0.049 A 
ATOM     58  H   UNL A   1      43.999  28.698  28.147  1.00  0.00     0.167 HD
ATOM     59  C   UNL A   1      46.443  30.123  27.922  1.00  0.00     0.074 A 
ATOM     60  C   UNL A   1      47.826  30.432  27.626  1.00  0.00     0.031 C 
ATOM     61  C   UNL A   1      45.552  31.013  28.423  1.00  0.00     0.037 A 
BRANCH  48  62
ATOM     62  C   UNL A   1      39.869  28.724  29.220  1.00  0.00     0.064 A 
ATOM     63  C   UNL A   1      38.913  29.181  28.299  1.00  0.00     0.173 A 
ATOM     64  C   UNL A   1      39.446  28.471  30.533  1.00  0.00     0.173 A 
ATOM     65  F   UNL A   1      39.269  29.450  27.034  1.00  0.00    -0.203 F 
ATOM     66  C   UNL A   1      37.594  29.404  28.686  1.00  0.00     0.198 A 
ATOM     67  C   UNL A   1      38.119  28.665  30.909  1.00  0.00     0.198 A 
ATOM     68  F   UNL A   1      40.317  28.028  31.452  1.00  0.00    -0.203 F 
ATOM     69  F   UNL A   1      36.711  29.890  27.803  1.00  0.00    -0.200 F 
ATOM     70  C   UNL A   1      37.197  29.139  29.988  1.00  0.00     0.200 A 
ATOM     71  F   UNL A   1      37.732  28.397  32.163  1.00  0.00    -0.200 F 
ATOM     72  F   UNL A   1      35.925  29.348  30.357  1.00  0.00    -0.200 F 
ENDBRANCH  48  62
BRANCH  49  73
ATOM     73  C   UNL A   1      49.169  26.698  26.197  1.00  0.00     0.064 A 
ATOM     74  C   UNL A   1      49.536  26.933  24.864  1.00  0.00     0.173 A 
ATOM     75  C   UNL A   1      50.145  26.183  27.061  1.00  0.00     0.173 A 
ATOM     76  F   UNL A   1      48.632  27.405  23.994  1.00  0.00    -0.203 F 
ATOM     77  C   UNL A   1      50.821  26.642  24.409  1.00  0.00     0.198 A 
ATOM     78  C   UNL A   1      51.437  25.919  26.612  1.00  0.00     0.198 A 
ATOM     79  F   UNL A   1      49.845  25.945  28.347  1.00  0.00    -0.203 F 
ATOM     80  F   UNL A   1      51.130  26.832  23.119  1.00  0.00    -0.200 F 
ATOM     81  C   UNL A   1      51.772  26.141  25.285  1.00  0.00     0.200 A 
ATOM     82  F   UNL A   1      52.358  25.448  27.464  1.00  0.00    -0.200 F 
ATOM     83  F   UNL A   1      53.007  25.863  24.848  1.00  0.00    -0.200 F 
ENDBRANCH  49  73
BRANCH  61  84
ATOM     84  C   UNL A   1      46.053  32.396  28.720  1.00  0.00     0.064 A 
ATOM     85  C   UNL A   1      46.629  32.723  29.956  1.00  0.00     0.173 A 
ATOM     86  C   UNL A   1      45.992  33.397  27.737  1.00  0.00     0.173 A 
ATOM     87  F   UNL A   1      46.695  31.805  30.932  1.00  0.00    -0.203 F 
ATOM     88  C   UNL A   1      47.104  34.007  30.206  1.00  0.00     0.198 A 
ATOM     89  C   UNL A   1      46.496  34.672  27.982  1.00  0.00     0.198 A 
ATOM     90  F   UNL A   1      45.457  33.135  26.536  1.00  0.00    -0.203 F 
ATOM     91  F   UNL A   1      47.608  34.309  31.411  1.00  0.00    -0.200 F 
ATOM     92  C   UNL A   1      47.044  34.978  29.217  1.00  0.00     0.200 A 
ATOM     93  F   UNL A   1      46.449  35.604  27.020  1.00  0.00    -0.200 F 
ATOM     94  F   UNL A   1      47.509  36.211  29.458  1.00  0.00    -0.200 F 
ENDBRANCH  61  84
ENDBRANCH  35  36
ENDBRANCH  27  30
ENDBRANCH  25  26
ENDBRANCH  24  25
ENDBRANCH   1  24
TORSDOF 16
ENDMDL
