MODEL 1
REMARK VINA RESULT:     -12.3      0.000      0.000
REMARK SMILES O=C(NCCCCNC(=O)[C@H]1CCCCN1S(=O)(=O)c1cc[nH]c1)c1ccc(-c2c3nc(c(-c4c(F)c(F)c(F)c(F)c4F)c4ccc([nH]4)c(-c4c(F)c(F)c(F)c(F)c4F)c4nc(c(-c5c(F)c(F)c(F)c(F)c5F)c5ccc2[nH]5)C=C4)C=C3)cc1
REMARK SMILES IDX 5 1 4 2 3 3 1 4 2 5 25 7 26 8 87 9 27 10 86 11 28 12 29 13
REMARK SMILES IDX 30 14 80 15 31 16 85 17 79 18 81 19 32 20 84 21 78 22 77 23
REMARK SMILES IDX 33 25 65 26 45 27 64 28 46 29 49 30 63 31 82 32 47 33 48 34
REMARK SMILES IDX 62 36 83 37 50 38 34 39 35 40 43 41 36 42 37 43 41 44 44 45
REMARK SMILES IDX 38 46 39 47 42 48 40 49 66 50 67 51 75 52 68 53 69 54 73 55
REMARK SMILES IDX 76 56 70 57 71 58 74 59 72 60 51 61 52 62 60 63 53 64 54 65
REMARK SMILES IDX 58 66 61 67 55 68 56 69 59 70 57 71 6 72 7 73 8 74 9 75
REMARK SMILES IDX 10 77 11 78 12 79 16 80 13 81 15 82 14 83 17 84 18 85 19 86
REMARK SMILES IDX 20 87 21 88 24 89 22 90 23 91
REMARK H PARENT 3 6 81 24 49 35 8 76 23 92
REMARK Flexibility Score: inf
ROOT
ATOM      1  C   UNL A   1      33.669  27.750  26.450  1.00  0.00     0.023 C 
ENDROOT
BRANCH   1   2
ATOM      2  C   UNL A   1      34.995  28.511  26.473  1.00  0.00     0.116 C 
BRANCH   2   3
ATOM      3  N   UNL A   1      35.058  29.620  27.407  1.00  0.00    -0.352 N 
ATOM      4  O   UNL A   1      35.865  31.246  28.705  1.00  0.00    -0.269 OA
ATOM      5  C   UNL A   1      36.084  30.183  28.124  1.00  0.00     0.251 C 
ATOM      6  H   UNL A   1      34.190  30.058  27.556  1.00  0.00     0.163 HD
BRANCH   5   7
ATOM      7  C   UNL A   1      37.397  29.517  28.315  1.00  0.00     0.039 A 
ATOM      8  C   UNL A   1      38.458  29.614  27.416  1.00  0.00     0.014 A 
ATOM      9  C   UNL A   1      37.545  28.714  29.460  1.00  0.00     0.014 A 
ATOM     10  C   UNL A   1      39.573  28.805  27.557  1.00  0.00     0.010 A 
ATOM     11  C   UNL A   1      38.690  27.940  29.645  1.00  0.00     0.010 A 
ATOM     12  C   UNL A   1      39.690  27.970  28.673  1.00  0.00    -0.014 A 
BRANCH  12  13
ATOM     13  C   UNL A   1      41.032  27.395  28.900  1.00  0.00     0.031 A 
ATOM     14  C   UNL A   1      41.063  25.942  28.346  1.00  0.00     0.074 A 
ATOM     15  C   UNL A   1      41.920  28.152  29.621  1.00  0.00     0.049 A 
ATOM     16  N   UNL A   1      41.746  24.912  28.740  1.00  0.00    -0.248 NA
ATOM     17  C   UNL A   1      40.136  25.554  27.239  1.00  0.00     0.031 C 
ATOM     18  C   UNL A   1      41.711  29.564  30.025  1.00  0.00     0.029 A 
ATOM     19  N   UNL A   1      43.163  27.906  30.180  1.00  0.00    -0.354 N 
ATOM     20  C   UNL A   1      41.517  23.859  27.820  1.00  0.00     0.074 A 
ATOM     21  C   UNL A   1      40.418  24.270  27.007  1.00  0.00     0.031 C 
ATOM     22  C   UNL A   1      42.717  30.006  30.818  1.00  0.00     0.029 A 
ATOM     23  C   UNL A   1      43.691  28.948  31.008  1.00  0.00     0.049 A 
ATOM     24  H   UNL A   1      43.653  27.068  30.018  1.00  0.00     0.167 HD
ATOM     25  C   UNL A   1      42.365  22.793  27.695  1.00  0.00     0.037 A 
ATOM     26  C   UNL A   1      44.809  28.930  31.811  1.00  0.00     0.037 A 
ATOM     27  C   UNL A   1      43.383  22.895  28.680  1.00  0.00     0.049 A 
ATOM     28  C   UNL A   1      45.470  27.672  31.462  1.00  0.00     0.074 A 
ATOM     29  C   UNL A   1      43.349  22.750  30.041  1.00  0.00     0.029 A 
ATOM     30  N   UNL A   1      44.513  23.585  28.317  1.00  0.00    -0.354 N 
ATOM     31  N   UNL A   1      46.119  27.475  30.357  1.00  0.00    -0.248 NA
ATOM     32  C   UNL A   1      45.356  26.534  32.382  1.00  0.00     0.031 C 
ATOM     33  C   UNL A   1      44.173  23.803  30.480  1.00  0.00     0.029 A 
ATOM     34  C   UNL A   1      44.893  24.329  29.398  1.00  0.00     0.049 A 
ATOM     35  H   UNL A   1      44.964  23.551  27.443  1.00  0.00     0.167 HD
ATOM     36  C   UNL A   1      46.162  26.107  30.303  1.00  0.00     0.074 A 
ATOM     37  C   UNL A   1      46.014  25.629  31.663  1.00  0.00     0.031 C 
ATOM     38  C   UNL A   1      45.715  25.491  29.180  1.00  0.00     0.037 A 
BRANCH  25  39
ATOM     39  C   UNL A   1      42.590  21.767  26.614  1.00  0.00     0.064 A 
ATOM     40  C   UNL A   1      42.153  20.437  26.865  1.00  0.00     0.173 A 
ATOM     41  C   UNL A   1      43.525  21.921  25.586  1.00  0.00     0.173 A 
ATOM     42  F   UNL A   1      41.208  20.183  27.786  1.00  0.00    -0.203 F 
ATOM     43  C   UNL A   1      42.752  19.334  26.262  1.00  0.00     0.198 A 
ATOM     44  C   UNL A   1      44.083  20.811  24.941  1.00  0.00     0.198 A 
ATOM     45  F   UNL A   1      43.999  23.126  25.251  1.00  0.00    -0.203 F 
ATOM     46  F   UNL A   1      42.429  18.095  26.663  1.00  0.00    -0.200 F 
ATOM     47  C   UNL A   1      43.735  19.522  25.314  1.00  0.00     0.200 A 
ATOM     48  F   UNL A   1      45.027  20.995  24.007  1.00  0.00    -0.200 F 
ATOM     49  F   UNL A   1      44.373  18.468  24.788  1.00  0.00    -0.200 F 
ENDBRANCH  25  39
BRANCH  26  50
ATOM     50  C   UNL A   1      45.520  29.719  32.903  1.00  0.00     0.064 A 
ATOM     51  C   UNL A   1      46.677  30.490  32.758  1.00  0.00     0.173 A 
ATOM     52  C   UNL A   1      44.932  29.810  34.208  1.00  0.00     0.173 A 
ATOM     53  F   UNL A   1      47.410  30.419  31.642  1.00  0.00    -0.203 F 
ATOM     54  C   UNL A   1      47.123  31.365  33.777  1.00  0.00     0.198 A 
ATOM     55  C   UNL A   1      45.327  30.724  35.185  1.00  0.00     0.198 A 
ATOM     56  F   UNL A   1      43.927  29.010  34.591  1.00  0.00    -0.203 F 
ATOM     57  F   UNL A   1      48.238  32.086  33.595  1.00  0.00    -0.200 F 
ATOM     58  C   UNL A   1      46.418  31.520  34.962  1.00  0.00     0.200 A 
ATOM     59  F   UNL A   1      44.620  30.831  36.320  1.00  0.00    -0.200 F 
ATOM     60  F   UNL A   1      46.795  32.415  35.886  1.00  0.00    -0.200 F 
ENDBRANCH  26  50
BRANCH  38  61
ATOM     61  C   UNL A   1      45.803  26.340  27.919  1.00  0.00     0.064 A 
ATOM     62  C   UNL A   1      47.052  26.814  27.484  1.00  0.00     0.173 A 
ATOM     63  C   UNL A   1      44.694  26.808  27.194  1.00  0.00     0.173 A 
ATOM     64  F   UNL A   1      48.172  26.395  28.091  1.00  0.00    -0.203 F 
ATOM     65  C   UNL A   1      47.175  27.721  26.426  1.00  0.00     0.198 A 
ATOM     66  C   UNL A   1      44.810  27.716  26.137  1.00  0.00     0.198 A 
ATOM     67  F   UNL A   1      43.467  26.388  27.485  1.00  0.00    -0.203 F 
ATOM     68  F   UNL A   1      48.389  28.148  26.051  1.00  0.00    -0.200 F 
ATOM     69  C   UNL A   1      46.053  28.178  25.756  1.00  0.00     0.200 A 
ATOM     70  F   UNL A   1      43.712  28.132  25.483  1.00  0.00    -0.200 F 
ATOM     71  F   UNL A   1      46.172  29.038  24.735  1.00  0.00    -0.200 F 
ENDBRANCH  38  61
ENDBRANCH  12  13
ENDBRANCH   5   7
ENDBRANCH   2   3
ENDBRANCH   1   2
BRANCH   1  72
ATOM     72  C   UNL A   1      33.512  26.773  25.285  1.00  0.00     0.023 C 
BRANCH  72  73
ATOM     73  C   UNL A   1      32.686  25.527  25.596  1.00  0.00     0.116 C 
BRANCH  73  74
ATOM     74  N   UNL A   1      33.379  24.611  26.485  1.00  0.00    -0.355 N 
ATOM     75  C   UNL A   1      34.210  23.565  26.224  1.00  0.00     0.238 C 
ATOM     76  H   UNL A   1      33.220  24.776  27.442  1.00  0.00     0.163 HD
ATOM     77  O   UNL A   1      34.681  22.970  27.198  1.00  0.00    -0.273 OA
BRANCH  75  78
ATOM     78  C   UNL A   1      34.532  23.149  24.779  1.00  0.00     0.162 C 
ATOM     79  C   UNL A   1      35.776  23.896  24.273  1.00  0.00     0.030 C 
ATOM     80  N   UNL A   1      34.688  21.659  24.597  1.00  0.00    -0.185 NA
ATOM     81  C   UNL A   1      37.087  23.347  24.821  1.00  0.00     0.004 C 
ATOM     82  C   UNL A   1      35.936  21.138  25.214  1.00  0.00     0.103 C 
ATOM     83  C   UNL A   1      37.156  21.841  24.630  1.00  0.00     0.017 C 
BRANCH  80  84
ATOM     84  S   UNL A   1      33.259  20.817  25.027  1.00  0.00     0.245 S 
ATOM     85  O   UNL A   1      33.390  20.333  26.380  1.00  0.00    -0.207 OA
ATOM     86  O   UNL A   1      32.138  21.651  24.629  1.00  0.00    -0.207 OA
BRANCH  84  87
ATOM     87  C   UNL A   1      33.059  19.374  24.094  1.00  0.00     0.100 A 
ATOM     88  C   UNL A   1      33.747  18.149  24.299  1.00  0.00     0.041 A 
ATOM     89  C   UNL A   1      32.133  19.156  23.091  1.00  0.00     0.104 A 
ATOM     90  C   UNL A   1      33.248  17.239  23.392  1.00  0.00     0.083 A 
ATOM     91  N   UNL A   1      32.257  17.857  22.673  1.00  0.00    -0.366 N 
ATOM     92  H   UNL A   1      31.718  17.433  21.966  1.00  0.00     0.165 HD
ENDBRANCH  84  87
ENDBRANCH  80  84
ENDBRANCH  75  78
ENDBRANCH  73  74
ENDBRANCH  72  73
ENDBRANCH   1  72
TORSDOF 13
ENDMDL
MODEL 2
REMARK VINA RESULT:     -12.2      5.022      9.941
REMARK SMILES O=C(NCCCCNC(=O)[C@H]1CCCCN1S(=O)(=O)c1cc[nH]c1)c1ccc(-c2c3nc(c(-c4c(F)c(F)c(F)c(F)c4F)c4ccc([nH]4)c(-c4c(F)c(F)c(F)c(F)c4F)c4nc(c(-c5c(F)c(F)c(F)c(F)c5F)c5ccc2[nH]5)C=C4)C=C3)cc1
REMARK SMILES IDX 5 1 4 2 3 3 1 4 2 5 25 7 26 8 87 9 27 10 86 11 28 12 29 13
REMARK SMILES IDX 30 14 80 15 31 16 85 17 79 18 81 19 32 20 84 21 78 22 77 23
REMARK SMILES IDX 33 25 65 26 45 27 64 28 46 29 49 30 63 31 82 32 47 33 48 34
REMARK SMILES IDX 62 36 83 37 50 38 34 39 35 40 43 41 36 42 37 43 41 44 44 45
REMARK SMILES IDX 38 46 39 47 42 48 40 49 66 50 67 51 75 52 68 53 69 54 73 55
REMARK SMILES IDX 76 56 70 57 71 58 74 59 72 60 51 61 52 62 60 63 53 64 54 65
REMARK SMILES IDX 58 66 61 67 55 68 56 69 59 70 57 71 6 72 7 73 8 74 9 75
REMARK SMILES IDX 10 77 11 78 12 79 16 80 13 81 15 82 14 83 17 84 18 85 19 86
REMARK SMILES IDX 20 87 21 88 24 89 22 90 23 91
REMARK H PARENT 3 6 81 24 49 35 8 76 23 92
REMARK Flexibility Score: inf
ROOT
ATOM      1  C   UNL A   1      35.770  23.416  25.972  1.00  0.00     0.023 C 
ENDROOT
BRANCH   1   2
ATOM      2  C   UNL A   1      36.909  24.390  26.269  1.00  0.00     0.116 C 
BRANCH   2   3
ATOM      3  N   UNL A   1      38.192  23.776  26.560  1.00  0.00    -0.352 N 
ATOM      4  O   UNL A   1      40.120  23.287  27.572  1.00  0.00    -0.269 OA
ATOM      5  C   UNL A   1      39.221  24.111  27.404  1.00  0.00     0.251 C 
ATOM      6  H   UNL A   1      38.357  22.952  26.049  1.00  0.00     0.163 HD
BRANCH   5   7
ATOM      7  C   UNL A   1      39.349  25.451  28.029  1.00  0.00     0.039 A 
ATOM      8  C   UNL A   1      39.006  25.730  29.351  1.00  0.00     0.014 A 
ATOM      9  C   UNL A   1      39.811  26.498  27.209  1.00  0.00     0.014 A 
ATOM     10  C   UNL A   1      38.959  27.039  29.802  1.00  0.00     0.010 A 
ATOM     11  C   UNL A   1      39.825  27.813  27.672  1.00  0.00     0.010 A 
ATOM     12  C   UNL A   1      39.371  28.079  28.964  1.00  0.00    -0.014 A 
BRANCH  12  13
ATOM     13  C   UNL A   1      39.586  29.383  29.625  1.00  0.00     0.031 A 
ATOM     14  C   UNL A   1      38.357  30.298  29.361  1.00  0.00     0.074 A 
ATOM     15  C   UNL A   1      40.808  29.587  30.216  1.00  0.00     0.049 A 
ATOM     16  N   UNL A   1      38.283  31.589  29.257  1.00  0.00    -0.248 NA
ATOM     17  C   UNL A   1      37.022  29.680  29.089  1.00  0.00     0.031 C 
ATOM     18  C   UNL A   1      41.850  28.548  30.409  1.00  0.00     0.029 A 
ATOM     19  N   UNL A   1      41.442  30.691  30.760  1.00  0.00    -0.354 N 
ATOM     20  C   UNL A   1      36.914  31.939  29.148  1.00  0.00     0.074 A 
ATOM     21  C   UNL A   1      36.206  30.722  28.912  1.00  0.00     0.031 C 
ATOM     22  C   UNL A   1      42.985  29.077  30.926  1.00  0.00     0.029 A 
ATOM     23  C   UNL A   1      42.809  30.501  31.137  1.00  0.00     0.049 A 
ATOM     24  H   UNL A   1      40.981  31.553  30.880  1.00  0.00     0.167 HD
ATOM     25  C   UNL A   1      36.451  33.196  29.427  1.00  0.00     0.037 A 
ATOM     26  C   UNL A   1      43.730  31.438  31.551  1.00  0.00     0.037 A 
ATOM     27  C   UNL A   1      37.556  34.041  29.717  1.00  0.00     0.049 A 
ATOM     28  C   UNL A   1      42.935  32.654  31.729  1.00  0.00     0.074 A 
ATOM     29  C   UNL A   1      38.547  34.547  28.919  1.00  0.00     0.029 A 
ATOM     30  N   UNL A   1      37.943  34.105  31.032  1.00  0.00    -0.354 N 
ATOM     31  N   UNL A   1      42.121  32.848  32.719  1.00  0.00    -0.248 NA
ATOM     32  C   UNL A   1      43.009  33.705  30.708  1.00  0.00     0.031 C 
ATOM     33  C   UNL A   1      39.689  34.408  29.728  1.00  0.00     0.029 A 
ATOM     34  C   UNL A   1      39.309  34.122  31.047  1.00  0.00     0.049 A 
ATOM     35  H   UNL A   1      37.349  34.133  31.817  1.00  0.00     0.167 HD
ATOM     36  C   UNL A   1      41.338  33.863  32.235  1.00  0.00     0.074 A 
ATOM     37  C   UNL A   1      42.115  34.545  31.220  1.00  0.00     0.031 C 
ATOM     38  C   UNL A   1      39.990  33.698  32.243  1.00  0.00     0.037 A 
BRANCH  25  39
ATOM     39  C   UNL A   1      35.089  33.751  29.755  1.00  0.00     0.064 A 
ATOM     40  C   UNL A   1      34.516  34.677  28.840  1.00  0.00     0.173 A 
ATOM     41  C   UNL A   1      34.540  33.741  31.041  1.00  0.00     0.173 A 
ATOM     42  F   UNL A   1      34.923  34.725  27.560  1.00  0.00    -0.203 F 
ATOM     43  C   UNL A   1      33.599  35.645  29.242  1.00  0.00     0.198 A 
ATOM     44  C   UNL A   1      33.575  34.680  31.424  1.00  0.00     0.198 A 
ATOM     45  F   UNL A   1      34.989  32.904  31.983  1.00  0.00    -0.203 F 
ATOM     46  F   UNL A   1      33.224  36.607  28.385  1.00  0.00    -0.200 F 
ATOM     47  C   UNL A   1      33.146  35.660  30.543  1.00  0.00     0.200 A 
ATOM     48  F   UNL A   1      33.122  34.683  32.686  1.00  0.00    -0.200 F 
ATOM     49  F   UNL A   1      32.326  36.635  30.960  1.00  0.00    -0.200 F 
ENDBRANCH  25  39
BRANCH  26  50
ATOM     50  C   UNL A   1      45.216  31.626  31.826  1.00  0.00     0.064 A 
ATOM     51  C   UNL A   1      45.814  31.842  33.071  1.00  0.00     0.173 A 
ATOM     52  C   UNL A   1      46.160  31.465  30.759  1.00  0.00     0.173 A 
ATOM     53  F   UNL A   1      45.071  32.131  34.145  1.00  0.00    -0.203 F 
ATOM     54  C   UNL A   1      47.216  31.773  33.248  1.00  0.00     0.198 A 
ATOM     55  C   UNL A   1      47.536  31.325  30.942  1.00  0.00     0.198 A 
ATOM     56  F   UNL A   1      45.780  31.428  29.474  1.00  0.00    -0.203 F 
ATOM     57  F   UNL A   1      47.747  31.987  34.460  1.00  0.00    -0.200 F 
ATOM     58  C   UNL A   1      48.067  31.461  32.197  1.00  0.00     0.200 A 
ATOM     59  F   UNL A   1      48.320  31.033  29.894  1.00  0.00    -0.200 F 
ATOM     60  F   UNL A   1      49.385  31.309  32.388  1.00  0.00    -0.200 F 
ENDBRANCH  26  50
BRANCH  38  61
ATOM     61  C   UNL A   1      39.480  32.738  33.308  1.00  0.00     0.064 A 
ATOM     62  C   UNL A   1      39.734  33.004  34.664  1.00  0.00     0.173 A 
ATOM     63  C   UNL A   1      38.862  31.505  33.041  1.00  0.00     0.173 A 
ATOM     64  F   UNL A   1      40.289  34.172  35.023  1.00  0.00    -0.203 F 
ATOM     65  C   UNL A   1      39.425  32.084  35.673  1.00  0.00     0.198 A 
ATOM     66  C   UNL A   1      38.552  30.580  34.043  1.00  0.00     0.198 A 
ATOM     67  F   UNL A   1      38.529  31.168  31.799  1.00  0.00    -0.203 F 
ATOM     68  F   UNL A   1      39.690  32.383  36.952  1.00  0.00    -0.200 F 
ATOM     69  C   UNL A   1      38.840  30.869  35.362  1.00  0.00     0.200 A 
ATOM     70  F   UNL A   1      37.964  29.415  33.726  1.00  0.00    -0.200 F 
ATOM     71  F   UNL A   1      38.534  29.992  36.329  1.00  0.00    -0.200 F 
ENDBRANCH  38  61
ENDBRANCH  12  13
ENDBRANCH   5   7
ENDBRANCH   2   3
ENDBRANCH   1   2
BRANCH   1  72
ATOM     72  C   UNL A   1      35.004  23.701  24.680  1.00  0.00     0.023 C 
BRANCH  72  73
ATOM     73  C   UNL A   1      33.842  24.681  24.823  1.00  0.00     0.116 C 
BRANCH  73  74
ATOM     74  N   UNL A   1      34.183  26.016  24.362  1.00  0.00    -0.355 N 
ATOM     75  C   UNL A   1      33.592  27.221  24.590  1.00  0.00     0.238 C 
ATOM     76  H   UNL A   1      34.979  26.055  23.785  1.00  0.00     0.163 HD
ATOM     77  O   UNL A   1      34.127  28.209  24.079  1.00  0.00    -0.273 OA
BRANCH  75  78
ATOM     78  C   UNL A   1      32.315  27.331  25.439  1.00  0.00     0.162 C 
ATOM     79  C   UNL A   1      32.674  27.509  26.923  1.00  0.00     0.030 C 
ATOM     80  N   UNL A   1      31.373  28.416  24.980  1.00  0.00    -0.185 NA
ATOM     81  C   UNL A   1      33.141  28.915  27.277  1.00  0.00     0.004 C 
ATOM     82  C   UNL A   1      31.892  29.779  25.264  1.00  0.00     0.103 C 
ATOM     83  C   UNL A   1      32.159  29.951  26.755  1.00  0.00     0.017 C 
BRANCH  80  84
ATOM     84  S   UNL A   1      30.851  28.159  23.368  1.00  0.00     0.245 S 
ATOM     85  O   UNL A   1      31.718  28.888  22.474  1.00  0.00    -0.207 OA
ATOM     86  O   UNL A   1      30.635  26.731  23.213  1.00  0.00    -0.207 OA
BRANCH  84  87
ATOM     87  C   UNL A   1      29.292  28.851  23.080  1.00  0.00     0.100 A 
ATOM     88  C   UNL A   1      29.038  30.175  22.635  1.00  0.00     0.041 A 
ATOM     89  C   UNL A   1      28.073  28.200  23.128  1.00  0.00     0.104 A 
ATOM     90  C   UNL A   1      27.677  30.300  22.466  1.00  0.00     0.083 A 
ATOM     91  N   UNL A   1      27.101  29.089  22.754  1.00  0.00    -0.366 N 
ATOM     92  H   UNL A   1      26.138  28.890  22.699  1.00  0.00     0.165 HD
ENDBRANCH  84  87
ENDBRANCH  80  84
ENDBRANCH  75  78
ENDBRANCH  73  74
ENDBRANCH  72  73
ENDBRANCH   1  72
TORSDOF 13
ENDMDL
MODEL 3
REMARK VINA RESULT:     -12.2      1.328      2.085
REMARK SMILES O=C(NCCCCNC(=O)[C@H]1CCCCN1S(=O)(=O)c1cc[nH]c1)c1ccc(-c2c3nc(c(-c4c(F)c(F)c(F)c(F)c4F)c4ccc([nH]4)c(-c4c(F)c(F)c(F)c(F)c4F)c4nc(c(-c5c(F)c(F)c(F)c(F)c5F)c5ccc2[nH]5)C=C4)C=C3)cc1
REMARK SMILES IDX 5 1 4 2 3 3 1 4 2 5 25 7 26 8 87 9 27 10 86 11 28 12 29 13
REMARK SMILES IDX 30 14 80 15 31 16 85 17 79 18 81 19 32 20 84 21 78 22 77 23
REMARK SMILES IDX 33 25 65 26 45 27 64 28 46 29 49 30 63 31 82 32 47 33 48 34
REMARK SMILES IDX 62 36 83 37 50 38 34 39 35 40 43 41 36 42 37 43 41 44 44 45
REMARK SMILES IDX 38 46 39 47 42 48 40 49 66 50 67 51 75 52 68 53 69 54 73 55
REMARK SMILES IDX 76 56 70 57 71 58 74 59 72 60 51 61 52 62 60 63 53 64 54 65
REMARK SMILES IDX 58 66 61 67 55 68 56 69 59 70 57 71 6 72 7 73 8 74 9 75
REMARK SMILES IDX 10 77 11 78 12 79 16 80 13 81 15 82 14 83 17 84 18 85 19 86
REMARK SMILES IDX 20 87 21 88 24 89 22 90 23 91
REMARK H PARENT 3 6 81 24 49 35 8 76 23 92
REMARK Flexibility Score: inf
ROOT
ATOM      1  C   UNL A   1      33.423  28.151  26.709  1.00  0.00     0.023 C 
ENDROOT
BRANCH   1   2
ATOM      2  C   UNL A   1      34.901  28.504  26.876  1.00  0.00     0.116 C 
BRANCH   2   3
ATOM      3  N   UNL A   1      35.166  29.815  27.441  1.00  0.00    -0.352 N 
ATOM      4  O   UNL A   1      36.250  31.644  28.120  1.00  0.00    -0.269 OA
ATOM      5  C   UNL A   1      36.316  30.445  27.845  1.00  0.00     0.251 C 
ATOM      6  H   UNL A   1      34.357  30.362  27.557  1.00  0.00     0.163 HD
BRANCH   5   7
ATOM      7  C   UNL A   1      37.596  29.727  28.066  1.00  0.00     0.039 A 
ATOM      8  C   UNL A   1      38.650  29.714  27.154  1.00  0.00     0.014 A 
ATOM      9  C   UNL A   1      37.717  28.989  29.259  1.00  0.00     0.014 A 
ATOM     10  C   UNL A   1      39.725  28.860  27.337  1.00  0.00     0.010 A 
ATOM     11  C   UNL A   1      38.823  28.171  29.482  1.00  0.00     0.010 A 
ATOM     12  C   UNL A   1      39.813  28.091  28.501  1.00  0.00    -0.014 A 
BRANCH  12  13
ATOM     13  C   UNL A   1      41.126  27.464  28.753  1.00  0.00     0.031 A 
ATOM     14  C   UNL A   1      41.113  26.012  28.194  1.00  0.00     0.074 A 
ATOM     15  C   UNL A   1      42.028  28.183  29.495  1.00  0.00     0.049 A 
ATOM     16  N   UNL A   1      41.748  24.956  28.598  1.00  0.00    -0.248 NA
ATOM     17  C   UNL A   1      40.194  25.663  27.068  1.00  0.00     0.031 C 
ATOM     18  C   UNL A   1      41.866  29.602  29.901  1.00  0.00     0.029 A 
ATOM     19  N   UNL A   1      43.250  27.888  30.078  1.00  0.00    -0.354 N 
ATOM     20  C   UNL A   1      41.497  23.915  27.669  1.00  0.00     0.074 A 
ATOM     21  C   UNL A   1      40.431  24.370  26.836  1.00  0.00     0.031 C 
ATOM     22  C   UNL A   1      42.872  30.001  30.715  1.00  0.00     0.029 A 
ATOM     23  C   UNL A   1      43.800  28.906  30.920  1.00  0.00     0.049 A 
ATOM     24  H   UNL A   1      43.710  27.032  29.922  1.00  0.00     0.167 HD
ATOM     25  C   UNL A   1      42.306  22.817  27.557  1.00  0.00     0.037 A 
ATOM     26  C   UNL A   1      44.901  28.843  31.745  1.00  0.00     0.037 A 
ATOM     27  C   UNL A   1      43.307  22.877  28.563  1.00  0.00     0.049 A 
ATOM     28  C   UNL A   1      45.520  27.561  31.406  1.00  0.00     0.074 A 
ATOM     29  C   UNL A   1      43.240  22.729  29.923  1.00  0.00     0.029 A 
ATOM     30  N   UNL A   1      44.470  23.524  28.225  1.00  0.00    -0.354 N 
ATOM     31  N   UNL A   1      46.182  27.343  30.312  1.00  0.00    -0.248 NA
ATOM     32  C   UNL A   1      45.343  26.426  32.318  1.00  0.00     0.031 C 
ATOM     33  C   UNL A   1      44.095  23.748  30.382  1.00  0.00     0.029 A 
ATOM     34  C   UNL A   1      44.856  24.250  29.317  1.00  0.00     0.049 A 
ATOM     35  H   UNL A   1      44.937  23.475  27.360  1.00  0.00     0.167 HD
ATOM     36  C   UNL A   1      46.174  25.975  30.255  1.00  0.00     0.074 A 
ATOM     37  C   UNL A   1      45.981  25.499  31.609  1.00  0.00     0.031 C 
ATOM     38  C   UNL A   1      45.726  25.380  29.119  1.00  0.00     0.037 A 
BRANCH  25  39
ATOM     39  C   UNL A   1      42.513  21.787  26.478  1.00  0.00     0.064 A 
ATOM     40  C   UNL A   1      42.050  20.466  26.728  1.00  0.00     0.173 A 
ATOM     41  C   UNL A   1      43.453  21.922  25.451  1.00  0.00     0.173 A 
ATOM     42  F   UNL A   1      41.098  20.231  27.647  1.00  0.00    -0.203 F 
ATOM     43  C   UNL A   1      42.628  19.351  26.126  1.00  0.00     0.198 A 
ATOM     44  C   UNL A   1      43.990  20.801  24.808  1.00  0.00     0.198 A 
ATOM     45  F   UNL A   1      43.951  23.118  25.117  1.00  0.00    -0.203 F 
ATOM     46  F   UNL A   1      42.280  18.119  26.527  1.00  0.00    -0.200 F 
ATOM     47  C   UNL A   1      43.617  19.520  25.180  1.00  0.00     0.200 A 
ATOM     48  F   UNL A   1      44.940  20.967  23.876  1.00  0.00    -0.200 F 
ATOM     49  F   UNL A   1      44.235  18.453  24.656  1.00  0.00    -0.200 F 
ENDBRANCH  25  39
BRANCH  26  50
ATOM     50  C   UNL A   1      45.619  29.600  32.855  1.00  0.00     0.064 A 
ATOM     51  C   UNL A   1      46.868  30.222  32.768  1.00  0.00     0.173 A 
ATOM     52  C   UNL A   1      44.952  29.829  34.103  1.00  0.00     0.173 A 
ATOM     53  F   UNL A   1      47.668  30.007  31.718  1.00  0.00    -0.203 F 
ATOM     54  C   UNL A   1      47.340  31.092  33.780  1.00  0.00     0.198 A 
ATOM     55  C   UNL A   1      45.381  30.741  35.067  1.00  0.00     0.198 A 
ATOM     56  F   UNL A   1      43.833  29.173  34.441  1.00  0.00    -0.203 F 
ATOM     57  F   UNL A   1      48.544  31.667  33.655  1.00  0.00    -0.200 F 
ATOM     58  C   UNL A   1      46.574  31.391  34.897  1.00  0.00     0.200 A 
ATOM     59  F   UNL A   1      44.611  30.990  36.137  1.00  0.00    -0.200 F 
ATOM     60  F   UNL A   1      46.987  32.284  35.808  1.00  0.00    -0.200 F 
ENDBRANCH  26  50
BRANCH  38  61
ATOM     61  C   UNL A   1      45.872  26.229  27.864  1.00  0.00     0.064 A 
ATOM     62  C   UNL A   1      47.145  26.669  27.466  1.00  0.00     0.173 A 
ATOM     63  C   UNL A   1      44.797  26.729  27.111  1.00  0.00     0.173 A 
ATOM     64  F   UNL A   1      48.237  26.218  28.102  1.00  0.00    -0.203 F 
ATOM     65  C   UNL A   1      47.323  27.575  26.413  1.00  0.00     0.198 A 
ATOM     66  C   UNL A   1      44.967  27.635  26.060  1.00  0.00     0.198 A 
ATOM     67  F   UNL A   1      43.551  26.341  27.366  1.00  0.00    -0.203 F 
ATOM     68  F   UNL A   1      48.557  27.969  26.073  1.00  0.00    -0.200 F 
ATOM     69  C   UNL A   1      46.232  28.064  25.714  1.00  0.00     0.200 A 
ATOM     70  F   UNL A   1      43.900  28.082  25.377  1.00  0.00    -0.200 F 
ATOM     71  F   UNL A   1      46.403  28.922  24.699  1.00  0.00    -0.200 F 
ENDBRANCH  38  61
ENDBRANCH  12  13
ENDBRANCH   5   7
ENDBRANCH   2   3
ENDBRANCH   1   2
BRANCH   1  72
ATOM     72  C   UNL A   1      32.849  28.438  25.321  1.00  0.00     0.023 C 
BRANCH  72  73
ATOM     73  C   UNL A   1      33.400  27.557  24.201  1.00  0.00     0.116 C 
BRANCH  73  74
ATOM     74  N   UNL A   1      32.389  26.676  23.642  1.00  0.00    -0.355 N 
ATOM     75  C   UNL A   1      31.915  25.473  24.068  1.00  0.00     0.238 C 
ATOM     76  H   UNL A   1      31.975  27.007  22.813  1.00  0.00     0.163 HD
ATOM     77  O   UNL A   1      31.020  24.956  23.393  1.00  0.00    -0.273 OA
BRANCH  75  78
ATOM     78  C   UNL A   1      32.483  24.796  25.326  1.00  0.00     0.162 C 
ATOM     79  C   UNL A   1      31.504  24.946  26.501  1.00  0.00     0.030 C 
ATOM     80  N   UNL A   1      32.859  23.350  25.120  1.00  0.00    -0.185 NA
ATOM     81  C   UNL A   1      30.306  24.008  26.425  1.00  0.00     0.004 C 
ATOM     82  C   UNL A   1      31.671  22.469  24.966  1.00  0.00     0.103 C 
ATOM     83  C   UNL A   1      30.762  22.578  26.186  1.00  0.00     0.017 C 
BRANCH  80  84
ATOM     84  S   UNL A   1      34.055  23.174  23.906  1.00  0.00     0.245 S 
ATOM     85  O   UNL A   1      33.448  22.592  22.733  1.00  0.00    -0.207 OA
ATOM     86  O   UNL A   1      34.778  24.432  23.836  1.00  0.00    -0.207 OA
BRANCH  84  87
ATOM     87  C   UNL A   1      35.263  22.021  24.356  1.00  0.00     0.100 A 
ATOM     88  C   UNL A   1      36.667  22.195  24.231  1.00  0.00     0.041 A 
ATOM     89  C   UNL A   1      35.061  20.816  25.001  1.00  0.00     0.104 A 
ATOM     90  C   UNL A   1      37.270  21.078  24.766  1.00  0.00     0.083 A 
ATOM     91  N   UNL A   1      36.285  20.252  25.245  1.00  0.00    -0.366 N 
ATOM     92  H   UNL A   1      36.436  19.389  25.694  1.00  0.00     0.165 HD
ENDBRANCH  84  87
ENDBRANCH  80  84
ENDBRANCH  75  78
ENDBRANCH  73  74
ENDBRANCH  72  73
ENDBRANCH   1  72
TORSDOF 13
ENDMDL
