MODEL 1
REMARK VINA RESULT:     -14.1      0.000      0.000
REMARK SMILES Cc1ccc(-c2nc(C)c(C(=O)N3CCC(C(=O)NCCCCNC(=O)c4ccc(-c5c6nc(c(-c7c(F)c(F)c(F)c(F)c7F)c7ccc([nH]7)c(-c7c(F)c(F)c(F)c(F)c7F)c7nc(c(-c8c(F)c(F)c(F)c(F)c8F)c8ccc5[nH]8)C=C7)C=C6)cc4)CC3)s2)o1
REMARK SMILES IDX 21 1 20 2 19 3 17 4 18 5 16 7 11 8 12 9 13 10 14 11 91 12
REMARK SMILES IDX 15 13 90 14 10 15 6 16 7 17 92 18 8 19 9 20 5 21 1 22 2 23
REMARK SMILES IDX 3 24 93 25 4 26 22 27 23 28 24 29 25 30 26 32 27 33 28 34
REMARK SMILES IDX 89 35 29 36 88 37 30 38 31 39 32 40 82 41 33 42 87 43 81 44
REMARK SMILES IDX 83 45 34 46 86 47 80 48 79 49 35 51 67 52 47 53 66 54 48 55
REMARK SMILES IDX 51 56 65 57 84 58 49 59 50 60 64 62 85 63 52 64 36 65 37 66
REMARK SMILES IDX 45 67 38 68 39 69 43 70 46 71 40 72 41 73 44 74 42 75 68 76
REMARK SMILES IDX 69 77 77 78 70 79 71 80 75 81 78 82 72 83 73 84 76 85 74 86
REMARK SMILES IDX 53 87 54 88 62 89 55 90 56 91 60 92 63 93 57 94 58 95 61 96
REMARK SMILES IDX 59 97
REMARK H PARENT 19 6 24 31 83 50 51 61
REMARK Flexibility Score: inf
ROOT
ATOM      1  C   UNL A   1      31.706  30.710  26.285  1.00  0.00     0.023 C 
ENDROOT
BRANCH   1   2
ATOM      2  C   UNL A   1      33.118  30.172  26.500  1.00  0.00     0.116 C 
BRANCH   2   3
ATOM      3  N   UNL A   1      33.760  29.818  25.245  1.00  0.00    -0.356 N 
ATOM      4  C   UNL A   1      33.731  28.662  24.527  1.00  0.00     0.223 C 
ATOM      5  O   UNL A   1      34.384  28.611  23.483  1.00  0.00    -0.275 OA
ATOM      6  H   UNL A   1      34.309  30.534  24.848  1.00  0.00     0.163 HD
BRANCH   4   7
ATOM      7  C   UNL A   1      32.905  27.467  24.980  1.00  0.00     0.082 C 
ATOM      8  C   UNL A   1      32.384  23.594  23.755  1.00  0.00     0.265 C 
ATOM      9  O   UNL A   1      32.376  23.728  22.529  1.00  0.00    -0.268 OA
ATOM     10  N   UNL A   1      32.214  24.718  24.562  1.00  0.00    -0.338 N 
ATOM     11  C   UNL A   1      31.236  25.721  24.181  1.00  0.00     0.120 C 
ATOM     12  C   UNL A   1      33.055  25.030  25.707  1.00  0.00     0.120 C 
ATOM     13  C   UNL A   1      31.867  27.074  23.919  1.00  0.00     0.035 C 
ATOM     14  C   UNL A   1      33.814  26.331  25.482  1.00  0.00     0.035 C 
BRANCH   8  15
ATOM     15  C   UNL A   1      32.436  22.295  24.411  1.00  0.00     0.115 A 
ATOM     16  C   UNL A   1      32.835  19.932  24.850  1.00  0.00     0.159 A 
ATOM     17  N   UNL A   1      31.874  20.375  25.627  1.00  0.00    -0.237 NA
ATOM     18  S   UNL A   1      33.575  21.114  23.860  1.00  0.00    -0.105 S 
ATOM     19  C   UNL A   1      31.620  21.713  25.375  1.00  0.00     0.062 A 
ATOM     20  C   UNL A   1      30.468  22.292  26.114  1.00  0.00     0.068 C 
BRANCH  16  21
ATOM     21  C   UNL A   1      33.175  18.538  24.816  1.00  0.00     0.162 A 
ATOM     22  C   UNL A   1      32.221  15.218  25.779  1.00  0.00     0.087 C 
ATOM     23  C   UNL A   1      32.956  16.372  25.225  1.00  0.00     0.101 A 
ATOM     24  C   UNL A   1      34.143  16.514  24.546  1.00  0.00     0.046 A 
ATOM     25  O   UNL A   1      32.375  17.587  25.403  1.00  0.00    -0.459 OA
ATOM     26  C   UNL A   1      34.277  17.900  24.268  1.00  0.00     0.054 A 
ENDBRANCH  16  21
ENDBRANCH   8  15
ENDBRANCH   4   7
ENDBRANCH   2   3
ENDBRANCH   1   2
BRANCH   1  27
ATOM     27  C   UNL A   1      31.420  32.035  26.987  1.00  0.00     0.023 C 
BRANCH  27  28
ATOM     28  C   UNL A   1      32.655  32.840  27.367  1.00  0.00     0.116 C 
BRANCH  28  29
ATOM     29  N   UNL A   1      32.363  34.236  27.657  1.00  0.00    -0.352 N 
ATOM     30  C   UNL A   1      32.971  35.071  28.562  1.00  0.00     0.251 C 
ATOM     31  H   UNL A   1      31.631  34.636  27.134  1.00  0.00     0.163 HD
ATOM     32  O   UNL A   1      32.529  36.197  28.771  1.00  0.00    -0.269 OA
BRANCH  30  33
ATOM     33  C   UNL A   1      34.145  34.588  29.314  1.00  0.00     0.039 A 
ATOM     34  C   UNL A   1      33.951  34.015  30.572  1.00  0.00     0.014 A 
ATOM     35  C   UNL A   1      35.425  34.659  28.757  1.00  0.00     0.014 A 
ATOM     36  C   UNL A   1      35.034  33.446  31.244  1.00  0.00     0.010 A 
ATOM     37  C   UNL A   1      36.486  34.025  29.392  1.00  0.00     0.010 A 
ATOM     38  C   UNL A   1      36.302  33.412  30.642  1.00  0.00    -0.014 A 
BRANCH  38  39
ATOM     39  C   UNL A   1      37.448  32.735  31.299  1.00  0.00     0.031 A 
ATOM     40  C   UNL A   1      38.126  31.577  30.620  1.00  0.00     0.074 A 
ATOM     41  C   UNL A   1      37.828  33.115  32.535  1.00  0.00     0.049 A 
ATOM     42  N   UNL A   1      39.089  30.808  31.061  1.00  0.00    -0.248 NA
ATOM     43  C   UNL A   1      37.639  31.217  29.279  1.00  0.00     0.031 C 
ATOM     44  C   UNL A   1      37.213  34.189  33.319  1.00  0.00     0.029 A 
ATOM     45  N   UNL A   1      38.815  32.629  33.358  1.00  0.00    -0.354 N 
ATOM     46  C   UNL A   1      39.303  29.863  30.067  1.00  0.00     0.074 A 
ATOM     47  C   UNL A   1      38.344  30.125  29.017  1.00  0.00     0.031 C 
ATOM     48  C   UNL A   1      37.850  34.295  34.497  1.00  0.00     0.029 A 
ATOM     49  C   UNL A   1      38.890  33.273  34.569  1.00  0.00     0.049 A 
ATOM     50  H   UNL A   1      39.413  31.890  33.103  1.00  0.00     0.167 HD
ATOM     51  C   UNL A   1      40.229  28.877  30.027  1.00  0.00     0.037 A 
ATOM     52  C   UNL A   1      39.700  33.055  35.623  1.00  0.00     0.037 A 
ATOM     53  C   UNL A   1      41.214  28.651  31.052  1.00  0.00     0.049 A 
ATOM     54  C   UNL A   1      40.728  31.957  35.540  1.00  0.00     0.074 A 
ATOM     55  C   UNL A   1      42.256  27.740  31.058  1.00  0.00     0.029 A 
ATOM     56  N   UNL A   1      41.277  29.341  32.252  1.00  0.00    -0.354 N 
ATOM     57  N   UNL A   1      40.982  31.131  34.555  1.00  0.00    -0.248 NA
ATOM     58  C   UNL A   1      41.587  31.764  36.718  1.00  0.00     0.031 C 
ATOM     59  C   UNL A   1      42.919  27.844  32.284  1.00  0.00     0.029 A 
ATOM     60  C   UNL A   1      42.324  28.856  33.019  1.00  0.00     0.049 A 
ATOM     61  H   UNL A   1      40.670  30.069  32.519  1.00  0.00     0.167 HD
ATOM     62  C   UNL A   1      42.049  30.350  34.978  1.00  0.00     0.074 A 
ATOM     63  C   UNL A   1      42.405  30.809  36.303  1.00  0.00     0.031 C 
ATOM     64  C   UNL A   1      42.678  29.341  34.328  1.00  0.00     0.037 A 
BRANCH  51  65
ATOM     65  C   UNL A   1      40.237  27.964  28.836  1.00  0.00     0.064 A 
ATOM     66  C   UNL A   1      40.966  28.271  27.677  1.00  0.00     0.173 A 
ATOM     67  C   UNL A   1      39.566  26.734  28.884  1.00  0.00     0.173 A 
ATOM     68  F   UNL A   1      41.615  29.440  27.578  1.00  0.00    -0.203 F 
ATOM     69  C   UNL A   1      41.010  27.385  26.604  1.00  0.00     0.198 A 
ATOM     70  C   UNL A   1      39.635  25.837  27.821  1.00  0.00     0.198 A 
ATOM     71  F   UNL A   1      38.858  26.391  29.971  1.00  0.00    -0.203 F 
ATOM     72  F   UNL A   1      41.685  27.712  25.494  1.00  0.00    -0.200 F 
ATOM     73  C   UNL A   1      40.354  26.165  26.682  1.00  0.00     0.200 A 
ATOM     74  F   UNL A   1      39.012  24.654  27.902  1.00  0.00    -0.200 F 
ATOM     75  F   UNL A   1      40.413  25.305  25.655  1.00  0.00    -0.200 F 
ENDBRANCH  51  65
BRANCH  52  76
ATOM     76  C   UNL A   1      39.594  33.897  36.844  1.00  0.00     0.064 A 
ATOM     77  C   UNL A   1      38.812  33.487  37.935  1.00  0.00     0.173 A 
ATOM     78  C   UNL A   1      40.229  35.144  36.931  1.00  0.00     0.173 A 
ATOM     79  F   UNL A   1      38.167  32.312  37.890  1.00  0.00    -0.203 F 
ATOM     80  C   UNL A   1      38.642  34.307  39.048  1.00  0.00     0.198 A 
ATOM     81  C   UNL A   1      40.083  35.950  38.059  1.00  0.00     0.198 A 
ATOM     82  F   UNL A   1      40.991  35.582  35.919  1.00  0.00    -0.203 F 
ATOM     83  F   UNL A   1      37.836  33.917  40.046  1.00  0.00    -0.200 F 
ATOM     84  C   UNL A   1      39.279  35.536  39.111  1.00  0.00     0.200 A 
ATOM     85  F   UNL A   1      40.711  37.131  38.122  1.00  0.00    -0.200 F 
ATOM     86  F   UNL A   1      39.108  36.329  40.178  1.00  0.00    -0.200 F 
ENDBRANCH  52  76
BRANCH  64  87
ATOM     87  C   UNL A   1      43.847  28.699  35.016  1.00  0.00     0.064 A 
ATOM     88  C   UNL A   1      45.153  29.187  34.862  1.00  0.00     0.173 A 
ATOM     89  C   UNL A   1      43.650  27.607  35.875  1.00  0.00     0.173 A 
ATOM     90  F   UNL A   1      45.395  30.219  34.040  1.00  0.00    -0.203 F 
ATOM     91  C   UNL A   1      46.222  28.587  35.521  1.00  0.00     0.198 A 
ATOM     92  C   UNL A   1      44.717  27.031  36.559  1.00  0.00     0.198 A 
ATOM     93  F   UNL A   1      42.419  27.108  36.064  1.00  0.00    -0.203 F 
ATOM     94  F   UNL A   1      47.468  29.039  35.320  1.00  0.00    -0.200 F 
ATOM     95  C   UNL A   1      46.003  27.516  36.374  1.00  0.00     0.200 A 
ATOM     96  F   UNL A   1      44.500  26.007  37.394  1.00  0.00    -0.200 F 
ATOM     97  F   UNL A   1      47.032  26.946  37.015  1.00  0.00    -0.200 F 
ENDBRANCH  64  87
ENDBRANCH  38  39
ENDBRANCH  30  33
ENDBRANCH  28  29
ENDBRANCH  27  28
ENDBRANCH   1  27
TORSDOF 13
ENDMDL
MODEL 2
REMARK VINA RESULT:     -14.1      5.535     11.441
REMARK SMILES Cc1ccc(-c2nc(C)c(C(=O)N3CCC(C(=O)NCCCCNC(=O)c4ccc(-c5c6nc(c(-c7c(F)c(F)c(F)c(F)c7F)c7ccc([nH]7)c(-c7c(F)c(F)c(F)c(F)c7F)c7nc(c(-c8c(F)c(F)c(F)c(F)c8F)c8ccc5[nH]8)C=C7)C=C6)cc4)CC3)s2)o1
REMARK SMILES IDX 21 1 20 2 19 3 17 4 18 5 16 7 11 8 12 9 13 10 14 11 91 12
REMARK SMILES IDX 15 13 90 14 10 15 6 16 7 17 92 18 8 19 9 20 5 21 1 22 2 23
REMARK SMILES IDX 3 24 93 25 4 26 22 27 23 28 24 29 25 30 26 32 27 33 28 34
REMARK SMILES IDX 89 35 29 36 88 37 30 38 31 39 32 40 82 41 33 42 87 43 81 44
REMARK SMILES IDX 83 45 34 46 86 47 80 48 79 49 35 51 67 52 47 53 66 54 48 55
REMARK SMILES IDX 51 56 65 57 84 58 49 59 50 60 64 62 85 63 52 64 36 65 37 66
REMARK SMILES IDX 45 67 38 68 39 69 43 70 46 71 40 72 41 73 44 74 42 75 68 76
REMARK SMILES IDX 69 77 77 78 70 79 71 80 75 81 78 82 72 83 73 84 76 85 74 86
REMARK SMILES IDX 53 87 54 88 62 89 55 90 56 91 60 92 63 93 57 94 58 95 61 96
REMARK SMILES IDX 59 97
REMARK H PARENT 19 6 24 31 83 50 51 61
REMARK Flexibility Score: inf
ROOT
ATOM      1  C   UNL A   1      37.148  21.089  24.614  1.00  0.00     0.023 C 
ENDROOT
BRANCH   1   2
ATOM      2  C   UNL A   1      35.771  21.129  25.272  1.00  0.00     0.116 C 
BRANCH   2   3
ATOM      3  N   UNL A   1      35.025  19.903  25.042  1.00  0.00    -0.356 N 
ATOM      4  C   UNL A   1      33.688  19.692  24.889  1.00  0.00     0.223 C 
ATOM      5  O   UNL A   1      33.300  18.534  24.717  1.00  0.00    -0.275 OA
ATOM      6  H   UNL A   1      35.578  19.089  24.988  1.00  0.00     0.163 HD
BRANCH   4   7
ATOM      7  C   UNL A   1      32.695  20.844  24.911  1.00  0.00     0.082 C 
ATOM      8  C   UNL A   1      32.871  24.912  24.476  1.00  0.00     0.265 C 
ATOM      9  O   UNL A   1      33.904  25.176  25.095  1.00  0.00    -0.268 OA
ATOM     10  N   UNL A   1      32.273  23.666  24.654  1.00  0.00    -0.338 N 
ATOM     11  C   UNL A   1      32.208  23.096  25.988  1.00  0.00     0.120 C 
ATOM     12  C   UNL A   1      31.818  22.819  23.563  1.00  0.00     0.120 C 
ATOM     13  C   UNL A   1      32.961  21.786  26.094  1.00  0.00     0.035 C 
ATOM     14  C   UNL A   1      32.602  21.514  23.529  1.00  0.00     0.035 C 
BRANCH   8  15
ATOM     15  C   UNL A   1      32.165  25.888  23.656  1.00  0.00     0.115 A 
ATOM     16  C   UNL A   1      30.510  27.492  22.869  1.00  0.00     0.159 A 
ATOM     17  N   UNL A   1      31.172  26.996  21.850  1.00  0.00    -0.237 NA
ATOM     18  S   UNL A   1      31.042  26.968  24.408  1.00  0.00    -0.105 S 
ATOM     19  C   UNL A   1      32.104  26.066  22.279  1.00  0.00     0.062 A 
ATOM     20  C   UNL A   1      32.833  25.350  21.199  1.00  0.00     0.068 C 
BRANCH  16  21
ATOM     21  C   UNL A   1      29.386  28.362  22.668  1.00  0.00     0.162 A 
ATOM     22  C   UNL A   1      28.108  31.212  20.906  1.00  0.00     0.087 C 
ATOM     23  C   UNL A   1      28.243  30.059  21.817  1.00  0.00     0.101 A 
ATOM     24  C   UNL A   1      27.414  29.463  22.738  1.00  0.00     0.046 A 
ATOM     25  O   UNL A   1      29.437  29.410  21.780  1.00  0.00    -0.459 OA
ATOM     26  C   UNL A   1      28.138  28.365  23.271  1.00  0.00     0.054 A 
ENDBRANCH  16  21
ENDBRANCH   8  15
ENDBRANCH   4   7
ENDBRANCH   2   3
ENDBRANCH   1   2
BRANCH   1  27
ATOM     27  C   UNL A   1      38.007  19.893  25.016  1.00  0.00     0.023 C 
BRANCH  27  28
ATOM     28  C   UNL A   1      39.269  20.241  25.793  1.00  0.00     0.116 C 
BRANCH  28  29
ATOM     29  N   UNL A   1      40.223  19.143  25.858  1.00  0.00    -0.352 N 
ATOM     30  C   UNL A   1      41.575  19.193  26.091  1.00  0.00     0.251 C 
ATOM     31  H   UNL A   1      39.848  18.244  25.715  1.00  0.00     0.163 HD
ATOM     32  O   UNL A   1      42.264  18.182  26.000  1.00  0.00    -0.269 OA
BRANCH  30  33
ATOM     33  C   UNL A   1      42.203  20.488  26.420  1.00  0.00     0.039 A 
ATOM     34  C   UNL A   1      42.724  21.265  25.384  1.00  0.00     0.014 A 
ATOM     35  C   UNL A   1      42.235  20.949  27.739  1.00  0.00     0.014 A 
ATOM     36  C   UNL A   1      43.214  22.542  25.662  1.00  0.00     0.010 A 
ATOM     37  C   UNL A   1      42.652  22.249  28.001  1.00  0.00     0.010 A 
ATOM     38  C   UNL A   1      43.145  23.059  26.966  1.00  0.00    -0.014 A 
BRANCH  38  39
ATOM     39  C   UNL A   1      43.579  24.446  27.268  1.00  0.00     0.031 A 
ATOM     40  C   UNL A   1      42.584  25.447  27.786  1.00  0.00     0.074 A 
ATOM     41  C   UNL A   1      44.847  24.821  27.006  1.00  0.00     0.049 A 
ATOM     42  N   UNL A   1      42.747  26.723  28.036  1.00  0.00    -0.248 NA
ATOM     43  C   UNL A   1      41.217  24.960  28.029  1.00  0.00     0.031 C 
ATOM     44  C   UNL A   1      45.890  23.955  26.453  1.00  0.00     0.029 A 
ATOM     45  N   UNL A   1      45.471  26.035  27.158  1.00  0.00    -0.354 N 
ATOM     46  C   UNL A   1      41.503  27.190  28.438  1.00  0.00     0.074 A 
ATOM     47  C   UNL A   1      40.584  26.076  28.360  1.00  0.00     0.031 C 
ATOM     48  C   UNL A   1      47.028  24.658  26.332  1.00  0.00     0.029 A 
ATOM     49  C   UNL A   1      46.786  26.032  26.760  1.00  0.00     0.049 A 
ATOM     50  H   UNL A   1      45.019  26.832  27.518  1.00  0.00     0.167 HD
ATOM     51  C   UNL A   1      41.164  28.433  28.853  1.00  0.00     0.037 A 
ATOM     52  C   UNL A   1      47.691  27.029  26.736  1.00  0.00     0.037 A 
ATOM     53  C   UNL A   1      42.093  29.525  28.976  1.00  0.00     0.049 A 
ATOM     54  C   UNL A   1      47.284  28.399  27.216  1.00  0.00     0.074 A 
ATOM     55  C   UNL A   1      41.867  30.795  29.479  1.00  0.00     0.029 A 
ATOM     56  N   UNL A   1      43.424  29.477  28.591  1.00  0.00    -0.354 N 
ATOM     57  N   UNL A   1      46.129  28.804  27.683  1.00  0.00    -0.248 NA
ATOM     58  C   UNL A   1      48.312  29.449  27.168  1.00  0.00     0.031 C 
ATOM     59  C   UNL A   1      43.048  31.532  29.351  1.00  0.00     0.029 A 
ATOM     60  C   UNL A   1      44.024  30.705  28.818  1.00  0.00     0.049 A 
ATOM     61  H   UNL A   1      43.875  28.688  28.213  1.00  0.00     0.167 HD
ATOM     62  C   UNL A   1      46.301  30.140  28.019  1.00  0.00     0.074 A 
ATOM     63  C   UNL A   1      47.675  30.474  27.716  1.00  0.00     0.031 C 
ATOM     64  C   UNL A   1      45.401  31.013  28.532  1.00  0.00     0.037 A 
BRANCH  51  65
ATOM     65  C   UNL A   1      39.731  28.689  29.215  1.00  0.00     0.064 A 
ATOM     66  C   UNL A   1      39.253  28.489  30.518  1.00  0.00     0.173 A 
ATOM     67  C   UNL A   1      38.844  29.213  28.264  1.00  0.00     0.173 A 
ATOM     68  F   UNL A   1      40.059  27.979  31.462  1.00  0.00    -0.203 F 
ATOM     69  C   UNL A   1      37.934  28.788  30.851  1.00  0.00     0.198 A 
ATOM     70  C   UNL A   1      37.534  29.538  28.606  1.00  0.00     0.198 A 
ATOM     71  F   UNL A   1      39.253  29.428  27.004  1.00  0.00    -0.203 F 
ATOM     72  F   UNL A   1      37.489  28.557  32.094  1.00  0.00    -0.200 F 
ATOM     73  C   UNL A   1      37.081  29.323  29.898  1.00  0.00     0.200 A 
ATOM     74  F   UNL A   1      36.714  30.067  27.688  1.00  0.00    -0.200 F 
ATOM     75  F   UNL A   1      35.817  29.628  30.225  1.00  0.00    -0.200 F 
ENDBRANCH  51  65
BRANCH  52  76
ATOM     76  C   UNL A   1      49.077  26.781  26.258  1.00  0.00     0.064 A 
ATOM     77  C   UNL A   1      49.434  27.032  24.925  1.00  0.00     0.173 A 
ATOM     78  C   UNL A   1      50.058  26.246  27.105  1.00  0.00     0.173 A 
ATOM     79  F   UNL A   1      48.525  27.523  24.070  1.00  0.00    -0.203 F 
ATOM     80  C   UNL A   1      50.707  26.724  24.449  1.00  0.00     0.198 A 
ATOM     81  C   UNL A   1      51.341  25.968  26.636  1.00  0.00     0.198 A 
ATOM     82  F   UNL A   1      49.771  25.990  28.389  1.00  0.00    -0.203 F 
ATOM     83  F   UNL A   1      51.000  26.913  23.155  1.00  0.00    -0.200 F 
ATOM     84  C   UNL A   1      51.661  26.195  25.306  1.00  0.00     0.200 A 
ATOM     85  F   UNL A   1      52.263  25.469  27.470  1.00  0.00    -0.200 F 
ATOM     86  F   UNL A   1      52.882  25.890  24.846  1.00  0.00    -0.200 F 
ENDBRANCH  52  76
BRANCH  64  87
ATOM     87  C   UNL A   1      45.885  32.399  28.846  1.00  0.00     0.064 A 
ATOM     88  C   UNL A   1      45.799  33.440  27.911  1.00  0.00     0.173 A 
ATOM     89  C   UNL A   1      46.404  32.696  30.116  1.00  0.00     0.173 A 
ATOM     90  F   UNL A   1      45.325  33.204  26.679  1.00  0.00    -0.203 F 
ATOM     91  C   UNL A   1      46.240  34.722  28.227  1.00  0.00     0.198 A 
ATOM     92  C   UNL A   1      46.812  33.986  30.439  1.00  0.00     0.198 A 
ATOM     93  F   UNL A   1      46.499  31.736  31.049  1.00  0.00    -0.203 F 
ATOM     94  F   UNL A   1      46.194  35.691  27.301  1.00  0.00    -0.200 F 
ATOM     95  C   UNL A   1      46.738  34.996  29.492  1.00  0.00     0.200 A 
ATOM     96  F   UNL A   1      47.279  34.251  31.667  1.00  0.00    -0.200 F 
ATOM     97  F   UNL A   1      47.153  36.233  29.797  1.00  0.00    -0.200 F 
ENDBRANCH  64  87
ENDBRANCH  38  39
ENDBRANCH  30  33
ENDBRANCH  28  29
ENDBRANCH  27  28
ENDBRANCH   1  27
TORSDOF 13
ENDMDL
MODEL 3
REMARK VINA RESULT:     -14.1      5.616     11.474
REMARK SMILES Cc1ccc(-c2nc(C)c(C(=O)N3CCC(C(=O)NCCCCNC(=O)c4ccc(-c5c6nc(c(-c7c(F)c(F)c(F)c(F)c7F)c7ccc([nH]7)c(-c7c(F)c(F)c(F)c(F)c7F)c7nc(c(-c8c(F)c(F)c(F)c(F)c8F)c8ccc5[nH]8)C=C7)C=C6)cc4)CC3)s2)o1
REMARK SMILES IDX 21 1 20 2 19 3 17 4 18 5 16 7 11 8 12 9 13 10 14 11 91 12
REMARK SMILES IDX 15 13 90 14 10 15 6 16 7 17 92 18 8 19 9 20 5 21 1 22 2 23
REMARK SMILES IDX 3 24 93 25 4 26 22 27 23 28 24 29 25 30 26 32 27 33 28 34
REMARK SMILES IDX 89 35 29 36 88 37 30 38 31 39 32 40 82 41 33 42 87 43 81 44
REMARK SMILES IDX 83 45 34 46 86 47 80 48 79 49 35 51 67 52 47 53 66 54 48 55
REMARK SMILES IDX 51 56 65 57 84 58 49 59 50 60 64 62 85 63 52 64 36 65 37 66
REMARK SMILES IDX 45 67 38 68 39 69 43 70 46 71 40 72 41 73 44 74 42 75 68 76
REMARK SMILES IDX 69 77 77 78 70 79 71 80 75 81 78 82 72 83 73 84 76 85 74 86
REMARK SMILES IDX 53 87 54 88 62 89 55 90 56 91 60 92 63 93 57 94 58 95 61 96
REMARK SMILES IDX 59 97
REMARK H PARENT 19 6 24 31 83 50 51 61
REMARK Flexibility Score: inf
ROOT
ATOM      1  C   UNL A   1      37.077  21.180  24.627  1.00  0.00     0.023 C 
ENDROOT
BRANCH   1   2
ATOM      2  C   UNL A   1      35.706  21.197  25.297  1.00  0.00     0.116 C 
BRANCH   2   3
ATOM      3  N   UNL A   1      34.971  19.965  25.059  1.00  0.00    -0.356 N 
ATOM      4  C   UNL A   1      33.639  19.744  24.890  1.00  0.00     0.223 C 
ATOM      5  O   UNL A   1      33.261  18.584  24.714  1.00  0.00    -0.275 OA
ATOM      6  H   UNL A   1      35.531  19.155  25.014  1.00  0.00     0.163 HD
BRANCH   4   7
ATOM      7  C   UNL A   1      32.637  20.889  24.898  1.00  0.00     0.082 C 
ATOM      8  C   UNL A   1      32.797  24.965  24.529  1.00  0.00     0.265 C 
ATOM      9  O   UNL A   1      33.809  25.227  25.183  1.00  0.00    -0.268 OA
ATOM     10  N   UNL A   1      32.203  23.713  24.669  1.00  0.00    -0.338 N 
ATOM     11  C   UNL A   1      32.101  23.122  25.992  1.00  0.00     0.120 C 
ATOM     12  C   UNL A   1      31.788  22.879  23.552  1.00  0.00     0.120 C 
ATOM     13  C   UNL A   1      32.859  21.815  26.102  1.00  0.00     0.035 C 
ATOM     14  C   UNL A   1      32.582  21.579  23.523  1.00  0.00     0.035 C 
BRANCH   8  15
ATOM     15  C   UNL A   1      32.111  25.948  23.701  1.00  0.00     0.115 A 
ATOM     16  C   UNL A   1      30.470  27.554  22.887  1.00  0.00     0.159 A 
ATOM     17  N   UNL A   1      31.165  27.075  21.881  1.00  0.00    -0.237 NA
ATOM     18  S   UNL A   1      30.960  27.013  24.434  1.00  0.00    -0.105 S 
ATOM     19  C   UNL A   1      32.089  26.144  22.325  1.00  0.00     0.062 A 
ATOM     20  C   UNL A   1      32.853  25.447  21.258  1.00  0.00     0.068 C 
BRANCH  16  21
ATOM     21  C   UNL A   1      29.349  28.421  22.665  1.00  0.00     0.162 A 
ATOM     22  C   UNL A   1      28.090  31.257  20.865  1.00  0.00     0.087 C 
ATOM     23  C   UNL A   1      28.215  30.111  21.786  1.00  0.00     0.101 A 
ATOM     24  C   UNL A   1      27.374  29.520  22.700  1.00  0.00     0.046 A 
ATOM     25  O   UNL A   1      29.410  29.463  21.769  1.00  0.00    -0.459 OA
ATOM     26  C   UNL A   1      28.093  28.427  23.251  1.00  0.00     0.054 A 
ENDBRANCH  16  21
ENDBRANCH   8  15
ENDBRANCH   4   7
ENDBRANCH   2   3
ENDBRANCH   1   2
BRANCH   1  27
ATOM     27  C   UNL A   1      37.945  19.978  24.990  1.00  0.00     0.023 C 
BRANCH  27  28
ATOM     28  C   UNL A   1      39.227  20.314  25.739  1.00  0.00     0.116 C 
BRANCH  28  29
ATOM     29  N   UNL A   1      40.147  19.190  25.835  1.00  0.00    -0.352 N 
ATOM     30  C   UNL A   1      41.498  19.204  26.077  1.00  0.00     0.251 C 
ATOM     31  H   UNL A   1      39.746  18.300  25.710  1.00  0.00     0.163 HD
ATOM     32  O   UNL A   1      42.157  18.170  26.013  1.00  0.00    -0.269 OA
BRANCH  30  33
ATOM     33  C   UNL A   1      42.163  20.486  26.381  1.00  0.00     0.039 A 
ATOM     34  C   UNL A   1      42.616  21.277  25.325  1.00  0.00     0.014 A 
ATOM     35  C   UNL A   1      42.297  20.923  27.703  1.00  0.00     0.014 A 
ATOM     36  C   UNL A   1      43.140  22.544  25.588  1.00  0.00     0.010 A 
ATOM     37  C   UNL A   1      42.746  22.214  27.956  1.00  0.00     0.010 A 
ATOM     38  C   UNL A   1      43.172  23.038  26.903  1.00  0.00    -0.014 A 
BRANCH  38  39
ATOM     39  C   UNL A   1      43.642  24.414  27.196  1.00  0.00     0.031 A 
ATOM     40  C   UNL A   1      42.675  25.443  27.712  1.00  0.00     0.074 A 
ATOM     41  C   UNL A   1      44.918  24.755  26.929  1.00  0.00     0.049 A 
ATOM     42  N   UNL A   1      42.872  26.715  27.955  1.00  0.00    -0.248 NA
ATOM     43  C   UNL A   1      41.297  24.993  27.962  1.00  0.00     0.031 C 
ATOM     44  C   UNL A   1      45.937  23.859  26.376  1.00  0.00     0.029 A 
ATOM     45  N   UNL A   1      45.575  25.953  27.072  1.00  0.00    -0.354 N 
ATOM     46  C   UNL A   1      41.642  27.217  28.359  1.00  0.00     0.074 A 
ATOM     47  C   UNL A   1      40.694  26.127  28.290  1.00  0.00     0.031 C 
ATOM     48  C   UNL A   1      47.093  24.532  26.248  1.00  0.00     0.029 A 
ATOM     49  C   UNL A   1      46.888  25.915  26.671  1.00  0.00     0.049 A 
ATOM     50  H   UNL A   1      45.144  26.763  27.430  1.00  0.00     0.167 HD
ATOM     51  C   UNL A   1      41.337  28.470  28.769  1.00  0.00     0.037 A 
ATOM     52  C   UNL A   1      47.818  26.888  26.638  1.00  0.00     0.037 A 
ATOM     53  C   UNL A   1      42.294  29.538  28.884  1.00  0.00     0.049 A 
ATOM     54  C   UNL A   1      47.448  28.269  27.112  1.00  0.00     0.074 A 
ATOM     55  C   UNL A   1      42.102  30.816  29.381  1.00  0.00     0.029 A 
ATOM     56  N   UNL A   1      43.622  29.454  28.495  1.00  0.00    -0.354 N 
ATOM     57  N   UNL A   1      46.305  28.707  27.581  1.00  0.00    -0.248 NA
ATOM     58  C   UNL A   1      48.502  29.293  27.057  1.00  0.00     0.031 C 
ATOM     59  C   UNL A   1      43.301  31.521  29.245  1.00  0.00     0.029 A 
ATOM     60  C   UNL A   1      44.254  30.667  28.714  1.00  0.00     0.049 A 
ATOM     61  H   UNL A   1      44.051  28.651  28.119  1.00  0.00     0.167 HD
ATOM     62  C   UNL A   1      46.513  30.040  27.910  1.00  0.00     0.074 A 
ATOM     63  C   UNL A   1      47.895  30.337  27.601  1.00  0.00     0.031 C 
ATOM     64  C   UNL A   1      45.637  30.938  28.421  1.00  0.00     0.037 A 
BRANCH  51  65
ATOM     65  C   UNL A   1      39.912  28.765  29.135  1.00  0.00     0.064 A 
ATOM     66  C   UNL A   1      38.984  29.215  28.184  1.00  0.00     0.173 A 
ATOM     67  C   UNL A   1      39.453  28.524  30.438  1.00  0.00     0.173 A 
ATOM     68  F   UNL A   1      39.376  29.472  26.927  1.00  0.00    -0.203 F 
ATOM     69  C   UNL A   1      37.652  29.428  28.529  1.00  0.00     0.198 A 
ATOM     70  C   UNL A   1      38.114  28.710  30.773  1.00  0.00     0.198 A 
ATOM     71  F   UNL A   1      40.299  28.088  31.384  1.00  0.00    -0.203 F 
ATOM     72  F   UNL A   1      36.790  29.890  27.613  1.00  0.00    -0.200 F 
ATOM     73  C   UNL A   1      37.217  29.165  29.819  1.00  0.00     0.200 A 
ATOM     74  F   UNL A   1      37.692  28.443  32.016  1.00  0.00    -0.200 F 
ATOM     75  F   UNL A   1      35.930  29.352  30.144  1.00  0.00    -0.200 F 
ENDBRANCH  51  65
BRANCH  52  76
ATOM     76  C   UNL A   1      49.196  26.601  26.157  1.00  0.00     0.064 A 
ATOM     77  C   UNL A   1      50.171  26.094  27.030  1.00  0.00     0.173 A 
ATOM     78  C   UNL A   1      49.580  26.868  24.836  1.00  0.00     0.173 A 
ATOM     79  F   UNL A   1      49.858  25.842  28.309  1.00  0.00    -0.203 F 
ATOM     80  C   UNL A   1      51.485  25.900  26.608  1.00  0.00     0.198 A 
ATOM     81  C   UNL A   1      50.887  26.645  24.407  1.00  0.00     0.198 A 
ATOM     82  F   UNL A   1      48.687  27.351  23.961  1.00  0.00    -0.203 F 
ATOM     83  F   UNL A   1      52.410  25.477  27.480  1.00  0.00    -0.200 F 
ATOM     84  C   UNL A   1      51.842  26.173  25.296  1.00  0.00     0.200 A 
ATOM     85  F   UNL A   1      51.225  26.898  23.135  1.00  0.00    -0.200 F 
ATOM     86  F   UNL A   1      53.107  25.996  24.893  1.00  0.00    -0.200 F 
ENDBRANCH  52  76
BRANCH  64  87
ATOM     87  C   UNL A   1      46.159  32.312  28.727  1.00  0.00     0.064 A 
ATOM     88  C   UNL A   1      46.716  32.629  29.974  1.00  0.00     0.173 A 
ATOM     89  C   UNL A   1      46.137  33.312  27.743  1.00  0.00     0.173 A 
ATOM     90  F   UNL A   1      46.746  31.712  30.953  1.00  0.00    -0.203 F 
ATOM     91  C   UNL A   1      47.208  33.905  30.234  1.00  0.00     0.198 A 
ATOM     92  C   UNL A   1      46.661  34.577  27.995  1.00  0.00     0.198 A 
ATOM     93  F   UNL A   1      45.622  33.057  26.531  1.00  0.00    -0.203 F 
ATOM     94  F   UNL A   1      47.692  34.199  31.449  1.00  0.00    -0.200 F 
ATOM     95  C   UNL A   1      47.187  34.875  29.243  1.00  0.00     0.200 A 
ATOM     96  F   UNL A   1      46.653  35.507  27.031  1.00  0.00    -0.200 F 
ATOM     97  F   UNL A   1      47.670  36.100  29.491  1.00  0.00    -0.200 F 
ENDBRANCH  64  87
ENDBRANCH  38  39
ENDBRANCH  30  33
ENDBRANCH  28  29
ENDBRANCH  27  28
ENDBRANCH   1  27
TORSDOF 13
ENDMDL
