MODEL 1
REMARK VINA RESULT:     -12.0      0.000      0.000
REMARK SMILES C[C@@H](C(=O)NCCCCNC(=O)c1ccc(-c2c3nc(c(-c4c(F)c(F)c(F)c(F)c4F)c4ccc([nH]4)c(-c4c(F)c(F)c(F)c(F)c4F)c4nc(c(-c5c(F)c(F)c(F)c(F)c5F)c5ccc2[nH]5)C=C4)C=C3)cc1)c1ccc(C[C@@H]2CCC[C@@H]2O)cc1Br
REMARK SMILES IDX 6 1 5 2 3 3 4 4 2 6 1 7 76 8 77 9 88 10 78 11 87 12 89 13
REMARK SMILES IDX 79 14 80 15 81 16 82 17 85 18 83 19 84 20 86 21 7 23 8 24
REMARK SMILES IDX 9 25 10 26 11 27 12 29 13 30 14 31 75 32 15 33 74 34 16 35
REMARK SMILES IDX 17 36 18 37 68 38 19 39 73 40 67 41 69 42 20 43 72 44 66 45
REMARK SMILES IDX 65 46 21 48 53 49 33 50 52 51 34 52 37 53 51 54 70 55 35 56
REMARK SMILES IDX 36 57 50 59 71 60 38 61 22 62 23 63 31 64 24 65 25 66 29 67
REMARK SMILES IDX 32 68 26 69 27 70 30 71 28 72 54 73 55 74 63 75 56 76 57 77
REMARK SMILES IDX 61 78 64 79 58 80 59 81 62 82 60 83 39 84 40 85 48 86 41 87
REMARK SMILES IDX 42 88 46 89 49 90 43 91 44 92 47 93 45 94
REMARK H PARENT 5 5 86 22 10 28 69 47 37 58
REMARK Flexibility Score: inf
ROOT
ATOM      1  C   UNL A   1      31.280  26.345  26.262  1.00  0.00     0.116 C 
ENDROOT
BRANCH   1   2
ATOM      2  N   UNL A   1      30.747  26.208  24.924  1.00  0.00    -0.356 N 
ATOM      3  C   UNL A   1      31.345  25.762  23.782  1.00  0.00     0.227 C 
ATOM      4  O   UNL A   1      30.668  25.830  22.752  1.00  0.00    -0.274 OA
ATOM      5  H   UNL A   1      29.806  26.478  24.822  1.00  0.00     0.163 HD
BRANCH   3   6
ATOM      6  C   UNL A   1      32.774  25.182  23.825  1.00  0.00     0.106 C 
ATOM      7  C   UNL A   1      33.653  25.685  22.676  1.00  0.00     0.023 C 
BRANCH   6   8
ATOM      8  C   UNL A   1      32.769  23.654  23.825  1.00  0.00    -0.022 A 
ATOM      9  C   UNL A   1      32.219  22.982  22.714  1.00  0.00     0.006 A 
ATOM     10  C   UNL A   1      33.272  22.871  24.876  1.00  0.00     0.022 A 
ATOM     11  C   UNL A   1      32.153  21.591  22.660  1.00  0.00     0.004 A 
ATOM     12  C   UNL A   1      33.192  21.473  24.823  1.00  0.00     0.019 A 
ATOM     13  Br  UNL A   1      34.075  23.613  26.433  1.00  0.00    -0.051 Br
ATOM     14  C   UNL A   1      32.607  20.821  23.729  1.00  0.00    -0.047 A 
BRANCH  14  15
ATOM     15  C   UNL A   1      32.440  19.322  23.731  1.00  0.00     0.041 C 
BRANCH  15  16
ATOM     16  C   UNL A   1      33.602  18.471  24.289  1.00  0.00     0.022 C 
ATOM     17  C   UNL A   1      34.081  17.341  23.369  1.00  0.00     0.007 C 
ATOM     18  C   UNL A   1      33.366  17.742  25.617  1.00  0.00     0.117 C 
ATOM     19  C   UNL A   1      33.460  16.045  23.896  1.00  0.00     0.003 C 
ATOM     20  C   UNL A   1      32.797  16.385  25.226  1.00  0.00     0.032 C 
BRANCH  18  21
ATOM     21  O   UNL A   1      32.528  18.457  26.502  1.00  0.00    -0.393 OA
ATOM     22  H   UNL A   1      32.564  18.049  27.381  1.00  0.00     0.210 HD
ENDBRANCH  18  21
ENDBRANCH  15  16
ENDBRANCH  14  15
ENDBRANCH   6   8
ENDBRANCH   3   6
ENDBRANCH   1   2
BRANCH   1  23
ATOM     23  C   UNL A   1      31.774  27.770  26.514  1.00  0.00     0.023 C 
BRANCH  23  24
ATOM     24  C   UNL A   1      33.275  27.983  26.292  1.00  0.00     0.023 C 
BRANCH  24  25
ATOM     25  C   UNL A   1      33.644  29.197  25.449  1.00  0.00     0.116 C 
BRANCH  25  26
ATOM     26  N   UNL A   1      33.106  30.438  25.977  1.00  0.00    -0.352 N 
ATOM     27  C   UNL A   1      33.538  31.192  27.037  1.00  0.00     0.251 C 
ATOM     28  H   UNL A   1      32.316  30.788  25.507  1.00  0.00     0.163 HD
ATOM     29  O   UNL A   1      32.872  32.158  27.408  1.00  0.00    -0.269 OA
BRANCH  27  30
ATOM     30  C   UNL A   1      34.781  30.841  27.755  1.00  0.00     0.039 A 
ATOM     31  C   UNL A   1      34.815  29.649  28.486  1.00  0.00     0.014 A 
ATOM     32  C   UNL A   1      35.895  31.686  27.747  1.00  0.00     0.014 A 
ATOM     33  C   UNL A   1      35.971  29.291  29.181  1.00  0.00     0.010 A 
ATOM     34  C   UNL A   1      37.072  31.293  28.380  1.00  0.00     0.010 A 
ATOM     35  C   UNL A   1      37.115  30.103  29.121  1.00  0.00    -0.014 A 
BRANCH  35  36
ATOM     36  C   UNL A   1      38.343  29.742  29.871  1.00  0.00     0.031 A 
ATOM     37  C   UNL A   1      38.576  30.303  31.247  1.00  0.00     0.074 A 
ATOM     38  C   UNL A   1      39.262  28.939  29.303  1.00  0.00     0.049 A 
ATOM     39  N   UNL A   1      39.587  30.116  32.058  1.00  0.00    -0.248 NA
ATOM     40  C   UNL A   1      37.550  31.218  31.771  1.00  0.00     0.031 C 
ATOM     41  C   UNL A   1      39.175  28.375  27.955  1.00  0.00     0.029 A 
ATOM     42  N   UNL A   1      40.451  28.458  29.789  1.00  0.00    -0.354 N 
ATOM     43  C   UNL A   1      39.328  30.903  33.173  1.00  0.00     0.074 A 
ATOM     44  C   UNL A   1      38.093  31.611  32.914  1.00  0.00     0.031 C 
ATOM     45  C   UNL A   1      40.249  27.599  27.735  1.00  0.00     0.029 A 
ATOM     46  C   UNL A   1      41.110  27.631  28.913  1.00  0.00     0.049 A 
ATOM     47  H   UNL A   1      40.799  28.684  30.682  1.00  0.00     0.167 HD
ATOM     48  C   UNL A   1      40.041  31.007  34.320  1.00  0.00     0.037 A 
ATOM     49  C   UNL A   1      42.273  26.967  29.052  1.00  0.00     0.037 A 
ATOM     50  C   UNL A   1      41.247  30.270  34.590  1.00  0.00     0.049 A 
ATOM     51  C   UNL A   1      43.029  27.074  30.349  1.00  0.00     0.074 A 
ATOM     52  C   UNL A   1      42.008  30.252  35.747  1.00  0.00     0.029 A 
ATOM     53  N   UNL A   1      41.866  29.416  33.691  1.00  0.00    -0.354 N 
ATOM     54  N   UNL A   1      42.734  27.759  31.427  1.00  0.00    -0.248 NA
ATOM     55  C   UNL A   1      44.273  26.298  30.454  1.00  0.00     0.031 C 
ATOM     56  C   UNL A   1      43.109  29.416  35.532  1.00  0.00     0.029 A 
ATOM     57  C   UNL A   1      43.008  28.876  34.260  1.00  0.00     0.049 A 
ATOM     58  H   UNL A   1      41.543  29.222  32.781  1.00  0.00     0.167 HD
ATOM     59  C   UNL A   1      43.732  27.471  32.348  1.00  0.00     0.074 A 
ATOM     60  C   UNL A   1      44.635  26.538  31.706  1.00  0.00     0.031 C 
ATOM     61  C   UNL A   1      43.885  27.934  33.612  1.00  0.00     0.037 A 
BRANCH  48  62
ATOM     62  C   UNL A   1      39.529  31.948  35.371  1.00  0.00     0.064 A 
ATOM     63  C   UNL A   1      38.617  31.530  36.353  1.00  0.00     0.173 A 
ATOM     64  C   UNL A   1      39.972  33.279  35.412  1.00  0.00     0.173 A 
ATOM     65  F   UNL A   1      38.152  30.272  36.351  1.00  0.00    -0.203 F 
ATOM     66  C   UNL A   1      38.145  32.418  37.317  1.00  0.00     0.198 A 
ATOM     67  C   UNL A   1      39.521  34.154  36.396  1.00  0.00     0.198 A 
ATOM     68  F   UNL A   1      40.847  33.728  34.500  1.00  0.00    -0.203 F 
ATOM     69  F   UNL A   1      37.234  32.009  38.212  1.00  0.00    -0.200 F 
ATOM     70  C   UNL A   1      38.601  33.726  37.341  1.00  0.00     0.200 A 
ATOM     71  F   UNL A   1      39.972  35.416  36.427  1.00  0.00    -0.200 F 
ATOM     72  F   UNL A   1      38.149  34.578  38.272  1.00  0.00    -0.200 F 
ENDBRANCH  48  62
BRANCH  49  73
ATOM     73  C   UNL A   1      42.767  26.097  27.955  1.00  0.00     0.064 A 
ATOM     74  C   UNL A   1      43.651  26.596  26.987  1.00  0.00     0.173 A 
ATOM     75  C   UNL A   1      42.368  24.758  27.846  1.00  0.00     0.173 A 
ATOM     76  F   UNL A   1      44.046  27.877  27.040  1.00  0.00    -0.203 F 
ATOM     77  C   UNL A   1      44.095  25.797  25.937  1.00  0.00     0.198 A 
ATOM     78  C   UNL A   1      42.835  23.951  26.809  1.00  0.00     0.198 A 
ATOM     79  F   UNL A   1      41.530  24.231  28.750  1.00  0.00    -0.203 F 
ATOM     80  F   UNL A   1      44.902  26.314  25.000  1.00  0.00    -0.200 F 
ATOM     81  C   UNL A   1      43.691  24.473  25.852  1.00  0.00     0.200 A 
ATOM     82  F   UNL A   1      42.452  22.669  26.737  1.00  0.00    -0.200 F 
ATOM     83  F   UNL A   1      44.120  23.704  24.842  1.00  0.00    -0.200 F 
ENDBRANCH  49  73
BRANCH  61  84
ATOM     84  C   UNL A   1      45.043  27.400  34.403  1.00  0.00     0.064 A 
ATOM     85  C   UNL A   1      44.928  26.248  35.196  1.00  0.00     0.173 A 
ATOM     86  C   UNL A   1      46.292  28.037  34.344  1.00  0.00     0.173 A 
ATOM     87  F   UNL A   1      43.752  25.613  35.296  1.00  0.00    -0.203 F 
ATOM     88  C   UNL A   1      46.015  25.773  35.925  1.00  0.00     0.198 A 
ATOM     89  C   UNL A   1      47.383  27.541  35.051  1.00  0.00     0.198 A 
ATOM     90  F   UNL A   1      46.455  29.137  33.595  1.00  0.00    -0.203 F 
ATOM     91  F   UNL A   1      45.869  24.701  36.717  1.00  0.00    -0.200 F 
ATOM     92  C   UNL A   1      47.242  26.415  35.847  1.00  0.00     0.200 A 
ATOM     93  F   UNL A   1      48.572  28.156  34.965  1.00  0.00    -0.200 F 
ATOM     94  F   UNL A   1      48.287  25.953  36.548  1.00  0.00    -0.200 F 
ENDBRANCH  61  84
ENDBRANCH  35  36
ENDBRANCH  27  30
ENDBRANCH  25  26
ENDBRANCH  24  25
ENDBRANCH  23  24
ENDBRANCH   1  23
TORSDOF 15
ENDMDL
MODEL 2
REMARK VINA RESULT:     -11.8      4.770      9.961
REMARK SMILES C[C@@H](C(=O)NCCCCNC(=O)c1ccc(-c2c3nc(c(-c4c(F)c(F)c(F)c(F)c4F)c4ccc([nH]4)c(-c4c(F)c(F)c(F)c(F)c4F)c4nc(c(-c5c(F)c(F)c(F)c(F)c5F)c5ccc2[nH]5)C=C4)C=C3)cc1)c1ccc(C[C@@H]2CCC[C@@H]2O)cc1Br
REMARK SMILES IDX 6 1 5 2 3 3 4 4 2 6 1 7 76 8 77 9 88 10 78 11 87 12 89 13
REMARK SMILES IDX 79 14 80 15 81 16 82 17 85 18 83 19 84 20 86 21 7 23 8 24
REMARK SMILES IDX 9 25 10 26 11 27 12 29 13 30 14 31 75 32 15 33 74 34 16 35
REMARK SMILES IDX 17 36 18 37 68 38 19 39 73 40 67 41 69 42 20 43 72 44 66 45
REMARK SMILES IDX 65 46 21 48 53 49 33 50 52 51 34 52 37 53 51 54 70 55 35 56
REMARK SMILES IDX 36 57 50 59 71 60 38 61 22 62 23 63 31 64 24 65 25 66 29 67
REMARK SMILES IDX 32 68 26 69 27 70 30 71 28 72 54 73 55 74 63 75 56 76 57 77
REMARK SMILES IDX 61 78 64 79 58 80 59 81 62 82 60 83 39 84 40 85 48 86 41 87
REMARK SMILES IDX 42 88 46 89 49 90 43 91 44 92 47 93 45 94
REMARK H PARENT 5 5 86 22 10 28 69 47 37 58
REMARK Flexibility Score: inf
ROOT
ATOM      1  C   UNL A   1      37.980  22.816  26.021  1.00  0.00     0.116 C 
ENDROOT
BRANCH   1   2
ATOM      2  N   UNL A   1      37.681  22.992  24.616  1.00  0.00    -0.356 N 
ATOM      3  C   UNL A   1      36.506  22.835  23.941  1.00  0.00     0.227 C 
ATOM      4  O   UNL A   1      36.560  22.974  22.717  1.00  0.00    -0.274 OA
ATOM      5  H   UNL A   1      38.446  23.268  24.060  1.00  0.00     0.163 HD
BRANCH   3   6
ATOM      6  C   UNL A   1      35.201  22.536  24.708  1.00  0.00     0.106 C 
ATOM      7  C   UNL A   1      34.293  21.547  23.971  1.00  0.00     0.023 C 
BRANCH   6   8
ATOM      8  C   UNL A   1      34.415  23.810  25.014  1.00  0.00    -0.022 A 
ATOM      9  C   UNL A   1      34.541  24.907  24.136  1.00  0.00     0.006 A 
ATOM     10  C   UNL A   1      33.577  23.962  26.130  1.00  0.00     0.022 A 
ATOM     11  C   UNL A   1      33.878  26.110  24.370  1.00  0.00     0.004 A 
ATOM     12  C   UNL A   1      32.922  25.178  26.368  1.00  0.00     0.019 A 
ATOM     13  Br  UNL A   1      33.270  22.576  27.395  1.00  0.00    -0.051 Br
ATOM     14  C   UNL A   1      33.088  26.272  25.507  1.00  0.00    -0.047 A 
BRANCH  14  15
ATOM     15  C   UNL A   1      32.456  27.602  25.830  1.00  0.00     0.041 C 
BRANCH  15  16
ATOM     16  C   UNL A   1      31.082  27.917  25.197  1.00  0.00     0.022 C 
ATOM     17  C   UNL A   1      30.523  26.824  24.278  1.00  0.00     0.007 C 
ATOM     18  C   UNL A   1      30.982  29.172  24.323  1.00  0.00     0.117 C 
ATOM     19  C   UNL A   1      30.796  27.270  22.839  1.00  0.00     0.003 C 
ATOM     20  C   UNL A   1      31.321  28.700  22.915  1.00  0.00     0.032 C 
BRANCH  18  21
ATOM     21  O   UNL A   1      31.812  30.226  24.766  1.00  0.00    -0.393 OA
ATOM     22  H   UNL A   1      32.121  30.737  24.001  1.00  0.00     0.210 HD
ENDBRANCH  18  21
ENDBRANCH  15  16
ENDBRANCH  14  15
ENDBRANCH   6   8
ENDBRANCH   3   6
ENDBRANCH   1   2
BRANCH   1  23
ATOM     23  C   UNL A   1      39.326  22.116  26.215  1.00  0.00     0.023 C 
BRANCH  23  24
ATOM     24  C   UNL A   1      39.450  20.753  25.525  1.00  0.00     0.023 C 
BRANCH  24  25
ATOM     25  C   UNL A   1      39.890  19.605  26.426  1.00  0.00     0.116 C 
BRANCH  25  26
ATOM     26  N   UNL A   1      41.092  18.942  25.953  1.00  0.00    -0.352 N 
ATOM     27  C   UNL A   1      42.356  19.446  25.789  1.00  0.00     0.251 C 
ATOM     28  H   UNL A   1      40.984  17.994  25.715  1.00  0.00     0.163 HD
ATOM     29  O   UNL A   1      43.223  18.754  25.258  1.00  0.00    -0.269 OA
BRANCH  27  30
ATOM     30  C   UNL A   1      42.680  20.823  26.220  1.00  0.00     0.039 A 
ATOM     31  C   UNL A   1      42.665  21.115  27.587  1.00  0.00     0.014 A 
ATOM     32  C   UNL A   1      42.959  21.833  25.294  1.00  0.00     0.014 A 
ATOM     33  C   UNL A   1      42.960  22.406  28.027  1.00  0.00     0.010 A 
ATOM     34  C   UNL A   1      43.324  23.102  25.737  1.00  0.00     0.010 A 
ATOM     35  C   UNL A   1      43.307  23.407  27.106  1.00  0.00    -0.014 A 
BRANCH  35  36
ATOM     36  C   UNL A   1      43.603  24.788  27.561  1.00  0.00     0.031 A 
ATOM     37  C   UNL A   1      45.028  25.259  27.655  1.00  0.00     0.074 A 
ATOM     38  C   UNL A   1      42.595  25.605  27.921  1.00  0.00     0.049 A 
ATOM     39  N   UNL A   1      45.493  26.422  28.037  1.00  0.00    -0.248 NA
ATOM     40  C   UNL A   1      46.072  24.286  27.298  1.00  0.00     0.031 C 
ATOM     41  C   UNL A   1      41.176  25.246  27.924  1.00  0.00     0.029 A 
ATOM     42  N   UNL A   1      42.611  26.906  28.355  1.00  0.00    -0.354 N 
ATOM     43  C   UNL A   1      46.877  26.310  27.987  1.00  0.00     0.074 A 
ATOM     44  C   UNL A   1      47.179  24.953  27.588  1.00  0.00     0.031 C 
ATOM     45  C   UNL A   1      40.456  26.313  28.309  1.00  0.00     0.029 A 
ATOM     46  C   UNL A   1      41.361  27.418  28.603  1.00  0.00     0.049 A 
ATOM     47  H   UNL A   1      43.440  27.424  28.476  1.00  0.00     0.167 HD
ATOM     48  C   UNL A   1      47.812  27.262  28.225  1.00  0.00     0.037 A 
ATOM     49  C   UNL A   1      40.992  28.647  29.012  1.00  0.00     0.037 A 
ATOM     50  C   UNL A   1      47.507  28.622  28.582  1.00  0.00     0.049 A 
ATOM     51  C   UNL A   1      42.048  29.695  29.238  1.00  0.00     0.074 A 
ATOM     52  C   UNL A   1      48.378  29.680  28.779  1.00  0.00     0.029 A 
ATOM     53  N   UNL A   1      46.227  29.113  28.791  1.00  0.00    -0.354 N 
ATOM     54  N   UNL A   1      43.349  29.601  29.110  1.00  0.00    -0.248 NA
ATOM     55  C   UNL A   1      41.580  31.026  29.649  1.00  0.00     0.031 C 
ATOM     56  C   UNL A   1      47.627  30.802  29.146  1.00  0.00     0.029 A 
ATOM     57  C   UNL A   1      46.285  30.455  29.129  1.00  0.00     0.049 A 
ATOM     58  H   UNL A   1      45.400  28.586  28.712  1.00  0.00     0.167 HD
ATOM     59  C   UNL A   1      43.852  30.865  29.389  1.00  0.00     0.074 A 
ATOM     60  C   UNL A   1      42.714  31.711  29.681  1.00  0.00     0.031 C 
ATOM     61  C   UNL A   1      45.140  31.287  29.398  1.00  0.00     0.037 A 
BRANCH  48  62
ATOM     62  C   UNL A   1      49.253  26.862  28.101  1.00  0.00     0.064 A 
ATOM     63  C   UNL A   1      50.022  26.514  29.222  1.00  0.00     0.173 A 
ATOM     64  C   UNL A   1      49.869  26.804  26.841  1.00  0.00     0.173 A 
ATOM     65  F   UNL A   1      49.485  26.566  30.450  1.00  0.00    -0.203 F 
ATOM     66  C   UNL A   1      51.360  26.153  29.091  1.00  0.00     0.198 A 
ATOM     67  C   UNL A   1      51.199  26.413  26.711  1.00  0.00     0.198 A 
ATOM     68  F   UNL A   1      49.179  27.122  25.736  1.00  0.00    -0.203 F 
ATOM     69  F   UNL A   1      52.088  25.877  30.182  1.00  0.00    -0.200 F 
ATOM     70  C   UNL A   1      51.946  26.098  27.836  1.00  0.00     0.200 A 
ATOM     71  F   UNL A   1      51.761  26.348  25.496  1.00  0.00    -0.200 F 
ATOM     72  F   UNL A   1      53.233  25.747  27.710  1.00  0.00    -0.200 F 
ENDBRANCH  48  62
BRANCH  49  73
ATOM     73  C   UNL A   1      39.552  28.972  29.180  1.00  0.00     0.064 A 
ATOM     74  C   UNL A   1      38.786  29.417  28.092  1.00  0.00     0.173 A 
ATOM     75  C   UNL A   1      38.915  28.852  30.422  1.00  0.00     0.173 A 
ATOM     76  F   UNL A   1      39.359  29.566  26.888  1.00  0.00    -0.203 F 
ATOM     77  C   UNL A   1      37.444  29.754  28.247  1.00  0.00     0.198 A 
ATOM     78  C   UNL A   1      37.564  29.164  30.569  1.00  0.00     0.198 A 
ATOM     79  F   UNL A   1      39.601  28.425  31.491  1.00  0.00    -0.203 F 
ATOM     80  F   UNL A   1      36.748  30.221  27.200  1.00  0.00    -0.200 F 
ATOM     81  C   UNL A   1      36.833  29.622  29.484  1.00  0.00     0.200 A 
ATOM     82  F   UNL A   1      36.973  29.024  31.764  1.00  0.00    -0.200 F 
ATOM     83  F   UNL A   1      35.541  29.945  29.632  1.00  0.00    -0.200 F 
ENDBRANCH  49  73
BRANCH  61  84
ATOM     84  C   UNL A   1      45.384  32.740  29.685  1.00  0.00     0.064 A 
ATOM     85  C   UNL A   1      45.387  33.704  28.666  1.00  0.00     0.173 A 
ATOM     86  C   UNL A   1      45.590  33.175  31.003  1.00  0.00     0.173 A 
ATOM     87  F   UNL A   1      45.208  33.336  27.389  1.00  0.00    -0.203 F 
ATOM     88  C   UNL A   1      45.619  35.046  28.954  1.00  0.00     0.198 A 
ATOM     89  C   UNL A   1      45.793  34.521  31.290  1.00  0.00     0.198 A 
ATOM     90  F   UNL A   1      45.590  32.293  32.014  1.00  0.00    -0.203 F 
ATOM     91  F   UNL A   1      45.669  35.943  27.958  1.00  0.00    -0.200 F 
ATOM     92  C   UNL A   1      45.816  35.454  30.265  1.00  0.00     0.200 A 
ATOM     93  F   UNL A   1      45.970  34.916  32.559  1.00  0.00    -0.200 F 
ATOM     94  F   UNL A   1      46.036  36.747  30.539  1.00  0.00    -0.200 F 
ENDBRANCH  61  84
ENDBRANCH  35  36
ENDBRANCH  27  30
ENDBRANCH  25  26
ENDBRANCH  24  25
ENDBRANCH  23  24
ENDBRANCH   1  23
TORSDOF 15
ENDMDL
MODEL 3
REMARK VINA RESULT:     -11.8      5.080     11.199
REMARK SMILES C[C@@H](C(=O)NCCCCNC(=O)c1ccc(-c2c3nc(c(-c4c(F)c(F)c(F)c(F)c4F)c4ccc([nH]4)c(-c4c(F)c(F)c(F)c(F)c4F)c4nc(c(-c5c(F)c(F)c(F)c(F)c5F)c5ccc2[nH]5)C=C4)C=C3)cc1)c1ccc(C[C@@H]2CCC[C@@H]2O)cc1Br
REMARK SMILES IDX 6 1 5 2 3 3 4 4 2 6 1 7 76 8 77 9 88 10 78 11 87 12 89 13
REMARK SMILES IDX 79 14 80 15 81 16 82 17 85 18 83 19 84 20 86 21 7 23 8 24
REMARK SMILES IDX 9 25 10 26 11 27 12 29 13 30 14 31 75 32 15 33 74 34 16 35
REMARK SMILES IDX 17 36 18 37 68 38 19 39 73 40 67 41 69 42 20 43 72 44 66 45
REMARK SMILES IDX 65 46 21 48 53 49 33 50 52 51 34 52 37 53 51 54 70 55 35 56
REMARK SMILES IDX 36 57 50 59 71 60 38 61 22 62 23 63 31 64 24 65 25 66 29 67
REMARK SMILES IDX 32 68 26 69 27 70 30 71 28 72 54 73 55 74 63 75 56 76 57 77
REMARK SMILES IDX 61 78 64 79 58 80 59 81 62 82 60 83 39 84 40 85 48 86 41 87
REMARK SMILES IDX 42 88 46 89 49 90 43 91 44 92 47 93 45 94
REMARK H PARENT 5 5 86 22 10 28 69 47 37 58
REMARK Flexibility Score: inf
ROOT
ATOM      1  C   UNL A   1      43.944  22.972  27.391  1.00  0.00     0.116 C 
ENDROOT
BRANCH   1   2
ATOM      2  N   UNL A   1      45.089  23.471  28.124  1.00  0.00    -0.356 N 
ATOM      3  C   UNL A   1      46.077  24.326  27.733  1.00  0.00     0.227 C 
ATOM      4  O   UNL A   1      46.984  24.515  28.547  1.00  0.00    -0.274 OA
ATOM      5  H   UNL A   1      45.166  23.140  29.048  1.00  0.00     0.163 HD
BRANCH   3   6
ATOM      6  C   UNL A   1      46.007  25.022  26.358  1.00  0.00     0.106 C 
ATOM      7  C   UNL A   1      47.366  25.083  25.654  1.00  0.00     0.023 C 
BRANCH   6   8
ATOM      8  C   UNL A   1      45.429  26.433  26.462  1.00  0.00    -0.022 A 
ATOM      9  C   UNL A   1      46.203  27.433  27.086  1.00  0.00     0.006 A 
ATOM     10  C   UNL A   1      44.161  26.795  25.981  1.00  0.00     0.022 A 
ATOM     11  C   UNL A   1      45.727  28.733  27.244  1.00  0.00     0.004 A 
ATOM     12  C   UNL A   1      43.681  28.101  26.153  1.00  0.00     0.019 A 
ATOM     13  Br  UNL A   1      43.002  25.580  25.088  1.00  0.00    -0.051 Br
ATOM     14  C   UNL A   1      44.446  29.074  26.810  1.00  0.00    -0.047 A 
BRANCH  14  15
ATOM     15  C   UNL A   1      43.877  30.445  27.074  1.00  0.00     0.041 C 
BRANCH  15  16
ATOM     16  C   UNL A   1      44.869  31.622  27.209  1.00  0.00     0.022 C 
ATOM     17  C   UNL A   1      45.015  32.190  28.626  1.00  0.00     0.007 C 
ATOM     18  C   UNL A   1      44.591  32.875  26.373  1.00  0.00     0.117 C 
ATOM     19  C   UNL A   1      44.173  33.468  28.681  1.00  0.00     0.003 C 
ATOM     20  C   UNL A   1      43.712  33.751  27.255  1.00  0.00     0.032 C 
BRANCH  18  21
ATOM     21  O   UNL A   1      44.004  32.589  25.120  1.00  0.00    -0.393 OA
ATOM     22  H   UNL A   1      43.047  32.480  25.229  1.00  0.00     0.210 HD
ENDBRANCH  18  21
ENDBRANCH  15  16
ENDBRANCH  14  15
ENDBRANCH   6   8
ENDBRANCH   3   6
ENDBRANCH   1   2
BRANCH   1  23
ATOM     23  C   UNL A   1      42.715  22.865  28.295  1.00  0.00     0.023 C 
BRANCH  23  24
ATOM     24  C   UNL A   1      41.548  22.065  27.707  1.00  0.00     0.023 C 
BRANCH  24  25
ATOM     25  C   UNL A   1      41.306  22.266  26.216  1.00  0.00     0.116 C 
BRANCH  25  26
ATOM     26  N   UNL A   1      39.896  22.327  25.875  1.00  0.00    -0.352 N 
ATOM     27  C   UNL A   1      38.951  23.249  26.244  1.00  0.00     0.251 C 
ATOM     28  H   UNL A   1      39.571  21.602  25.295  1.00  0.00     0.163 HD
ATOM     29  O   UNL A   1      37.771  23.063  25.949  1.00  0.00    -0.269 OA
BRANCH  27  30
ATOM     30  C   UNL A   1      39.331  24.452  27.016  1.00  0.00     0.039 A 
ATOM     31  C   UNL A   1      39.977  25.496  26.347  1.00  0.00     0.014 A 
ATOM     32  C   UNL A   1      39.095  24.543  28.391  1.00  0.00     0.014 A 
ATOM     33  C   UNL A   1      40.356  26.642  27.047  1.00  0.00     0.010 A 
ATOM     34  C   UNL A   1      39.407  25.717  29.073  1.00  0.00     0.010 A 
ATOM     35  C   UNL A   1      40.060  26.768  28.414  1.00  0.00    -0.014 A 
BRANCH  35  36
ATOM     36  C   UNL A   1      40.476  27.974  29.173  1.00  0.00     0.031 A 
ATOM     37  C   UNL A   1      41.882  28.088  29.692  1.00  0.00     0.074 A 
ATOM     38  C   UNL A   1      39.580  28.948  29.423  1.00  0.00     0.049 A 
ATOM     39  N   UNL A   1      42.435  29.054  30.383  1.00  0.00    -0.248 NA
ATOM     40  C   UNL A   1      42.781  26.954  29.425  1.00  0.00     0.031 C 
ATOM     41  C   UNL A   1      38.174  28.928  29.019  1.00  0.00     0.029 A 
ATOM     42  N   UNL A   1      39.722  30.144  30.080  1.00  0.00    -0.354 N 
ATOM     43  C   UNL A   1      43.732  28.634  30.647  1.00  0.00     0.074 A 
ATOM     44  C   UNL A   1      43.870  27.306  30.091  1.00  0.00     0.031 C 
ATOM     45  C   UNL A   1      37.590  30.074  29.408  1.00  0.00     0.029 A 
ATOM     46  C   UNL A   1      38.572  30.894  30.110  1.00  0.00     0.049 A 
ATOM     47  H   UNL A   1      40.567  30.437  30.491  1.00  0.00     0.167 HD
ATOM     48  C   UNL A   1      44.728  29.306  31.274  1.00  0.00     0.037 A 
ATOM     49  C   UNL A   1      38.344  32.112  30.636  1.00  0.00     0.037 A 
ATOM     50  C   UNL A   1      44.599  30.642  31.790  1.00  0.00     0.049 A 
ATOM     51  C   UNL A   1      39.475  32.851  31.298  1.00  0.00     0.074 A 
ATOM     52  C   UNL A   1      45.566  31.437  32.383  1.00  0.00     0.029 A 
ATOM     53  N   UNL A   1      43.428  31.384  31.772  1.00  0.00    -0.354 N 
ATOM     54  N   UNL A   1      40.719  32.477  31.472  1.00  0.00    -0.248 NA
ATOM     55  C   UNL A   1      39.172  34.191  31.822  1.00  0.00     0.031 C 
ATOM     56  C   UNL A   1      44.970  32.646  32.757  1.00  0.00     0.029 A 
ATOM     57  C   UNL A   1      43.643  32.623  32.355  1.00  0.00     0.049 A 
ATOM     58  H   UNL A   1      42.570  31.077  31.401  1.00  0.00     0.167 HD
ATOM     59  C   UNL A   1      41.356  33.545  32.091  1.00  0.00     0.074 A 
ATOM     60  C   UNL A   1      40.362  34.587  32.251  1.00  0.00     0.031 C 
ATOM     61  C   UNL A   1      42.647  33.654  32.488  1.00  0.00     0.037 A 
BRANCH  48  62
ATOM     62  C   UNL A   1      46.046  28.604  31.430  1.00  0.00     0.064 A 
ATOM     63  C   UNL A   1      47.145  28.910  30.612  1.00  0.00     0.173 A 
ATOM     64  C   UNL A   1      46.220  27.629  32.424  1.00  0.00     0.173 A 
ATOM     65  F   UNL A   1      47.027  29.825  29.638  1.00  0.00    -0.203 F 
ATOM     66  C   UNL A   1      48.359  28.245  30.764  1.00  0.00     0.198 A 
ATOM     67  C   UNL A   1      47.445  26.989  32.592  1.00  0.00     0.198 A 
ATOM     68  F   UNL A   1      45.204  27.302  33.236  1.00  0.00    -0.203 F 
ATOM     69  F   UNL A   1      49.377  28.517  29.936  1.00  0.00    -0.200 F 
ATOM     70  C   UNL A   1      48.510  27.289  31.756  1.00  0.00     0.200 A 
ATOM     71  F   UNL A   1      47.594  26.073  33.560  1.00  0.00    -0.200 F 
ATOM     72  F   UNL A   1      49.680  26.652  31.904  1.00  0.00    -0.200 F 
ENDBRANCH  48  62
BRANCH  49  73
ATOM     73  C   UNL A   1      37.001  32.736  30.509  1.00  0.00     0.064 A 
ATOM     74  C   UNL A   1      36.661  33.478  29.369  1.00  0.00     0.173 A 
ATOM     75  C   UNL A   1      36.038  32.611  31.519  1.00  0.00     0.173 A 
ATOM     76  F   UNL A   1      37.558  33.641  28.385  1.00  0.00    -0.203 F 
ATOM     77  C   UNL A   1      35.417  34.092  29.254  1.00  0.00     0.198 A 
ATOM     78  C   UNL A   1      34.782  33.205  31.391  1.00  0.00     0.198 A 
ATOM     79  F   UNL A   1      36.311  31.907  32.625  1.00  0.00    -0.203 F 
ATOM     80  F   UNL A   1      35.135  34.835  28.174  1.00  0.00    -0.200 F 
ATOM     81  C   UNL A   1      34.476  33.951  30.264  1.00  0.00     0.200 A 
ATOM     82  F   UNL A   1      33.871  33.055  32.363  1.00  0.00    -0.200 F 
ATOM     83  F   UNL A   1      33.278  34.541  30.153  1.00  0.00    -0.200 F 
ENDBRANCH  49  73
BRANCH  61  84
ATOM     84  C   UNL A   1      43.072  34.963  33.087  1.00  0.00     0.064 A 
ATOM     85  C   UNL A   1      43.504  36.035  32.291  1.00  0.00     0.173 A 
ATOM     86  C   UNL A   1      43.020  35.155  34.476  1.00  0.00     0.173 A 
ATOM     87  F   UNL A   1      43.584  35.896  30.960  1.00  0.00    -0.203 F 
ATOM     88  C   UNL A   1      43.898  37.239  32.868  1.00  0.00     0.198 A 
ATOM     89  C   UNL A   1      43.386  36.370  35.046  1.00  0.00     0.198 A 
ATOM     90  F   UNL A   1      42.607  34.164  35.280  1.00  0.00    -0.203 F 
ATOM     91  F   UNL A   1      44.357  38.231  32.092  1.00  0.00    -0.200 F 
ATOM     92  C   UNL A   1      43.833  37.408  34.243  1.00  0.00     0.200 A 
ATOM     93  F   UNL A   1      43.311  36.535  36.374  1.00  0.00    -0.200 F 
ATOM     94  F   UNL A   1      44.210  38.569  34.795  1.00  0.00    -0.200 F 
ENDBRANCH  61  84
ENDBRANCH  35  36
ENDBRANCH  27  30
ENDBRANCH  25  26
ENDBRANCH  24  25
ENDBRANCH  23  24
ENDBRANCH   1  23
TORSDOF 15
ENDMDL
