MODEL 1
REMARK VINA RESULT:     -13.4      0.000      0.000
REMARK SMILES O=C(NCCCCNC(=O)[C@H](NC(=O)c1ccc(Br)nc1)c1ccccc1)c1ccc(-c2c3nc(c(-c4c(F)c(F)c(F)c(F)c4F)c4ccc([nH]4)c(-c4c(F)c(F)c(F)c(F)c4F)c4nc(c(-c5c(F)c(F)c(F)c(F)c5F)c5ccc2[nH]5)C=C4)C=C3)cc1
REMARK SMILES IDX 5 1 4 2 3 3 1 4 2 5 28 7 29 8 90 9 30 10 89 11 31 12 32 13
REMARK SMILES IDX 33 14 83 15 34 16 88 17 82 18 84 19 35 20 87 21 81 22 80 23
REMARK SMILES IDX 36 25 68 26 48 27 67 28 49 29 52 30 66 31 85 32 50 33 51 34
REMARK SMILES IDX 65 36 86 37 53 38 37 39 38 40 46 41 39 42 40 43 44 44 47 45
REMARK SMILES IDX 41 46 42 47 45 48 43 49 69 50 70 51 78 52 71 53 72 54 76 55
REMARK SMILES IDX 79 56 73 57 74 58 77 59 75 60 54 61 55 62 63 63 56 64 57 65
REMARK SMILES IDX 61 66 64 67 58 68 59 69 62 70 60 71 6 72 7 73 8 74 9 75
REMARK SMILES IDX 10 77 11 78 22 79 23 80 27 81 24 82 26 83 25 84 12 85 13 86
REMARK SMILES IDX 14 88 15 89 16 90 21 91 17 92 20 93 18 94 19 95
REMARK H PARENT 3 6 84 24 52 35 8 76 12 87
REMARK Flexibility Score: inf
ROOT
ATOM      1  C   UNL A   1      31.704  31.849  26.857  1.00  0.00     0.023 C 
ENDROOT
BRANCH   1   2
ATOM      2  C   UNL A   1      32.868  32.740  27.270  1.00  0.00     0.116 C 
BRANCH   2   3
ATOM      3  N   UNL A   1      32.466  34.090  27.637  1.00  0.00    -0.352 N 
ATOM      4  O   UNL A   1      32.499  35.975  28.893  1.00  0.00    -0.269 OA
ATOM      5  C   UNL A   1      33.008  34.896  28.611  1.00  0.00     0.251 C 
ATOM      6  H   UNL A   1      31.715  34.472  27.126  1.00  0.00     0.163 HD
BRANCH   5   7
ATOM      7  C   UNL A   1      34.192  34.416  29.351  1.00  0.00     0.039 A 
ATOM      8  C   UNL A   1      35.473  34.646  28.848  1.00  0.00     0.014 A 
ATOM      9  C   UNL A   1      34.010  33.676  30.521  1.00  0.00     0.014 A 
ATOM     10  C   UNL A   1      36.560  34.002  29.426  1.00  0.00     0.010 A 
ATOM     11  C   UNL A   1      35.115  33.096  31.149  1.00  0.00     0.010 A 
ATOM     12  C   UNL A   1      36.393  33.217  30.580  1.00  0.00    -0.014 A 
BRANCH  12  13
ATOM     13  C   UNL A   1      37.577  32.551  31.175  1.00  0.00     0.031 A 
ATOM     14  C   UNL A   1      38.038  32.884  32.567  1.00  0.00     0.074 A 
ATOM     15  C   UNL A   1      38.207  31.596  30.465  1.00  0.00     0.049 A 
ATOM     16  N   UNL A   1      39.016  32.358  33.261  1.00  0.00    -0.248 NA
ATOM     17  C   UNL A   1      37.313  33.952  33.273  1.00  0.00     0.031 C 
ATOM     18  C   UNL A   1      37.855  31.196  29.101  1.00  0.00     0.029 A 
ATOM     19  N   UNL A   1      39.249  30.769  30.797  1.00  0.00    -0.354 N 
ATOM     20  C   UNL A   1      39.045  33.046  34.466  1.00  0.00     0.074 A 
ATOM     21  C   UNL A   1      37.995  34.041  34.408  1.00  0.00     0.031 C 
ATOM     22  C   UNL A   1      38.625  30.161  28.735  1.00  0.00     0.029 A 
ATOM     23  C   UNL A   1      39.559  29.862  29.815  1.00  0.00     0.049 A 
ATOM     24  H   UNL A   1      39.727  30.821  31.656  1.00  0.00     0.167 HD
ATOM     25  C   UNL A   1      39.869  32.859  35.526  1.00  0.00     0.037 A 
ATOM     26  C   UNL A   1      40.495  28.896  29.786  1.00  0.00     0.037 A 
ATOM     27  C   UNL A   1      40.888  31.844  35.594  1.00  0.00     0.049 A 
ATOM     28  C   UNL A   1      41.385  28.706  30.979  1.00  0.00     0.074 A 
ATOM     29  C   UNL A   1      41.741  31.543  36.643  1.00  0.00     0.029 A 
ATOM     30  N   UNL A   1      41.193  30.961  34.567  1.00  0.00    -0.354 N 
ATOM     31  N   UNL A   1      41.380  29.341  32.125  1.00  0.00    -0.248 NA
ATOM     32  C   UNL A   1      42.416  27.664  30.872  1.00  0.00     0.031 C 
ATOM     33  C   UNL A   1      42.587  30.504  36.238  1.00  0.00     0.029 A 
ATOM     34  C   UNL A   1      42.233  30.129  34.952  1.00  0.00     0.049 A 
ATOM     35  H   UNL A   1      40.738  30.929  33.695  1.00  0.00     0.167 HD
ATOM     36  C   UNL A   1      42.391  28.770  32.882  1.00  0.00     0.074 A 
ATOM     37  C   UNL A   1      42.977  27.721  32.072  1.00  0.00     0.031 C 
ATOM     38  C   UNL A   1      42.801  29.088  34.134  1.00  0.00     0.037 A 
BRANCH  25  39
ATOM     39  C   UNL A   1      39.719  33.784  36.698  1.00  0.00     0.064 A 
ATOM     40  C   UNL A   1      40.355  35.034  36.740  1.00  0.00     0.173 A 
ATOM     41  C   UNL A   1      38.890  33.433  37.775  1.00  0.00     0.173 A 
ATOM     42  F   UNL A   1      41.168  35.412  35.742  1.00  0.00    -0.203 F 
ATOM     43  C   UNL A   1      40.180  35.890  37.827  1.00  0.00     0.198 A 
ATOM     44  C   UNL A   1      38.699  34.301  38.847  1.00  0.00     0.198 A 
ATOM     45  F   UNL A   1      38.255  32.251  37.781  1.00  0.00    -0.203 F 
ATOM     46  F   UNL A   1      40.827  37.064  37.862  1.00  0.00    -0.200 F 
ATOM     47  C   UNL A   1      39.348  35.526  38.874  1.00  0.00     0.200 A 
ATOM     48  F   UNL A   1      37.885  33.953  39.853  1.00  0.00    -0.200 F 
ATOM     49  F   UNL A   1      39.176  36.354  39.914  1.00  0.00    -0.200 F 
ENDBRANCH  25  39
BRANCH  26  50
ATOM     50  C   UNL A   1      40.617  28.027  28.589  1.00  0.00     0.064 A 
ATOM     51  C   UNL A   1      39.942  26.801  28.520  1.00  0.00     0.173 A 
ATOM     52  C   UNL A   1      41.386  28.414  27.484  1.00  0.00     0.173 A 
ATOM     53  F   UNL A   1      39.207  26.382  29.561  1.00  0.00    -0.203 F 
ATOM     54  C   UNL A   1      40.042  25.989  27.393  1.00  0.00     0.198 A 
ATOM     55  C   UNL A   1      41.464  27.615  26.347  1.00  0.00     0.198 A 
ATOM     56  F   UNL A   1      42.046  29.582  27.499  1.00  0.00    -0.203 F 
ATOM     57  F   UNL A   1      39.413  24.806  27.365  1.00  0.00    -0.200 F 
ATOM     58  C   UNL A   1      40.796  26.400  26.304  1.00  0.00     0.200 A 
ATOM     59  F   UNL A   1      42.180  28.022  25.290  1.00  0.00    -0.200 F 
ATOM     60  F   UNL A   1      40.882  25.624  25.216  1.00  0.00    -0.200 F 
ENDBRANCH  26  50
BRANCH  38  61
ATOM     61  C   UNL A   1      43.920  28.273  34.708  1.00  0.00     0.064 A 
ATOM     62  C   UNL A   1      45.259  28.668  34.574  1.00  0.00     0.173 A 
ATOM     63  C   UNL A   1      43.649  27.091  35.413  1.00  0.00     0.173 A 
ATOM     64  F   UNL A   1      45.569  29.782  33.892  1.00  0.00    -0.203 F 
ATOM     65  C   UNL A   1      46.289  27.893  35.100  1.00  0.00     0.198 A 
ATOM     66  C   UNL A   1      44.679  26.332  35.960  1.00  0.00     0.198 A 
ATOM     67  F   UNL A   1      42.383  26.674  35.571  1.00  0.00    -0.203 F 
ATOM     68  F   UNL A   1      47.563  28.262  34.917  1.00  0.00    -0.200 F 
ATOM     69  C   UNL A   1      45.998  26.730  35.796  1.00  0.00     0.200 A 
ATOM     70  F   UNL A   1      44.396  25.212  36.639  1.00  0.00    -0.200 F 
ATOM     71  F   UNL A   1      46.990  25.984  36.301  1.00  0.00    -0.200 F 
ENDBRANCH  38  61
ENDBRANCH  12  13
ENDBRANCH   5   7
ENDBRANCH   2   3
ENDBRANCH   1   2
BRANCH   1  72
ATOM     72  C   UNL A   1      31.993  30.346  26.917  1.00  0.00     0.023 C 
BRANCH  72  73
ATOM     73  C   UNL A   1      31.588  29.589  25.654  1.00  0.00     0.116 C 
BRANCH  73  74
ATOM     74  N   UNL A   1      32.611  29.677  24.639  1.00  0.00    -0.354 N 
ATOM     75  C   UNL A   1      32.796  28.937  23.505  1.00  0.00     0.247 C 
ATOM     76  H   UNL A   1      33.283  30.380  24.788  1.00  0.00     0.163 HD
ATOM     77  O   UNL A   1      33.775  29.265  22.826  1.00  0.00    -0.272 OA
BRANCH  75  78
ATOM     78  C   UNL A   1      31.728  27.882  23.032  1.00  0.00     0.202 C 
BRANCH  78  79
ATOM     79  C   UNL A   1      30.369  28.523  22.711  1.00  0.00    -0.016 A 
ATOM     80  C   UNL A   1      30.245  29.699  21.945  1.00  0.00     0.006 A 
ATOM     81  C   UNL A   1      29.184  27.941  23.200  1.00  0.00     0.006 A 
ATOM     82  C   UNL A   1      29.000  30.297  21.732  1.00  0.00     0.000 A 
ATOM     83  C   UNL A   1      27.940  28.547  22.997  1.00  0.00     0.000 A 
ATOM     84  C   UNL A   1      27.850  29.729  22.269  1.00  0.00     0.000 A 
ENDBRANCH  78  79
BRANCH  78  85
ATOM     85  N   UNL A   1      32.216  27.112  21.876  1.00  0.00    -0.336 N 
ATOM     86  C   UNL A   1      32.827  25.893  21.750  1.00  0.00     0.253 C 
ATOM     87  H   UNL A   1      32.075  27.568  21.016  1.00  0.00     0.165 HD
ATOM     88  O   UNL A   1      33.128  25.489  20.629  1.00  0.00    -0.269 OA
BRANCH  86  89
ATOM     89  C   UNL A   1      33.255  25.107  22.920  1.00  0.00     0.058 A 
ATOM     90  C   UNL A   1      34.085  25.575  23.934  1.00  0.00     0.018 A 
ATOM     91  C   UNL A   1      32.830  23.783  22.980  1.00  0.00     0.126 A 
ATOM     92  C   UNL A   1      34.523  24.681  24.914  1.00  0.00     0.037 A 
ATOM     93  N   UNL A   1      33.254  22.894  23.908  1.00  0.00    -0.249 NA
ATOM     94  C   UNL A   1      34.099  23.358  24.851  1.00  0.00     0.106 A 
ATOM     95  Br  UNL A   1      34.756  22.118  26.126  1.00  0.00    -0.029 Br
ENDBRANCH  86  89
ENDBRANCH  78  85
ENDBRANCH  75  78
ENDBRANCH  73  74
ENDBRANCH  72  73
ENDBRANCH   1  72
TORSDOF 14
ENDMDL
MODEL 2
REMARK VINA RESULT:     -13.3      0.054      1.121
REMARK SMILES O=C(NCCCCNC(=O)[C@H](NC(=O)c1ccc(Br)nc1)c1ccccc1)c1ccc(-c2c3nc(c(-c4c(F)c(F)c(F)c(F)c4F)c4ccc([nH]4)c(-c4c(F)c(F)c(F)c(F)c4F)c4nc(c(-c5c(F)c(F)c(F)c(F)c5F)c5ccc2[nH]5)C=C4)C=C3)cc1
REMARK SMILES IDX 5 1 4 2 3 3 1 4 2 5 28 7 29 8 90 9 30 10 89 11 31 12 32 13
REMARK SMILES IDX 33 14 83 15 34 16 88 17 82 18 84 19 35 20 87 21 81 22 80 23
REMARK SMILES IDX 36 25 68 26 48 27 67 28 49 29 52 30 66 31 85 32 50 33 51 34
REMARK SMILES IDX 65 36 86 37 53 38 37 39 38 40 46 41 39 42 40 43 44 44 47 45
REMARK SMILES IDX 41 46 42 47 45 48 43 49 69 50 70 51 78 52 71 53 72 54 76 55
REMARK SMILES IDX 79 56 73 57 74 58 77 59 75 60 54 61 55 62 63 63 56 64 57 65
REMARK SMILES IDX 61 66 64 67 58 68 59 69 62 70 60 71 6 72 7 73 8 74 9 75
REMARK SMILES IDX 10 77 11 78 22 79 23 80 27 81 24 82 26 83 25 84 12 85 13 86
REMARK SMILES IDX 14 88 15 89 16 90 21 91 17 92 20 93 18 94 19 95
REMARK H PARENT 3 6 84 24 52 35 8 76 12 87
REMARK Flexibility Score: inf
ROOT
ATOM      1  C   UNL A   1      31.690  31.850  26.868  1.00  0.00     0.023 C 
ENDROOT
BRANCH   1   2
ATOM      2  C   UNL A   1      32.855  32.755  27.245  1.00  0.00     0.116 C 
BRANCH   2   3
ATOM      3  N   UNL A   1      32.447  34.100  27.625  1.00  0.00    -0.352 N 
ATOM      4  O   UNL A   1      32.474  35.974  28.897  1.00  0.00    -0.269 OA
ATOM      5  C   UNL A   1      32.987  34.900  28.605  1.00  0.00     0.251 C 
ATOM      6  H   UNL A   1      31.693  34.482  27.120  1.00  0.00     0.163 HD
BRANCH   5   7
ATOM      7  C   UNL A   1      34.175  34.419  29.339  1.00  0.00     0.039 A 
ATOM      8  C   UNL A   1      35.454  34.643  28.825  1.00  0.00     0.014 A 
ATOM      9  C   UNL A   1      34.000  33.684  30.513  1.00  0.00     0.014 A 
ATOM     10  C   UNL A   1      36.543  33.998  29.398  1.00  0.00     0.010 A 
ATOM     11  C   UNL A   1      35.107  33.103  31.135  1.00  0.00     0.010 A 
ATOM     12  C   UNL A   1      36.382  33.218  30.555  1.00  0.00    -0.014 A 
BRANCH  12  13
ATOM     13  C   UNL A   1      37.569  32.550  31.145  1.00  0.00     0.031 A 
ATOM     14  C   UNL A   1      38.033  32.879  32.537  1.00  0.00     0.074 A 
ATOM     15  C   UNL A   1      38.197  31.599  30.429  1.00  0.00     0.049 A 
ATOM     16  N   UNL A   1      39.014  32.350  33.225  1.00  0.00    -0.248 NA
ATOM     17  C   UNL A   1      37.309  33.943  33.249  1.00  0.00     0.031 C 
ATOM     18  C   UNL A   1      37.841  31.204  29.065  1.00  0.00     0.029 A 
ATOM     19  N   UNL A   1      39.240  30.771  30.755  1.00  0.00    -0.354 N 
ATOM     20  C   UNL A   1      39.046  33.034  34.433  1.00  0.00     0.074 A 
ATOM     21  C   UNL A   1      37.995  34.028  34.382  1.00  0.00     0.031 C 
ATOM     22  C   UNL A   1      38.611  30.171  28.692  1.00  0.00     0.029 A 
ATOM     23  C   UNL A   1      39.549  29.868  29.768  1.00  0.00     0.049 A 
ATOM     24  H   UNL A   1      39.721  30.821  31.612  1.00  0.00     0.167 HD
ATOM     25  C   UNL A   1      39.873  32.843  35.489  1.00  0.00     0.037 A 
ATOM     26  C   UNL A   1      40.485  28.904  29.732  1.00  0.00     0.037 A 
ATOM     27  C   UNL A   1      40.893  31.828  35.550  1.00  0.00     0.049 A 
ATOM     28  C   UNL A   1      41.379  28.709  30.922  1.00  0.00     0.074 A 
ATOM     29  C   UNL A   1      41.749  31.525  36.596  1.00  0.00     0.029 A 
ATOM     30  N   UNL A   1      41.196  30.950  34.520  1.00  0.00    -0.354 N 
ATOM     31  N   UNL A   1      41.376  29.340  32.070  1.00  0.00    -0.248 NA
ATOM     32  C   UNL A   1      42.410  27.669  30.808  1.00  0.00     0.031 C 
ATOM     33  C   UNL A   1      42.595  30.488  36.184  1.00  0.00     0.029 A 
ATOM     34  C   UNL A   1      42.238  30.117  34.897  1.00  0.00     0.049 A 
ATOM     35  H   UNL A   1      40.738  30.921  33.648  1.00  0.00     0.167 HD
ATOM     36  C   UNL A   1      42.391  28.767  32.822  1.00  0.00     0.074 A 
ATOM     37  C   UNL A   1      42.975  27.722  32.006  1.00  0.00     0.031 C 
ATOM     38  C   UNL A   1      42.804  29.081  34.074  1.00  0.00     0.037 A 
BRANCH  25  39
ATOM     39  C   UNL A   1      39.726  33.763  36.666  1.00  0.00     0.064 A 
ATOM     40  C   UNL A   1      40.376  35.005  36.719  1.00  0.00     0.173 A 
ATOM     41  C   UNL A   1      38.885  33.417  37.735  1.00  0.00     0.173 A 
ATOM     42  F   UNL A   1      41.201  35.379  35.729  1.00  0.00    -0.203 F 
ATOM     43  C   UNL A   1      40.204  35.857  37.809  1.00  0.00     0.198 A 
ATOM     44  C   UNL A   1      38.696  34.281  38.810  1.00  0.00     0.198 A 
ATOM     45  F   UNL A   1      38.236  32.242  37.730  1.00  0.00    -0.203 F 
ATOM     46  F   UNL A   1      40.864  37.023  37.856  1.00  0.00    -0.200 F 
ATOM     47  C   UNL A   1      39.360  35.498  38.849  1.00  0.00     0.200 A 
ATOM     48  F   UNL A   1      37.872  33.937  39.809  1.00  0.00    -0.200 F 
ATOM     49  F   UNL A   1      39.190  36.322  39.892  1.00  0.00    -0.200 F 
ENDBRANCH  25  39
BRANCH  26  50
ATOM     50  C   UNL A   1      40.604  28.040  28.531  1.00  0.00     0.064 A 
ATOM     51  C   UNL A   1      41.393  28.431  27.441  1.00  0.00     0.173 A 
ATOM     52  C   UNL A   1      39.956  26.799  28.459  1.00  0.00     0.173 A 
ATOM     53  F   UNL A   1      42.018  29.617  27.458  1.00  0.00    -0.203 F 
ATOM     54  C   UNL A   1      41.520  27.616  26.318  1.00  0.00     0.198 A 
ATOM     55  C   UNL A   1      40.105  25.974  27.349  1.00  0.00     0.198 A 
ATOM     56  F   UNL A   1      39.195  26.378  29.481  1.00  0.00    -0.203 F 
ATOM     57  F   UNL A   1      42.253  28.028  25.275  1.00  0.00    -0.200 F 
ATOM     58  C   UNL A   1      40.883  26.385  26.276  1.00  0.00     0.200 A 
ATOM     59  F   UNL A   1      39.502  24.778  27.318  1.00  0.00    -0.200 F 
ATOM     60  F   UNL A   1      41.014  25.598  25.201  1.00  0.00    -0.200 F 
ENDBRANCH  26  50
BRANCH  38  61
ATOM     61  C   UNL A   1      43.925  28.264  34.642  1.00  0.00     0.064 A 
ATOM     62  C   UNL A   1      45.262  28.672  34.524  1.00  0.00     0.173 A 
ATOM     63  C   UNL A   1      43.658  27.068  35.323  1.00  0.00     0.173 A 
ATOM     64  F   UNL A   1      45.568  29.800  33.864  1.00  0.00    -0.203 F 
ATOM     65  C   UNL A   1      46.294  27.895  35.044  1.00  0.00     0.198 A 
ATOM     66  C   UNL A   1      44.691  26.307  35.864  1.00  0.00     0.198 A 
ATOM     67  F   UNL A   1      42.395  26.638  35.464  1.00  0.00    -0.203 F 
ATOM     68  F   UNL A   1      47.567  28.278  34.876  1.00  0.00    -0.200 F 
ATOM     69  C   UNL A   1      46.008  26.718  35.717  1.00  0.00     0.200 A 
ATOM     70  F   UNL A   1      44.412  25.173  36.521  1.00  0.00    -0.200 F 
ATOM     71  F   UNL A   1      47.002  25.971  36.216  1.00  0.00    -0.200 F 
ENDBRANCH  38  61
ENDBRANCH  12  13
ENDBRANCH   5   7
ENDBRANCH   2   3
ENDBRANCH   1   2
BRANCH   1  72
ATOM     72  C   UNL A   1      32.004  30.351  26.902  1.00  0.00     0.023 C 
BRANCH  72  73
ATOM     73  C   UNL A   1      31.594  29.605  25.634  1.00  0.00     0.116 C 
BRANCH  73  74
ATOM     74  N   UNL A   1      32.621  29.686  24.623  1.00  0.00    -0.354 N 
ATOM     75  C   UNL A   1      32.811  28.938  23.494  1.00  0.00     0.247 C 
ATOM     76  H   UNL A   1      33.292  30.391  24.769  1.00  0.00     0.163 HD
ATOM     77  O   UNL A   1      33.792  29.261  22.818  1.00  0.00    -0.272 OA
BRANCH  75  78
ATOM     78  C   UNL A   1      31.745  27.879  23.025  1.00  0.00     0.202 C 
BRANCH  78  79
ATOM     79  C   UNL A   1      30.381  28.514  22.714  1.00  0.00    -0.016 A 
ATOM     80  C   UNL A   1      30.248  29.696  21.958  1.00  0.00     0.006 A 
ATOM     81  C   UNL A   1      29.202  27.922  23.202  1.00  0.00     0.006 A 
ATOM     82  C   UNL A   1      28.998  30.289  21.754  1.00  0.00     0.000 A 
ATOM     83  C   UNL A   1      27.953  28.522  23.008  1.00  0.00     0.000 A 
ATOM     84  C   UNL A   1      27.853  29.709  22.291  1.00  0.00     0.000 A 
ENDBRANCH  78  79
BRANCH  78  85
ATOM     85  N   UNL A   1      32.230  27.114  21.864  1.00  0.00    -0.336 N 
ATOM     86  C   UNL A   1      32.839  25.895  21.730  1.00  0.00     0.253 C 
ATOM     87  H   UNL A   1      32.087  27.574  21.007  1.00  0.00     0.165 HD
ATOM     88  O   UNL A   1      33.137  25.497  20.608  1.00  0.00    -0.269 OA
BRANCH  86  89
ATOM     89  C   UNL A   1      33.269  25.104  22.896  1.00  0.00     0.058 A 
ATOM     90  C   UNL A   1      34.062  25.581  23.935  1.00  0.00     0.018 A 
ATOM     91  C   UNL A   1      32.887  23.765  22.924  1.00  0.00     0.126 A 
ATOM     92  C   UNL A   1      34.509  24.683  24.908  1.00  0.00     0.037 A 
ATOM     93  N   UNL A   1      33.321  22.874  23.846  1.00  0.00    -0.249 NA
ATOM     94  C   UNL A   1      34.132  23.349  24.814  1.00  0.00     0.106 A 
ATOM     95  Br  UNL A   1      34.803  22.108  26.081  1.00  0.00    -0.029 Br
ENDBRANCH  86  89
ENDBRANCH  78  85
ENDBRANCH  75  78
ENDBRANCH  73  74
ENDBRANCH  72  73
ENDBRANCH   1  72
TORSDOF 14
ENDMDL
MODEL 3
REMARK VINA RESULT:     -13.3      4.781     10.035
REMARK SMILES O=C(NCCCCNC(=O)[C@H](NC(=O)c1ccc(Br)nc1)c1ccccc1)c1ccc(-c2c3nc(c(-c4c(F)c(F)c(F)c(F)c4F)c4ccc([nH]4)c(-c4c(F)c(F)c(F)c(F)c4F)c4nc(c(-c5c(F)c(F)c(F)c(F)c5F)c5ccc2[nH]5)C=C4)C=C3)cc1
REMARK SMILES IDX 5 1 4 2 3 3 1 4 2 5 28 7 29 8 90 9 30 10 89 11 31 12 32 13
REMARK SMILES IDX 33 14 83 15 34 16 88 17 82 18 84 19 35 20 87 21 81 22 80 23
REMARK SMILES IDX 36 25 68 26 48 27 67 28 49 29 52 30 66 31 85 32 50 33 51 34
REMARK SMILES IDX 65 36 86 37 53 38 37 39 38 40 46 41 39 42 40 43 44 44 47 45
REMARK SMILES IDX 41 46 42 47 45 48 43 49 69 50 70 51 78 52 71 53 72 54 76 55
REMARK SMILES IDX 79 56 73 57 74 58 77 59 75 60 54 61 55 62 63 63 56 64 57 65
REMARK SMILES IDX 61 66 64 67 58 68 59 69 62 70 60 71 6 72 7 73 8 74 9 75
REMARK SMILES IDX 10 77 11 78 22 79 23 80 27 81 24 82 26 83 25 84 12 85 13 86
REMARK SMILES IDX 14 88 15 89 16 90 21 91 17 92 20 93 18 94 19 95
REMARK H PARENT 3 6 84 24 52 35 8 76 12 87
REMARK Flexibility Score: inf
ROOT
ATOM      1  C   UNL A   1      36.649  22.570  23.639  1.00  0.00     0.023 C 
ENDROOT
BRANCH   1   2
ATOM      2  C   UNL A   1      36.974  22.391  25.116  1.00  0.00     0.116 C 
BRANCH   2   3
ATOM      3  N   UNL A   1      37.829  21.246  25.389  1.00  0.00    -0.352 N 
ATOM      4  O   UNL A   1      39.720  20.211  26.086  1.00  0.00    -0.269 OA
ATOM      5  C   UNL A   1      39.051  21.236  26.020  1.00  0.00     0.251 C 
ATOM      6  H   UNL A   1      37.491  20.372  25.084  1.00  0.00     0.163 HD
BRANCH   5   7
ATOM      7  C   UNL A   1      39.571  22.501  26.577  1.00  0.00     0.039 A 
ATOM      8  C   UNL A   1      39.099  23.725  26.100  1.00  0.00     0.014 A 
ATOM      9  C   UNL A   1      40.585  22.456  27.537  1.00  0.00     0.014 A 
ATOM     10  C   UNL A   1      39.748  24.897  26.464  1.00  0.00     0.010 A 
ATOM     11  C   UNL A   1      41.183  23.644  27.964  1.00  0.00     0.010 A 
ATOM     12  C   UNL A   1      40.800  24.870  27.396  1.00  0.00    -0.014 A 
BRANCH  12  13
ATOM     13  C   UNL A   1      41.465  26.143  27.768  1.00  0.00     0.031 A 
ATOM     14  C   UNL A   1      42.848  26.469  27.276  1.00  0.00     0.074 A 
ATOM     15  C   UNL A   1      40.785  27.033  28.515  1.00  0.00     0.049 A 
ATOM     16  N   UNL A   1      43.552  27.559  27.458  1.00  0.00    -0.248 NA
ATOM     17  C   UNL A   1      43.535  25.440  26.481  1.00  0.00     0.031 C 
ATOM     18  C   UNL A   1      39.442  26.820  29.057  1.00  0.00     0.029 A 
ATOM     19  N   UNL A   1      41.112  28.301  28.921  1.00  0.00    -0.354 N 
ATOM     20  C   UNL A   1      44.771  27.335  26.831  1.00  0.00     0.074 A 
ATOM     21  C   UNL A   1      44.719  26.001  26.274  1.00  0.00     0.031 C 
ATOM     22  C   UNL A   1      39.035  27.940  29.673  1.00  0.00     0.029 A 
ATOM     23  C   UNL A   1      40.107  28.927  29.615  1.00  0.00     0.049 A 
ATOM     24  H   UNL A   1      41.983  28.721  28.733  1.00  0.00     0.167 HD
ATOM     25  C   UNL A   1      45.832  28.172  26.726  1.00  0.00     0.037 A 
ATOM     26  C   UNL A   1      40.055  30.161  30.150  1.00  0.00     0.037 A 
ATOM     27  C   UNL A   1      45.865  29.513  27.250  1.00  0.00     0.049 A 
ATOM     28  C   UNL A   1      41.242  31.068  30.007  1.00  0.00     0.074 A 
ATOM     29  C   UNL A   1      46.875  30.455  27.152  1.00  0.00     0.029 A 
ATOM     30  N   UNL A   1      44.838  30.103  27.973  1.00  0.00    -0.354 N 
ATOM     31  N   UNL A   1      42.374  30.857  29.383  1.00  0.00    -0.248 NA
ATOM     32  C   UNL A   1      41.143  32.387  30.647  1.00  0.00     0.031 C 
ATOM     33  C   UNL A   1      46.475  31.602  27.847  1.00  0.00     0.029 A 
ATOM     34  C   UNL A   1      45.198  31.390  28.343  1.00  0.00     0.049 A 
ATOM     35  H   UNL A   1      43.980  29.674  28.191  1.00  0.00     0.167 HD
ATOM     36  C   UNL A   1      43.118  32.017  29.541  1.00  0.00     0.074 A 
ATOM     37  C   UNL A   1      42.298  32.938  30.302  1.00  0.00     0.031 C 
ATOM     38  C   UNL A   1      44.369  32.293  29.098  1.00  0.00     0.037 A 
BRANCH  25  39
ATOM     39  C   UNL A   1      47.060  27.659  26.032  1.00  0.00     0.064 A 
ATOM     40  C   UNL A   1      47.206  27.731  24.638  1.00  0.00     0.173 A 
ATOM     41  C   UNL A   1      48.125  27.132  26.777  1.00  0.00     0.173 A 
ATOM     42  F   UNL A   1      46.212  28.215  23.879  1.00  0.00    -0.203 F 
ATOM     43  C   UNL A   1      48.367  27.274  24.016  1.00  0.00     0.198 A 
ATOM     44  C   UNL A   1      49.293  26.699  26.155  1.00  0.00     0.198 A 
ATOM     45  F   UNL A   1      48.038  27.046  28.114  1.00  0.00    -0.203 F 
ATOM     46  F   UNL A   1      48.470  27.318  22.681  1.00  0.00    -0.200 F 
ATOM     47  C   UNL A   1      49.411  26.766  24.775  1.00  0.00     0.200 A 
ATOM     48  F   UNL A   1      50.305  26.219  26.890  1.00  0.00    -0.200 F 
ATOM     49  F   UNL A   1      50.530  26.335  24.175  1.00  0.00    -0.200 F 
ENDBRANCH  25  39
BRANCH  26  50
ATOM     50  C   UNL A   1      38.825  30.607  30.849  1.00  0.00     0.064 A 
ATOM     51  C   UNL A   1      38.730  30.541  32.245  1.00  0.00     0.173 A 
ATOM     52  C   UNL A   1      37.735  31.131  30.142  1.00  0.00     0.173 A 
ATOM     53  F   UNL A   1      39.742  30.031  32.963  1.00  0.00    -0.203 F 
ATOM     54  C   UNL A   1      37.583  30.973  32.908  1.00  0.00     0.198 A 
ATOM     55  C   UNL A   1      36.600  31.587  30.806  1.00  0.00     0.198 A 
ATOM     56  F   UNL A   1      37.781  31.221  28.805  1.00  0.00    -0.203 F 
ATOM     57  F   UNL A   1      37.503  30.868  34.241  1.00  0.00    -0.200 F 
ATOM     58  C   UNL A   1      36.522  31.503  32.189  1.00  0.00     0.200 A 
ATOM     59  F   UNL A   1      35.584  32.114  30.110  1.00  0.00    -0.200 F 
ATOM     60  F   UNL A   1      35.425  31.928  32.827  1.00  0.00    -0.200 F 
ENDBRANCH  26  50
BRANCH  38  61
ATOM     61  C   UNL A   1      44.912  33.656  29.408  1.00  0.00     0.064 A 
ATOM     62  C   UNL A   1      45.653  33.903  30.572  1.00  0.00     0.173 A 
ATOM     63  C   UNL A   1      44.699  34.723  28.523  1.00  0.00     0.173 A 
ATOM     64  F   UNL A   1      45.866  32.917  31.458  1.00  0.00    -0.203 F 
ATOM     65  C   UNL A   1      46.138  35.177  30.853  1.00  0.00     0.198 A 
ATOM     66  C   UNL A   1      45.208  35.990  28.794  1.00  0.00     0.198 A 
ATOM     67  F   UNL A   1      43.999  34.535  27.394  1.00  0.00    -0.203 F 
ATOM     68  F   UNL A   1      46.801  35.402  31.996  1.00  0.00    -0.200 F 
ATOM     69  C   UNL A   1      45.920  36.217  29.963  1.00  0.00     0.200 A 
ATOM     70  F   UNL A   1      45.003  36.992  27.929  1.00  0.00    -0.200 F 
ATOM     71  F   UNL A   1      46.386  37.443  30.235  1.00  0.00    -0.200 F 
ENDBRANCH  38  61
ENDBRANCH  12  13
ENDBRANCH   5   7
ENDBRANCH   2   3
ENDBRANCH   1   2
BRANCH   1  72
ATOM     72  C   UNL A   1      35.235  23.082  23.350  1.00  0.00     0.023 C 
BRANCH  72  73
ATOM     73  C   UNL A   1      34.735  24.116  24.357  1.00  0.00     0.116 C 
BRANCH  73  74
ATOM     74  N   UNL A   1      33.680  24.927  23.797  1.00  0.00    -0.354 N 
ATOM     75  C   UNL A   1      32.677  25.621  24.413  1.00  0.00     0.247 C 
ATOM     76  H   UNL A   1      33.684  24.990  22.815  1.00  0.00     0.163 HD
ATOM     77  O   UNL A   1      31.925  26.234  23.648  1.00  0.00    -0.272 OA
BRANCH  75  78
ATOM     78  C   UNL A   1      32.621  25.761  25.980  1.00  0.00     0.202 C 
BRANCH  78  79
ATOM     79  C   UNL A   1      32.757  27.218  26.446  1.00  0.00    -0.016 A 
ATOM     80  C   UNL A   1      31.659  27.980  26.891  1.00  0.00     0.006 A 
ATOM     81  C   UNL A   1      34.016  27.848  26.426  1.00  0.00     0.006 A 
ATOM     82  C   UNL A   1      31.804  29.326  27.241  1.00  0.00     0.000 A 
ATOM     83  C   UNL A   1      34.159  29.197  26.764  1.00  0.00     0.000 A 
ATOM     84  C   UNL A   1      33.051  29.938  27.164  1.00  0.00     0.000 A 
ENDBRANCH  78  79
BRANCH  78  85
ATOM     85  N   UNL A   1      31.390  25.163  26.524  1.00  0.00    -0.336 N 
ATOM     86  C   UNL A   1      31.025  23.878  26.827  1.00  0.00     0.253 C 
ATOM     87  H   UNL A   1      30.684  25.822  26.707  1.00  0.00     0.165 HD
ATOM     88  O   UNL A   1      29.904  23.668  27.283  1.00  0.00    -0.269 OA
BRANCH  86  89
ATOM     89  C   UNL A   1      31.880  22.724  26.501  1.00  0.00     0.058 A 
ATOM     90  C   UNL A   1      33.000  22.331  27.228  1.00  0.00     0.018 A 
ATOM     91  C   UNL A   1      31.562  22.009  25.349  1.00  0.00     0.126 A 
ATOM     92  C   UNL A   1      33.800  21.300  26.728  1.00  0.00     0.037 A 
ATOM     93  N   UNL A   1      32.330  21.019  24.837  1.00  0.00    -0.249 NA
ATOM     94  C   UNL A   1      33.439  20.691  25.532  1.00  0.00     0.106 A 
ATOM     95  Br  UNL A   1      34.564  19.350  24.804  1.00  0.00    -0.029 Br
ENDBRANCH  86  89
ENDBRANCH  78  85
ENDBRANCH  75  78
ENDBRANCH  73  74
ENDBRANCH  72  73
ENDBRANCH   1  72
TORSDOF 14
ENDMDL
