MODEL 1
REMARK VINA RESULT:     -11.5      0.000      0.000
REMARK SMILES CC(C)C[NH+]1CC[NH+]([C@H](C)[C@@H](C)C(=O)NCCCCNC(=O)c2ccc(-c3c4nc(c(-c5c(F)c(F)c(F)c(F)c5F)c5ccc([nH]5)c(-c5c(F)c(F)c(F)c(F)c5F)c5nc(c(-c6c(F)c(F)c(F)c(F)c6F)c6ccc3[nH]6)C=C5)C=C4)cc2)CC1
REMARK SMILES IDX 16 1 15 2 13 3 14 4 11 6 12 7 9 8 10 9 8 10 5 11 6 12 87 13
REMARK SMILES IDX 7 15 86 16 4 18 2 19 1 20 3 21 17 22 18 23 19 24 20 25 21 26
REMARK SMILES IDX 22 28 23 29 24 30 85 31 25 32 84 33 26 34 27 35 28 36 78 37
REMARK SMILES IDX 29 38 83 39 77 40 79 41 30 42 82 43 76 44 75 45 31 47 63 48
REMARK SMILES IDX 43 49 62 50 44 51 47 52 61 53 80 54 45 55 46 56 60 58 81 59
REMARK SMILES IDX 48 60 32 61 33 62 41 63 34 64 35 65 39 66 42 67 36 68 37 69
REMARK SMILES IDX 40 70 38 71 64 72 65 73 73 74 66 75 67 76 71 77 74 78 68 79
REMARK SMILES IDX 69 80 72 81 70 82 49 83 50 84 58 85 51 86 52 87 56 88 59 89
REMARK SMILES IDX 53 90 54 91 57 92 55 93
REMARK H PARENT 15 5 5 14 8 17 20 27 79 46 47 57
REMARK Flexibility Score: inf
ROOT
ATOM      1  C   UNL A   1      31.610  29.904  24.903  1.00  0.00     0.116 C 
ENDROOT
BRANCH   1   2
ATOM      2  N   UNL A   1      30.574  30.895  24.696  1.00  0.00    -0.356 N 
ATOM      3  C   UNL A   1      29.552  30.955  23.799  1.00  0.00     0.228 C 
ATOM      4  O   UNL A   1      28.791  31.926  23.880  1.00  0.00    -0.275 OA
ATOM      5  H   UNL A   1      30.616  31.661  25.313  1.00  0.00     0.163 HD
BRANCH   3   6
ATOM      6  C   UNL A   1      29.285  29.853  22.773  1.00  0.00     0.133 C 
ATOM      7  C   UNL A   1      28.560  30.437  21.555  1.00  0.00     0.024 C 
BRANCH   6   8
ATOM      8  C   UNL A   1      28.637  28.584  23.396  1.00  0.00     0.193 C 
ATOM      9  C   UNL A   1      27.118  28.518  23.143  1.00  0.00     0.076 C 
BRANCH   8  10
ATOM     10  N   UNL A   1      29.366  27.348  23.014  1.00  0.00    -0.323 N 
ATOM     11  N   UNL A   1      31.743  25.531  23.327  1.00  0.00    -0.325 N 
ATOM     12  C   UNL A   1      30.383  25.120  23.770  1.00  0.00     0.324 C 
ATOM     13  C   UNL A   1      31.515  26.358  22.127  1.00  0.00     0.324 C 
ATOM     14  H   UNL A   1      32.360  24.756  23.086  1.00  0.00     0.348 HD
ATOM     15  C   UNL A   1      29.418  26.304  24.058  1.00  0.00     0.324 C 
ATOM     16  C   UNL A   1      30.669  27.621  22.386  1.00  0.00     0.324 C 
ATOM     17  H   UNL A   1      28.785  26.928  22.289  1.00  0.00     0.348 HD
BRANCH  11  18
ATOM     18  C   UNL A   1      32.434  26.224  24.435  1.00  0.00     0.265 C 
BRANCH  18  19
ATOM     19  C   UNL A   1      33.637  25.527  25.118  1.00  0.00     0.038 C 
ATOM     20  C   UNL A   1      33.278  24.527  26.215  1.00  0.00     0.013 C 
ATOM     21  C   UNL A   1      34.434  24.782  24.034  1.00  0.00     0.013 C 
ENDBRANCH  18  19
ENDBRANCH  11  18
ENDBRANCH   8  10
ENDBRANCH   6   8
ENDBRANCH   3   6
ENDBRANCH   1   2
BRANCH   1  22
ATOM     22  C   UNL A   1      32.389  30.142  26.195  1.00  0.00     0.023 C 
BRANCH  22  23
ATOM     23  C   UNL A   1      31.947  31.361  27.001  1.00  0.00     0.023 C 
BRANCH  23  24
ATOM     24  C   UNL A   1      33.057  32.347  27.350  1.00  0.00     0.116 C 
BRANCH  24  25
ATOM     25  N   UNL A   1      32.578  33.705  27.567  1.00  0.00    -0.352 N 
ATOM     26  C   UNL A   1      33.046  34.652  28.449  1.00  0.00     0.251 C 
ATOM     27  H   UNL A   1      31.818  33.984  27.008  1.00  0.00     0.163 HD
ATOM     28  O   UNL A   1      32.475  35.727  28.577  1.00  0.00    -0.269 OA
BRANCH  26  29
ATOM     29  C   UNL A   1      34.225  34.332  29.278  1.00  0.00     0.039 A 
ATOM     30  C   UNL A   1      34.031  33.693  30.505  1.00  0.00     0.014 A 
ATOM     31  C   UNL A   1      35.514  34.593  28.806  1.00  0.00     0.014 A 
ATOM     32  C   UNL A   1      35.136  33.221  31.216  1.00  0.00     0.010 A 
ATOM     33  C   UNL A   1      36.608  34.067  29.481  1.00  0.00     0.010 A 
ATOM     34  C   UNL A   1      36.427  33.357  30.680  1.00  0.00    -0.014 A 
BRANCH  34  35
ATOM     35  C   UNL A   1      37.603  32.723  31.323  1.00  0.00     0.031 A 
ATOM     36  C   UNL A   1      38.299  31.576  30.652  1.00  0.00     0.074 A 
ATOM     37  C   UNL A   1      37.976  33.117  32.555  1.00  0.00     0.049 A 
ATOM     38  N   UNL A   1      39.256  30.809  31.108  1.00  0.00    -0.248 NA
ATOM     39  C   UNL A   1      37.839  31.229  29.299  1.00  0.00     0.031 C 
ATOM     40  C   UNL A   1      37.353  34.196  33.324  1.00  0.00     0.029 A 
ATOM     41  N   UNL A   1      38.958  32.642  33.387  1.00  0.00    -0.354 N 
ATOM     42  C   UNL A   1      39.503  29.883  30.105  1.00  0.00     0.074 A 
ATOM     43  C   UNL A   1      38.566  30.153  29.037  1.00  0.00     0.031 C 
ATOM     44  C   UNL A   1      37.977  34.311  34.506  1.00  0.00     0.029 A 
ATOM     45  C   UNL A   1      39.012  33.287  34.599  1.00  0.00     0.049 A 
ATOM     46  H   UNL A   1      39.568  31.909  33.139  1.00  0.00     0.167 HD
ATOM     47  C   UNL A   1      40.441  28.907  30.074  1.00  0.00     0.037 A 
ATOM     48  C   UNL A   1      39.797  33.065  35.670  1.00  0.00     0.037 A 
ATOM     49  C   UNL A   1      41.384  28.654  31.131  1.00  0.00     0.049 A 
ATOM     50  C   UNL A   1      40.804  31.949  35.624  1.00  0.00     0.074 A 
ATOM     51  C   UNL A   1      42.416  27.732  31.167  1.00  0.00     0.029 A 
ATOM     52  N   UNL A   1      41.403  29.323  32.346  1.00  0.00    -0.354 N 
ATOM     53  N   UNL A   1      41.070  31.116  34.649  1.00  0.00    -0.248 NA
ATOM     54  C   UNL A   1      41.614  31.739  36.833  1.00  0.00     0.031 C 
ATOM     55  C   UNL A   1      43.034  27.816  32.419  1.00  0.00     0.029 A 
ATOM     56  C   UNL A   1      42.413  28.816  33.150  1.00  0.00     0.049 A 
ATOM     57  H   UNL A   1      40.790  30.050  32.601  1.00  0.00     0.167 HD
ATOM     58  C   UNL A   1      42.089  30.296  35.114  1.00  0.00     0.074 A 
ATOM     59  C   UNL A   1      42.402  30.740  36.457  1.00  0.00     0.031 C 
ATOM     60  C   UNL A   1      42.709  29.269  34.484  1.00  0.00     0.037 A 
BRANCH  47  61
ATOM     61  C   UNL A   1      40.492  28.041  28.850  1.00  0.00     0.064 A 
ATOM     62  C   UNL A   1      39.772  26.839  28.772  1.00  0.00     0.173 A 
ATOM     63  C   UNL A   1      41.252  28.426  27.735  1.00  0.00     0.173 A 
ATOM     64  F   UNL A   1      39.041  26.422  29.817  1.00  0.00    -0.203 F 
ATOM     65  C   UNL A   1      39.834  26.039  27.635  1.00  0.00     0.198 A 
ATOM     66  C   UNL A   1      41.290  27.637  26.589  1.00  0.00     0.198 A 
ATOM     67  F   UNL A   1      41.956  29.567  27.757  1.00  0.00    -0.203 F 
ATOM     68  F   UNL A   1      39.177  24.872  27.602  1.00  0.00    -0.200 F 
ATOM     69  C   UNL A   1      40.589  26.441  26.542  1.00  0.00     0.200 A 
ATOM     70  F   UNL A   1      42.011  28.030  25.530  1.00  0.00    -0.200 F 
ATOM     71  F   UNL A   1      40.646  25.671  25.447  1.00  0.00    -0.200 F 
ENDBRANCH  47  61
BRANCH  48  72
ATOM     72  C   UNL A   1      39.672  33.929  36.871  1.00  0.00     0.064 A 
ATOM     73  C   UNL A   1      40.325  35.166  36.932  1.00  0.00     0.173 A 
ATOM     74  C   UNL A   1      38.894  33.544  37.972  1.00  0.00     0.173 A 
ATOM     75  F   UNL A   1      41.096  35.566  35.910  1.00  0.00    -0.203 F 
ATOM     76  C   UNL A   1      40.213  35.984  38.053  1.00  0.00     0.198 A 
ATOM     77  C   UNL A   1      38.764  34.373  39.085  1.00  0.00     0.198 A 
ATOM     78  F   UNL A   1      38.248  32.369  37.962  1.00  0.00    -0.203 F 
ATOM     79  F   UNL A   1      40.875  37.149  38.099  1.00  0.00    -0.200 F 
ATOM     80  C   UNL A   1      39.429  35.590  39.126  1.00  0.00     0.200 A 
ATOM     81  F   UNL A   1      37.996  33.994  40.115  1.00  0.00    -0.200 F 
ATOM     82  F   UNL A   1      39.316  36.380  40.203  1.00  0.00    -0.200 F 
ENDBRANCH  48  72
BRANCH  60  83
ATOM     83  C   UNL A   1      43.801  28.566  35.232  1.00  0.00     0.064 A 
ATOM     84  C   UNL A   1      45.140  28.966  35.119  1.00  0.00     0.173 A 
ATOM     85  C   UNL A   1      43.499  27.513  36.109  1.00  0.00     0.173 A 
ATOM     86  F   UNL A   1      45.480  29.955  34.280  1.00  0.00    -0.203 F 
ATOM     87  C   UNL A   1      46.140  28.326  35.848  1.00  0.00     0.198 A 
ATOM     88  C   UNL A   1      44.498  26.893  36.854  1.00  0.00     0.198 A 
ATOM     89  F   UNL A   1      42.232  27.097  36.254  1.00  0.00    -0.203 F 
ATOM     90  F   UNL A   1      47.418  28.702  35.698  1.00  0.00    -0.200 F 
ATOM     91  C   UNL A   1      45.817  27.298  36.720  1.00  0.00     0.200 A 
ATOM     92  F   UNL A   1      44.183  25.906  37.704  1.00  0.00    -0.200 F 
ATOM     93  F   UNL A   1      46.780  26.691  37.428  1.00  0.00    -0.200 F 
ENDBRANCH  60  83
ENDBRANCH  34  35
ENDBRANCH  26  29
ENDBRANCH  24  25
ENDBRANCH  23  24
ENDBRANCH  22  23
ENDBRANCH   1  22
TORSDOF 15
ENDMDL
MODEL 2
REMARK VINA RESULT:     -11.5      1.159      7.601
REMARK SMILES CC(C)C[NH+]1CC[NH+]([C@H](C)[C@@H](C)C(=O)NCCCCNC(=O)c2ccc(-c3c4nc(c(-c5c(F)c(F)c(F)c(F)c5F)c5ccc([nH]5)c(-c5c(F)c(F)c(F)c(F)c5F)c5nc(c(-c6c(F)c(F)c(F)c(F)c6F)c6ccc3[nH]6)C=C5)C=C4)cc2)CC1
REMARK SMILES IDX 16 1 15 2 13 3 14 4 11 6 12 7 9 8 10 9 8 10 5 11 6 12 87 13
REMARK SMILES IDX 7 15 86 16 4 18 2 19 1 20 3 21 17 22 18 23 19 24 20 25 21 26
REMARK SMILES IDX 22 28 23 29 24 30 85 31 25 32 84 33 26 34 27 35 28 36 78 37
REMARK SMILES IDX 29 38 83 39 77 40 79 41 30 42 82 43 76 44 75 45 31 47 63 48
REMARK SMILES IDX 43 49 62 50 44 51 47 52 61 53 80 54 45 55 46 56 60 58 81 59
REMARK SMILES IDX 48 60 32 61 33 62 41 63 34 64 35 65 39 66 42 67 36 68 37 69
REMARK SMILES IDX 40 70 38 71 64 72 65 73 73 74 66 75 67 76 71 77 74 78 68 79
REMARK SMILES IDX 69 80 72 81 70 82 49 83 50 84 58 85 51 86 52 87 56 88 59 89
REMARK SMILES IDX 53 90 54 91 57 92 55 93
REMARK H PARENT 15 5 5 14 8 17 20 27 79 46 47 57
REMARK Flexibility Score: inf
ROOT
ATOM      1  C   UNL A   1      32.437  29.885  25.459  1.00  0.00     0.116 C 
ENDROOT
BRANCH   1   2
ATOM      2  N   UNL A   1      31.508  29.771  24.352  1.00  0.00    -0.356 N 
ATOM      3  C   UNL A   1      31.439  28.883  23.323  1.00  0.00     0.228 C 
ATOM      4  O   UNL A   1      30.501  29.017  22.530  1.00  0.00    -0.275 OA
ATOM      5  H   UNL A   1      30.803  30.458  24.342  1.00  0.00     0.163 HD
BRANCH   3   6
ATOM      6  C   UNL A   1      32.417  27.718  23.168  1.00  0.00     0.133 C 
ATOM      7  C   UNL A   1      33.653  28.174  22.384  1.00  0.00     0.024 C 
BRANCH   6   8
ATOM      8  C   UNL A   1      31.739  26.416  22.655  1.00  0.00     0.193 C 
ATOM      9  C   UNL A   1      32.310  25.953  21.300  1.00  0.00     0.076 C 
BRANCH   8  10
ATOM     10  N   UNL A   1      31.721  25.356  23.695  1.00  0.00    -0.323 N 
ATOM     11  N   UNL A   1      33.172  23.278  25.315  1.00  0.00    -0.325 N 
ATOM     12  C   UNL A   1      32.630  24.516  25.939  1.00  0.00     0.324 C 
ATOM     13  C   UNL A   1      32.210  22.939  24.249  1.00  0.00     0.324 C 
ATOM     14  H   UNL A   1      33.257  22.487  25.952  1.00  0.00     0.348 HD
ATOM     15  C   UNL A   1      32.424  25.696  24.949  1.00  0.00     0.324 C 
ATOM     16  C   UNL A   1      32.065  24.027  23.166  1.00  0.00     0.324 C 
ATOM     17  H   UNL A   1      30.743  25.302  23.981  1.00  0.00     0.348 HD
BRANCH  11  18
ATOM     18  C   UNL A   1      34.553  23.527  24.846  1.00  0.00     0.265 C 
BRANCH  18  19
ATOM     19  C   UNL A   1      35.297  22.402  24.084  1.00  0.00     0.038 C 
ATOM     20  C   UNL A   1      36.653  22.793  23.500  1.00  0.00     0.013 C 
ATOM     21  C   UNL A   1      35.515  21.230  25.056  1.00  0.00     0.013 C 
ENDBRANCH  18  19
ENDBRANCH  11  18
ENDBRANCH   8  10
ENDBRANCH   6   8
ENDBRANCH   3   6
ENDBRANCH   1   2
BRANCH   1  22
ATOM     22  C   UNL A   1      31.785  30.486  26.702  1.00  0.00     0.023 C 
BRANCH  22  23
ATOM     23  C   UNL A   1      31.629  32.005  26.681  1.00  0.00     0.023 C 
BRANCH  23  24
ATOM     24  C   UNL A   1      32.768  32.784  27.329  1.00  0.00     0.116 C 
BRANCH  24  25
ATOM     25  N   UNL A   1      32.428  34.169  27.626  1.00  0.00    -0.352 N 
ATOM     26  C   UNL A   1      32.983  35.010  28.562  1.00  0.00     0.251 C 
ATOM     27  H   UNL A   1      31.704  34.555  27.082  1.00  0.00     0.163 HD
ATOM     28  O   UNL A   1      32.523  36.127  28.753  1.00  0.00    -0.269 OA
BRANCH  26  29
ATOM     29  C   UNL A   1      34.117  34.524  29.373  1.00  0.00     0.039 A 
ATOM     30  C   UNL A   1      33.857  33.955  30.621  1.00  0.00     0.014 A 
ATOM     31  C   UNL A   1      35.418  34.561  28.863  1.00  0.00     0.014 A 
ATOM     32  C   UNL A   1      34.890  33.328  31.320  1.00  0.00     0.010 A 
ATOM     33  C   UNL A   1      36.431  33.881  29.528  1.00  0.00     0.010 A 
ATOM     34  C   UNL A   1      36.171  33.240  30.750  1.00  0.00    -0.014 A 
BRANCH  34  35
ATOM     35  C   UNL A   1      37.246  32.440  31.383  1.00  0.00     0.031 A 
ATOM     36  C   UNL A   1      37.758  32.809  32.745  1.00  0.00     0.074 A 
ATOM     37  C   UNL A   1      37.828  31.446  30.686  1.00  0.00     0.049 A 
ATOM     38  N   UNL A   1      38.773  32.317  33.407  1.00  0.00    -0.248 NA
ATOM     39  C   UNL A   1      37.048  33.892  33.440  1.00  0.00     0.031 C 
ATOM     40  C   UNL A   1      37.443  31.018  29.340  1.00  0.00     0.029 A 
ATOM     41  N   UNL A   1      38.881  30.625  31.006  1.00  0.00    -0.354 N 
ATOM     42  C   UNL A   1      38.832  33.040  34.591  1.00  0.00     0.074 A 
ATOM     43  C   UNL A   1      37.781  34.032  34.535  1.00  0.00     0.031 C 
ATOM     44  C   UNL A   1      38.237  30.006  28.956  1.00  0.00     0.029 A 
ATOM     45  C   UNL A   1      39.215  29.743  30.007  1.00  0.00     0.049 A 
ATOM     46  H   UNL A   1      39.353  30.665  31.870  1.00  0.00     0.167 HD
ATOM     47  C   UNL A   1      39.677  32.875  35.636  1.00  0.00     0.037 A 
ATOM     48  C   UNL A   1      40.207  28.837  29.941  1.00  0.00     0.037 A 
ATOM     49  C   UNL A   1      40.709  31.874  35.694  1.00  0.00     0.049 A 
ATOM     50  C   UNL A   1      41.157  28.701  31.099  1.00  0.00     0.074 A 
ATOM     51  C   UNL A   1      41.572  31.583  36.736  1.00  0.00     0.029 A 
ATOM     52  N   UNL A   1      41.021  31.003  34.661  1.00  0.00    -0.354 N 
ATOM     53  N   UNL A   1      41.168  29.348  32.238  1.00  0.00    -0.248 NA
ATOM     54  C   UNL A   1      42.236  27.713  30.958  1.00  0.00     0.031 C 
ATOM     55  C   UNL A   1      42.434  30.563  36.317  1.00  0.00     0.029 A 
ATOM     56  C   UNL A   1      42.083  30.191  35.030  1.00  0.00     0.049 A 
ATOM     57  H   UNL A   1      40.557  30.966  33.793  1.00  0.00     0.167 HD
ATOM     58  C   UNL A   1      42.239  28.836  32.958  1.00  0.00     0.074 A 
ATOM     59  C   UNL A   1      42.847  27.814  32.131  1.00  0.00     0.031 C 
ATOM     60  C   UNL A   1      42.676  29.181  34.193  1.00  0.00     0.037 A 
BRANCH  47  61
ATOM     61  C   UNL A   1      39.515  33.801  36.804  1.00  0.00     0.064 A 
ATOM     62  C   UNL A   1      38.741  33.446  37.920  1.00  0.00     0.173 A 
ATOM     63  C   UNL A   1      40.158  35.048  36.820  1.00  0.00     0.173 A 
ATOM     64  F   UNL A   1      38.096  32.270  37.946  1.00  0.00    -0.203 F 
ATOM     65  C   UNL A   1      38.591  34.318  38.994  1.00  0.00     0.198 A 
ATOM     66  C   UNL A   1      40.027  35.906  37.908  1.00  0.00     0.198 A 
ATOM     67  F   UNL A   1      40.912  35.434  35.780  1.00  0.00    -0.203 F 
ATOM     68  F   UNL A   1      37.807  33.977  40.026  1.00  0.00    -0.200 F 
ATOM     69  C   UNL A   1      39.239  35.545  38.990  1.00  0.00     0.200 A 
ATOM     70  F   UNL A   1      40.661  37.087  37.909  1.00  0.00    -0.200 F 
ATOM     71  F   UNL A   1      39.095  36.382  40.027  1.00  0.00    -0.200 F 
ENDBRANCH  47  61
BRANCH  48  72
ATOM     72  C   UNL A   1      40.344  27.976  28.739  1.00  0.00     0.064 A 
ATOM     73  C   UNL A   1      41.114  28.393  27.646  1.00  0.00     0.173 A 
ATOM     74  C   UNL A   1      39.722  26.721  28.661  1.00  0.00     0.173 A 
ATOM     75  F   UNL A   1      41.709  29.595  27.667  1.00  0.00    -0.203 F 
ATOM     76  C   UNL A   1      41.249  27.593  26.514  1.00  0.00     0.198 A 
ATOM     77  C   UNL A   1      39.877  25.911  27.538  1.00  0.00     0.198 A 
ATOM     78  F   UNL A   1      38.976  26.276  29.683  1.00  0.00    -0.203 F 
ATOM     79  F   UNL A   1      41.964  28.030  25.468  1.00  0.00    -0.200 F 
ATOM     80  C   UNL A   1      40.636  26.351  26.463  1.00  0.00     0.200 A 
ATOM     81  F   UNL A   1      39.292  24.707  27.497  1.00  0.00    -0.200 F 
ATOM     82  F   UNL A   1      40.771  25.579  25.376  1.00  0.00    -0.200 F 
ENDBRANCH  48  72
BRANCH  60  83
ATOM     83  C   UNL A   1      43.859  28.435  34.734  1.00  0.00     0.064 A 
ATOM     84  C   UNL A   1      43.708  27.218  35.413  1.00  0.00     0.173 A 
ATOM     85  C   UNL A   1      45.159  28.919  34.527  1.00  0.00     0.173 A 
ATOM     86  F   UNL A   1      42.483  26.725  35.651  1.00  0.00    -0.203 F 
ATOM     87  C   UNL A   1      44.818  26.518  35.879  1.00  0.00     0.198 A 
ATOM     88  C   UNL A   1      46.268  28.204  34.972  1.00  0.00     0.198 A 
ATOM     89  F   UNL A   1      45.355  30.076  33.879  1.00  0.00    -0.203 F 
ATOM     90  F   UNL A   1      44.650  25.375  36.557  1.00  0.00    -0.200 F 
ATOM     91  C   UNL A   1      46.096  27.007  35.650  1.00  0.00     0.200 A 
ATOM     92  F   UNL A   1      47.502  28.672  34.741  1.00  0.00    -0.200 F 
ATOM     93  F   UNL A   1      47.164  26.326  36.091  1.00  0.00    -0.200 F 
ENDBRANCH  60  83
ENDBRANCH  34  35
ENDBRANCH  26  29
ENDBRANCH  24  25
ENDBRANCH  23  24
ENDBRANCH  22  23
ENDBRANCH   1  22
TORSDOF 15
ENDMDL
MODEL 3
REMARK VINA RESULT:     -11.4      6.153     11.388
REMARK SMILES CC(C)C[NH+]1CC[NH+]([C@H](C)[C@@H](C)C(=O)NCCCCNC(=O)c2ccc(-c3c4nc(c(-c5c(F)c(F)c(F)c(F)c5F)c5ccc([nH]5)c(-c5c(F)c(F)c(F)c(F)c5F)c5nc(c(-c6c(F)c(F)c(F)c(F)c6F)c6ccc3[nH]6)C=C5)C=C4)cc2)CC1
REMARK SMILES IDX 16 1 15 2 13 3 14 4 11 6 12 7 9 8 10 9 8 10 5 11 6 12 87 13
REMARK SMILES IDX 7 15 86 16 4 18 2 19 1 20 3 21 17 22 18 23 19 24 20 25 21 26
REMARK SMILES IDX 22 28 23 29 24 30 85 31 25 32 84 33 26 34 27 35 28 36 78 37
REMARK SMILES IDX 29 38 83 39 77 40 79 41 30 42 82 43 76 44 75 45 31 47 63 48
REMARK SMILES IDX 43 49 62 50 44 51 47 52 61 53 80 54 45 55 46 56 60 58 81 59
REMARK SMILES IDX 48 60 32 61 33 62 41 63 34 64 35 65 39 66 42 67 36 68 37 69
REMARK SMILES IDX 40 70 38 71 64 72 65 73 73 74 66 75 67 76 71 77 74 78 68 79
REMARK SMILES IDX 69 80 72 81 70 82 49 83 50 84 58 85 51 86 52 87 56 88 59 89
REMARK SMILES IDX 53 90 54 91 57 92 55 93
REMARK H PARENT 15 5 5 14 8 17 20 27 79 46 47 57
REMARK Flexibility Score: inf
ROOT
ATOM      1  C   UNL A   1      36.145  22.044  25.850  1.00  0.00     0.116 C 
ENDROOT
BRANCH   1   2
ATOM      2  N   UNL A   1      35.283  20.885  25.728  1.00  0.00    -0.356 N 
ATOM      3  C   UNL A   1      33.982  20.766  25.347  1.00  0.00     0.228 C 
ATOM      4  O   UNL A   1      33.512  19.624  25.309  1.00  0.00    -0.275 OA
ATOM      5  H   UNL A   1      35.715  20.032  25.964  1.00  0.00     0.163 HD
BRANCH   3   6
ATOM      6  C   UNL A   1      33.136  21.962  24.909  1.00  0.00     0.133 C 
ATOM      7  C   UNL A   1      31.690  21.781  25.383  1.00  0.00     0.024 C 
BRANCH   6   8
ATOM      8  C   UNL A   1      33.310  22.314  23.404  1.00  0.00     0.193 C 
ATOM      9  C   UNL A   1      32.169  21.749  22.535  1.00  0.00     0.076 C 
BRANCH   8  10
ATOM     10  N   UNL A   1      33.561  23.764  23.202  1.00  0.00    -0.323 N 
ATOM     11  N   UNL A   1      32.724  26.626  23.588  1.00  0.00    -0.325 N 
ATOM     12  C   UNL A   1      33.920  26.064  24.272  1.00  0.00     0.324 C 
ATOM     13  C   UNL A   1      32.682  25.946  22.280  1.00  0.00     0.324 C 
ATOM     14  H   UNL A   1      32.758  27.635  23.440  1.00  0.00     0.348 HD
ATOM     15  C   UNL A   1      33.903  24.517  24.424  1.00  0.00     0.324 C 
ATOM     16  C   UNL A   1      32.533  24.414  22.374  1.00  0.00     0.324 C 
ATOM     17  H   UNL A   1      34.423  23.794  22.657  1.00  0.00     0.348 HD
BRANCH  11  18
ATOM     18  C   UNL A   1      31.529  26.417  24.434  1.00  0.00     0.265 C 
BRANCH  18  19
ATOM     19  C   UNL A   1      31.038  27.578  25.334  1.00  0.00     0.038 C 
ATOM     20  C   UNL A   1      31.564  27.563  26.768  1.00  0.00     0.013 C 
ATOM     21  C   UNL A   1      31.469  28.903  24.681  1.00  0.00     0.013 C 
ENDBRANCH  18  19
ENDBRANCH  11  18
ENDBRANCH   8  10
ENDBRANCH   6   8
ENDBRANCH   3   6
ENDBRANCH   1   2
BRANCH   1  22
ATOM     22  C   UNL A   1      37.384  21.939  24.963  1.00  0.00     0.023 C 
BRANCH  22  23
ATOM     23  C   UNL A   1      38.153  20.625  25.079  1.00  0.00     0.023 C 
BRANCH  23  24
ATOM     24  C   UNL A   1      39.277  20.618  26.108  1.00  0.00     0.116 C 
BRANCH  24  25
ATOM     25  N   UNL A   1      40.139  19.446  26.017  1.00  0.00    -0.352 N 
ATOM     26  C   UNL A   1      41.508  19.374  26.125  1.00  0.00     0.251 C 
ATOM     27  H   UNL A   1      39.679  18.591  25.857  1.00  0.00     0.163 HD
ATOM     28  O   UNL A   1      42.098  18.320  25.934  1.00  0.00    -0.269 OA
BRANCH  26  29
ATOM     29  C   UNL A   1      42.264  20.605  26.428  1.00  0.00     0.039 A 
ATOM     30  C   UNL A   1      42.708  21.400  25.369  1.00  0.00     0.014 A 
ATOM     31  C   UNL A   1      42.462  21.007  27.752  1.00  0.00     0.014 A 
ATOM     32  C   UNL A   1      43.262  22.653  25.635  1.00  0.00     0.010 A 
ATOM     33  C   UNL A   1      42.953  22.280  28.013  1.00  0.00     0.010 A 
ATOM     34  C   UNL A   1      43.337  23.122  26.957  1.00  0.00    -0.014 A 
BRANCH  34  35
ATOM     35  C   UNL A   1      43.762  24.509  27.264  1.00  0.00     0.031 A 
ATOM     36  C   UNL A   1      42.761  25.511  27.761  1.00  0.00     0.074 A 
ATOM     37  C   UNL A   1      45.026  24.887  26.997  1.00  0.00     0.049 A 
ATOM     38  N   UNL A   1      42.907  26.795  27.961  1.00  0.00    -0.248 NA
ATOM     39  C   UNL A   1      41.411  25.003  28.046  1.00  0.00     0.031 C 
ATOM     40  C   UNL A   1      46.080  24.014  26.477  1.00  0.00     0.029 A 
ATOM     41  N   UNL A   1      45.636  26.112  27.108  1.00  0.00    -0.354 N 
ATOM     42  C   UNL A   1      41.665  27.251  28.381  1.00  0.00     0.074 A 
ATOM     43  C   UNL A   1      40.767  26.117  28.363  1.00  0.00     0.031 C 
ATOM     44  C   UNL A   1      47.208  24.726  26.330  1.00  0.00     0.029 A 
ATOM     45  C   UNL A   1      46.948  26.113  26.700  1.00  0.00     0.049 A 
ATOM     46  H   UNL A   1      45.177  26.914  27.449  1.00  0.00     0.167 HD
ATOM     47  C   UNL A   1      41.314  28.501  28.764  1.00  0.00     0.037 A 
ATOM     48  C   UNL A   1      47.834  27.122  26.619  1.00  0.00     0.037 A 
ATOM     49  C   UNL A   1      42.215  29.623  28.798  1.00  0.00     0.049 A 
ATOM     50  C   UNL A   1      47.407  28.509  27.013  1.00  0.00     0.074 A 
ATOM     51  C   UNL A   1      41.972  30.913  29.234  1.00  0.00     0.029 A 
ATOM     52  N   UNL A   1      43.534  29.586  28.370  1.00  0.00    -0.354 N 
ATOM     53  N   UNL A   1      46.248  28.919  27.465  1.00  0.00    -0.248 NA
ATOM     54  C   UNL A   1      48.411  29.574  26.877  1.00  0.00     0.031 C 
ATOM     55  C   UNL A   1      43.133  31.668  29.032  1.00  0.00     0.029 A 
ATOM     56  C   UNL A   1      44.111  30.840  28.507  1.00  0.00     0.049 A 
ATOM     57  H   UNL A   1      43.993  28.788  28.021  1.00  0.00     0.167 HD
ATOM     58  C   UNL A   1      46.385  30.282  27.687  1.00  0.00     0.074 A 
ATOM     59  C   UNL A   1      47.746  30.629  27.331  1.00  0.00     0.031 C 
ATOM     60  C   UNL A   1      45.466  31.166  28.146  1.00  0.00     0.037 A 
BRANCH  47  61
ATOM     61  C   UNL A   1      39.890  28.718  29.181  1.00  0.00     0.064 A 
ATOM     62  C   UNL A   1      39.479  28.537  30.511  1.00  0.00     0.173 A 
ATOM     63  C   UNL A   1      38.929  29.134  28.247  1.00  0.00     0.173 A 
ATOM     64  F   UNL A   1      40.358  28.129  31.438  1.00  0.00    -0.203 F 
ATOM     65  C   UNL A   1      38.152  28.733  30.883  1.00  0.00     0.198 A 
ATOM     66  C   UNL A   1      37.608  29.355  28.629  1.00  0.00     0.198 A 
ATOM     67  F   UNL A   1      39.270  29.325  26.964  1.00  0.00    -0.203 F 
ATOM     68  F   UNL A   1      37.773  28.506  32.148  1.00  0.00    -0.200 F 
ATOM     69  C   UNL A   1      37.219  29.147  29.943  1.00  0.00     0.200 A 
ATOM     70  F   UNL A   1      36.709  29.764  27.723  1.00  0.00    -0.200 F 
ATOM     71  F   UNL A   1      35.943  29.338  30.305  1.00  0.00    -0.200 F 
ENDBRANCH  47  61
BRANCH  48  72
ATOM     72  C   UNL A   1      49.220  26.854  26.158  1.00  0.00     0.064 A 
ATOM     73  C   UNL A   1      50.210  26.456  27.065  1.00  0.00     0.173 A 
ATOM     74  C   UNL A   1      49.580  26.980  24.808  1.00  0.00     0.173 A 
ATOM     75  F   UNL A   1      49.916  26.344  28.368  1.00  0.00    -0.203 F 
ATOM     76  C   UNL A   1      51.512  26.202  26.643  1.00  0.00     0.198 A 
ATOM     77  C   UNL A   1      50.879  26.704  24.383  1.00  0.00     0.198 A 
ATOM     78  F   UNL A   1      48.668  27.357  23.901  1.00  0.00    -0.203 F 
ATOM     79  F   UNL A   1      52.448  25.854  27.536  1.00  0.00    -0.200 F 
ATOM     80  C   UNL A   1      51.845  26.320  25.302  1.00  0.00     0.200 A 
ATOM     81  F   UNL A   1      51.193  26.808  23.085  1.00  0.00    -0.200 F 
ATOM     82  F   UNL A   1      53.096  26.070  24.895  1.00  0.00    -0.200 F 
ENDBRANCH  48  72
BRANCH  60  83
ATOM     83  C   UNL A   1      45.906  32.590  28.307  1.00  0.00     0.064 A 
ATOM     84  C   UNL A   1      46.529  33.035  29.482  1.00  0.00     0.173 A 
ATOM     85  C   UNL A   1      45.747  33.506  27.257  1.00  0.00     0.173 A 
ATOM     86  F   UNL A   1      46.686  32.200  30.520  1.00  0.00    -0.203 F 
ATOM     87  C   UNL A   1      46.965  34.352  29.604  1.00  0.00     0.198 A 
ATOM     88  C   UNL A   1      46.207  34.815  27.373  1.00  0.00     0.198 A 
ATOM     89  F   UNL A   1      45.161  33.128  26.112  1.00  0.00    -0.203 F 
ATOM     90  F   UNL A   1      47.526  34.765  30.749  1.00  0.00    -0.200 F 
ATOM     91  C   UNL A   1      46.811  35.237  28.548  1.00  0.00     0.200 A 
ATOM     92  F   UNL A   1      46.067  35.667  26.348  1.00  0.00    -0.200 F 
ATOM     93  F   UNL A   1      47.241  36.502  28.664  1.00  0.00    -0.200 F 
ENDBRANCH  60  83
ENDBRANCH  34  35
ENDBRANCH  26  29
ENDBRANCH  24  25
ENDBRANCH  23  24
ENDBRANCH  22  23
ENDBRANCH   1  22
TORSDOF 15
ENDMDL
