MODEL 1
REMARK VINA RESULT:     -12.0      0.000      0.000
REMARK SMILES O=C(NCCCCNC(=O)[C@H]1CC[C@@H]2CCCC[C@H]2N1C(=O)N1CCSCC1)c1ccc(-c2c3nc(c(-c4c(F)c(F)c(F)c(F)c4F)c4ccc([nH]4)c(-c4c(F)c(F)c(F)c(F)c4F)c4nc(c(-c5c(F)c(F)c(F)c(F)c5F)c5ccc2[nH]5)C=C4)C=C3)cc1
REMARK SMILES IDX 5 1 4 2 3 3 1 4 2 5 29 7 30 8 91 9 31 10 90 11 32 12 33 13
REMARK SMILES IDX 34 14 84 15 35 16 89 17 83 18 85 19 36 20 88 21 82 22 81 23
REMARK SMILES IDX 37 25 69 26 49 27 68 28 50 29 53 30 67 31 86 32 51 33 52 34
REMARK SMILES IDX 66 36 87 37 54 38 38 39 39 40 47 41 40 42 41 43 45 44 48 45
REMARK SMILES IDX 42 46 43 47 46 48 44 49 70 50 71 51 79 52 72 53 73 54 77 55
REMARK SMILES IDX 80 56 74 57 75 58 78 59 76 60 55 61 56 62 64 63 57 64 58 65
REMARK SMILES IDX 62 66 65 67 59 68 60 69 63 70 61 71 6 72 7 73 8 74 9 75
REMARK SMILES IDX 10 77 11 78 12 79 20 80 13 81 19 82 14 83 18 84 15 85 17 86
REMARK SMILES IDX 16 87 21 88 22 89 23 90 24 91 28 92 25 93 27 94 26 95
REMARK H PARENT 3 6 85 24 53 35 8 76
REMARK Flexibility Score: inf
ROOT
ATOM      1  C   UNL A   1      32.672  27.901  26.332  1.00  0.00     0.023 C 
ENDROOT
BRANCH   1   2
ATOM      2  C   UNL A   1      33.867  28.429  27.115  1.00  0.00     0.116 C 
BRANCH   2   3
ATOM      3  N   UNL A   1      33.715  29.798  27.575  1.00  0.00    -0.352 N 
ATOM      4  O   UNL A   1      34.346  31.713  28.606  1.00  0.00    -0.269 OA
ATOM      5  C   UNL A   1      34.647  30.595  28.203  1.00  0.00     0.251 C 
ATOM      6  H   UNL A   1      32.834  30.209  27.418  1.00  0.00     0.163 HD
BRANCH   5   7
ATOM      7  C   UNL A   1      36.012  30.072  28.429  1.00  0.00     0.039 A 
ATOM      8  C   UNL A   1      36.360  29.492  29.652  1.00  0.00     0.014 A 
ATOM      9  C   UNL A   1      36.967  30.204  27.417  1.00  0.00     0.014 A 
ATOM     10  C   UNL A   1      37.691  29.174  29.912  1.00  0.00     0.010 A 
ATOM     11  C   UNL A   1      38.291  29.826  27.658  1.00  0.00     0.010 A 
ATOM     12  C   UNL A   1      38.673  29.347  28.921  1.00  0.00    -0.014 A 
BRANCH  12  13
ATOM     13  C   UNL A   1      40.089  29.000  29.214  1.00  0.00     0.031 A 
ATOM     14  C   UNL A   1      40.964  29.923  30.021  1.00  0.00     0.074 A 
ATOM     15  C   UNL A   1      40.585  27.832  28.765  1.00  0.00     0.049 A 
ATOM     16  N   UNL A   1      42.220  29.776  30.369  1.00  0.00    -0.248 NA
ATOM     17  C   UNL A   1      40.357  31.175  30.492  1.00  0.00     0.031 C 
ATOM     18  C   UNL A   1      39.848  26.861  27.957  1.00  0.00     0.029 A 
ATOM     19  N   UNL A   1      41.823  27.262  28.926  1.00  0.00    -0.354 N 
ATOM     20  C   UNL A   1      42.553  30.915  31.091  1.00  0.00     0.074 A 
ATOM     21  C   UNL A   1      41.377  31.760  31.107  1.00  0.00     0.031 C 
ATOM     22  C   UNL A   1      40.638  25.804  27.713  1.00  0.00     0.029 A 
ATOM     23  C   UNL A   1      41.948  26.042  28.311  1.00  0.00     0.049 A 
ATOM     24  H   UNL A   1      42.551  27.688  29.435  1.00  0.00     0.167 HD
ATOM     25  C   UNL A   1      43.726  31.223  31.695  1.00  0.00     0.037 A 
ATOM     26  C   UNL A   1      43.003  25.210  28.226  1.00  0.00     0.037 A 
ATOM     27  C   UNL A   1      44.896  30.379  31.690  1.00  0.00     0.049 A 
ATOM     28  C   UNL A   1      44.291  25.577  28.904  1.00  0.00     0.074 A 
ATOM     29  C   UNL A   1      46.125  30.603  32.290  1.00  0.00     0.029 A 
ATOM     30  N   UNL A   1      44.982  29.150  31.055  1.00  0.00    -0.354 N 
ATOM     31  N   UNL A   1      44.583  26.647  29.600  1.00  0.00    -0.248 NA
ATOM     32  C   UNL A   1      45.396  24.615  28.787  1.00  0.00     0.031 C 
ATOM     33  C   UNL A   1      46.964  29.524  31.991  1.00  0.00     0.029 A 
ATOM     34  C   UNL A   1      46.246  28.608  31.240  1.00  0.00     0.049 A 
ATOM     35  H   UNL A   1      44.254  28.723  30.549  1.00  0.00     0.167 HD
ATOM     36  C   UNL A   1      45.898  26.487  30.009  1.00  0.00     0.074 A 
ATOM     37  C   UNL A   1      46.339  25.201  29.510  1.00  0.00     0.031 C 
ATOM     38  C   UNL A   1      46.675  27.333  30.729  1.00  0.00     0.037 A 
BRANCH  25  39
ATOM     39  C   UNL A   1      43.817  32.532  32.423  1.00  0.00     0.064 A 
ATOM     40  C   UNL A   1      44.211  33.707  31.767  1.00  0.00     0.173 A 
ATOM     41  C   UNL A   1      43.435  32.627  33.770  1.00  0.00     0.173 A 
ATOM     42  F   UNL A   1      44.596  33.667  30.483  1.00  0.00    -0.203 F 
ATOM     43  C   UNL A   1      44.229  34.929  32.436  1.00  0.00     0.198 A 
ATOM     44  C   UNL A   1      43.433  33.854  34.429  1.00  0.00     0.198 A 
ATOM     45  F   UNL A   1      43.044  31.533  34.441  1.00  0.00    -0.203 F 
ATOM     46  F   UNL A   1      44.635  36.035  31.797  1.00  0.00    -0.200 F 
ATOM     47  C   UNL A   1      43.832  35.003  33.763  1.00  0.00     0.200 A 
ATOM     48  F   UNL A   1      43.038  33.926  35.708  1.00  0.00    -0.200 F 
ATOM     49  F   UNL A   1      43.837  36.181  34.401  1.00  0.00    -0.200 F 
ENDBRANCH  25  39
BRANCH  26  50
ATOM     50  C   UNL A   1      42.877  23.945  27.460  1.00  0.00     0.064 A 
ATOM     51  C   UNL A   1      43.206  23.887  26.100  1.00  0.00     0.173 A 
ATOM     52  C   UNL A   1      42.428  22.768  28.077  1.00  0.00     0.173 A 
ATOM     53  F   UNL A   1      43.617  24.993  25.463  1.00  0.00    -0.203 F 
ATOM     54  C   UNL A   1      43.077  22.701  25.380  1.00  0.00     0.198 A 
ATOM     55  C   UNL A   1      42.327  21.576  27.364  1.00  0.00     0.198 A 
ATOM     56  F   UNL A   1      42.104  22.774  29.379  1.00  0.00    -0.203 F 
ATOM     57  F   UNL A   1      43.359  22.682  24.070  1.00  0.00    -0.200 F 
ATOM     58  C   UNL A   1      42.644  21.547  26.014  1.00  0.00     0.200 A 
ATOM     59  F   UNL A   1      41.921  20.460  27.983  1.00  0.00    -0.200 F 
ATOM     60  F   UNL A   1      42.526  20.405  25.322  1.00  0.00    -0.200 F 
ENDBRANCH  26  50
BRANCH  38  61
ATOM     61  C   UNL A   1      48.077  26.887  31.020  1.00  0.00     0.064 A 
ATOM     62  C   UNL A   1      49.147  27.253  30.190  1.00  0.00     0.173 A 
ATOM     63  C   UNL A   1      48.354  26.090  32.140  1.00  0.00     0.173 A 
ATOM     64  F   UNL A   1      48.929  28.000  29.098  1.00  0.00    -0.203 F 
ATOM     65  C   UNL A   1      50.440  26.811  30.455  1.00  0.00     0.198 A 
ATOM     66  C   UNL A   1      49.653  25.671  32.416  1.00  0.00     0.198 A 
ATOM     67  F   UNL A   1      47.366  25.718  32.967  1.00  0.00    -0.203 F 
ATOM     68  F   UNL A   1      51.439  27.129  29.619  1.00  0.00    -0.200 F 
ATOM     69  C   UNL A   1      50.693  26.023  31.568  1.00  0.00     0.200 A 
ATOM     70  F   UNL A   1      49.898  24.917  33.496  1.00  0.00    -0.200 F 
ATOM     71  F   UNL A   1      51.938  25.594  31.818  1.00  0.00    -0.200 F 
ENDBRANCH  38  61
ENDBRANCH  12  13
ENDBRANCH   5   7
ENDBRANCH   2   3
ENDBRANCH   1   2
BRANCH   1  72
ATOM     72  C   UNL A   1      32.068  26.583  26.823  1.00  0.00     0.023 C 
BRANCH  72  73
ATOM     73  C   UNL A   1      32.792  25.303  26.403  1.00  0.00     0.116 C 
BRANCH  73  74
ATOM     74  N   UNL A   1      31.933  24.139  26.367  1.00  0.00    -0.354 N 
ATOM     75  C   UNL A   1      31.252  23.607  25.310  1.00  0.00     0.242 C 
ATOM     76  H   UNL A   1      31.826  23.664  27.223  1.00  0.00     0.163 HD
ATOM     77  O   UNL A   1      30.570  22.601  25.541  1.00  0.00    -0.273 OA
BRANCH  75  78
ATOM     78  C   UNL A   1      31.124  24.343  23.950  1.00  0.00     0.176 C 
ATOM     79  C   UNL A   1      30.021  25.395  24.173  1.00  0.00     0.036 C 
ATOM     80  N   UNL A   1      32.395  24.797  23.326  1.00  0.00    -0.309 N 
ATOM     81  C   UNL A   1      30.065  26.559  23.211  1.00  0.00     0.008 C 
ATOM     82  C   UNL A   1      32.476  26.147  22.690  1.00  0.00     0.091 C 
ATOM     83  C   UNL A   1      31.460  27.153  23.279  1.00  0.00     0.012 C 
ATOM     84  C   UNL A   1      33.884  26.791  22.759  1.00  0.00     0.025 C 
ATOM     85  C   UNL A   1      31.506  28.520  22.588  1.00  0.00     0.006 C 
ATOM     86  C   UNL A   1      33.930  28.164  22.082  1.00  0.00     0.002 C 
ATOM     87  C   UNL A   1      32.903  29.119  22.668  1.00  0.00     0.000 C 
BRANCH  80  88
ATOM     88  C   UNL A   1      33.281  23.811  22.844  1.00  0.00     0.321 C 
ATOM     89  O   UNL A   1      33.355  23.447  21.674  1.00  0.00    -0.248 OA
ATOM     90  N   UNL A   1      34.144  23.276  23.795  1.00  0.00    -0.323 N 
ATOM     91  C   UNL A   1      35.564  23.528  23.562  1.00  0.00     0.132 C 
ATOM     92  C   UNL A   1      33.857  21.910  24.234  1.00  0.00     0.132 C 
ATOM     93  C   UNL A   1      36.402  23.405  24.832  1.00  0.00     0.091 C 
ATOM     94  C   UNL A   1      34.516  21.547  25.567  1.00  0.00     0.091 C 
ATOM     95  S   UNL A   1      36.334  21.721  25.517  1.00  0.00    -0.158 SA
ENDBRANCH  80  88
ENDBRANCH  75  78
ENDBRANCH  73  74
ENDBRANCH  72  73
ENDBRANCH   1  72
TORSDOF 12
ENDMDL
MODEL 2
REMARK VINA RESULT:     -12.0      2.650      3.737
REMARK SMILES O=C(NCCCCNC(=O)[C@H]1CC[C@@H]2CCCC[C@H]2N1C(=O)N1CCSCC1)c1ccc(-c2c3nc(c(-c4c(F)c(F)c(F)c(F)c4F)c4ccc([nH]4)c(-c4c(F)c(F)c(F)c(F)c4F)c4nc(c(-c5c(F)c(F)c(F)c(F)c5F)c5ccc2[nH]5)C=C4)C=C3)cc1
REMARK SMILES IDX 5 1 4 2 3 3 1 4 2 5 29 7 30 8 91 9 31 10 90 11 32 12 33 13
REMARK SMILES IDX 34 14 84 15 35 16 89 17 83 18 85 19 36 20 88 21 82 22 81 23
REMARK SMILES IDX 37 25 69 26 49 27 68 28 50 29 53 30 67 31 86 32 51 33 52 34
REMARK SMILES IDX 66 36 87 37 54 38 38 39 39 40 47 41 40 42 41 43 45 44 48 45
REMARK SMILES IDX 42 46 43 47 46 48 44 49 70 50 71 51 79 52 72 53 73 54 77 55
REMARK SMILES IDX 80 56 74 57 75 58 78 59 76 60 55 61 56 62 64 63 57 64 58 65
REMARK SMILES IDX 62 66 65 67 59 68 60 69 63 70 61 71 6 72 7 73 8 74 9 75
REMARK SMILES IDX 10 77 11 78 12 79 20 80 13 81 19 82 14 83 18 84 15 85 17 86
REMARK SMILES IDX 16 87 21 88 22 89 23 90 24 91 28 92 25 93 27 94 26 95
REMARK H PARENT 3 6 85 24 53 35 8 76
REMARK Flexibility Score: inf
ROOT
ATOM      1  C   UNL A   1      31.739  28.763  26.338  1.00  0.00     0.023 C 
ENDROOT
BRANCH   1   2
ATOM      2  C   UNL A   1      32.942  29.685  26.186  1.00  0.00     0.116 C 
BRANCH   2   3
ATOM      3  N   UNL A   1      32.683  31.062  26.565  1.00  0.00    -0.352 N 
ATOM      4  O   UNL A   1      33.053  33.006  27.666  1.00  0.00    -0.269 OA
ATOM      5  C   UNL A   1      33.442  31.882  27.370  1.00  0.00     0.251 C 
ATOM      6  H   UNL A   1      31.860  31.461  26.199  1.00  0.00     0.163 HD
BRANCH   5   7
ATOM      7  C   UNL A   1      34.721  31.377  27.918  1.00  0.00     0.039 A 
ATOM      8  C   UNL A   1      34.826  30.068  28.392  1.00  0.00     0.014 A 
ATOM      9  C   UNL A   1      35.816  32.243  27.994  1.00  0.00     0.014 A 
ATOM     10  C   UNL A   1      35.977  29.668  29.068  1.00  0.00     0.010 A 
ATOM     11  C   UNL A   1      36.994  31.819  28.618  1.00  0.00     0.010 A 
ATOM     12  C   UNL A   1      37.069  30.543  29.198  1.00  0.00    -0.014 A 
BRANCH  12  13
ATOM     13  C   UNL A   1      38.291  30.100  29.921  1.00  0.00     0.031 A 
ATOM     14  C   UNL A   1      38.600  30.603  31.306  1.00  0.00     0.074 A 
ATOM     15  C   UNL A   1      39.120  29.219  29.330  1.00  0.00     0.049 A 
ATOM     16  N   UNL A   1      39.620  30.320  32.080  1.00  0.00    -0.248 NA
ATOM     17  C   UNL A   1      37.647  31.552  31.898  1.00  0.00     0.031 C 
ATOM     18  C   UNL A   1      38.945  28.672  27.985  1.00  0.00     0.029 A 
ATOM     19  N   UNL A   1      40.272  28.627  29.784  1.00  0.00    -0.354 N 
ATOM     20  C   UNL A   1      39.435  31.058  33.242  1.00  0.00     0.074 A 
ATOM     21  C   UNL A   1      38.221  31.826  33.063  1.00  0.00     0.031 C 
ATOM     22  C   UNL A   1      39.938  27.806  27.731  1.00  0.00     0.029 A 
ATOM     23  C   UNL A   1      40.841  27.770  28.877  1.00  0.00     0.049 A 
ATOM     24  H   UNL A   1      40.653  28.802  30.675  1.00  0.00     0.167 HD
ATOM     25  C   UNL A   1      40.201  31.084  34.360  1.00  0.00     0.037 A 
ATOM     26  C   UNL A   1      41.971  27.042  28.952  1.00  0.00     0.037 A 
ATOM     27  C   UNL A   1      41.405  30.312  34.546  1.00  0.00     0.049 A 
ATOM     28  C   UNL A   1      42.800  27.091  30.203  1.00  0.00     0.074 A 
ATOM     29  C   UNL A   1      42.236  30.263  35.653  1.00  0.00     0.029 A 
ATOM     30  N   UNL A   1      41.948  29.454  33.603  1.00  0.00    -0.354 N 
ATOM     31  N   UNL A   1      42.601  27.777  31.300  1.00  0.00    -0.248 NA
ATOM     32  C   UNL A   1      44.011  26.258  30.225  1.00  0.00     0.031 C 
ATOM     33  C   UNL A   1      43.300  29.400  35.367  1.00  0.00     0.029 A 
ATOM     34  C   UNL A   1      43.110  28.879  34.098  1.00  0.00     0.049 A 
ATOM     35  H   UNL A   1      41.566  29.278  32.713  1.00  0.00     0.167 HD
ATOM     36  C   UNL A   1      43.654  27.456  32.145  1.00  0.00     0.074 A 
ATOM     37  C   UNL A   1      44.473  26.489  31.445  1.00  0.00     0.031 C 
ATOM     38  C   UNL A   1      43.921  27.926  33.388  1.00  0.00     0.037 A 
BRANCH  25  39
ATOM     39  C   UNL A   1      39.766  31.975  35.486  1.00  0.00     0.064 A 
ATOM     40  C   UNL A   1      40.250  33.286  35.610  1.00  0.00     0.173 A 
ATOM     41  C   UNL A   1      38.800  31.541  36.408  1.00  0.00     0.173 A 
ATOM     42  F   UNL A   1      41.182  33.744  34.761  1.00  0.00    -0.203 F 
ATOM     43  C   UNL A   1      39.790  34.126  36.621  1.00  0.00     0.198 A 
ATOM     44  C   UNL A   1      38.326  32.392  37.403  1.00  0.00     0.198 A 
ATOM     45  F   UNL A   1      38.300  30.299  36.328  1.00  0.00    -0.203 F 
ATOM     46  F   UNL A   1      40.287  35.365  36.737  1.00  0.00    -0.200 F 
ATOM     47  C   UNL A   1      38.824  33.682  37.511  1.00  0.00     0.200 A 
ATOM     48  F   UNL A   1      37.384  31.966  38.254  1.00  0.00    -0.200 F 
ATOM     49  F   UNL A   1      38.373  34.497  38.474  1.00  0.00    -0.200 F 
ENDBRANCH  25  39
BRANCH  26  50
ATOM     50  C   UNL A   1      42.382  26.207  27.796  1.00  0.00     0.064 A 
ATOM     51  C   UNL A   1      41.857  24.922  27.610  1.00  0.00     0.173 A 
ATOM     52  C   UNL A   1      43.305  26.681  26.853  1.00  0.00     0.173 A 
ATOM     53  F   UNL A   1      40.988  24.418  28.499  1.00  0.00    -0.203 F 
ATOM     54  C   UNL A   1      42.251  24.135  26.530  1.00  0.00     0.198 A 
ATOM     55  C   UNL A   1      43.677  25.905  25.758  1.00  0.00     0.198 A 
ATOM     56  F   UNL A   1      43.833  27.907  26.988  1.00  0.00    -0.203 F 
ATOM     57  F   UNL A   1      41.766  22.893  26.397  1.00  0.00    -0.200 F 
ATOM     58  C   UNL A   1      43.156  24.630  25.603  1.00  0.00     0.200 A 
ATOM     59  F   UNL A   1      44.541  26.393  24.858  1.00  0.00    -0.200 F 
ATOM     60  F   UNL A   1      43.531  23.875  24.561  1.00  0.00    -0.200 F 
ENDBRANCH  26  50
BRANCH  38  61
ATOM     61  C   UNL A   1      45.149  27.393  34.066  1.00  0.00     0.064 A 
ATOM     62  C   UNL A   1      45.103  26.230  34.849  1.00  0.00     0.173 A 
ATOM     63  C   UNL A   1      46.380  28.048  33.930  1.00  0.00     0.173 A 
ATOM     64  F   UNL A   1      43.944  25.579  35.023  1.00  0.00    -0.203 F 
ATOM     65  C   UNL A   1      46.242  25.760  35.497  1.00  0.00     0.198 A 
ATOM     66  C   UNL A   1      47.523  27.561  34.558  1.00  0.00     0.198 A 
ATOM     67  F   UNL A   1      46.477  29.161  33.187  1.00  0.00    -0.203 F 
ATOM     68  F   UNL A   1      46.165  24.677  36.283  1.00  0.00    -0.200 F 
ATOM     69  C   UNL A   1      47.451  26.423  35.348  1.00  0.00     0.200 A 
ATOM     70  F   UNL A   1      48.692  28.197  34.408  1.00  0.00    -0.200 F 
ATOM     71  F   UNL A   1      48.546  25.972  35.977  1.00  0.00    -0.200 F 
ENDBRANCH  38  61
ENDBRANCH  12  13
ENDBRANCH   5   7
ENDBRANCH   2   3
ENDBRANCH   1   2
BRANCH   1  72
ATOM     72  C   UNL A   1      31.874  27.635  27.364  1.00  0.00     0.023 C 
BRANCH  72  73
ATOM     73  C   UNL A   1      32.373  26.288  26.838  1.00  0.00     0.116 C 
BRANCH  73  74
ATOM     74  N   UNL A   1      31.431  25.208  27.033  1.00  0.00    -0.354 N 
ATOM     75  C   UNL A   1      30.684  24.541  26.105  1.00  0.00     0.242 C 
ATOM     76  H   UNL A   1      31.313  24.911  27.964  1.00  0.00     0.163 HD
ATOM     77  O   UNL A   1      29.938  23.651  26.530  1.00  0.00    -0.273 OA
BRANCH  75  78
ATOM     78  C   UNL A   1      30.573  25.017  24.632  1.00  0.00     0.176 C 
ATOM     79  C   UNL A   1      29.627  26.232  24.680  1.00  0.00     0.036 C 
ATOM     80  N   UNL A   1      31.854  25.169  23.891  1.00  0.00    -0.309 N 
ATOM     81  C   UNL A   1      29.763  27.176  23.509  1.00  0.00     0.008 C 
ATOM     82  C   UNL A   1      32.069  26.350  23.002  1.00  0.00     0.091 C 
ATOM     83  C   UNL A   1      31.224  27.577  23.415  1.00  0.00     0.012 C 
ATOM     84  C   UNL A   1      33.549  26.798  22.899  1.00  0.00     0.025 C 
ATOM     85  C   UNL A   1      31.403  28.770  22.470  1.00  0.00     0.006 C 
ATOM     86  C   UNL A   1      33.730  27.999  21.966  1.00  0.00     0.002 C 
ATOM     87  C   UNL A   1      32.868  29.178  22.387  1.00  0.00     0.000 C 
BRANCH  80  88
ATOM     88  C   UNL A   1      32.577  23.998  23.583  1.00  0.00     0.321 C 
ATOM     89  O   UNL A   1      32.374  23.285  22.604  1.00  0.00    -0.248 OA
ATOM     90  N   UNL A   1      33.617  23.698  24.457  1.00  0.00    -0.323 N 
ATOM     91  C   UNL A   1      34.955  23.723  23.868  1.00  0.00     0.132 C 
ATOM     92  C   UNL A   1      33.397  22.570  25.363  1.00  0.00     0.132 C 
ATOM     93  C   UNL A   1      36.054  23.914  24.910  1.00  0.00     0.091 C 
ATOM     94  C   UNL A   1      34.331  22.572  26.575  1.00  0.00     0.091 C 
ATOM     95  S   UNL A   1      36.094  22.539  26.101  1.00  0.00    -0.158 SA
ENDBRANCH  80  88
ENDBRANCH  75  78
ENDBRANCH  73  74
ENDBRANCH  72  73
ENDBRANCH   1  72
TORSDOF 12
ENDMDL
MODEL 3
REMARK VINA RESULT:     -11.9      3.346      4.731
REMARK SMILES O=C(NCCCCNC(=O)[C@H]1CC[C@@H]2CCCC[C@H]2N1C(=O)N1CCSCC1)c1ccc(-c2c3nc(c(-c4c(F)c(F)c(F)c(F)c4F)c4ccc([nH]4)c(-c4c(F)c(F)c(F)c(F)c4F)c4nc(c(-c5c(F)c(F)c(F)c(F)c5F)c5ccc2[nH]5)C=C4)C=C3)cc1
REMARK SMILES IDX 5 1 4 2 3 3 1 4 2 5 29 7 30 8 91 9 31 10 90 11 32 12 33 13
REMARK SMILES IDX 34 14 84 15 35 16 89 17 83 18 85 19 36 20 88 21 82 22 81 23
REMARK SMILES IDX 37 25 69 26 49 27 68 28 50 29 53 30 67 31 86 32 51 33 52 34
REMARK SMILES IDX 66 36 87 37 54 38 38 39 39 40 47 41 40 42 41 43 45 44 48 45
REMARK SMILES IDX 42 46 43 47 46 48 44 49 70 50 71 51 79 52 72 53 73 54 77 55
REMARK SMILES IDX 80 56 74 57 75 58 78 59 76 60 55 61 56 62 64 63 57 64 58 65
REMARK SMILES IDX 62 66 65 67 59 68 60 69 63 70 61 71 6 72 7 73 8 74 9 75
REMARK SMILES IDX 10 77 11 78 12 79 20 80 13 81 19 82 14 83 18 84 15 85 17 86
REMARK SMILES IDX 16 87 21 88 22 89 23 90 24 91 28 92 25 93 27 94 26 95
REMARK H PARENT 3 6 85 24 53 35 8 76
REMARK Flexibility Score: inf
ROOT
ATOM      1  C   UNL A   1      31.767  31.220  26.842  1.00  0.00     0.023 C 
ENDROOT
BRANCH   1   2
ATOM      2  C   UNL A   1      32.927  32.195  26.995  1.00  0.00     0.116 C 
BRANCH   2   3
ATOM      3  N   UNL A   1      32.526  33.532  27.394  1.00  0.00    -0.352 N 
ATOM      4  O   UNL A   1      32.583  35.418  28.646  1.00  0.00    -0.269 OA
ATOM      5  C   UNL A   1      33.082  34.334  28.366  1.00  0.00     0.251 C 
ATOM      6  H   UNL A   1      31.760  33.915  26.907  1.00  0.00     0.163 HD
BRANCH   5   7
ATOM      7  C   UNL A   1      34.270  33.856  29.107  1.00  0.00     0.039 A 
ATOM      8  C   UNL A   1      35.550  34.299  28.766  1.00  0.00     0.014 A 
ATOM      9  C   UNL A   1      34.100  32.919  30.131  1.00  0.00     0.014 A 
ATOM     10  C   UNL A   1      36.666  33.704  29.349  1.00  0.00     0.010 A 
ATOM     11  C   UNL A   1      35.221  32.368  30.760  1.00  0.00     0.010 A 
ATOM     12  C   UNL A   1      36.514  32.724  30.346  1.00  0.00    -0.014 A 
BRANCH  12  13
ATOM     13  C   UNL A   1      37.716  32.100  30.959  1.00  0.00     0.031 A 
ATOM     14  C   UNL A   1      38.185  32.500  32.333  1.00  0.00     0.074 A 
ATOM     15  C   UNL A   1      38.381  31.148  30.278  1.00  0.00     0.049 A 
ATOM     16  N   UNL A   1      39.212  32.058  33.018  1.00  0.00    -0.248 NA
ATOM     17  C   UNL A   1      37.406  33.535  33.028  1.00  0.00     0.031 C 
ATOM     18  C   UNL A   1      38.042  30.685  28.932  1.00  0.00     0.029 A 
ATOM     19  N   UNL A   1      39.476  30.397  30.624  1.00  0.00    -0.354 N 
ATOM     20  C   UNL A   1      39.206  32.762  34.214  1.00  0.00     0.074 A 
ATOM     21  C   UNL A   1      38.092  33.685  34.154  1.00  0.00     0.031 C 
ATOM     22  C   UNL A   1      38.895  29.713  28.575  1.00  0.00     0.029 A 
ATOM     23  C   UNL A   1      39.864  29.514  29.648  1.00  0.00     0.049 A 
ATOM     24  H   UNL A   1      39.938  30.483  31.489  1.00  0.00     0.167 HD
ATOM     25  C   UNL A   1      40.046  32.643  35.272  1.00  0.00     0.037 A 
ATOM     26  C   UNL A   1      40.894  28.647  29.612  1.00  0.00     0.037 A 
ATOM     27  C   UNL A   1      41.150  31.718  35.341  1.00  0.00     0.049 A 
ATOM     28  C   UNL A   1      41.808  28.537  30.798  1.00  0.00     0.074 A 
ATOM     29  C   UNL A   1      42.045  31.517  36.379  1.00  0.00     0.029 A 
ATOM     30  N   UNL A   1      41.510  30.840  34.330  1.00  0.00    -0.354 N 
ATOM     31  N   UNL A   1      41.777  29.195  31.930  1.00  0.00    -0.248 NA
ATOM     32  C   UNL A   1      42.900  27.557  30.701  1.00  0.00     0.031 C 
ATOM     33  C   UNL A   1      42.965  30.540  35.985  1.00  0.00     0.029 A 
ATOM     34  C   UNL A   1      42.620  30.102  34.717  1.00  0.00     0.049 A 
ATOM     35  H   UNL A   1      41.047  30.752  33.467  1.00  0.00     0.167 HD
ATOM     36  C   UNL A   1      42.836  28.708  32.682  1.00  0.00     0.074 A 
ATOM     37  C   UNL A   1      43.473  27.675  31.890  1.00  0.00     0.031 C 
ATOM     38  C   UNL A   1      43.250  29.086  33.916  1.00  0.00     0.037 A 
BRANCH  25  39
ATOM     39  C   UNL A   1      39.810  33.533  36.457  1.00  0.00     0.064 A 
ATOM     40  C   UNL A   1      40.373  34.815  36.532  1.00  0.00     0.173 A 
ATOM     41  C   UNL A   1      38.953  33.130  37.493  1.00  0.00     0.173 A 
ATOM     42  F   UNL A   1      41.207  35.243  35.572  1.00  0.00    -0.203 F 
ATOM     43  C   UNL A   1      40.095  35.658  37.606  1.00  0.00     0.198 A 
ATOM     44  C   UNL A   1      38.660  33.983  38.554  1.00  0.00     0.198 A 
ATOM     45  F   UNL A   1      38.384  31.915  37.465  1.00  0.00    -0.203 F 
ATOM     46  F   UNL A   1      40.666  36.868  37.670  1.00  0.00    -0.200 F 
ATOM     47  C   UNL A   1      39.233  35.245  38.611  1.00  0.00     0.200 A 
ATOM     48  F   UNL A   1      37.817  33.588  39.517  1.00  0.00    -0.200 F 
ATOM     49  F   UNL A   1      38.956  36.062  39.636  1.00  0.00    -0.200 F 
ENDBRANCH  25  39
BRANCH  26  50
ATOM     50  C   UNL A   1      41.110  27.817  28.402  1.00  0.00     0.064 A 
ATOM     51  C   UNL A   1      41.919  28.268  27.351  1.00  0.00     0.173 A 
ATOM     52  C   UNL A   1      40.514  26.554  28.275  1.00  0.00     0.173 A 
ATOM     53  F   UNL A   1      42.491  29.479  27.418  1.00  0.00    -0.203 F 
ATOM     54  C   UNL A   1      42.113  27.491  26.211  1.00  0.00     0.198 A 
ATOM     55  C   UNL A   1      40.731  25.766  27.147  1.00  0.00     0.198 A 
ATOM     56  F   UNL A   1      39.733  26.078  29.257  1.00  0.00    -0.203 F 
ATOM     57  F   UNL A   1      42.858  27.962  25.201  1.00  0.00    -0.200 F 
ATOM     58  C   UNL A   1      41.524  26.240  26.113  1.00  0.00     0.200 A 
ATOM     59  F   UNL A   1      40.170  24.552  27.063  1.00  0.00    -0.200 F 
ATOM     60  F   UNL A   1      41.715  25.491  25.018  1.00  0.00    -0.200 F 
ENDBRANCH  26  50
BRANCH  38  61
ATOM     61  C   UNL A   1      44.443  28.374  34.481  1.00  0.00     0.064 A 
ATOM     62  C   UNL A   1      45.744  28.861  34.286  1.00  0.00     0.173 A 
ATOM     63  C   UNL A   1      44.284  27.198  35.227  1.00  0.00     0.173 A 
ATOM     64  F   UNL A   1      45.947  29.973  33.564  1.00  0.00    -0.203 F 
ATOM     65  C   UNL A   1      46.846  28.176  34.792  1.00  0.00     0.198 A 
ATOM     66  C   UNL A   1      45.386  26.530  35.753  1.00  0.00     0.198 A 
ATOM     67  F   UNL A   1      43.060  26.695  35.446  1.00  0.00    -0.203 F 
ATOM     68  F   UNL A   1      48.083  28.630  34.548  1.00  0.00    -0.200 F 
ATOM     69  C   UNL A   1      46.666  27.014  35.527  1.00  0.00     0.200 A 
ATOM     70  F   UNL A   1      45.212  25.412  36.471  1.00  0.00    -0.200 F 
ATOM     71  F   UNL A   1      47.729  26.354  36.010  1.00  0.00    -0.200 F 
ENDBRANCH  38  61
ENDBRANCH  12  13
ENDBRANCH   5   7
ENDBRANCH   2   3
ENDBRANCH   1   2
BRANCH   1  72
ATOM     72  C   UNL A   1      32.047  29.765  27.230  1.00  0.00     0.023 C 
BRANCH  72  73
ATOM     73  C   UNL A   1      31.724  28.703  26.179  1.00  0.00     0.116 C 
BRANCH  73  74
ATOM     74  N   UNL A   1      31.746  27.353  26.696  1.00  0.00    -0.354 N 
ATOM     75  C   UNL A   1      31.409  26.187  26.070  1.00  0.00     0.242 C 
ATOM     76  H   UNL A   1      32.047  27.261  27.629  1.00  0.00     0.163 HD
ATOM     77  O   UNL A   1      31.506  25.151  26.740  1.00  0.00    -0.273 OA
BRANCH  75  78
ATOM     78  C   UNL A   1      30.705  26.161  24.688  1.00  0.00     0.176 C 
ATOM     79  C   UNL A   1      29.199  26.136  25.011  1.00  0.00     0.036 C 
ATOM     80  N   UNL A   1      31.180  27.158  23.690  1.00  0.00    -0.309 N 
ATOM     81  C   UNL A   1      28.312  26.628  23.891  1.00  0.00     0.008 C 
ATOM     82  C   UNL A   1      30.196  27.894  22.841  1.00  0.00     0.091 C 
ATOM     83  C   UNL A   1      28.801  28.010  23.497  1.00  0.00     0.012 C 
ATOM     84  C   UNL A   1      30.655  29.318  22.436  1.00  0.00     0.025 C 
ATOM     85  C   UNL A   1      27.777  28.716  22.602  1.00  0.00     0.006 C 
ATOM     86  C   UNL A   1      29.628  30.032  21.553  1.00  0.00     0.002 C 
ATOM     87  C   UNL A   1      28.264  30.107  22.219  1.00  0.00     0.000 C 
BRANCH  80  88
ATOM     88  C   UNL A   1      32.479  26.995  23.165  1.00  0.00     0.321 C 
ATOM     89  O   UNL A   1      33.161  27.898  22.689  1.00  0.00    -0.248 OA
ATOM     90  N   UNL A   1      32.999  25.708  23.261  1.00  0.00    -0.323 N 
ATOM     91  C   UNL A   1      34.185  25.574  24.104  1.00  0.00     0.132 C 
ATOM     92  C   UNL A   1      33.078  24.947  22.014  1.00  0.00     0.132 C 
ATOM     93  C   UNL A   1      34.399  24.146  24.599  1.00  0.00     0.091 C 
ATOM     94  C   UNL A   1      33.206  23.438  22.229  1.00  0.00     0.091 C 
ATOM     95  S   UNL A   1      34.675  22.994  23.219  1.00  0.00    -0.158 SA
ENDBRANCH  80  88
ENDBRANCH  75  78
ENDBRANCH  73  74
ENDBRANCH  72  73
ENDBRANCH   1  72
TORSDOF 12
ENDMDL
