MODEL 1
REMARK VINA RESULT:     -10.9      0.000      0.000
REMARK SMILES O=C(COc1cc2ccccc2cc1O)NCCCCNC(=O)c1ccc(-c2c3nc(c(-c4c(F)c(F)c(F)c(F)c4F)c4ccc([nH]4)c(-c4c(F)c(F)c(F)c(F)c4F)c4nc(c(-c5c(F)c(F)c(F)c(F)c5F)c5ccc2[nH]5)C=C4)C=C3)cc1
REMARK SMILES IDX 18 1 17 2 16 3 1 4 2 5 3 7 4 8 5 9 6 10 14 11 7 12 13 13
REMARK SMILES IDX 8 14 12 15 9 16 11 17 10 18 15 19 19 21 20 22 21 23 22 24
REMARK SMILES IDX 23 26 24 27 25 28 86 29 26 30 85 31 27 32 28 33 29 34 79 35
REMARK SMILES IDX 30 36 84 37 78 38 80 39 31 40 83 41 77 42 76 43 32 45 64 46
REMARK SMILES IDX 44 47 63 48 45 49 48 50 62 51 81 52 46 53 47 54 61 56 82 57
REMARK SMILES IDX 49 58 33 59 34 60 42 61 35 62 36 63 40 64 43 65 37 66 38 67
REMARK SMILES IDX 41 68 39 69 65 70 66 71 74 72 67 73 68 74 72 75 75 76 69 77
REMARK SMILES IDX 70 78 73 79 71 80 50 81 51 82 59 83 52 84 53 85 57 86 60 87
REMARK SMILES IDX 54 88 55 89 58 90 56 91
REMARK H PARENT 16 6 15 20 21 25 80 44 48 55
REMARK Flexibility Score: inf
ROOT
ATOM      1  C   UNL A   1      33.119  34.784  28.699  1.00  0.00     0.023 C 
ENDROOT
BRANCH   1   2
ATOM      2  C   UNL A   1      33.011  35.923  29.718  1.00  0.00     0.116 C 
BRANCH   2   3
ATOM      3  N   UNL A   1      33.790  35.686  30.916  1.00  0.00    -0.353 N 
ATOM      4  O   UNL A   1      32.937  37.442  32.127  1.00  0.00    -0.271 OA
ATOM      5  C   UNL A   1      33.649  36.444  32.065  1.00  0.00     0.257 C 
ATOM      6  H   UNL A   1      34.446  34.953  30.913  1.00  0.00     0.163 HD
BRANCH   5   7
ATOM      7  C   UNL A   1      34.501  35.948  33.264  1.00  0.00     0.329 C 
BRANCH   7   8
ATOM      8  O   UNL A   1      34.297  34.685  33.893  1.00  0.00    -0.480 OA
BRANCH   8   9
ATOM      9  C   UNL A   1      35.224  33.709  33.661  1.00  0.00     0.162 A 
ATOM     10  C   UNL A   1      36.371  33.733  34.456  1.00  0.00     0.059 A 
ATOM     11  C   UNL A   1      35.125  32.739  32.670  1.00  0.00     0.158 A 
ATOM     12  C   UNL A   1      37.332  32.706  34.369  1.00  0.00    -0.014 A 
ATOM     13  C   UNL A   1      36.006  31.665  32.625  1.00  0.00     0.059 A 
ATOM     14  C   UNL A   1      38.516  32.724  35.124  1.00  0.00     0.009 A 
ATOM     15  C   UNL A   1      37.097  31.617  33.500  1.00  0.00    -0.014 A 
ATOM     16  C   UNL A   1      39.412  31.653  35.078  1.00  0.00     0.001 A 
ATOM     17  C   UNL A   1      37.980  30.526  33.502  1.00  0.00     0.009 A 
ATOM     18  C   UNL A   1      39.124  30.538  34.296  1.00  0.00     0.001 A 
BRANCH  11  19
ATOM     19  O   UNL A   1      34.183  32.822  31.681  1.00  0.00    -0.504 OA
ATOM     20  H   UNL A   1      34.434  33.070  30.813  1.00  0.00     0.293 HD
ENDBRANCH  11  19
ENDBRANCH   8   9
ENDBRANCH   7   8
ENDBRANCH   5   7
ENDBRANCH   2   3
ENDBRANCH   1   2
BRANCH   1  21
ATOM     21  C   UNL A   1      34.495  34.581  28.052  1.00  0.00     0.023 C 
BRANCH  21  22
ATOM     22  C   UNL A   1      35.171  33.238  28.316  1.00  0.00     0.116 C 
BRANCH  22  23
ATOM     23  N   UNL A   1      34.335  32.097  27.984  1.00  0.00    -0.352 N 
ATOM     24  C   UNL A   1      34.630  30.754  27.927  1.00  0.00     0.251 C 
ATOM     25  H   UNL A   1      33.402  32.322  27.764  1.00  0.00     0.163 HD
ATOM     26  O   UNL A   1      33.779  29.970  27.515  1.00  0.00    -0.269 OA
BRANCH  24  27
ATOM     27  C   UNL A   1      35.964  30.227  28.321  1.00  0.00     0.039 A 
ATOM     28  C   UNL A   1      36.991  30.242  27.370  1.00  0.00     0.014 A 
ATOM     29  C   UNL A   1      36.211  29.673  29.579  1.00  0.00     0.014 A 
ATOM     30  C   UNL A   1      38.268  29.775  27.700  1.00  0.00     0.010 A 
ATOM     31  C   UNL A   1      37.504  29.269  29.933  1.00  0.00     0.010 A 
ATOM     32  C   UNL A   1      38.551  29.320  28.999  1.00  0.00    -0.014 A 
BRANCH  32  33
ATOM     33  C   UNL A   1      39.937  28.928  29.384  1.00  0.00     0.031 A 
ATOM     34  C   UNL A   1      40.777  29.807  30.273  1.00  0.00     0.074 A 
ATOM     35  C   UNL A   1      40.463  27.785  28.899  1.00  0.00     0.049 A 
ATOM     36  N   UNL A   1      42.005  29.626  30.696  1.00  0.00    -0.248 NA
ATOM     37  C   UNL A   1      40.165  31.060  30.735  1.00  0.00     0.031 C 
ATOM     38  C   UNL A   1      39.778  26.859  27.997  1.00  0.00     0.029 A 
ATOM     39  N   UNL A   1      41.694  27.206  29.094  1.00  0.00    -0.354 N 
ATOM     40  C   UNL A   1      42.313  30.741  31.465  1.00  0.00     0.074 A 
ATOM     41  C   UNL A   1      41.161  31.617  31.409  1.00  0.00     0.031 C 
ATOM     42  C   UNL A   1      40.584  25.818  27.738  1.00  0.00     0.029 A 
ATOM     43  C   UNL A   1      41.859  26.019  28.421  1.00  0.00     0.049 A 
ATOM     44  H   UNL A   1      42.393  27.605  29.661  1.00  0.00     0.167 HD
ATOM     45  C   UNL A   1      43.441  31.003  32.169  1.00  0.00     0.037 A 
ATOM     46  C   UNL A   1      42.916  25.187  28.355  1.00  0.00     0.037 A 
ATOM     47  C   UNL A   1      44.584  30.127  32.238  1.00  0.00     0.049 A 
ATOM     48  C   UNL A   1      44.168  25.513  29.125  1.00  0.00     0.074 A 
ATOM     49  C   UNL A   1      45.747  30.281  32.974  1.00  0.00     0.029 A 
ATOM     50  N   UNL A   1      44.714  28.937  31.536  1.00  0.00    -0.354 N 
ATOM     51  N   UNL A   1      44.415  26.534  29.908  1.00  0.00    -0.248 NA
ATOM     52  C   UNL A   1      45.286  24.567  29.005  1.00  0.00     0.031 C 
ATOM     53  C   UNL A   1      46.604  29.217  32.673  1.00  0.00     0.029 A 
ATOM     54  C   UNL A   1      45.950  28.364  31.799  1.00  0.00     0.049 A 
ATOM     55  H   UNL A   1      44.029  28.554  30.941  1.00  0.00     0.167 HD
ATOM     56  C   UNL A   1      45.699  26.338  30.398  1.00  0.00     0.074 A 
ATOM     57  C   UNL A   1      46.175  25.092  29.835  1.00  0.00     0.031 C 
ATOM     58  C   UNL A   1      46.418  27.121  31.240  1.00  0.00     0.037 A 
BRANCH  45  59
ATOM     59  C   UNL A   1      43.506  32.301  32.926  1.00  0.00     0.064 A 
ATOM     60  C   UNL A   1      43.981  33.479  32.330  1.00  0.00     0.173 A 
ATOM     61  C   UNL A   1      43.041  32.379  34.247  1.00  0.00     0.173 A 
ATOM     62  F   UNL A   1      44.443  33.460  31.069  1.00  0.00    -0.203 F 
ATOM     63  C   UNL A   1      44.022  34.678  33.039  1.00  0.00     0.198 A 
ATOM     64  C   UNL A   1      43.051  33.586  34.943  1.00  0.00     0.198 A 
ATOM     65  F   UNL A   1      42.564  31.287  34.863  1.00  0.00    -0.203 F 
ATOM     66  F   UNL A   1      44.528  35.777  32.466  1.00  0.00    -0.200 F 
ATOM     67  C   UNL A   1      43.550  34.731  34.342  1.00  0.00     0.200 A 
ATOM     68  F   UNL A   1      42.580  33.639  36.196  1.00  0.00    -0.200 F 
ATOM     69  F   UNL A   1      43.582  35.886  35.021  1.00  0.00    -0.200 F 
ENDBRANCH  45  59
BRANCH  46  70
ATOM     70  C   UNL A   1      42.834  23.945  27.538  1.00  0.00     0.064 A 
ATOM     71  C   UNL A   1      42.442  22.729  28.113  1.00  0.00     0.173 A 
ATOM     72  C   UNL A   1      43.153  23.948  26.172  1.00  0.00     0.173 A 
ATOM     73  F   UNL A   1      42.150  22.670  29.420  1.00  0.00    -0.203 F 
ATOM     74  C   UNL A   1      42.392  21.558  27.359  1.00  0.00     0.198 A 
ATOM     75  C   UNL A   1      43.073  22.784  25.411  1.00  0.00     0.198 A 
ATOM     76  F   UNL A   1      43.531  25.087  25.572  1.00  0.00    -0.203 F 
ATOM     77  F   UNL A   1      42.063  20.399  27.945  1.00  0.00    -0.200 F 
ATOM     78  C   UNL A   1      42.701  21.587  26.007  1.00  0.00     0.200 A 
ATOM     79  F   UNL A   1      43.357  22.820  24.102  1.00  0.00    -0.200 F 
ATOM     80  F   UNL A   1      42.649  20.463  25.281  1.00  0.00    -0.200 F 
ENDBRANCH  46  70
BRANCH  58  81
ATOM     81  C   UNL A   1      47.785  26.638  31.639  1.00  0.00     0.064 A 
ATOM     82  C   UNL A   1      48.940  27.033  30.948  1.00  0.00     0.173 A 
ATOM     83  C   UNL A   1      47.943  25.795  32.750  1.00  0.00     0.173 A 
ATOM     84  F   UNL A   1      48.843  27.825  29.869  1.00  0.00    -0.203 F 
ATOM     85  C   UNL A   1      50.198  26.581  31.337  1.00  0.00     0.198 A 
ATOM     86  C   UNL A   1      49.205  25.372  33.157  1.00  0.00     0.198 A 
ATOM     87  F   UNL A   1      46.874  25.391  33.450  1.00  0.00    -0.203 F 
ATOM     88  F   UNL A   1      51.282  26.930  30.631  1.00  0.00    -0.200 F 
ATOM     89  C   UNL A   1      50.331  25.758  32.446  1.00  0.00     0.200 A 
ATOM     90  F   UNL A   1      49.333  24.589  34.237  1.00  0.00    -0.200 F 
ATOM     91  F   UNL A   1      51.544  25.330  32.824  1.00  0.00    -0.200 F 
ENDBRANCH  58  81
ENDBRANCH  32  33
ENDBRANCH  24  27
ENDBRANCH  22  23
ENDBRANCH  21  22
ENDBRANCH   1  21
TORSDOF 14
ENDMDL
MODEL 2
REMARK VINA RESULT:     -10.9      0.306      1.646
REMARK SMILES O=C(COc1cc2ccccc2cc1O)NCCCCNC(=O)c1ccc(-c2c3nc(c(-c4c(F)c(F)c(F)c(F)c4F)c4ccc([nH]4)c(-c4c(F)c(F)c(F)c(F)c4F)c4nc(c(-c5c(F)c(F)c(F)c(F)c5F)c5ccc2[nH]5)C=C4)C=C3)cc1
REMARK SMILES IDX 18 1 17 2 16 3 1 4 2 5 3 7 4 8 5 9 6 10 14 11 7 12 13 13
REMARK SMILES IDX 8 14 12 15 9 16 11 17 10 18 15 19 19 21 20 22 21 23 22 24
REMARK SMILES IDX 23 26 24 27 25 28 86 29 26 30 85 31 27 32 28 33 29 34 79 35
REMARK SMILES IDX 30 36 84 37 78 38 80 39 31 40 83 41 77 42 76 43 32 45 64 46
REMARK SMILES IDX 44 47 63 48 45 49 48 50 62 51 81 52 46 53 47 54 61 56 82 57
REMARK SMILES IDX 49 58 33 59 34 60 42 61 35 62 36 63 40 64 43 65 37 66 38 67
REMARK SMILES IDX 41 68 39 69 65 70 66 71 74 72 67 73 68 74 72 75 75 76 69 77
REMARK SMILES IDX 70 78 73 79 71 80 50 81 51 82 59 83 52 84 53 85 57 86 60 87
REMARK SMILES IDX 54 88 55 89 58 90 56 91
REMARK H PARENT 16 6 15 20 21 25 80 44 48 55
REMARK Flexibility Score: inf
ROOT
ATOM      1  C   UNL A   1      33.030  34.754  28.595  1.00  0.00     0.023 C 
ENDROOT
BRANCH   1   2
ATOM      2  C   UNL A   1      32.964  35.961  29.537  1.00  0.00     0.116 C 
BRANCH   2   3
ATOM      3  N   UNL A   1      33.823  35.821  30.695  1.00  0.00    -0.353 N 
ATOM      4  O   UNL A   1      32.469  36.967  32.155  1.00  0.00    -0.271 OA
ATOM      5  C   UNL A   1      33.476  36.296  31.947  1.00  0.00     0.257 C 
ATOM      6  H   UNL A   1      34.689  35.368  30.586  1.00  0.00     0.163 HD
BRANCH   5   7
ATOM      7  C   UNL A   1      34.492  35.943  33.066  1.00  0.00     0.329 C 
BRANCH   7   8
ATOM      8  O   UNL A   1      34.401  34.757  33.853  1.00  0.00    -0.480 OA
BRANCH   8   9
ATOM      9  C   UNL A   1      35.269  33.742  33.566  1.00  0.00     0.162 A 
ATOM     10  C   UNL A   1      36.482  33.742  34.257  1.00  0.00     0.059 A 
ATOM     11  C   UNL A   1      35.050  32.755  32.612  1.00  0.00     0.158 A 
ATOM     12  C   UNL A   1      37.394  32.679  34.114  1.00  0.00    -0.014 A 
ATOM     13  C   UNL A   1      35.886  31.649  32.519  1.00  0.00     0.059 A 
ATOM     14  C   UNL A   1      38.641  32.670  34.763  1.00  0.00     0.009 A 
ATOM     15  C   UNL A   1      37.047  31.580  33.296  1.00  0.00    -0.014 A 
ATOM     16  C   UNL A   1      39.491  31.566  34.667  1.00  0.00     0.001 A 
ATOM     17  C   UNL A   1      37.888  30.458  33.250  1.00  0.00     0.009 A 
ATOM     18  C   UNL A   1      39.098  30.445  33.941  1.00  0.00     0.001 A 
BRANCH  11  19
ATOM     19  O   UNL A   1      34.028  32.851  31.707  1.00  0.00    -0.504 OA
ATOM     20  H   UNL A   1      33.329  32.227  31.720  1.00  0.00     0.293 HD
ENDBRANCH  11  19
ENDBRANCH   8   9
ENDBRANCH   7   8
ENDBRANCH   5   7
ENDBRANCH   2   3
ENDBRANCH   1   2
BRANCH   1  21
ATOM     21  C   UNL A   1      34.408  34.430  28.002  1.00  0.00     0.023 C 
BRANCH  21  22
ATOM     22  C   UNL A   1      35.022  33.096  28.415  1.00  0.00     0.116 C 
BRANCH  22  23
ATOM     23  N   UNL A   1      34.221  31.948  28.026  1.00  0.00    -0.352 N 
ATOM     24  C   UNL A   1      34.558  30.619  27.901  1.00  0.00     0.251 C 
ATOM     25  H   UNL A   1      33.282  32.155  27.817  1.00  0.00     0.163 HD
ATOM     26  O   UNL A   1      33.731  29.832  27.450  1.00  0.00    -0.269 OA
BRANCH  24  27
ATOM     27  C   UNL A   1      35.907  30.114  28.269  1.00  0.00     0.039 A 
ATOM     28  C   UNL A   1      36.916  30.149  27.300  1.00  0.00     0.014 A 
ATOM     29  C   UNL A   1      36.188  29.562  29.521  1.00  0.00     0.014 A 
ATOM     30  C   UNL A   1      38.206  29.703  27.605  1.00  0.00     0.010 A 
ATOM     31  C   UNL A   1      37.494  29.180  29.850  1.00  0.00     0.010 A 
ATOM     32  C   UNL A   1      38.522  29.251  28.897  1.00  0.00    -0.014 A 
BRANCH  32  33
ATOM     33  C   UNL A   1      39.921  28.882  29.255  1.00  0.00     0.031 A 
ATOM     34  C   UNL A   1      40.782  29.801  30.082  1.00  0.00     0.074 A 
ATOM     35  C   UNL A   1      40.439  27.723  28.802  1.00  0.00     0.049 A 
ATOM     36  N   UNL A   1      42.023  29.643  30.474  1.00  0.00    -0.248 NA
ATOM     37  C   UNL A   1      40.176  31.069  30.511  1.00  0.00     0.031 C 
ATOM     38  C   UNL A   1      39.734  26.757  27.959  1.00  0.00     0.029 A 
ATOM     39  N   UNL A   1      41.680  27.159  28.982  1.00  0.00    -0.354 N 
ATOM     40  C   UNL A   1      42.347  30.790  31.187  1.00  0.00     0.074 A 
ATOM     41  C   UNL A   1      41.188  31.658  31.131  1.00  0.00     0.031 C 
ATOM     42  C   UNL A   1      40.538  25.711  27.718  1.00  0.00     0.029 A 
ATOM     43  C   UNL A   1      41.832  25.946  28.354  1.00  0.00     0.049 A 
ATOM     44  H   UNL A   1      42.393  27.584  29.511  1.00  0.00     0.167 HD
ATOM     45  C   UNL A   1      43.494  31.087  31.846  1.00  0.00     0.037 A 
ATOM     46  C   UNL A   1      42.892  25.117  28.289  1.00  0.00     0.037 A 
ATOM     47  C   UNL A   1      44.644  30.220  31.915  1.00  0.00     0.049 A 
ATOM     48  C   UNL A   1      44.164  25.481  29.007  1.00  0.00     0.074 A 
ATOM     49  C   UNL A   1      45.828  30.410  32.609  1.00  0.00     0.029 A 
ATOM     50  N   UNL A   1      44.761  29.004  31.259  1.00  0.00    -0.354 N 
ATOM     51  N   UNL A   1      44.428  26.535  29.740  1.00  0.00    -0.248 NA
ATOM     52  C   UNL A   1      45.284  24.536  28.892  1.00  0.00     0.031 C 
ATOM     53  C   UNL A   1      46.682  29.339  32.326  1.00  0.00     0.029 A 
ATOM     54  C   UNL A   1      46.008  28.448  31.507  1.00  0.00     0.049 A 
ATOM     55  H   UNL A   1      44.061  28.593  30.701  1.00  0.00     0.167 HD
ATOM     56  C   UNL A   1      45.728  26.365  30.199  1.00  0.00     0.074 A 
ATOM     57  C   UNL A   1      46.195  25.100  29.672  1.00  0.00     0.031 C 
ATOM     58  C   UNL A   1      46.467  27.185  30.985  1.00  0.00     0.037 A 
BRANCH  45  59
ATOM     59  C   UNL A   1      43.574  32.415  32.547  1.00  0.00     0.064 A 
ATOM     60  C   UNL A   1      43.985  33.578  31.878  1.00  0.00     0.173 A 
ATOM     61  C   UNL A   1      43.186  32.536  33.890  1.00  0.00     0.173 A 
ATOM     62  F   UNL A   1      44.371  33.519  30.594  1.00  0.00    -0.203 F 
ATOM     63  C   UNL A   1      44.039  34.805  32.537  1.00  0.00     0.198 A 
ATOM     64  C   UNL A   1      43.210  33.769  34.537  1.00  0.00     0.198 A 
ATOM     65  F   UNL A   1      42.773  31.459  34.575  1.00  0.00    -0.203 F 
ATOM     66  F   UNL A   1      44.485  35.891  31.892  1.00  0.00    -0.200 F 
ATOM     67  C   UNL A   1      43.645  34.900  33.863  1.00  0.00     0.200 A 
ATOM     68  F   UNL A   1      42.813  33.862  35.813  1.00  0.00    -0.200 F 
ATOM     69  F   UNL A   1      43.690  36.081  34.494  1.00  0.00    -0.200 F 
ENDBRANCH  45  59
BRANCH  46  70
ATOM     70  C   UNL A   1      42.793  23.843  27.526  1.00  0.00     0.064 A 
ATOM     71  C   UNL A   1      43.186  23.776  26.182  1.00  0.00     0.173 A 
ATOM     72  C   UNL A   1      42.296  22.674  28.120  1.00  0.00     0.173 A 
ATOM     73  F   UNL A   1      43.645  24.873  25.563  1.00  0.00    -0.203 F 
ATOM     74  C   UNL A   1      43.067  22.592  25.455  1.00  0.00     0.198 A 
ATOM     75  C   UNL A   1      42.207  21.483  27.401  1.00  0.00     0.198 A 
ATOM     76  F   UNL A   1      41.908  22.684  29.404  1.00  0.00    -0.203 F 
ATOM     77  F   UNL A   1      43.403  22.568  24.159  1.00  0.00    -0.200 F 
ATOM     78  C   UNL A   1      42.584  21.445  26.067  1.00  0.00     0.200 A 
ATOM     79  F   UNL A   1      41.754  20.374  28.001  1.00  0.00    -0.200 F 
ATOM     80  F   UNL A   1      42.473  20.307  25.370  1.00  0.00    -0.200 F 
ENDBRANCH  46  70
BRANCH  58  81
ATOM     81  C   UNL A   1      47.848  26.726  31.362  1.00  0.00     0.064 A 
ATOM     82  C   UNL A   1      48.072  25.863  32.444  1.00  0.00     0.173 A 
ATOM     83  C   UNL A   1      48.960  27.129  30.605  1.00  0.00     0.173 A 
ATOM     84  F   UNL A   1      47.046  25.460  33.210  1.00  0.00    -0.203 F 
ATOM     85  C   UNL A   1      49.358  25.443  32.772  1.00  0.00     0.198 A 
ATOM     86  C   UNL A   1      50.240  26.681  30.915  1.00  0.00     0.198 A 
ATOM     87  F   UNL A   1      48.802  27.949  29.556  1.00  0.00    -0.203 F 
ATOM     88  F   UNL A   1      49.554  24.660  33.842  1.00  0.00    -0.200 F 
ATOM     89  C   UNL A   1      50.441  25.844  32.002  1.00  0.00     0.200 A 
ATOM     90  F   UNL A   1      51.282  27.058  30.161  1.00  0.00    -0.200 F 
ATOM     91  F   UNL A   1      51.677  25.433  32.315  1.00  0.00    -0.200 F 
ENDBRANCH  58  81
ENDBRANCH  32  33
ENDBRANCH  24  27
ENDBRANCH  22  23
ENDBRANCH  21  22
ENDBRANCH   1  21
TORSDOF 14
ENDMDL
MODEL 3
REMARK VINA RESULT:     -10.6      2.340      8.277
REMARK SMILES O=C(COc1cc2ccccc2cc1O)NCCCCNC(=O)c1ccc(-c2c3nc(c(-c4c(F)c(F)c(F)c(F)c4F)c4ccc([nH]4)c(-c4c(F)c(F)c(F)c(F)c4F)c4nc(c(-c5c(F)c(F)c(F)c(F)c5F)c5ccc2[nH]5)C=C4)C=C3)cc1
REMARK SMILES IDX 18 1 17 2 16 3 1 4 2 5 3 7 4 8 5 9 6 10 14 11 7 12 13 13
REMARK SMILES IDX 8 14 12 15 9 16 11 17 10 18 15 19 19 21 20 22 21 23 22 24
REMARK SMILES IDX 23 26 24 27 25 28 86 29 26 30 85 31 27 32 28 33 29 34 79 35
REMARK SMILES IDX 30 36 84 37 78 38 80 39 31 40 83 41 77 42 76 43 32 45 64 46
REMARK SMILES IDX 44 47 63 48 45 49 48 50 62 51 81 52 46 53 47 54 61 56 82 57
REMARK SMILES IDX 49 58 33 59 34 60 42 61 35 62 36 63 40 64 43 65 37 66 38 67
REMARK SMILES IDX 41 68 39 69 65 70 66 71 74 72 67 73 68 74 72 75 75 76 69 77
REMARK SMILES IDX 70 78 73 79 71 80 50 81 51 82 59 83 52 84 53 85 57 86 60 87
REMARK SMILES IDX 54 88 55 89 58 90 56 91
REMARK H PARENT 16 6 15 20 21 25 80 44 48 55
REMARK Flexibility Score: inf
ROOT
ATOM      1  C   UNL A   1      33.637  37.457  32.097  1.00  0.00     0.023 C 
ENDROOT
BRANCH   1   2
ATOM      2  C   UNL A   1      33.903  36.987  33.531  1.00  0.00     0.116 C 
BRANCH   2   3
ATOM      3  N   UNL A   1      33.946  35.545  33.654  1.00  0.00    -0.353 N 
ATOM      4  O   UNL A   1      36.236  35.355  33.625  1.00  0.00    -0.271 OA
ATOM      5  C   UNL A   1      35.129  34.835  33.748  1.00  0.00     0.257 C 
ATOM      6  H   UNL A   1      33.096  35.049  33.673  1.00  0.00     0.163 HD
BRANCH   5   7
ATOM      7  C   UNL A   1      34.943  33.312  33.984  1.00  0.00     0.329 C 
BRANCH   7   8
ATOM      8  O   UNL A   1      35.403  32.321  33.068  1.00  0.00    -0.480 OA
BRANCH   8   9
ATOM      9  C   UNL A   1      36.522  31.618  33.411  1.00  0.00     0.162 A 
ATOM     10  C   UNL A   1      36.754  30.430  32.715  1.00  0.00     0.059 A 
ATOM     11  C   UNL A   1      37.406  31.975  34.424  1.00  0.00     0.158 A 
ATOM     12  C   UNL A   1      37.936  29.693  32.918  1.00  0.00    -0.014 A 
ATOM     13  C   UNL A   1      38.621  31.321  34.579  1.00  0.00     0.059 A 
ATOM     14  C   UNL A   1      38.178  28.473  32.264  1.00  0.00     0.009 A 
ATOM     15  C   UNL A   1      38.917  30.195  33.802  1.00  0.00    -0.014 A 
ATOM     16  C   UNL A   1      39.395  27.803  32.423  1.00  0.00     0.001 A 
ATOM     17  C   UNL A   1      40.152  29.539  33.912  1.00  0.00     0.009 A 
ATOM     18  C   UNL A   1      40.395  28.357  33.217  1.00  0.00     0.001 A 
BRANCH  11  19
ATOM     19  O   UNL A   1      37.098  32.956  35.327  1.00  0.00    -0.504 OA
ATOM     20  H   UNL A   1      36.436  33.589  35.126  1.00  0.00     0.293 HD
ENDBRANCH  11  19
ENDBRANCH   8   9
ENDBRANCH   7   8
ENDBRANCH   5   7
ENDBRANCH   2   3
ENDBRANCH   1   2
BRANCH   1  21
ATOM     21  C   UNL A   1      33.035  36.416  31.143  1.00  0.00     0.023 C 
BRANCH  21  22
ATOM     22  C   UNL A   1      33.470  36.510  29.683  1.00  0.00     0.116 C 
BRANCH  22  23
ATOM     23  N   UNL A   1      32.771  35.580  28.813  1.00  0.00    -0.352 N 
ATOM     24  C   UNL A   1      33.152  34.353  28.319  1.00  0.00     0.251 C 
ATOM     25  H   UNL A   1      31.876  35.876  28.530  1.00  0.00     0.163 HD
ATOM     26  O   UNL A   1      32.430  33.785  27.504  1.00  0.00    -0.269 OA
BRANCH  24  27
ATOM     27  C   UNL A   1      34.431  33.709  28.720  1.00  0.00     0.039 A 
ATOM     28  C   UNL A   1      35.623  34.206  28.180  1.00  0.00     0.014 A 
ATOM     29  C   UNL A   1      34.481  32.602  29.569  1.00  0.00     0.014 A 
ATOM     30  C   UNL A   1      36.852  33.646  28.543  1.00  0.00     0.010 A 
ATOM     31  C   UNL A   1      35.713  32.084  29.987  1.00  0.00     0.010 A 
ATOM     32  C   UNL A   1      36.915  32.603  29.484  1.00  0.00    -0.014 A 
BRANCH  32  33
ATOM     33  C   UNL A   1      38.229  32.082  29.955  1.00  0.00     0.031 A 
ATOM     34  C   UNL A   1      38.780  30.778  29.442  1.00  0.00     0.074 A 
ATOM     35  C   UNL A   1      38.923  32.770  30.884  1.00  0.00     0.049 A 
ATOM     36  N   UNL A   1      39.900  30.170  29.754  1.00  0.00    -0.248 NA
ATOM     37  C   UNL A   1      37.959  30.051  28.463  1.00  0.00     0.031 C 
ATOM     38  C   UNL A   1      38.492  34.027  31.498  1.00  0.00     0.029 A 
ATOM     39  N   UNL A   1      40.136  32.513  31.478  1.00  0.00    -0.354 N 
ATOM     40  C   UNL A   1      39.914  28.993  29.017  1.00  0.00     0.074 A 
ATOM     41  C   UNL A   1      38.667  28.946  28.281  1.00  0.00     0.031 C 
ATOM     42  C   UNL A   1      39.433  34.444  32.358  1.00  0.00     0.029 A 
ATOM     43  C   UNL A   1      40.518  33.467  32.390  1.00  0.00     0.049 A 
ATOM     44  H   UNL A   1      40.679  31.719  31.270  1.00  0.00     0.167 HD
ATOM     45  C   UNL A   1      40.882  28.047  28.944  1.00  0.00     0.037 A 
ATOM     46  C   UNL A   1      41.613  33.547  33.171  1.00  0.00     0.037 A 
ATOM     47  C   UNL A   1      42.130  28.097  29.664  1.00  0.00     0.049 A 
ATOM     48  C   UNL A   1      42.663  32.471  33.090  1.00  0.00     0.074 A 
ATOM     49  C   UNL A   1      43.196  27.215  29.607  1.00  0.00     0.029 A 
ATOM     50  N   UNL A   1      42.475  29.076  30.584  1.00  0.00    -0.354 N 
ATOM     51  N   UNL A   1      42.696  31.402  32.332  1.00  0.00    -0.248 NA
ATOM     52  C   UNL A   1      43.830  32.616  33.971  1.00  0.00     0.031 C 
ATOM     53  C   UNL A   1      44.160  27.628  30.532  1.00  0.00     0.029 A 
ATOM     54  C   UNL A   1      43.725  28.803  31.122  1.00  0.00     0.049 A 
ATOM     55  H   UNL A   1      41.917  29.853  30.819  1.00  0.00     0.167 HD
ATOM     56  C   UNL A   1      43.897  30.767  32.620  1.00  0.00     0.074 A 
ATOM     57  C   UNL A   1      44.571  31.577  33.612  1.00  0.00     0.031 C 
ATOM     58  C   UNL A   1      44.395  29.615  32.106  1.00  0.00     0.037 A 
BRANCH  45  59
ATOM     59  C   UNL A   1      40.634  26.861  28.052  1.00  0.00     0.064 A 
ATOM     60  C   UNL A   1      41.337  26.683  26.851  1.00  0.00     0.173 A 
ATOM     61  C   UNL A   1      39.718  25.867  28.428  1.00  0.00     0.173 A 
ATOM     62  F   UNL A   1      42.221  27.605  26.441  1.00  0.00    -0.203 F 
ATOM     63  C   UNL A   1      41.106  25.571  26.042  1.00  0.00     0.198 A 
ATOM     64  C   UNL A   1      39.515  24.741  27.634  1.00  0.00     0.198 A 
ATOM     65  F   UNL A   1      39.027  25.980  29.572  1.00  0.00    -0.203 F 
ATOM     66  F   UNL A   1      41.752  25.449  24.875  1.00  0.00    -0.200 F 
ATOM     67  C   UNL A   1      40.201  24.598  26.438  1.00  0.00     0.200 A 
ATOM     68  F   UNL A   1      38.651  23.793  28.027  1.00  0.00    -0.200 F 
ATOM     69  F   UNL A   1      39.986  23.526  25.664  1.00  0.00    -0.200 F 
ENDBRANCH  45  59
BRANCH  46  70
ATOM     70  C   UNL A   1      41.787  34.704  34.090  1.00  0.00     0.064 A 
ATOM     71  C   UNL A   1      42.411  35.882  33.656  1.00  0.00     0.173 A 
ATOM     72  C   UNL A   1      41.342  34.653  35.419  1.00  0.00     0.173 A 
ATOM     73  F   UNL A   1      42.875  35.971  32.401  1.00  0.00    -0.203 F 
ATOM     74  C   UNL A   1      42.602  36.958  34.522  1.00  0.00     0.198 A 
ATOM     75  C   UNL A   1      41.506  35.740  36.275  1.00  0.00     0.198 A 
ATOM     76  F   UNL A   1      40.736  33.551  35.884  1.00  0.00    -0.203 F 
ATOM     77  F   UNL A   1      43.247  38.052  34.096  1.00  0.00    -0.200 F 
ATOM     78  C   UNL A   1      42.144  36.888  35.829  1.00  0.00     0.200 A 
ATOM     79  F   UNL A   1      41.047  35.675  37.533  1.00  0.00    -0.200 F 
ATOM     80  F   UNL A   1      42.324  37.923  36.660  1.00  0.00    -0.200 F 
ENDBRANCH  46  70
BRANCH  58  81
ATOM     81  C   UNL A   1      45.753  29.177  32.577  1.00  0.00     0.064 A 
ATOM     82  C   UNL A   1      45.914  28.312  33.669  1.00  0.00     0.173 A 
ATOM     83  C   UNL A   1      46.909  29.601  31.902  1.00  0.00     0.173 A 
ATOM     84  F   UNL A   1      44.844  27.889  34.359  1.00  0.00    -0.203 F 
ATOM     85  C   UNL A   1      47.181  27.910  34.086  1.00  0.00     0.198 A 
ATOM     86  C   UNL A   1      48.172  29.171  32.300  1.00  0.00     0.198 A 
ATOM     87  F   UNL A   1      46.813  30.423  30.848  1.00  0.00    -0.203 F 
ATOM     88  F   UNL A   1      47.313  27.125  35.164  1.00  0.00    -0.200 F 
ATOM     89  C   UNL A   1      48.308  28.333  33.396  1.00  0.00     0.200 A 
ATOM     90  F   UNL A   1      49.257  29.569  31.624  1.00  0.00    -0.200 F 
ATOM     91  F   UNL A   1      49.526  27.940  33.793  1.00  0.00    -0.200 F 
ENDBRANCH  58  81
ENDBRANCH  32  33
ENDBRANCH  24  27
ENDBRANCH  22  23
ENDBRANCH  21  22
ENDBRANCH   1  21
TORSDOF 14
ENDMDL
