MODEL 1
REMARK VINA RESULT:     -13.2      0.000      0.000
REMARK SMILES O=C(NCCCCNC(=O)c1ccccc1Nc1nc(Cl)nc(Nc2ccc(N3CCOCC3=O)cc2)n1)c1ccc(-c2c3nc(c(-c4c(F)c(F)c(F)c(F)c4F)c4ccc([nH]4)c(-c4c(F)c(F)c(F)c(F)c4F)c4nc(c(-c5c(F)c(F)c(F)c(F)c5F)c5ccc2[nH]5)C=C4)C=C3)cc1
REMARK SMILES IDX 7 1 6 2 5 3 4 4 3 5 1 6 2 7 39 9 40 10 101 11 41 12 100 13
REMARK SMILES IDX 42 14 43 15 44 16 94 17 45 18 99 19 93 20 95 21 46 22 98 23
REMARK SMILES IDX 92 24 91 25 47 27 79 28 59 29 78 30 60 31 63 32 77 33 96 34
REMARK SMILES IDX 61 35 62 36 76 38 97 39 64 40 48 41 49 42 57 43 50 44 51 45
REMARK SMILES IDX 55 46 58 47 52 48 53 49 56 50 54 51 80 52 81 53 89 54 82 55
REMARK SMILES IDX 83 56 87 57 90 58 84 59 85 60 88 61 86 62 65 63 66 64 74 65
REMARK SMILES IDX 67 66 68 67 72 68 75 69 69 70 70 71 73 72 71 73 8 74 9 75
REMARK SMILES IDX 10 77 11 78 12 79 16 80 13 81 15 82 14 83 17 84 18 86 19 87
REMARK SMILES IDX 38 88 20 89 23 90 21 91 22 92 24 93 25 95 26 96 37 97 27 98
REMARK SMILES IDX 36 99 28 100 29 101 30 102 34 103 31 104 33 105 35 106
REMARK SMILES IDX 32 107
REMARK H PARENT 3 8 95 26 63 37 8 76 17 85 24 94
REMARK Flexibility Score: inf
ROOT
ATOM      1  C   UNL A   1      33.929  29.875  27.081  1.00  0.00     0.116 C 
ENDROOT
BRANCH   1   2
ATOM      2  C   UNL A   1      34.110  31.167  27.873  1.00  0.00     0.023 C 
BRANCH   2   3
ATOM      3  C   UNL A   1      32.904  32.104  27.889  1.00  0.00     0.023 C 
BRANCH   3   4
ATOM      4  C   UNL A   1      33.063  33.387  27.084  1.00  0.00     0.116 C 
BRANCH   4   5
ATOM      5  N   UNL A   1      32.617  34.565  27.809  1.00  0.00    -0.352 N 
ATOM      6  O   UNL A   1      32.446  35.975  29.565  1.00  0.00    -0.269 OA
ATOM      7  C   UNL A   1      33.043  35.051  29.021  1.00  0.00     0.251 C 
ATOM      8  H   UNL A   1      31.909  35.090  27.368  1.00  0.00     0.163 HD
BRANCH   7   9
ATOM      9  C   UNL A   1      34.218  34.444  29.683  1.00  0.00     0.039 A 
ATOM     10  C   UNL A   1      34.070  33.723  30.871  1.00  0.00     0.014 A 
ATOM     11  C   UNL A   1      35.479  34.577  29.096  1.00  0.00     0.014 A 
ATOM     12  C   UNL A   1      35.194  33.245  31.535  1.00  0.00     0.010 A 
ATOM     13  C   UNL A   1      36.599  34.018  29.719  1.00  0.00     0.010 A 
ATOM     14  C   UNL A   1      36.465  33.358  30.950  1.00  0.00    -0.014 A 
BRANCH  14  15
ATOM     15  C   UNL A   1      37.614  32.659  31.577  1.00  0.00     0.031 A 
ATOM     16  C   UNL A   1      38.289  31.496  30.910  1.00  0.00     0.074 A 
ATOM     17  C   UNL A   1      38.036  33.097  32.780  1.00  0.00     0.049 A 
ATOM     18  N   UNL A   1      39.285  30.767  31.345  1.00  0.00    -0.248 NA
ATOM     19  C   UNL A   1      37.781  31.091  29.591  1.00  0.00     0.031 C 
ATOM     20  C   UNL A   1      37.437  34.207  33.526  1.00  0.00     0.029 A 
ATOM     21  N   UNL A   1      39.060  32.671  33.587  1.00  0.00    -0.354 N 
ATOM     22  C   UNL A   1      39.512  29.807  30.367  1.00  0.00     0.074 A 
ATOM     23  C   UNL A   1      38.542  30.036  29.319  1.00  0.00     0.031 C 
ATOM     24  C   UNL A   1      38.115  34.389  34.668  1.00  0.00     0.029 A 
ATOM     25  C   UNL A   1      39.149  33.367  34.768  1.00  0.00     0.049 A 
ATOM     26  H   UNL A   1      39.671  31.939  33.344  1.00  0.00     0.167 HD
ATOM     27  C   UNL A   1      40.449  28.829  30.357  1.00  0.00     0.037 A 
ATOM     28  C   UNL A   1      39.947  33.180  35.834  1.00  0.00     0.037 A 
ATOM     29  C   UNL A   1      41.426  28.629  31.398  1.00  0.00     0.049 A 
ATOM     30  C   UNL A   1      40.951  32.063  35.799  1.00  0.00     0.074 A 
ATOM     31  C   UNL A   1      42.471  27.722  31.435  1.00  0.00     0.029 A 
ATOM     32  N   UNL A   1      41.470  29.336  32.591  1.00  0.00    -0.354 N 
ATOM     33  N   UNL A   1      41.205  31.212  34.836  1.00  0.00    -0.248 NA
ATOM     34  C   UNL A   1      41.771  31.874  37.002  1.00  0.00     0.031 C 
ATOM     35  C   UNL A   1      43.106  27.834  32.675  1.00  0.00     0.029 A 
ATOM     36  C   UNL A   1      42.493  28.850  33.390  1.00  0.00     0.049 A 
ATOM     37  H   UNL A   1      40.863  30.073  32.833  1.00  0.00     0.167 HD
ATOM     38  C   UNL A   1      42.216  30.392  35.311  1.00  0.00     0.074 A 
ATOM     39  C   UNL A   1      42.553  30.869  36.637  1.00  0.00     0.031 C 
ATOM     40  C   UNL A   1      42.806  29.331  34.710  1.00  0.00     0.037 A 
BRANCH  27  41
ATOM     41  C   UNL A   1      40.474  27.874  29.198  1.00  0.00     0.064 A 
ATOM     42  C   UNL A   1      39.655  26.738  29.158  1.00  0.00     0.173 A 
ATOM     43  C   UNL A   1      41.244  28.169  28.061  1.00  0.00     0.173 A 
ATOM     44  F   UNL A   1      38.903  26.410  30.220  1.00  0.00    -0.203 F 
ATOM     45  C   UNL A   1      39.608  25.929  28.025  1.00  0.00     0.198 A 
ATOM     46  C   UNL A   1      41.177  27.372  26.921  1.00  0.00     0.198 A 
ATOM     47  F   UNL A   1      42.038  29.252  28.044  1.00  0.00    -0.203 F 
ATOM     48  F   UNL A   1      38.829  24.839  28.013  1.00  0.00    -0.200 F 
ATOM     49  C   UNL A   1      40.359  26.253  26.904  1.00  0.00     0.200 A 
ATOM     50  F   UNL A   1      41.891  27.697  25.835  1.00  0.00    -0.200 F 
ATOM     51  F   UNL A   1      40.293  25.488  25.805  1.00  0.00    -0.200 F 
ENDBRANCH  27  41
BRANCH  28  52
ATOM     52  C   UNL A   1      39.792  34.035  37.039  1.00  0.00     0.064 A 
ATOM     53  C   UNL A   1      38.997  33.631  38.120  1.00  0.00     0.173 A 
ATOM     54  C   UNL A   1      40.422  35.287  37.125  1.00  0.00     0.173 A 
ATOM     55  F   UNL A   1      38.358  32.452  38.077  1.00  0.00    -0.203 F 
ATOM     56  C   UNL A   1      38.817  34.457  39.227  1.00  0.00     0.198 A 
ATOM     57  C   UNL A   1      40.270  36.095  38.248  1.00  0.00     0.198 A 
ATOM     58  F   UNL A   1      41.197  35.719  36.120  1.00  0.00    -0.203 F 
ATOM     59  F   UNL A   1      38.004  34.072  40.221  1.00  0.00    -0.200 F 
ATOM     60  C   UNL A   1      39.458  35.686  39.292  1.00  0.00     0.200 A 
ATOM     61  F   UNL A   1      40.907  37.273  38.314  1.00  0.00    -0.200 F 
ATOM     62  F   UNL A   1      39.282  36.478  40.358  1.00  0.00    -0.200 F 
ENDBRANCH  28  52
BRANCH  40  63
ATOM     63  C   UNL A   1      43.876  28.618  35.483  1.00  0.00     0.064 A 
ATOM     64  C   UNL A   1      43.563  27.585  36.379  1.00  0.00     0.173 A 
ATOM     65  C   UNL A   1      45.228  28.951  35.307  1.00  0.00     0.173 A 
ATOM     66  F   UNL A   1      42.283  27.246  36.596  1.00  0.00    -0.203 F 
ATOM     67  C   UNL A   1      44.562  26.924  37.085  1.00  0.00     0.198 A 
ATOM     68  C   UNL A   1      46.227  28.266  35.992  1.00  0.00     0.198 A 
ATOM     69  F   UNL A   1      45.579  29.929  34.460  1.00  0.00    -0.203 F 
ATOM     70  F   UNL A   1      44.237  25.973  37.972  1.00  0.00    -0.200 F 
ATOM     71  C   UNL A   1      45.893  27.260  36.886  1.00  0.00     0.200 A 
ATOM     72  F   UNL A   1      47.513  28.582  35.788  1.00  0.00    -0.200 F 
ATOM     73  F   UNL A   1      46.856  26.616  37.562  1.00  0.00    -0.200 F 
ENDBRANCH  40  63
ENDBRANCH  14  15
ENDBRANCH   7   9
ENDBRANCH   4   5
ENDBRANCH   3   4
ENDBRANCH   2   3
ENDBRANCH   1   2
BRANCH   1  74
ATOM     74  N   UNL A   1      32.903  29.006  27.635  1.00  0.00    -0.352 N 
ATOM     75  C   UNL A   1      31.936  28.283  26.981  1.00  0.00     0.253 C 
ATOM     76  H   UNL A   1      32.900  28.925  28.617  1.00  0.00     0.163 HD
ATOM     77  O   UNL A   1      31.122  27.627  27.627  1.00  0.00    -0.269 OA
BRANCH  75  78
ATOM     78  C   UNL A   1      31.841  28.314  25.507  1.00  0.00     0.063 A 
ATOM     79  C   UNL A   1      31.035  29.323  24.956  1.00  0.00     0.016 A 
ATOM     80  C   UNL A   1      32.495  27.378  24.683  1.00  0.00     0.054 A 
ATOM     81  C   UNL A   1      30.918  29.449  23.573  1.00  0.00     0.001 A 
ATOM     82  C   UNL A   1      32.399  27.561  23.293  1.00  0.00     0.027 A 
ATOM     83  C   UNL A   1      31.614  28.577  22.743  1.00  0.00     0.002 A 
BRANCH  80  84
ATOM     84  N   UNL A   1      33.226  26.305  25.217  1.00  0.00    -0.323 N 
ATOM     85  H   UNL A   1      34.081  26.552  25.640  1.00  0.00     0.170 HD
BRANCH  84  86
ATOM     86  C   UNL A   1      32.929  24.948  25.239  1.00  0.00     0.233 A 
ATOM     87  N   UNL A   1      31.837  24.526  25.854  1.00  0.00    -0.182 NA
ATOM     88  N   UNL A   1      33.785  24.149  24.613  1.00  0.00    -0.176 NA
ATOM     89  C   UNL A   1      31.661  23.218  25.790  1.00  0.00     0.228 A 
ATOM     90  C   UNL A   1      33.541  22.843  24.679  1.00  0.00     0.233 A 
ATOM     91  Cl  UNL A   1      30.269  22.608  26.570  1.00  0.00    -0.041 Cl
ATOM     92  N   UNL A   1      32.458  22.325  25.236  1.00  0.00    -0.182 NA
BRANCH  90  93
ATOM     93  N   UNL A   1      34.568  22.015  24.234  1.00  0.00    -0.324 N 
ATOM     94  H   UNL A   1      34.373  21.492  23.422  1.00  0.00     0.170 HD
BRANCH  93  95
ATOM     95  C   UNL A   1      35.837  21.826  24.785  1.00  0.00     0.041 A 
ATOM     96  C   UNL A   1      36.411  20.549  24.780  1.00  0.00     0.028 A 
ATOM     97  C   UNL A   1      36.602  22.898  25.245  1.00  0.00     0.028 A 
ATOM     98  C   UNL A   1      37.729  20.353  25.211  1.00  0.00     0.028 A 
ATOM     99  C   UNL A   1      37.896  22.698  25.732  1.00  0.00     0.028 A 
ATOM    100  C   UNL A   1      38.478  21.426  25.703  1.00  0.00     0.044 A 
BRANCH 100 101
ATOM    101  N   UNL A   1      39.831  21.245  26.109  1.00  0.00    -0.308 N 
ATOM    102  C   UNL A   1      40.457  22.358  26.833  1.00  0.00     0.154 C 
ATOM    103  C   UNL A   1      40.405  19.967  26.127  1.00  0.00     0.253 C 
ATOM    104  C   UNL A   1      41.956  22.182  27.039  1.00  0.00     0.183 C 
ATOM    105  C   UNL A   1      41.810  19.879  26.744  1.00  0.00     0.260 C 
ATOM    106  O   UNL A   1      39.903  18.969  25.607  1.00  0.00    -0.272 OA
ATOM    107  O   UNL A   1      42.208  20.911  27.632  1.00  0.00    -0.370 OA
ENDBRANCH 100 101
ENDBRANCH  93  95
ENDBRANCH  90  93
ENDBRANCH  84  86
ENDBRANCH  80  84
ENDBRANCH  75  78
ENDBRANCH   1  74
TORSDOF 16
ENDMDL
MODEL 2
REMARK VINA RESULT:     -12.6      5.299     11.663
REMARK SMILES O=C(NCCCCNC(=O)c1ccccc1Nc1nc(Cl)nc(Nc2ccc(N3CCOCC3=O)cc2)n1)c1ccc(-c2c3nc(c(-c4c(F)c(F)c(F)c(F)c4F)c4ccc([nH]4)c(-c4c(F)c(F)c(F)c(F)c4F)c4nc(c(-c5c(F)c(F)c(F)c(F)c5F)c5ccc2[nH]5)C=C4)C=C3)cc1
REMARK SMILES IDX 7 1 6 2 5 3 4 4 3 5 1 6 2 7 39 9 40 10 101 11 41 12 100 13
REMARK SMILES IDX 42 14 43 15 44 16 94 17 45 18 99 19 93 20 95 21 46 22 98 23
REMARK SMILES IDX 92 24 91 25 47 27 79 28 59 29 78 30 60 31 63 32 77 33 96 34
REMARK SMILES IDX 61 35 62 36 76 38 97 39 64 40 48 41 49 42 57 43 50 44 51 45
REMARK SMILES IDX 55 46 58 47 52 48 53 49 56 50 54 51 80 52 81 53 89 54 82 55
REMARK SMILES IDX 83 56 87 57 90 58 84 59 85 60 88 61 86 62 65 63 66 64 74 65
REMARK SMILES IDX 67 66 68 67 72 68 75 69 69 70 70 71 73 72 71 73 8 74 9 75
REMARK SMILES IDX 10 77 11 78 12 79 16 80 13 81 15 82 14 83 17 84 18 86 19 87
REMARK SMILES IDX 38 88 20 89 23 90 21 91 22 92 24 93 25 95 26 96 37 97 27 98
REMARK SMILES IDX 36 99 28 100 29 101 30 102 34 103 31 104 33 105 35 106
REMARK SMILES IDX 32 107
REMARK H PARENT 3 8 95 26 63 37 8 76 17 85 24 94
REMARK Flexibility Score: inf
ROOT
ATOM      1  C   UNL A   1      37.096  21.856  25.967  1.00  0.00     0.116 C 
ENDROOT
BRANCH   1   2
ATOM      2  C   UNL A   1      38.580  22.193  26.084  1.00  0.00     0.023 C 
BRANCH   2   3
ATOM      3  C   UNL A   1      39.489  21.033  26.488  1.00  0.00     0.023 C 
BRANCH   3   4
ATOM      4  C   UNL A   1      39.526  19.864  25.512  1.00  0.00     0.116 C 
BRANCH   4   5
ATOM      5  N   UNL A   1      40.566  18.900  25.829  1.00  0.00    -0.352 N 
ATOM      6  O   UNL A   1      42.660  18.187  26.288  1.00  0.00    -0.269 OA
ATOM      7  C   UNL A   1      41.867  19.121  26.211  1.00  0.00     0.251 C 
ATOM      8  H   UNL A   1      40.301  17.954  25.762  1.00  0.00     0.163 HD
BRANCH   7   9
ATOM      9  C   UNL A   1      42.320  20.496  26.513  1.00  0.00     0.039 A 
ATOM     10  C   UNL A   1      42.696  21.362  25.483  1.00  0.00     0.014 A 
ATOM     11  C   UNL A   1      42.345  20.932  27.841  1.00  0.00     0.014 A 
ATOM     12  C   UNL A   1      43.214  22.616  25.788  1.00  0.00     0.010 A 
ATOM     13  C   UNL A   1      42.783  22.226  28.140  1.00  0.00     0.010 A 
ATOM     14  C   UNL A   1      43.232  23.073  27.115  1.00  0.00    -0.014 A 
BRANCH  14  15
ATOM     15  C   UNL A   1      43.594  24.486  27.389  1.00  0.00     0.031 A 
ATOM     16  C   UNL A   1      42.576  25.485  27.854  1.00  0.00     0.074 A 
ATOM     17  C   UNL A   1      44.877  24.854  27.197  1.00  0.00     0.049 A 
ATOM     18  N   UNL A   1      42.735  26.759  28.108  1.00  0.00    -0.248 NA
ATOM     19  C   UNL A   1      41.203  25.000  28.057  1.00  0.00     0.031 C 
ATOM     20  C   UNL A   1      45.944  23.967  26.725  1.00  0.00     0.029 A 
ATOM     21  N   UNL A   1      45.505  26.060  27.373  1.00  0.00    -0.354 N 
ATOM     22  C   UNL A   1      41.484  27.234  28.480  1.00  0.00     0.074 A 
ATOM     23  C   UNL A   1      40.570  26.114  28.408  1.00  0.00     0.031 C 
ATOM     24  C   UNL A   1      47.095  24.650  26.671  1.00  0.00     0.029 A 
ATOM     25  C   UNL A   1      46.836  26.037  27.034  1.00  0.00     0.049 A 
ATOM     26  H   UNL A   1      45.047  26.864  27.709  1.00  0.00     0.167 HD
ATOM     27  C   UNL A   1      41.142  28.492  28.847  1.00  0.00     0.037 A 
ATOM     28  C   UNL A   1      47.742  27.030  26.981  1.00  0.00     0.037 A 
ATOM     29  C   UNL A   1      42.069  29.592  28.938  1.00  0.00     0.049 A 
ATOM     30  C   UNL A   1      47.316  28.418  27.362  1.00  0.00     0.074 A 
ATOM     31  C   UNL A   1      41.834  30.881  29.385  1.00  0.00     0.029 A 
ATOM     32  N   UNL A   1      43.403  29.538  28.562  1.00  0.00    -0.354 N 
ATOM     33  N   UNL A   1      46.148  28.836  27.785  1.00  0.00    -0.248 NA
ATOM     34  C   UNL A   1      48.329  29.475  27.250  1.00  0.00     0.031 C 
ATOM     35  C   UNL A   1      43.006  31.623  29.219  1.00  0.00     0.029 A 
ATOM     36  C   UNL A   1      43.990  30.784  28.720  1.00  0.00     0.049 A 
ATOM     37  H   UNL A   1      43.864  28.733  28.231  1.00  0.00     0.167 HD
ATOM     38  C   UNL A   1      46.287  30.200  27.996  1.00  0.00     0.074 A 
ATOM     39  C   UNL A   1      47.662  30.533  27.687  1.00  0.00     0.031 C 
ATOM     40  C   UNL A   1      45.356  31.098  28.397  1.00  0.00     0.037 A 
BRANCH  27  41
ATOM     41  C   UNL A   1      39.703  28.777  29.168  1.00  0.00     0.064 A 
ATOM     42  C   UNL A   1      39.193  28.638  30.466  1.00  0.00     0.173 A 
ATOM     43  C   UNL A   1      38.856  29.310  28.183  1.00  0.00     0.173 A 
ATOM     44  F   UNL A   1      39.960  28.130  31.442  1.00  0.00    -0.203 F 
ATOM     45  C   UNL A   1      37.886  29.018  30.766  1.00  0.00     0.198 A 
ATOM     46  C   UNL A   1      37.558  29.711  28.491  1.00  0.00     0.198 A 
ATOM     47  F   UNL A   1      39.298  29.473  26.926  1.00  0.00    -0.203 F 
ATOM     48  F   UNL A   1      37.414  28.863  32.011  1.00  0.00    -0.200 F 
ATOM     49  C   UNL A   1      37.075  29.564  29.782  1.00  0.00     0.200 A 
ATOM     50  F   UNL A   1      36.782  30.252  27.543  1.00  0.00    -0.200 F 
ATOM     51  F   UNL A   1      35.827  29.953  30.079  1.00  0.00    -0.200 F 
ENDBRANCH  27  41
BRANCH  28  52
ATOM     52  C   UNL A   1      49.120  26.754  26.501  1.00  0.00     0.064 A 
ATOM     53  C   UNL A   1      49.478  26.957  25.161  1.00  0.00     0.173 A 
ATOM     54  C   UNL A   1      50.106  26.263  27.371  1.00  0.00     0.173 A 
ATOM     55  F   UNL A   1      48.566  27.406  24.286  1.00  0.00    -0.203 F 
ATOM     56  C   UNL A   1      50.758  26.652  24.706  1.00  0.00     0.198 A 
ATOM     57  C   UNL A   1      51.396  25.993  26.922  1.00  0.00     0.198 A 
ATOM     58  F   UNL A   1      49.818  26.056  28.664  1.00  0.00    -0.203 F 
ATOM     59  F   UNL A   1      51.056  26.799  23.407  1.00  0.00    -0.200 F 
ATOM     60  C   UNL A   1      51.718  26.176  25.587  1.00  0.00     0.200 A 
ATOM     61  F   UNL A   1      52.324  25.552  27.783  1.00  0.00    -0.200 F 
ATOM     62  F   UNL A   1      52.948  25.884  25.147  1.00  0.00    -0.200 F 
ENDBRANCH  28  52
BRANCH  40  63
ATOM     63  C   UNL A   1      45.799  32.526  28.526  1.00  0.00     0.064 A 
ATOM     64  C   UNL A   1      45.644  33.435  27.469  1.00  0.00     0.173 A 
ATOM     65  C   UNL A   1      46.357  32.997  29.724  1.00  0.00     0.173 A 
ATOM     66  F   UNL A   1      45.135  33.026  26.297  1.00  0.00    -0.203 F 
ATOM     67  C   UNL A   1      46.050  34.759  27.599  1.00  0.00     0.198 A 
ATOM     68  C   UNL A   1      46.733  34.330  29.861  1.00  0.00     0.198 A 
ATOM     69  F   UNL A   1      46.524  32.168  30.765  1.00  0.00    -0.203 F 
ATOM     70  F   UNL A   1      45.938  35.598  26.560  1.00  0.00    -0.200 F 
ATOM     71  C   UNL A   1      46.587  35.207  28.797  1.00  0.00     0.200 A 
ATOM     72  F   UNL A   1      47.239  34.764  31.023  1.00  0.00    -0.200 F 
ATOM     73  F   UNL A   1      46.971  36.485  28.924  1.00  0.00    -0.200 F 
ENDBRANCH  40  63
ENDBRANCH  14  15
ENDBRANCH   7   9
ENDBRANCH   4   5
ENDBRANCH   3   4
ENDBRANCH   2   3
ENDBRANCH   1   2
BRANCH   1  74
ATOM     74  N   UNL A   1      36.424  22.601  24.914  1.00  0.00    -0.352 N 
ATOM     75  C   UNL A   1      35.325  22.248  24.170  1.00  0.00     0.253 C 
ATOM     76  H   UNL A   1      36.811  23.481  24.704  1.00  0.00     0.163 HD
ATOM     77  O   UNL A   1      34.918  22.999  23.288  1.00  0.00    -0.269 OA
BRANCH  75  78
ATOM     78  C   UNL A   1      34.648  20.954  24.395  1.00  0.00     0.063 A 
ATOM     79  C   UNL A   1      35.478  19.827  24.508  1.00  0.00     0.016 A 
ATOM     80  C   UNL A   1      33.247  20.832  24.473  1.00  0.00     0.054 A 
ATOM     81  C   UNL A   1      34.926  18.573  24.758  1.00  0.00     0.001 A 
ATOM     82  C   UNL A   1      32.723  19.564  24.776  1.00  0.00     0.027 A 
ATOM     83  C   UNL A   1      33.549  18.445  24.908  1.00  0.00     0.002 A 
BRANCH  80  84
ATOM     84  N   UNL A   1      32.396  21.930  24.267  1.00  0.00    -0.323 N 
ATOM     85  H   UNL A   1      32.215  22.147  23.323  1.00  0.00     0.170 HD
BRANCH  84  86
ATOM     86  C   UNL A   1      31.771  22.758  25.192  1.00  0.00     0.233 A 
ATOM     87  N   UNL A   1      30.772  22.291  25.920  1.00  0.00    -0.182 NA
ATOM     88  N   UNL A   1      32.244  23.995  25.285  1.00  0.00    -0.176 NA
ATOM     89  C   UNL A   1      30.274  23.171  26.770  1.00  0.00     0.228 A 
ATOM     90  C   UNL A   1      31.616  24.813  26.125  1.00  0.00     0.233 A 
ATOM     91  Cl  UNL A   1      28.976  22.630  27.739  1.00  0.00    -0.041 Cl
ATOM     92  N   UNL A   1      30.632  24.431  26.924  1.00  0.00    -0.182 NA
BRANCH  90  93
ATOM     93  N   UNL A   1      31.963  26.158  26.031  1.00  0.00    -0.324 N 
ATOM     94  H   UNL A   1      32.738  26.437  26.572  1.00  0.00     0.170 HD
BRANCH  93  95
ATOM     95  C   UNL A   1      31.361  27.164  25.272  1.00  0.00     0.041 A 
ATOM     96  C   UNL A   1      30.302  26.845  24.414  1.00  0.00     0.028 A 
ATOM     97  C   UNL A   1      31.713  28.506  25.425  1.00  0.00     0.028 A 
ATOM     98  C   UNL A   1      29.600  27.850  23.737  1.00  0.00     0.028 A 
ATOM     99  C   UNL A   1      31.055  29.506  24.705  1.00  0.00     0.028 A 
ATOM    100  C   UNL A   1      29.980  29.188  23.868  1.00  0.00     0.044 A 
BRANCH 100 101
ATOM    101  N   UNL A   1      29.249  30.221  23.213  1.00  0.00    -0.308 N 
ATOM    102  C   UNL A   1      28.579  31.202  24.075  1.00  0.00     0.154 C 
ATOM    103  C   UNL A   1      29.449  30.482  21.852  1.00  0.00     0.253 C 
ATOM    104  C   UNL A   1      27.645  32.137  23.317  1.00  0.00     0.183 C 
ATOM    105  C   UNL A   1      28.732  31.726  21.303  1.00  0.00     0.260 C 
ATOM    106  O   UNL A   1      30.066  29.744  21.082  1.00  0.00    -0.272 OA
ATOM    107  O   UNL A   1      28.347  32.730  22.228  1.00  0.00    -0.370 OA
ENDBRANCH 100 101
ENDBRANCH  93  95
ENDBRANCH  90  93
ENDBRANCH  84  86
ENDBRANCH  80  84
ENDBRANCH  75  78
ENDBRANCH   1  74
TORSDOF 16
ENDMDL
MODEL 3
REMARK VINA RESULT:     -12.6      5.011     11.507
REMARK SMILES O=C(NCCCCNC(=O)c1ccccc1Nc1nc(Cl)nc(Nc2ccc(N3CCOCC3=O)cc2)n1)c1ccc(-c2c3nc(c(-c4c(F)c(F)c(F)c(F)c4F)c4ccc([nH]4)c(-c4c(F)c(F)c(F)c(F)c4F)c4nc(c(-c5c(F)c(F)c(F)c(F)c5F)c5ccc2[nH]5)C=C4)C=C3)cc1
REMARK SMILES IDX 7 1 6 2 5 3 4 4 3 5 1 6 2 7 39 9 40 10 101 11 41 12 100 13
REMARK SMILES IDX 42 14 43 15 44 16 94 17 45 18 99 19 93 20 95 21 46 22 98 23
REMARK SMILES IDX 92 24 91 25 47 27 79 28 59 29 78 30 60 31 63 32 77 33 96 34
REMARK SMILES IDX 61 35 62 36 76 38 97 39 64 40 48 41 49 42 57 43 50 44 51 45
REMARK SMILES IDX 55 46 58 47 52 48 53 49 56 50 54 51 80 52 81 53 89 54 82 55
REMARK SMILES IDX 83 56 87 57 90 58 84 59 85 60 88 61 86 62 65 63 66 64 74 65
REMARK SMILES IDX 67 66 68 67 72 68 75 69 69 70 70 71 73 72 71 73 8 74 9 75
REMARK SMILES IDX 10 77 11 78 12 79 16 80 13 81 15 82 14 83 17 84 18 86 19 87
REMARK SMILES IDX 38 88 20 89 23 90 21 91 22 92 24 93 25 95 26 96 37 97 27 98
REMARK SMILES IDX 36 99 28 100 29 101 30 102 34 103 31 104 33 105 35 106
REMARK SMILES IDX 32 107
REMARK H PARENT 3 8 95 26 63 37 8 76 17 85 24 94
REMARK Flexibility Score: inf
ROOT
ATOM      1  C   UNL A   1      37.165  22.176  26.070  1.00  0.00     0.116 C 
ENDROOT
BRANCH   1   2
ATOM      2  C   UNL A   1      38.674  22.406  26.089  1.00  0.00     0.023 C 
BRANCH   2   3
ATOM      3  C   UNL A   1      39.517  21.210  26.528  1.00  0.00     0.023 C 
BRANCH   3   4
ATOM      4  C   UNL A   1      39.563  20.048  25.545  1.00  0.00     0.116 C 
BRANCH   4   5
ATOM      5  N   UNL A   1      40.568  19.057  25.893  1.00  0.00    -0.352 N 
ATOM      6  O   UNL A   1      42.634  18.284  26.379  1.00  0.00    -0.269 OA
ATOM      7  C   UNL A   1      41.875  19.243  26.273  1.00  0.00     0.251 C 
ATOM      8  H   UNL A   1      40.269  18.120  25.851  1.00  0.00     0.163 HD
BRANCH   7   9
ATOM      9  C   UNL A   1      42.375  20.609  26.537  1.00  0.00     0.039 A 
ATOM     10  C   UNL A   1      42.760  21.441  25.483  1.00  0.00     0.014 A 
ATOM     11  C   UNL A   1      42.437  21.072  27.855  1.00  0.00     0.014 A 
ATOM     12  C   UNL A   1      43.322  22.684  25.752  1.00  0.00     0.010 A 
ATOM     13  C   UNL A   1      42.920  22.357  28.118  1.00  0.00     0.010 A 
ATOM     14  C   UNL A   1      43.377  23.168  27.068  1.00  0.00    -0.014 A 
BRANCH  14  15
ATOM     15  C   UNL A   1      43.788  24.574  27.305  1.00  0.00     0.031 A 
ATOM     16  C   UNL A   1      42.810  25.614  27.767  1.00  0.00     0.074 A 
ATOM     17  C   UNL A   1      45.078  24.898  27.084  1.00  0.00     0.049 A 
ATOM     18  N   UNL A   1      43.012  26.888  27.991  1.00  0.00    -0.248 NA
ATOM     19  C   UNL A   1      41.426  25.177  28.004  1.00  0.00     0.031 C 
ATOM     20  C   UNL A   1      46.108  23.968  26.613  1.00  0.00     0.029 A 
ATOM     21  N   UNL A   1      45.746  26.087  27.223  1.00  0.00    -0.354 N 
ATOM     22  C   UNL A   1      41.784  27.409  28.374  1.00  0.00     0.074 A 
ATOM     23  C   UNL A   1      40.834  26.318  28.342  1.00  0.00     0.031 C 
ATOM     24  C   UNL A   1      47.279  24.613  26.524  1.00  0.00     0.029 A 
ATOM     25  C   UNL A   1      47.069  26.015  26.862  1.00  0.00     0.049 A 
ATOM     26  H   UNL A   1      45.319  26.912  27.550  1.00  0.00     0.167 HD
ATOM     27  C   UNL A   1      41.487  28.685  28.720  1.00  0.00     0.037 A 
ATOM     28  C   UNL A   1      48.005  26.978  26.772  1.00  0.00     0.037 A 
ATOM     29  C   UNL A   1      42.449  29.757  28.771  1.00  0.00     0.049 A 
ATOM     30  C   UNL A   1      47.629  28.387  27.130  1.00  0.00     0.074 A 
ATOM     31  C   UNL A   1      42.263  31.062  29.195  1.00  0.00     0.029 A 
ATOM     32  N   UNL A   1      43.774  29.653  28.373  1.00  0.00    -0.354 N 
ATOM     33  N   UNL A   1      46.482  28.850  27.564  1.00  0.00    -0.248 NA
ATOM     34  C   UNL A   1      48.672  29.409  26.978  1.00  0.00     0.031 C 
ATOM     35  C   UNL A   1      43.454  31.763  28.992  1.00  0.00     0.029 A 
ATOM     36  C   UNL A   1      44.402  30.883  28.495  1.00  0.00     0.049 A 
ATOM     37  H   UNL A   1      44.205  28.828  28.052  1.00  0.00     0.167 HD
ATOM     38  C   UNL A   1      46.667  30.213  27.743  1.00  0.00     0.074 A 
ATOM     39  C   UNL A   1      48.046  30.496  27.403  1.00  0.00     0.031 C 
ATOM     40  C   UNL A   1      45.772  31.148  28.142  1.00  0.00     0.037 A 
BRANCH  27  41
ATOM     41  C   UNL A   1      40.064  29.022  29.059  1.00  0.00     0.064 A 
ATOM     42  C   UNL A   1      39.117  29.318  28.069  1.00  0.00     0.173 A 
ATOM     43  C   UNL A   1      39.618  28.929  30.388  1.00  0.00     0.173 A 
ATOM     44  F   UNL A   1      39.492  29.422  26.786  1.00  0.00    -0.203 F 
ATOM     45  C   UNL A   1      37.777  29.514  28.396  1.00  0.00     0.198 A 
ATOM     46  C   UNL A   1      38.274  29.102  30.709  1.00  0.00     0.198 A 
ATOM     47  F   UNL A   1      40.483  28.638  31.373  1.00  0.00    -0.203 F 
ATOM     48  F   UNL A   1      36.891  29.810  27.436  1.00  0.00    -0.200 F 
ATOM     49  C   UNL A   1      37.355  29.394  29.713  1.00  0.00     0.200 A 
ATOM     50  F   UNL A   1      37.867  28.970  31.978  1.00  0.00    -0.200 F 
ATOM     51  F   UNL A   1      36.061  29.557  30.022  1.00  0.00    -0.200 F 
ENDBRANCH  27  41
BRANCH  28  52
ATOM     52  C   UNL A   1      49.365  26.649  26.274  1.00  0.00     0.064 A 
ATOM     53  C   UNL A   1      50.348  26.136  27.131  1.00  0.00     0.173 A 
ATOM     54  C   UNL A   1      49.715  26.859  24.930  1.00  0.00     0.173 A 
ATOM     55  F   UNL A   1      50.068  25.936  28.427  1.00  0.00    -0.203 F 
ATOM     56  C   UNL A   1      51.636  25.873  26.670  1.00  0.00     0.198 A 
ATOM     57  C   UNL A   1      50.992  26.561  24.463  1.00  0.00     0.198 A 
ATOM     58  F   UNL A   1      48.810  27.343  24.068  1.00  0.00    -0.203 F 
ATOM     59  F   UNL A   1      52.574  25.439  27.523  1.00  0.00    -0.200 F 
ATOM     60  C   UNL A   1      51.955  26.080  25.335  1.00  0.00     0.200 A 
ATOM     61  F   UNL A   1      51.290  26.745  23.169  1.00  0.00    -0.200 F 
ATOM     62  F   UNL A   1      53.195  25.827  24.895  1.00  0.00    -0.200 F 
ENDBRANCH  28  52
BRANCH  40  63
ATOM     63  C   UNL A   1      46.261  32.563  28.232  1.00  0.00     0.064 A 
ATOM     64  C   UNL A   1      46.118  33.453  27.157  1.00  0.00     0.173 A 
ATOM     65  C   UNL A   1      46.852  33.042  29.410  1.00  0.00     0.173 A 
ATOM     66  F   UNL A   1      45.578  33.036  26.002  1.00  0.00    -0.203 F 
ATOM     67  C   UNL A   1      46.567  34.767  27.252  1.00  0.00     0.198 A 
ATOM     68  C   UNL A   1      47.271  34.365  29.513  1.00  0.00     0.198 A 
ATOM     69  F   UNL A   1      47.008  32.231  30.467  1.00  0.00    -0.203 F 
ATOM     70  F   UNL A   1      46.465  35.586  26.197  1.00  0.00    -0.200 F 
ATOM     71  C   UNL A   1      47.136  35.223  28.432  1.00  0.00     0.200 A 
ATOM     72  F   UNL A   1      47.808  34.809  30.657  1.00  0.00    -0.200 F 
ATOM     73  F   UNL A   1      47.561  36.491  28.524  1.00  0.00    -0.200 F 
ENDBRANCH  40  63
ENDBRANCH  14  15
ENDBRANCH   7   9
ENDBRANCH   4   5
ENDBRANCH   3   4
ENDBRANCH   2   3
ENDBRANCH   1   2
BRANCH   1  74
ATOM     74  N   UNL A   1      36.471  23.023  25.113  1.00  0.00    -0.352 N 
ATOM     75  C   UNL A   1      35.360  22.744  24.356  1.00  0.00     0.253 C 
ATOM     76  H   UNL A   1      36.851  23.923  24.990  1.00  0.00     0.163 HD
ATOM     77  O   UNL A   1      34.934  23.581  23.565  1.00  0.00    -0.269 OA
BRANCH  75  78
ATOM     78  C   UNL A   1      34.692  21.429  24.457  1.00  0.00     0.063 A 
ATOM     79  C   UNL A   1      35.525  20.323  24.689  1.00  0.00     0.016 A 
ATOM     80  C   UNL A   1      33.301  21.270  24.308  1.00  0.00     0.054 A 
ATOM     81  C   UNL A   1      34.975  19.052  24.835  1.00  0.00     0.001 A 
ATOM     82  C   UNL A   1      32.770  19.985  24.510  1.00  0.00     0.027 A 
ATOM     83  C   UNL A   1      33.596  18.886  24.761  1.00  0.00     0.002 A 
BRANCH  80  84
ATOM     84  N   UNL A   1      32.464  22.349  23.980  1.00  0.00    -0.323 N 
ATOM     85  H   UNL A   1      32.461  22.601  23.027  1.00  0.00     0.170 HD
BRANCH  84  86
ATOM     86  C   UNL A   1      31.638  23.116  24.793  1.00  0.00     0.233 A 
ATOM     87  N   UNL A   1      30.927  22.531  25.743  1.00  0.00    -0.182 NA
ATOM     88  N   UNL A   1      31.630  24.422  24.556  1.00  0.00    -0.176 NA
ATOM     89  C   UNL A   1      30.196  23.370  26.454  1.00  0.00     0.228 A 
ATOM     90  C   UNL A   1      30.800  25.157  25.291  1.00  0.00     0.233 A 
ATOM     91  Cl  UNL A   1      29.251  22.677  27.696  1.00  0.00    -0.041 Cl
ATOM     92  N   UNL A   1      30.077  24.673  26.288  1.00  0.00    -0.182 NA
BRANCH  90  93
ATOM     93  N   UNL A   1      30.625  26.472  24.868  1.00  0.00    -0.324 N 
ATOM     94  H   UNL A   1      30.108  26.588  24.038  1.00  0.00     0.170 HD
BRANCH  93  95
ATOM     95  C   UNL A   1      31.082  27.649  25.465  1.00  0.00     0.041 A 
ATOM     96  C   UNL A   1      31.451  27.643  26.816  1.00  0.00     0.028 A 
ATOM     97  C   UNL A   1      31.288  28.813  24.724  1.00  0.00     0.028 A 
ATOM     98  C   UNL A   1      32.029  28.773  27.406  1.00  0.00     0.028 A 
ATOM     99  C   UNL A   1      31.809  29.962  25.325  1.00  0.00     0.028 A 
ATOM    100  C   UNL A   1      32.201  29.947  26.667  1.00  0.00     0.044 A 
BRANCH 100 101
ATOM    101  N   UNL A   1      32.822  31.090  27.249  1.00  0.00    -0.308 N 
ATOM    102  C   UNL A   1      34.239  30.959  27.606  1.00  0.00     0.154 C 
ATOM    103  C   UNL A   1      32.220  32.351  27.158  1.00  0.00     0.253 C 
ATOM    104  C   UNL A   1      34.772  32.133  28.416  1.00  0.00     0.183 C 
ATOM    105  C   UNL A   1      33.065  33.527  27.672  1.00  0.00     0.260 C 
ATOM    106  O   UNL A   1      31.059  32.547  26.794  1.00  0.00    -0.272 OA
ATOM    107  O   UNL A   1      34.471  33.351  27.741  1.00  0.00    -0.370 OA
ENDBRANCH 100 101
ENDBRANCH  93  95
ENDBRANCH  90  93
ENDBRANCH  84  86
ENDBRANCH  80  84
ENDBRANCH  75  78
ENDBRANCH   1  74
TORSDOF 16
ENDMDL
