MODEL 1
REMARK VINA RESULT:     -14.2      0.000      0.000
REMARK SMILES O=C(NCCCCNC(=O)[C@@H]1CC=CC[C@H]1C(=O)N1CC[NH+](Cc2ccc3c(c2)OCO3)CC1)c1ccc(-c2c3nc(c(-c4c(F)c(F)c(F)c(F)c4F)c4ccc([nH]4)c(-c4c(F)c(F)c(F)c(F)c4F)c4nc(c(-c5c(F)c(F)c(F)c(F)c5F)c5ccc2[nH]5)C=C4)C=C3)cc1
REMARK SMILES IDX 6 1 5 2 4 3 3 4 1 5 2 6 35 8 36 9 97 10 37 11 96 12 38 13
REMARK SMILES IDX 39 14 40 15 90 16 41 17 95 18 89 19 91 20 42 21 94 22 88 23
REMARK SMILES IDX 87 24 43 26 75 27 55 28 74 29 56 30 59 31 73 32 92 33 57 34
REMARK SMILES IDX 58 35 72 37 93 38 60 39 44 40 45 41 53 42 46 43 47 44 51 45
REMARK SMILES IDX 54 46 48 47 49 48 52 49 50 50 76 51 77 52 85 53 78 54 79 55
REMARK SMILES IDX 83 56 86 57 80 58 81 59 84 60 82 61 61 62 62 63 70 64 63 65
REMARK SMILES IDX 64 66 68 67 71 68 65 69 66 70 69 71 67 72 7 73 8 74 9 75
REMARK SMILES IDX 10 77 11 78 12 79 16 80 13 81 15 82 14 83 17 84 18 85 19 86
REMARK SMILES IDX 20 87 34 88 21 89 33 90 22 91 23 93 24 94 25 95 29 96 26 97
REMARK SMILES IDX 28 98 27 99 30 100 32 101 31 102
REMARK H PARENT 3 7 91 25 59 36 8 76 22 92
REMARK Flexibility Score: inf
ROOT
ATOM      1  C   UNL A   1      31.956  30.643  26.629  1.00  0.00     0.023 C 
ENDROOT
BRANCH   1   2
ATOM      2  C   UNL A   1      31.656  32.119  26.795  1.00  0.00     0.023 C 
BRANCH   2   3
ATOM      3  C   UNL A   1      32.860  32.909  27.252  1.00  0.00     0.116 C 
BRANCH   3   4
ATOM      4  N   UNL A   1      32.518  34.266  27.676  1.00  0.00    -0.352 N 
ATOM      5  O   UNL A   1      32.560  36.040  29.089  1.00  0.00    -0.269 OA
ATOM      6  C   UNL A   1      33.033  34.969  28.732  1.00  0.00     0.251 C 
ATOM      7  H   UNL A   1      31.836  34.729  27.138  1.00  0.00     0.163 HD
BRANCH   6   8
ATOM      8  C   UNL A   1      34.175  34.371  29.430  1.00  0.00     0.039 A 
ATOM      9  C   UNL A   1      35.456  34.593  28.916  1.00  0.00     0.014 A 
ATOM     10  C   UNL A   1      33.955  33.504  30.497  1.00  0.00     0.014 A 
ATOM     11  C   UNL A   1      36.506  33.824  29.373  1.00  0.00     0.010 A 
ATOM     12  C   UNL A   1      35.040  32.827  31.044  1.00  0.00     0.010 A 
ATOM     13  C   UNL A   1      36.314  32.975  30.472  1.00  0.00    -0.014 A 
BRANCH  13  14
ATOM     14  C   UNL A   1      37.500  32.356  31.094  1.00  0.00     0.031 A 
ATOM     15  C   UNL A   1      38.251  31.262  30.410  1.00  0.00     0.074 A 
ATOM     16  C   UNL A   1      37.864  32.814  32.305  1.00  0.00     0.049 A 
ATOM     17  N   UNL A   1      39.256  30.557  30.857  1.00  0.00    -0.248 NA
ATOM     18  C   UNL A   1      37.810  30.895  29.055  1.00  0.00     0.031 C 
ATOM     19  C   UNL A   1      37.173  33.878  33.043  1.00  0.00     0.029 A 
ATOM     20  N   UNL A   1      38.894  32.456  33.129  1.00  0.00    -0.354 N 
ATOM     21  C   UNL A   1      39.548  29.640  29.858  1.00  0.00     0.074 A 
ATOM     22  C   UNL A   1      38.607  29.870  28.782  1.00  0.00     0.031 C 
ATOM     23  C   UNL A   1      37.816  34.109  34.192  1.00  0.00     0.029 A 
ATOM     24  C   UNL A   1      38.903  33.150  34.313  1.00  0.00     0.049 A 
ATOM     25  H   UNL A   1      39.561  31.771  32.896  1.00  0.00     0.167 HD
ATOM     26  C   UNL A   1      40.515  28.692  29.858  1.00  0.00     0.037 A 
ATOM     27  C   UNL A   1      39.671  32.994  35.404  1.00  0.00     0.037 A 
ATOM     28  C   UNL A   1      41.445  28.502  30.943  1.00  0.00     0.049 A 
ATOM     29  C   UNL A   1      40.723  31.931  35.381  1.00  0.00     0.074 A 
ATOM     30  C   UNL A   1      42.497  27.609  31.035  1.00  0.00     0.029 A 
ATOM     31  N   UNL A   1      41.426  29.221  32.134  1.00  0.00    -0.354 N 
ATOM     32  N   UNL A   1      41.010  31.082  34.423  1.00  0.00    -0.248 NA
ATOM     33  C   UNL A   1      41.552  31.797  36.581  1.00  0.00     0.031 C 
ATOM     34  C   UNL A   1      43.081  27.752  32.298  1.00  0.00     0.029 A 
ATOM     35  C   UNL A   1      42.428  28.770  32.977  1.00  0.00     0.049 A 
ATOM     36  H   UNL A   1      40.791  29.944  32.346  1.00  0.00     0.167 HD
ATOM     37  C   UNL A   1      42.059  30.312  34.900  1.00  0.00     0.074 A 
ATOM     38  C   UNL A   1      42.368  30.813  36.227  1.00  0.00     0.031 C 
ATOM     39  C   UNL A   1      42.705  29.285  34.296  1.00  0.00     0.037 A 
BRANCH  26  40
ATOM     40  C   UNL A   1      40.587  27.770  28.676  1.00  0.00     0.064 A 
ATOM     41  C   UNL A   1      39.882  26.557  28.632  1.00  0.00     0.173 A 
ATOM     42  C   UNL A   1      41.362  28.115  27.557  1.00  0.00     0.173 A 
ATOM     43  F   UNL A   1      39.136  26.172  29.678  1.00  0.00    -0.203 F 
ATOM     44  C   UNL A   1      39.978  25.711  27.529  1.00  0.00     0.198 A 
ATOM     45  C   UNL A   1      41.432  27.280  26.444  1.00  0.00     0.198 A 
ATOM     46  F   UNL A   1      42.053  29.265  27.542  1.00  0.00    -0.203 F 
ATOM     47  F   UNL A   1      39.339  24.533  27.532  1.00  0.00    -0.200 F 
ATOM     48  C   UNL A   1      40.749  26.075  26.434  1.00  0.00     0.200 A 
ATOM     49  F   UNL A   1      42.169  27.641  25.384  1.00  0.00    -0.200 F 
ATOM     50  F   UNL A   1      40.839  25.260  25.375  1.00  0.00    -0.200 F 
ENDBRANCH  26  40
BRANCH  27  51
ATOM     51  C   UNL A   1      39.423  33.854  36.586  1.00  0.00     0.064 A 
ATOM     52  C   UNL A   1      38.670  33.391  37.670  1.00  0.00     0.173 A 
ATOM     53  C   UNL A   1      40.018  35.122  36.692  1.00  0.00     0.173 A 
ATOM     54  F   UNL A   1      38.079  32.189  37.612  1.00  0.00    -0.203 F 
ATOM     55  C   UNL A   1      38.519  34.165  38.819  1.00  0.00     0.198 A 
ATOM     56  C   UNL A   1      39.892  35.881  37.853  1.00  0.00     0.198 A 
ATOM     57  F   UNL A   1      40.767  35.600  35.687  1.00  0.00    -0.203 F 
ATOM     58  F   UNL A   1      37.780  33.708  39.839  1.00  0.00    -0.200 F 
ATOM     59  C   UNL A   1      39.140  35.403  38.913  1.00  0.00     0.200 A 
ATOM     60  F   UNL A   1      40.517  37.061  37.949  1.00  0.00    -0.200 F 
ATOM     61  F   UNL A   1      39.017  36.133  40.030  1.00  0.00    -0.200 F 
ENDBRANCH  27  51
BRANCH  39  62
ATOM     62  C   UNL A   1      43.822  28.651  35.065  1.00  0.00     0.064 A 
ATOM     63  C   UNL A   1      43.602  27.544  35.897  1.00  0.00     0.173 A 
ATOM     64  C   UNL A   1      45.133  29.131  34.934  1.00  0.00     0.173 A 
ATOM     65  F   UNL A   1      42.360  27.065  36.069  1.00  0.00    -0.203 F 
ATOM     66  C   UNL A   1      44.655  26.948  36.583  1.00  0.00     0.198 A 
ATOM     67  C   UNL A   1      46.188  28.515  35.599  1.00  0.00     0.198 A 
ATOM     68  F   UNL A   1      45.391  30.186  34.148  1.00  0.00    -0.203 F 
ATOM     69  F   UNL A   1      44.418  25.917  37.405  1.00  0.00    -0.200 F 
ATOM     70  C   UNL A   1      45.948  27.428  36.427  1.00  0.00     0.200 A 
ATOM     71  F   UNL A   1      47.436  28.973  35.439  1.00  0.00    -0.200 F 
ATOM     72  F   UNL A   1      46.962  26.846  37.080  1.00  0.00    -0.200 F 
ENDBRANCH  39  62
ENDBRANCH  13  14
ENDBRANCH   6   8
ENDBRANCH   3   4
ENDBRANCH   2   3
ENDBRANCH   1   2
BRANCH   1  73
ATOM     73  C   UNL A   1      31.390  30.007  25.360  1.00  0.00     0.116 C 
BRANCH  73  74
ATOM     74  N   UNL A   1      32.412  29.500  24.463  1.00  0.00    -0.356 N 
ATOM     75  C   UNL A   1      32.382  28.463  23.578  1.00  0.00     0.224 C 
ATOM     76  H   UNL A   1      33.269  29.983  24.501  1.00  0.00     0.163 HD
ATOM     77  O   UNL A   1      33.383  28.274  22.880  1.00  0.00    -0.275 OA
BRANCH  75  78
ATOM     78  C   UNL A   1      31.152  27.577  23.401  1.00  0.00     0.095 C 
ATOM     79  C   UNL A   1      29.978  28.377  22.809  1.00  0.00     0.041 C 
ATOM     80  C   UNL A   1      30.792  26.784  24.662  1.00  0.00     0.095 C 
ATOM     81  C   UNL A   1      28.617  27.823  23.126  1.00  0.00    -0.030 C 
ATOM     82  C   UNL A   1      29.519  25.946  24.500  1.00  0.00     0.041 C 
ATOM     83  C   UNL A   1      28.409  26.732  23.875  1.00  0.00    -0.030 C 
BRANCH  80  84
ATOM     84  C   UNL A   1      31.975  25.971  25.181  1.00  0.00     0.227 C 
ATOM     85  O   UNL A   1      32.945  26.475  25.742  1.00  0.00    -0.275 OA
ATOM     86  N   UNL A   1      31.901  24.613  24.968  1.00  0.00    -0.331 N 
ATOM     87  C   UNL A   1      32.106  23.788  26.150  1.00  0.00     0.181 C 
ATOM     88  C   UNL A   1      32.566  24.121  23.770  1.00  0.00     0.181 C 
ATOM     89  C   UNL A   1      31.837  22.300  25.882  1.00  0.00     0.284 C 
ATOM     90  C   UNL A   1      32.266  22.638  23.510  1.00  0.00     0.284 C 
ATOM     91  N   UNL A   1      32.443  21.743  24.664  1.00  0.00    -0.328 N 
ATOM     92  H   UNL A   1      31.907  20.902  24.452  1.00  0.00     0.348 HD
BRANCH  91  93
ATOM     93  C   UNL A   1      33.784  21.170  24.822  1.00  0.00     0.299 C 
BRANCH  93  94
ATOM     94  C   UNL A   1      33.891  19.668  24.965  1.00  0.00     0.010 A 
ATOM     95  C   UNL A   1      35.089  18.996  24.626  1.00  0.00     0.013 A 
ATOM     96  C   UNL A   1      32.782  18.918  25.396  1.00  0.00     0.060 A 
ATOM     97  C   UNL A   1      35.157  17.599  24.620  1.00  0.00     0.051 A 
ATOM     98  C   UNL A   1      32.878  17.542  25.377  1.00  0.00     0.166 A 
ATOM     99  C   UNL A   1      34.028  16.901  24.985  1.00  0.00     0.165 A 
ATOM    100  O   UNL A   1      31.880  16.674  25.691  1.00  0.00    -0.454 OA
ATOM    101  O   UNL A   1      33.898  15.547  24.997  1.00  0.00    -0.454 OA
ATOM    102  C   UNL A   1      32.513  15.415  25.380  1.00  0.00     0.468 C 
ENDBRANCH  93  94
ENDBRANCH  91  93
ENDBRANCH  80  84
ENDBRANCH  75  78
ENDBRANCH  73  74
ENDBRANCH   1  73
TORSDOF 14
ENDMDL
MODEL 2
REMARK VINA RESULT:     -14.1      5.396     11.526
REMARK SMILES O=C(NCCCCNC(=O)[C@@H]1CC=CC[C@H]1C(=O)N1CC[NH+](Cc2ccc3c(c2)OCO3)CC1)c1ccc(-c2c3nc(c(-c4c(F)c(F)c(F)c(F)c4F)c4ccc([nH]4)c(-c4c(F)c(F)c(F)c(F)c4F)c4nc(c(-c5c(F)c(F)c(F)c(F)c5F)c5ccc2[nH]5)C=C4)C=C3)cc1
REMARK SMILES IDX 6 1 5 2 4 3 3 4 1 5 2 6 35 8 36 9 97 10 37 11 96 12 38 13
REMARK SMILES IDX 39 14 40 15 90 16 41 17 95 18 89 19 91 20 42 21 94 22 88 23
REMARK SMILES IDX 87 24 43 26 75 27 55 28 74 29 56 30 59 31 73 32 92 33 57 34
REMARK SMILES IDX 58 35 72 37 93 38 60 39 44 40 45 41 53 42 46 43 47 44 51 45
REMARK SMILES IDX 54 46 48 47 49 48 52 49 50 50 76 51 77 52 85 53 78 54 79 55
REMARK SMILES IDX 83 56 86 57 80 58 81 59 84 60 82 61 61 62 62 63 70 64 63 65
REMARK SMILES IDX 64 66 68 67 71 68 65 69 66 70 69 71 67 72 7 73 8 74 9 75
REMARK SMILES IDX 10 77 11 78 12 79 16 80 13 81 15 82 14 83 17 84 18 85 19 86
REMARK SMILES IDX 20 87 34 88 21 89 33 90 22 91 23 93 24 94 25 95 29 96 26 97
REMARK SMILES IDX 28 98 27 99 30 100 32 101 31 102
REMARK H PARENT 3 7 91 25 59 36 8 76 22 92
REMARK Flexibility Score: inf
ROOT
ATOM      1  C   UNL A   1      37.717  20.809  24.999  1.00  0.00     0.023 C 
ENDROOT
BRANCH   1   2
ATOM      2  C   UNL A   1      38.594  19.596  25.229  1.00  0.00     0.023 C 
BRANCH   2   3
ATOM      3  C   UNL A   1      39.761  19.888  26.143  1.00  0.00     0.116 C 
BRANCH   3   4
ATOM      4  N   UNL A   1      40.804  18.865  26.071  1.00  0.00    -0.352 N 
ATOM      5  O   UNL A   1      42.938  18.131  25.838  1.00  0.00    -0.269 OA
ATOM      6  C   UNL A   1      42.160  19.050  26.059  1.00  0.00     0.251 C 
ATOM      7  H   UNL A   1      40.493  17.932  26.026  1.00  0.00     0.163 HD
BRANCH   6   8
ATOM      8  C   UNL A   1      42.644  20.412  26.309  1.00  0.00     0.039 A 
ATOM      9  C   UNL A   1      42.645  20.883  27.626  1.00  0.00     0.014 A 
ATOM     10  C   UNL A   1      42.964  21.239  25.235  1.00  0.00     0.014 A 
ATOM     11  C   UNL A   1      42.819  22.231  27.857  1.00  0.00     0.010 A 
ATOM     12  C   UNL A   1      43.269  22.572  25.486  1.00  0.00     0.010 A 
ATOM     13  C   UNL A   1      43.182  23.073  26.795  1.00  0.00    -0.014 A 
BRANCH  13  14
ATOM     14  C   UNL A   1      43.602  24.452  27.109  1.00  0.00     0.031 A 
ATOM     15  C   UNL A   1      42.635  25.453  27.650  1.00  0.00     0.074 A 
ATOM     16  C   UNL A   1      44.888  24.767  26.873  1.00  0.00     0.049 A 
ATOM     17  N   UNL A   1      42.823  26.722  27.894  1.00  0.00    -0.248 NA
ATOM     18  C   UNL A   1      41.274  24.976  27.941  1.00  0.00     0.031 C 
ATOM     19  C   UNL A   1      45.894  23.843  26.336  1.00  0.00     0.029 A 
ATOM     20  N   UNL A   1      45.575  25.935  27.053  1.00  0.00    -0.354 N 
ATOM     21  C   UNL A   1      41.600  27.208  28.333  1.00  0.00     0.074 A 
ATOM     22  C   UNL A   1      40.671  26.098  28.313  1.00  0.00     0.031 C 
ATOM     23  C   UNL A   1      47.074  24.469  26.261  1.00  0.00     0.029 A 
ATOM     24  C   UNL A   1      46.886  25.857  26.654  1.00  0.00     0.049 A 
ATOM     25  H   UNL A   1      45.171  26.749  27.430  1.00  0.00     0.167 HD
ATOM     26  C   UNL A   1      41.296  28.472  28.708  1.00  0.00     0.037 A 
ATOM     27  C   UNL A   1      47.824  26.813  26.564  1.00  0.00     0.037 A 
ATOM     28  C   UNL A   1      42.253  29.551  28.729  1.00  0.00     0.049 A 
ATOM     29  C   UNL A   1      47.456  28.204  26.974  1.00  0.00     0.074 A 
ATOM     30  C   UNL A   1      42.072  30.859  29.136  1.00  0.00     0.029 A 
ATOM     31  N   UNL A   1      43.575  29.439  28.314  1.00  0.00    -0.354 N 
ATOM     32  N   UNL A   1      46.304  28.653  27.411  1.00  0.00    -0.248 NA
ATOM     33  C   UNL A   1      48.506  29.221  26.876  1.00  0.00     0.031 C 
ATOM     34  C   UNL A   1      43.269  31.551  28.922  1.00  0.00     0.029 A 
ATOM     35  C   UNL A   1      44.214  30.663  28.429  1.00  0.00     0.049 A 
ATOM     36  H   UNL A   1      43.996  28.611  27.987  1.00  0.00     0.167 HD
ATOM     37  C   UNL A   1      46.487  30.005  27.647  1.00  0.00     0.074 A 
ATOM     38  C   UNL A   1      47.871  30.297  27.322  1.00  0.00     0.031 C 
ATOM     39  C   UNL A   1      45.592  30.922  28.090  1.00  0.00     0.037 A 
BRANCH  26  40
ATOM     40  C   UNL A   1      39.871  28.764  29.082  1.00  0.00     0.064 A 
ATOM     41  C   UNL A   1      39.405  28.642  30.400  1.00  0.00     0.173 A 
ATOM     42  C   UNL A   1      38.958  29.190  28.104  1.00  0.00     0.173 A 
ATOM     43  F   UNL A   1      40.231  28.227  31.372  1.00  0.00    -0.203 F 
ATOM     44  C   UNL A   1      38.074  28.903  30.718  1.00  0.00     0.198 A 
ATOM     45  C   UNL A   1      37.635  29.479  28.431  1.00  0.00     0.198 A 
ATOM     46  F   UNL A   1      39.349  29.330  26.828  1.00  0.00    -0.203 F 
ATOM     47  F   UNL A   1      37.640  28.728  31.974  1.00  0.00    -0.200 F 
ATOM     48  C   UNL A   1      37.191  29.326  29.735  1.00  0.00     0.200 A 
ATOM     49  F   UNL A   1      36.788  29.898  27.480  1.00  0.00    -0.200 F 
ATOM     50  F   UNL A   1      35.912  29.577  30.043  1.00  0.00    -0.200 F 
ENDBRANCH  26  40
BRANCH  27  51
ATOM     51  C   UNL A   1      49.163  26.460  26.036  1.00  0.00     0.064 A 
ATOM     52  C   UNL A   1      49.521  26.758  24.717  1.00  0.00     0.173 A 
ATOM     53  C   UNL A   1      50.144  25.902  26.873  1.00  0.00     0.173 A 
ATOM     54  F   UNL A   1      48.617  27.287  23.880  1.00  0.00    -0.203 F 
ATOM     55  C   UNL A   1      50.812  26.511  24.252  1.00  0.00     0.198 A 
ATOM     56  C   UNL A   1      51.441  25.684  26.416  1.00  0.00     0.198 A 
ATOM     57  F   UNL A   1      49.854  25.617  28.151  1.00  0.00    -0.203 F 
ATOM     58  F   UNL A   1      51.127  26.790  22.980  1.00  0.00    -0.200 F 
ATOM     59  C   UNL A   1      51.772  25.986  25.105  1.00  0.00     0.200 A 
ATOM     60  F   UNL A   1      52.371  25.204  27.251  1.00  0.00    -0.200 F 
ATOM     61  F   UNL A   1      53.020  25.776  24.663  1.00  0.00    -0.200 F 
ENDBRANCH  27  51
BRANCH  39  62
ATOM     62  C   UNL A   1      46.096  32.321  28.264  1.00  0.00     0.064 A 
ATOM     63  C   UNL A   1      46.699  32.738  29.459  1.00  0.00     0.173 A 
ATOM     64  C   UNL A   1      46.010  33.240  27.209  1.00  0.00     0.173 A 
ATOM     65  F   UNL A   1      46.783  31.898  30.502  1.00  0.00    -0.203 F 
ATOM     66  C   UNL A   1      47.188  34.033  29.596  1.00  0.00     0.198 A 
ATOM     67  C   UNL A   1      46.525  34.526  27.340  1.00  0.00     0.198 A 
ATOM     68  F   UNL A   1      45.441  32.885  26.048  1.00  0.00    -0.203 F 
ATOM     69  F   UNL A   1      47.725  34.425  30.759  1.00  0.00    -0.200 F 
ATOM     70  C   UNL A   1      47.108  34.923  28.534  1.00  0.00     0.200 A 
ATOM     71  F   UNL A   1      46.455  35.380  26.310  1.00  0.00    -0.200 F 
ATOM     72  F   UNL A   1      47.588  36.167  28.664  1.00  0.00    -0.200 F 
ENDBRANCH  39  62
ENDBRANCH  13  14
ENDBRANCH   6   8
ENDBRANCH   3   4
ENDBRANCH   2   3
ENDBRANCH   1   2
BRANCH   1  73
ATOM     73  C   UNL A   1      36.214  20.527  24.978  1.00  0.00     0.116 C 
BRANCH  73  74
ATOM     74  N   UNL A   1      35.511  21.059  26.130  1.00  0.00    -0.356 N 
ATOM     75  C   UNL A   1      34.180  21.078  26.426  1.00  0.00     0.224 C 
ATOM     76  H   UNL A   1      36.089  21.475  26.809  1.00  0.00     0.163 HD
ATOM     77  O   UNL A   1      33.841  21.545  27.518  1.00  0.00    -0.275 OA
BRANCH  75  78
ATOM     78  C   UNL A   1      33.125  20.508  25.481  1.00  0.00     0.095 C 
ATOM     79  C   UNL A   1      33.032  18.978  25.619  1.00  0.00     0.041 C 
ATOM     80  C   UNL A   1      33.282  20.995  24.037  1.00  0.00     0.095 C 
ATOM     81  C   UNL A   1      32.505  18.269  24.403  1.00  0.00    -0.030 C 
ATOM     82  C   UNL A   1      32.261  20.369  23.080  1.00  0.00     0.041 C 
ATOM     83  C   UNL A   1      32.153  18.888  23.269  1.00  0.00    -0.030 C 
BRANCH  80  84
ATOM     84  C   UNL A   1      33.321  22.518  23.950  1.00  0.00     0.227 C 
ATOM     85  O   UNL A   1      34.341  23.153  23.694  1.00  0.00    -0.275 OA
ATOM     86  N   UNL A   1      32.127  23.158  24.195  1.00  0.00    -0.331 N 
ATOM     87  C   UNL A   1      31.714  24.112  23.176  1.00  0.00     0.181 C 
ATOM     88  C   UNL A   1      31.918  23.611  25.562  1.00  0.00     0.181 C 
ATOM     89  C   UNL A   1      30.298  24.655  23.419  1.00  0.00     0.284 C 
ATOM     90  C   UNL A   1      30.491  24.130  25.788  1.00  0.00     0.284 C 
ATOM     91  N   UNL A   1      30.002  25.094  24.790  1.00  0.00    -0.328 N 
ATOM     92  H   UNL A   1      28.985  25.084  24.867  1.00  0.00     0.348 HD
BRANCH  91  93
ATOM     93  C   UNL A   1      30.276  26.505  25.084  1.00  0.00     0.299 C 
BRANCH  93  94
ATOM     94  C   UNL A   1      30.101  27.501  23.959  1.00  0.00     0.010 A 
ATOM     95  C   UNL A   1      31.227  28.101  23.347  1.00  0.00     0.013 A 
ATOM     96  C   UNL A   1      28.813  27.874  23.538  1.00  0.00     0.060 A 
ATOM     97  C   UNL A   1      31.079  29.123  22.405  1.00  0.00     0.051 A 
ATOM     98  C   UNL A   1      28.697  28.887  22.609  1.00  0.00     0.166 A 
ATOM     99  C   UNL A   1      29.800  29.504  22.069  1.00  0.00     0.165 A 
ATOM    100  O   UNL A   1      27.531  29.414  22.152  1.00  0.00    -0.454 OA
ATOM    101  O   UNL A   1      29.466  30.503  21.209  1.00  0.00    -0.454 OA
ATOM    102  C   UNL A   1      28.028  30.483  21.320  1.00  0.00     0.468 C 
ENDBRANCH  93  94
ENDBRANCH  91  93
ENDBRANCH  80  84
ENDBRANCH  75  78
ENDBRANCH  73  74
ENDBRANCH   1  73
TORSDOF 14
ENDMDL
MODEL 3
REMARK VINA RESULT:     -14.1      0.307      1.892
REMARK SMILES O=C(NCCCCNC(=O)[C@@H]1CC=CC[C@H]1C(=O)N1CC[NH+](Cc2ccc3c(c2)OCO3)CC1)c1ccc(-c2c3nc(c(-c4c(F)c(F)c(F)c(F)c4F)c4ccc([nH]4)c(-c4c(F)c(F)c(F)c(F)c4F)c4nc(c(-c5c(F)c(F)c(F)c(F)c5F)c5ccc2[nH]5)C=C4)C=C3)cc1
REMARK SMILES IDX 6 1 5 2 4 3 3 4 1 5 2 6 35 8 36 9 97 10 37 11 96 12 38 13
REMARK SMILES IDX 39 14 40 15 90 16 41 17 95 18 89 19 91 20 42 21 94 22 88 23
REMARK SMILES IDX 87 24 43 26 75 27 55 28 74 29 56 30 59 31 73 32 92 33 57 34
REMARK SMILES IDX 58 35 72 37 93 38 60 39 44 40 45 41 53 42 46 43 47 44 51 45
REMARK SMILES IDX 54 46 48 47 49 48 52 49 50 50 76 51 77 52 85 53 78 54 79 55
REMARK SMILES IDX 83 56 86 57 80 58 81 59 84 60 82 61 61 62 62 63 70 64 63 65
REMARK SMILES IDX 64 66 68 67 71 68 65 69 66 70 69 71 67 72 7 73 8 74 9 75
REMARK SMILES IDX 10 77 11 78 12 79 16 80 13 81 15 82 14 83 17 84 18 85 19 86
REMARK SMILES IDX 20 87 34 88 21 89 33 90 22 91 23 93 24 94 25 95 29 96 26 97
REMARK SMILES IDX 28 98 27 99 30 100 32 101 31 102
REMARK H PARENT 3 7 91 25 59 36 8 76 22 92
REMARK Flexibility Score: inf
ROOT
ATOM      1  C   UNL A   1      32.003  30.586  26.651  1.00  0.00     0.023 C 
ENDROOT
BRANCH   1   2
ATOM      2  C   UNL A   1      31.661  32.032  26.949  1.00  0.00     0.023 C 
BRANCH   2   3
ATOM      3  C   UNL A   1      32.884  32.867  27.248  1.00  0.00     0.116 C 
BRANCH   3   4
ATOM      4  N   UNL A   1      32.549  34.216  27.706  1.00  0.00    -0.352 N 
ATOM      5  O   UNL A   1      32.624  35.965  29.149  1.00  0.00    -0.269 OA
ATOM      6  C   UNL A   1      33.090  34.902  28.759  1.00  0.00     0.251 C 
ATOM      7  H   UNL A   1      31.851  34.685  27.195  1.00  0.00     0.163 HD
BRANCH   6   8
ATOM      8  C   UNL A   1      34.253  34.296  29.416  1.00  0.00     0.039 A 
ATOM      9  C   UNL A   1      35.528  34.637  28.954  1.00  0.00     0.014 A 
ATOM     10  C   UNL A   1      34.065  33.311  30.383  1.00  0.00     0.014 A 
ATOM     11  C   UNL A   1      36.611  33.883  29.350  1.00  0.00     0.010 A 
ATOM     12  C   UNL A   1      35.177  32.639  30.879  1.00  0.00     0.010 A 
ATOM     13  C   UNL A   1      36.450  32.914  30.352  1.00  0.00    -0.014 A 
BRANCH  13  14
ATOM     14  C   UNL A   1      37.659  32.298  30.930  1.00  0.00     0.031 A 
ATOM     15  C   UNL A   1      38.410  31.233  30.202  1.00  0.00     0.074 A 
ATOM     16  C   UNL A   1      38.043  32.730  32.145  1.00  0.00     0.049 A 
ATOM     17  N   UNL A   1      39.435  30.532  30.608  1.00  0.00    -0.248 NA
ATOM     18  C   UNL A   1      37.943  30.894  28.848  1.00  0.00     0.031 C 
ATOM     19  C   UNL A   1      37.354  33.764  32.925  1.00  0.00     0.029 A 
ATOM     20  N   UNL A   1      39.097  32.367  32.936  1.00  0.00    -0.354 N 
ATOM     21  C   UNL A   1      39.718  29.645  29.580  1.00  0.00     0.074 A 
ATOM     22  C   UNL A   1      38.749  29.889  28.531  1.00  0.00     0.031 C 
ATOM     23  C   UNL A   1      38.020  33.975  34.065  1.00  0.00     0.029 A 
ATOM     24  C   UNL A   1      39.123  33.030  34.137  1.00  0.00     0.049 A 
ATOM     25  H   UNL A   1      39.769  31.698  32.670  1.00  0.00     0.167 HD
ATOM     26  C   UNL A   1      40.698  28.713  29.534  1.00  0.00     0.037 A 
ATOM     27  C   UNL A   1      39.918  32.858  35.206  1.00  0.00     0.037 A 
ATOM     28  C   UNL A   1      41.655  28.509  30.592  1.00  0.00     0.049 A 
ATOM     29  C   UNL A   1      40.984  31.812  35.131  1.00  0.00     0.074 A 
ATOM     30  C   UNL A   1      42.722  27.630  30.637  1.00  0.00     0.029 A 
ATOM     31  N   UNL A   1      41.652  29.197  31.801  1.00  0.00    -0.354 N 
ATOM     32  N   UNL A   1      41.262  30.992  34.147  1.00  0.00    -0.248 NA
ATOM     33  C   UNL A   1      41.843  31.661  36.309  1.00  0.00     0.031 C 
ATOM     34  C   UNL A   1      43.332  27.750  31.890  1.00  0.00     0.029 A 
ATOM     35  C   UNL A   1      42.681  28.741  32.610  1.00  0.00     0.049 A 
ATOM     36  H   UNL A   1      41.013  29.905  32.046  1.00  0.00     0.167 HD
ATOM     37  C   UNL A   1      42.333  30.227  34.579  1.00  0.00     0.074 A 
ATOM     38  C   UNL A   1      42.664  30.698  35.911  1.00  0.00     0.031 C 
ATOM     39  C   UNL A   1      42.980  29.226  33.935  1.00  0.00     0.037 A 
BRANCH  26  40
ATOM     40  C   UNL A   1      40.756  27.822  28.326  1.00  0.00     0.064 A 
ATOM     41  C   UNL A   1      41.493  28.162  27.182  1.00  0.00     0.173 A 
ATOM     42  C   UNL A   1      40.073  26.595  28.322  1.00  0.00     0.173 A 
ATOM     43  F   UNL A   1      42.155  29.328  27.127  1.00  0.00    -0.203 F 
ATOM     44  C   UNL A   1      41.518  27.325  26.069  1.00  0.00     0.198 A 
ATOM     45  C   UNL A   1      40.124  25.747  27.218  1.00  0.00     0.198 A 
ATOM     46  F   UNL A   1      39.356  26.216  29.390  1.00  0.00    -0.203 F 
ATOM     47  F   UNL A   1      42.186  27.696  24.967  1.00  0.00    -0.200 F 
ATOM     48  C   UNL A   1      40.837  26.116  26.089  1.00  0.00     0.200 A 
ATOM     49  F   UNL A   1      39.474  24.574  27.246  1.00  0.00    -0.200 F 
ATOM     50  F   UNL A   1      40.862  25.313  25.017  1.00  0.00    -0.200 F 
ENDBRANCH  26  40
BRANCH  27  51
ATOM     51  C   UNL A   1      39.685  33.684  36.415  1.00  0.00     0.064 A 
ATOM     52  C   UNL A   1      40.233  34.966  36.531  1.00  0.00     0.173 A 
ATOM     53  C   UNL A   1      38.828  33.241  37.436  1.00  0.00     0.173 A 
ATOM     54  F   UNL A   1      41.060  35.429  35.582  1.00  0.00    -0.203 F 
ATOM     55  C   UNL A   1      39.934  35.776  37.625  1.00  0.00     0.198 A 
ATOM     56  C   UNL A   1      38.507  34.063  38.513  1.00  0.00     0.198 A 
ATOM     57  F   UNL A   1      38.262  32.027  37.359  1.00  0.00    -0.203 F 
ATOM     58  F   UNL A   1      40.484  36.994  37.722  1.00  0.00    -0.200 F 
ATOM     59  C   UNL A   1      39.063  35.328  38.608  1.00  0.00     0.200 A 
ATOM     60  F   UNL A   1      37.643  33.636  39.443  1.00  0.00    -0.200 F 
ATOM     61  F   UNL A   1      38.755  36.120  39.644  1.00  0.00    -0.200 F 
ENDBRANCH  27  51
BRANCH  39  62
ATOM     62  C   UNL A   1      44.123  28.589  34.662  1.00  0.00     0.064 A 
ATOM     63  C   UNL A   1      45.408  29.151  34.640  1.00  0.00     0.173 A 
ATOM     64  C   UNL A   1      43.920  27.428  35.421  1.00  0.00     0.173 A 
ATOM     65  F   UNL A   1      45.652  30.250  33.909  1.00  0.00    -0.203 F 
ATOM     66  C   UNL A   1      46.454  28.563  35.344  1.00  0.00     0.198 A 
ATOM     67  C   UNL A   1      44.963  26.859  36.146  1.00  0.00     0.198 A 
ATOM     68  F   UNL A   1      42.708  26.857  35.472  1.00  0.00    -0.203 F 
ATOM     69  F   UNL A   1      47.684  29.092  35.278  1.00  0.00    -0.200 F 
ATOM     70  C   UNL A   1      46.229  27.424  36.103  1.00  0.00     0.200 A 
ATOM     71  F   UNL A   1      44.741  25.765  36.886  1.00  0.00    -0.200 F 
ATOM     72  F   UNL A   1      47.235  26.865  36.788  1.00  0.00    -0.200 F 
ENDBRANCH  39  62
ENDBRANCH  13  14
ENDBRANCH   6   8
ENDBRANCH   3   4
ENDBRANCH   2   3
ENDBRANCH   1   2
BRANCH   1  73
ATOM     73  C   UNL A   1      31.463  30.054  25.324  1.00  0.00     0.116 C 
BRANCH  73  74
ATOM     74  N   UNL A   1      32.491  29.502  24.462  1.00  0.00    -0.356 N 
ATOM     75  C   UNL A   1      32.456  28.446  23.601  1.00  0.00     0.224 C 
ATOM     76  H   UNL A   1      33.358  29.966  24.508  1.00  0.00     0.163 HD
ATOM     77  O   UNL A   1      33.467  28.217  22.929  1.00  0.00    -0.275 OA
BRANCH  75  78
ATOM     78  C   UNL A   1      31.208  27.586  23.416  1.00  0.00     0.095 C 
ATOM     79  C   UNL A   1      30.061  28.404  22.798  1.00  0.00     0.041 C 
ATOM     80  C   UNL A   1      30.813  26.816  24.681  1.00  0.00     0.095 C 
ATOM     81  C   UNL A   1      28.684  27.885  23.101  1.00  0.00    -0.030 C 
ATOM     82  C   UNL A   1      29.524  26.005  24.510  1.00  0.00     0.041 C 
ATOM     83  C   UNL A   1      28.441  26.808  23.861  1.00  0.00    -0.030 C 
BRANCH  80  84
ATOM     84  C   UNL A   1      31.970  25.984  25.227  1.00  0.00     0.227 C 
ATOM     85  O   UNL A   1      32.920  26.467  25.838  1.00  0.00    -0.275 OA
ATOM     86  N   UNL A   1      31.898  24.631  24.978  1.00  0.00    -0.331 N 
ATOM     87  C   UNL A   1      32.051  23.777  26.146  1.00  0.00     0.181 C 
ATOM     88  C   UNL A   1      32.607  24.164  23.796  1.00  0.00     0.181 C 
ATOM     89  C   UNL A   1      31.784  22.298  25.832  1.00  0.00     0.284 C 
ATOM     90  C   UNL A   1      32.309  22.690  23.487  1.00  0.00     0.284 C 
ATOM     91  N   UNL A   1      32.436  21.767  24.626  1.00  0.00    -0.328 N 
ATOM     92  H   UNL A   1      31.904  20.935  24.371  1.00  0.00     0.348 HD
BRANCH  91  93
ATOM     93  C   UNL A   1      33.767  21.181  24.823  1.00  0.00     0.299 C 
BRANCH  93  94
ATOM     94  C   UNL A   1      33.860  19.675  24.932  1.00  0.00     0.010 A 
ATOM     95  C   UNL A   1      35.042  18.998  24.550  1.00  0.00     0.013 A 
ATOM     96  C   UNL A   1      32.753  18.928  25.373  1.00  0.00     0.060 A 
ATOM     97  C   UNL A   1      35.094  17.601  24.513  1.00  0.00     0.051 A 
ATOM     98  C   UNL A   1      32.833  17.552  25.324  1.00  0.00     0.166 A 
ATOM     99  C   UNL A   1      33.966  16.907  24.891  1.00  0.00     0.165 A 
ATOM    100  O   UNL A   1      31.833  16.689  25.643  1.00  0.00    -0.454 OA
ATOM    101  O   UNL A   1      33.821  15.555  24.878  1.00  0.00    -0.454 OA
ATOM    102  C   UNL A   1      32.445  15.430  25.291  1.00  0.00     0.468 C 
ENDBRANCH  93  94
ENDBRANCH  91  93
ENDBRANCH  80  84
ENDBRANCH  75  78
ENDBRANCH  73  74
ENDBRANCH   1  73
TORSDOF 14
ENDMDL
