MODEL 1
REMARK VINA RESULT:     -11.5      0.000      0.000
REMARK SMILES O=C(NCCCCNC(=O)c1cc(-c2ccoc2)n[nH]1)c1ccc(-c2c3nc(c(-c4c(F)c(F)c(F)c(F)c4F)c4ccc([nH]4)c(-c4c(F)c(F)c(F)c(F)c4F)c4nc(c(-c5c(F)c(F)c(F)c(F)c5F)c5ccc2[nH]5)C=C4)C=C3)cc1
REMARK SMILES IDX 5 1 4 2 3 3 1 4 2 5 21 7 22 8 83 9 23 10 82 11 24 12 25 13
REMARK SMILES IDX 26 14 76 15 27 16 81 17 75 18 77 19 28 20 80 21 74 22 73 23
REMARK SMILES IDX 29 25 61 26 41 27 60 28 42 29 45 30 59 31 78 32 43 33 44 34
REMARK SMILES IDX 58 36 79 37 46 38 30 39 31 40 39 41 32 42 33 43 37 44 40 45
REMARK SMILES IDX 34 46 35 47 38 48 36 49 62 50 63 51 71 52 64 53 65 54 69 55
REMARK SMILES IDX 72 56 66 57 67 58 70 59 68 60 47 61 48 62 56 63 49 64 50 65
REMARK SMILES IDX 54 66 57 67 51 68 52 69 55 70 53 71 6 72 7 73 8 74 9 75
REMARK SMILES IDX 10 77 11 78 12 79 20 80 13 81 19 82 14 84 15 85 18 86 16 87
REMARK SMILES IDX 17 88
REMARK H PARENT 3 6 77 24 45 35 8 76 20 83
REMARK Flexibility Score: inf
ROOT
ATOM      1  C   UNL A   1      41.208  21.082  27.541  1.00  0.00     0.023 C 
ENDROOT
BRANCH   1   2
ATOM      2  C   UNL A   1      41.020  21.787  26.206  1.00  0.00     0.116 C 
BRANCH   2   3
ATOM      3  N   UNL A   1      39.625  21.997  25.852  1.00  0.00    -0.352 N 
ATOM      4  O   UNL A   1      37.622  23.048  25.859  1.00  0.00    -0.269 OA
ATOM      5  C   UNL A   1      38.817  23.075  26.135  1.00  0.00     0.251 C 
ATOM      6  H   UNL A   1      39.201  21.269  25.341  1.00  0.00     0.163 HD
BRANCH   5   7
ATOM      7  C   UNL A   1      39.395  24.259  26.806  1.00  0.00     0.039 A 
ATOM      8  C   UNL A   1      39.274  24.414  28.188  1.00  0.00     0.014 A 
ATOM      9  C   UNL A   1      40.037  25.238  26.042  1.00  0.00     0.014 A 
ATOM     10  C   UNL A   1      39.643  25.615  28.779  1.00  0.00     0.010 A 
ATOM     11  C   UNL A   1      40.498  26.408  26.657  1.00  0.00     0.010 A 
ATOM     12  C   UNL A   1      40.271  26.621  28.024  1.00  0.00    -0.014 A 
BRANCH  12  13
ATOM     13  C   UNL A   1      40.730  27.848  28.725  1.00  0.00     0.031 A 
ATOM     14  C   UNL A   1      42.179  28.070  29.060  1.00  0.00     0.074 A 
ATOM     15  C   UNL A   1      39.820  28.805  28.989  1.00  0.00     0.049 A 
ATOM     16  N   UNL A   1      42.747  29.126  29.589  1.00  0.00    -0.248 NA
ATOM     17  C   UNL A   1      43.112  26.970  28.774  1.00  0.00     0.031 C 
ATOM     18  C   UNL A   1      38.383  28.687  28.730  1.00  0.00     0.029 A 
ATOM     19  N   UNL A   1      39.964  30.071  29.493  1.00  0.00    -0.354 N 
ATOM     20  C   UNL A   1      44.096  28.814  29.710  1.00  0.00     0.074 A 
ATOM     21  C   UNL A   1      44.260  27.461  29.224  1.00  0.00     0.031 C 
ATOM     22  C   UNL A   1      37.787  29.853  29.014  1.00  0.00     0.029 A 
ATOM     23  C   UNL A   1      38.788  30.781  29.529  1.00  0.00     0.049 A 
ATOM     24  H   UNL A   1      40.825  30.437  29.799  1.00  0.00     0.167 HD
ATOM     25  C   UNL A   1      45.102  29.594  30.177  1.00  0.00     0.037 A 
ATOM     26  C   UNL A   1      38.540  32.038  29.936  1.00  0.00     0.037 A 
ATOM     27  C   UNL A   1      44.934  30.946  30.648  1.00  0.00     0.049 A 
ATOM     28  C   UNL A   1      39.678  32.880  30.430  1.00  0.00     0.074 A 
ATOM     29  C   UNL A   1      45.895  31.818  31.132  1.00  0.00     0.029 A 
ATOM     30  N   UNL A   1      43.725  31.623  30.690  1.00  0.00    -0.354 N 
ATOM     31  N   UNL A   1      40.950  32.576  30.522  1.00  0.00    -0.248 NA
ATOM     32  C   UNL A   1      39.348  34.238  30.880  1.00  0.00     0.031 C 
ATOM     33  C   UNL A   1      45.261  33.012  31.497  1.00  0.00     0.029 A 
ATOM     34  C   UNL A   1      43.913  32.899  31.202  1.00  0.00     0.049 A 
ATOM     35  H   UNL A   1      42.859  31.254  30.399  1.00  0.00     0.167 HD
ATOM     36  C   UNL A   1      41.572  33.701  31.043  1.00  0.00     0.074 A 
ATOM     37  C   UNL A   1      40.543  34.708  31.208  1.00  0.00     0.031 C 
ATOM     38  C   UNL A   1      42.874  33.881  31.370  1.00  0.00     0.037 A 
BRANCH  25  39
ATOM     39  C   UNL A   1      46.484  29.009  30.207  1.00  0.00     0.064 A 
ATOM     40  C   UNL A   1      46.952  28.291  31.317  1.00  0.00     0.173 A 
ATOM     41  C   UNL A   1      47.322  29.104  29.085  1.00  0.00     0.173 A 
ATOM     42  F   UNL A   1      46.193  28.182  32.418  1.00  0.00    -0.203 F 
ATOM     43  C   UNL A   1      48.212  27.699  31.307  1.00  0.00     0.198 A 
ATOM     44  C   UNL A   1      48.573  28.491  29.071  1.00  0.00     0.198 A 
ATOM     45  F   UNL A   1      46.919  29.774  27.995  1.00  0.00    -0.203 F 
ATOM     46  F   UNL A   1      48.649  27.040  32.390  1.00  0.00    -0.200 F 
ATOM     47  C   UNL A   1      49.018  27.791  30.183  1.00  0.00     0.200 A 
ATOM     48  F   UNL A   1      49.345  28.571  27.978  1.00  0.00    -0.200 F 
ATOM     49  F   UNL A   1      50.224  27.207  30.170  1.00  0.00    -0.200 F 
ENDBRANCH  25  39
BRANCH  26  50
ATOM     50  C   UNL A   1      37.152  32.566  29.892  1.00  0.00     0.064 A 
ATOM     51  C   UNL A   1      36.671  33.249  28.768  1.00  0.00     0.173 A 
ATOM     52  C   UNL A   1      36.276  32.382  30.972  1.00  0.00     0.173 A 
ATOM     53  F   UNL A   1      37.477  33.463  27.717  1.00  0.00    -0.203 F 
ATOM     54  C   UNL A   1      35.369  33.744  28.732  1.00  0.00     0.198 A 
ATOM     55  C   UNL A   1      34.966  32.851  30.922  1.00  0.00     0.198 A 
ATOM     56  F   UNL A   1      36.687  31.728  32.068  1.00  0.00    -0.203 F 
ATOM     57  F   UNL A   1      34.946  34.430  27.663  1.00  0.00    -0.200 F 
ATOM     58  C   UNL A   1      34.516  33.539  29.806  1.00  0.00     0.200 A 
ATOM     59  F   UNL A   1      34.140  32.633  31.955  1.00  0.00    -0.200 F 
ATOM     60  F   UNL A   1      33.262  34.007  29.767  1.00  0.00    -0.200 F 
ENDBRANCH  26  50
BRANCH  38  61
ATOM     61  C   UNL A   1      43.246  35.215  31.941  1.00  0.00     0.064 A 
ATOM     62  C   UNL A   1      43.143  35.474  33.316  1.00  0.00     0.173 A 
ATOM     63  C   UNL A   1      43.706  36.245  31.108  1.00  0.00     0.173 A 
ATOM     64  F   UNL A   1      42.690  34.525  34.149  1.00  0.00    -0.203 F 
ATOM     65  C   UNL A   1      43.458  36.728  33.833  1.00  0.00     0.198 A 
ATOM     66  C   UNL A   1      44.045  37.489  31.632  1.00  0.00     0.198 A 
ATOM     67  F   UNL A   1      43.825  36.046  29.787  1.00  0.00    -0.203 F 
ATOM     68  F   UNL A   1      43.299  36.970  35.141  1.00  0.00    -0.200 F 
ATOM     69  C   UNL A   1      43.911  37.732  32.992  1.00  0.00     0.200 A 
ATOM     70  F   UNL A   1      44.491  38.458  30.821  1.00  0.00    -0.200 F 
ATOM     71  F   UNL A   1      44.208  38.941  33.490  1.00  0.00    -0.200 F 
ENDBRANCH  38  61
ENDBRANCH  12  13
ENDBRANCH   5   7
ENDBRANCH   2   3
ENDBRANCH   1   2
BRANCH   1  72
ATOM     72  C   UNL A   1      41.895  19.721  27.463  1.00  0.00     0.023 C 
BRANCH  72  73
ATOM     73  C   UNL A   1      42.217  19.239  26.049  1.00  0.00     0.116 C 
BRANCH  73  74
ATOM     74  N   UNL A   1      43.497  18.551  25.981  1.00  0.00    -0.351 N 
ATOM     75  C   UNL A   1      44.644  18.944  25.335  1.00  0.00     0.269 C 
ATOM     76  H   UNL A   1      43.548  17.693  26.459  1.00  0.00     0.163 HD
ATOM     77  O   UNL A   1      45.534  18.115  25.145  1.00  0.00    -0.268 OA
BRANCH  75  78
ATOM     78  C   UNL A   1      44.732  20.292  24.869  1.00  0.00     0.123 A 
ATOM     79  C   UNL A   1      44.964  21.481  25.534  1.00  0.00     0.064 A 
ATOM     80  N   UNL A   1      44.600  20.641  23.555  1.00  0.00    -0.272 N 
ATOM     81  C   UNL A   1      44.739  22.483  24.569  1.00  0.00     0.096 A 
ATOM     82  N   UNL A   1      44.491  21.970  23.360  1.00  0.00    -0.175 NA
ATOM     83  H   UNL A   1      44.583  19.984  22.821  1.00  0.00     0.190 HD
BRANCH  81  84
ATOM     84  C   UNL A   1      44.674  23.900  24.878  1.00  0.00     0.040 A 
ATOM     85  C   UNL A   1      43.499  24.655  25.112  1.00  0.00     0.052 A 
ATOM     86  C   UNL A   1      45.726  24.782  24.954  1.00  0.00     0.205 A 
ATOM     87  C   UNL A   1      43.917  25.951  25.310  1.00  0.00     0.195 A 
ATOM     88  O   UNL A   1      45.269  26.038  25.206  1.00  0.00    -0.472 OA
ENDBRANCH  81  84
ENDBRANCH  75  78
ENDBRANCH  73  74
ENDBRANCH  72  73
ENDBRANCH   1  72
TORSDOF 12
ENDMDL
MODEL 2
REMARK VINA RESULT:     -11.3      0.713      7.521
REMARK SMILES O=C(NCCCCNC(=O)c1cc(-c2ccoc2)n[nH]1)c1ccc(-c2c3nc(c(-c4c(F)c(F)c(F)c(F)c4F)c4ccc([nH]4)c(-c4c(F)c(F)c(F)c(F)c4F)c4nc(c(-c5c(F)c(F)c(F)c(F)c5F)c5ccc2[nH]5)C=C4)C=C3)cc1
REMARK SMILES IDX 5 1 4 2 3 3 1 4 2 5 21 7 22 8 83 9 23 10 82 11 24 12 25 13
REMARK SMILES IDX 26 14 76 15 27 16 81 17 75 18 77 19 28 20 80 21 74 22 73 23
REMARK SMILES IDX 29 25 61 26 41 27 60 28 42 29 45 30 59 31 78 32 43 33 44 34
REMARK SMILES IDX 58 36 79 37 46 38 30 39 31 40 39 41 32 42 33 43 37 44 40 45
REMARK SMILES IDX 34 46 35 47 38 48 36 49 62 50 63 51 71 52 64 53 65 54 69 55
REMARK SMILES IDX 72 56 66 57 67 58 70 59 68 60 47 61 48 62 56 63 49 64 50 65
REMARK SMILES IDX 54 66 57 67 51 68 52 69 55 70 53 71 6 72 7 73 8 74 9 75
REMARK SMILES IDX 10 77 11 78 12 79 20 80 13 81 19 82 14 84 15 85 18 86 16 87
REMARK SMILES IDX 17 88
REMARK H PARENT 3 6 77 24 45 35 8 76 20 83
REMARK Flexibility Score: inf
ROOT
ATOM      1  C   UNL A   1      41.430  21.233  27.475  1.00  0.00     0.023 C 
ENDROOT
BRANCH   1   2
ATOM      2  C   UNL A   1      41.156  21.906  26.137  1.00  0.00     0.116 C 
BRANCH   2   3
ATOM      3  N   UNL A   1      39.740  22.061  25.846  1.00  0.00    -0.352 N 
ATOM      4  O   UNL A   1      37.699  23.032  25.943  1.00  0.00    -0.269 OA
ATOM      5  C   UNL A   1      38.903  23.106  26.165  1.00  0.00     0.251 C 
ATOM      6  H   UNL A   1      39.322  21.317  25.354  1.00  0.00     0.163 HD
BRANCH   5   7
ATOM      7  C   UNL A   1      39.464  24.313  26.812  1.00  0.00     0.039 A 
ATOM      8  C   UNL A   1      39.323  24.505  28.187  1.00  0.00     0.014 A 
ATOM      9  C   UNL A   1      40.108  25.276  26.030  1.00  0.00     0.014 A 
ATOM     10  C   UNL A   1      39.676  25.724  28.749  1.00  0.00     0.010 A 
ATOM     11  C   UNL A   1      40.552  26.466  26.618  1.00  0.00     0.010 A 
ATOM     12  C   UNL A   1      40.306  26.714  27.976  1.00  0.00    -0.014 A 
BRANCH  12  13
ATOM     13  C   UNL A   1      40.747  27.963  28.648  1.00  0.00     0.031 A 
ATOM     14  C   UNL A   1      39.778  29.060  28.989  1.00  0.00     0.074 A 
ATOM     15  C   UNL A   1      42.038  28.060  29.020  1.00  0.00     0.049 A 
ATOM     16  N   UNL A   1      39.993  30.170  29.652  1.00  0.00    -0.248 NA
ATOM     17  C   UNL A   1      38.392  28.902  28.523  1.00  0.00     0.031 C 
ATOM     18  C   UNL A   1      43.073  27.068  28.720  1.00  0.00     0.029 A 
ATOM     19  N   UNL A   1      42.694  29.011  29.757  1.00  0.00    -0.354 N 
ATOM     20  C   UNL A   1      38.779  30.845  29.673  1.00  0.00     0.074 A 
ATOM     21  C   UNL A   1      37.835  30.035  28.934  1.00  0.00     0.031 C 
ATOM     22  C   UNL A   1      44.215  27.426  29.321  1.00  0.00     0.029 A 
ATOM     23  C   UNL A   1      44.010  28.701  30.000  1.00  0.00     0.049 A 
ATOM     24  H   UNL A   1      42.265  29.836  30.081  1.00  0.00     0.167 HD
ATOM     25  C   UNL A   1      38.483  32.028  30.265  1.00  0.00     0.037 A 
ATOM     26  C   UNL A   1      44.951  29.369  30.688  1.00  0.00     0.037 A 
ATOM     27  C   UNL A   1      39.425  32.825  31.011  1.00  0.00     0.049 A 
ATOM     28  C   UNL A   1      44.587  30.668  31.346  1.00  0.00     0.074 A 
ATOM     29  C   UNL A   1      39.217  34.033  31.653  1.00  0.00     0.029 A 
ATOM     30  N   UNL A   1      40.755  32.489  31.217  1.00  0.00    -0.354 N 
ATOM     31  N   UNL A   1      43.430  31.283  31.371  1.00  0.00    -0.248 NA
ATOM     32  C   UNL A   1      45.658  31.365  32.069  1.00  0.00     0.031 C 
ATOM     33  C   UNL A   1      40.429  34.444  32.222  1.00  0.00     0.029 A 
ATOM     34  C   UNL A   1      41.381  33.472  31.968  1.00  0.00     0.049 A 
ATOM     35  H   UNL A   1      41.190  31.672  30.880  1.00  0.00     0.167 HD
ATOM     36  C   UNL A   1      43.633  32.441  32.106  1.00  0.00     0.074 A 
ATOM     37  C   UNL A   1      45.014  32.421  32.544  1.00  0.00     0.031 C 
ATOM     38  C   UNL A   1      42.760  33.439  32.382  1.00  0.00     0.037 A 
BRANCH  25  39
ATOM     39  C   UNL A   1      37.080  32.545  30.133  1.00  0.00     0.064 A 
ATOM     40  C   UNL A   1      36.134  32.367  31.154  1.00  0.00     0.173 A 
ATOM     41  C   UNL A   1      36.698  33.291  29.007  1.00  0.00     0.173 A 
ATOM     42  F   UNL A   1      36.447  31.653  32.245  1.00  0.00    -0.203 F 
ATOM     43  C   UNL A   1      34.855  32.907  31.046  1.00  0.00     0.198 A 
ATOM     44  C   UNL A   1      35.426  33.848  28.914  1.00  0.00     0.198 A 
ATOM     45  F   UNL A   1      37.567  33.495  28.006  1.00  0.00    -0.203 F 
ATOM     46  F   UNL A   1      33.959  32.702  32.023  1.00  0.00    -0.200 F 
ATOM     47  C   UNL A   1      34.504  33.654  29.933  1.00  0.00     0.200 A 
ATOM     48  F   UNL A   1      35.092  34.580  27.841  1.00  0.00    -0.200 F 
ATOM     49  F   UNL A   1      33.278  34.186  29.838  1.00  0.00    -0.200 F 
ENDBRANCH  25  39
BRANCH  26  50
ATOM     50  C   UNL A   1      46.327  28.817  30.782  1.00  0.00     0.064 A 
ATOM     51  C   UNL A   1      47.292  29.102  29.808  1.00  0.00     0.173 A 
ATOM     52  C   UNL A   1      46.706  28.003  31.860  1.00  0.00     0.173 A 
ATOM     53  F   UNL A   1      46.971  29.863  28.750  1.00  0.00    -0.203 F 
ATOM     54  C   UNL A   1      48.580  28.580  29.899  1.00  0.00     0.198 A 
ATOM     55  C   UNL A   1      48.002  27.507  31.966  1.00  0.00     0.198 A 
ATOM     56  F   UNL A   1      45.820  27.707  32.823  1.00  0.00    -0.203 F 
ATOM     57  F   UNL A   1      49.472  28.834  28.933  1.00  0.00    -0.200 F 
ATOM     58  C   UNL A   1      48.936  27.789  30.981  1.00  0.00     0.200 A 
ATOM     59  F   UNL A   1      48.347  26.759  33.023  1.00  0.00    -0.200 F 
ATOM     60  F   UNL A   1      50.178  27.295  31.073  1.00  0.00    -0.200 F 
ENDBRANCH  26  50
BRANCH  38  61
ATOM     61  C   UNL A   1      43.284  34.587  33.191  1.00  0.00     0.064 A 
ATOM     62  C   UNL A   1      43.246  34.568  34.593  1.00  0.00     0.173 A 
ATOM     63  C   UNL A   1      43.824  35.717  32.561  1.00  0.00     0.173 A 
ATOM     64  F   UNL A   1      42.721  33.515  35.239  1.00  0.00    -0.203 F 
ATOM     65  C   UNL A   1      43.702  35.653  35.336  1.00  0.00     0.198 A 
ATOM     66  C   UNL A   1      44.304  36.789  33.308  1.00  0.00     0.198 A 
ATOM     67  F   UNL A   1      43.885  35.782  31.223  1.00  0.00    -0.203 F 
ATOM     68  F   UNL A   1      43.605  35.636  36.672  1.00  0.00    -0.200 F 
ATOM     69  C   UNL A   1      44.233  36.761  34.693  1.00  0.00     0.200 A 
ATOM     70  F   UNL A   1      44.824  37.857  32.687  1.00  0.00    -0.200 F 
ATOM     71  F   UNL A   1      44.666  37.807  35.409  1.00  0.00    -0.200 F 
ENDBRANCH  38  61
ENDBRANCH  12  13
ENDBRANCH   5   7
ENDBRANCH   2   3
ENDBRANCH   1   2
BRANCH   1  72
ATOM     72  C   UNL A   1      41.799  19.754  27.392  1.00  0.00     0.023 C 
BRANCH  72  73
ATOM     73  C   UNL A   1      42.162  19.256  25.993  1.00  0.00     0.116 C 
BRANCH  73  74
ATOM     74  N   UNL A   1      43.433  18.548  25.974  1.00  0.00    -0.351 N 
ATOM     75  C   UNL A   1      44.609  18.922  25.373  1.00  0.00     0.269 C 
ATOM     76  H   UNL A   1      43.451  17.689  26.454  1.00  0.00     0.163 HD
ATOM     77  O   UNL A   1      45.492  18.078  25.217  1.00  0.00    -0.268 OA
BRANCH  75  78
ATOM     78  C   UNL A   1      44.737  20.268  24.911  1.00  0.00     0.123 A 
ATOM     79  C   UNL A   1      45.022  21.445  25.576  1.00  0.00     0.064 A 
ATOM     80  N   UNL A   1      44.594  20.627  23.600  1.00  0.00    -0.272 N 
ATOM     81  C   UNL A   1      44.816  22.458  24.619  1.00  0.00     0.096 A 
ATOM     82  N   UNL A   1      44.529  21.960  23.413  1.00  0.00    -0.175 NA
ATOM     83  H   UNL A   1      44.541  19.975  22.864  1.00  0.00     0.190 HD
BRANCH  81  84
ATOM     84  C   UNL A   1      44.806  23.876  24.934  1.00  0.00     0.040 A 
ATOM     85  C   UNL A   1      43.661  24.675  25.172  1.00  0.00     0.052 A 
ATOM     86  C   UNL A   1      45.892  24.715  25.015  1.00  0.00     0.205 A 
ATOM     87  C   UNL A   1      44.130  25.953  25.375  1.00  0.00     0.195 A 
ATOM     88  O   UNL A   1      45.485  25.987  25.273  1.00  0.00    -0.472 OA
ENDBRANCH  81  84
ENDBRANCH  75  78
ENDBRANCH  73  74
ENDBRANCH  72  73
ENDBRANCH   1  72
TORSDOF 12
ENDMDL
MODEL 3
REMARK VINA RESULT:     -11.2      4.119     10.840
REMARK SMILES O=C(NCCCCNC(=O)c1cc(-c2ccoc2)n[nH]1)c1ccc(-c2c3nc(c(-c4c(F)c(F)c(F)c(F)c4F)c4ccc([nH]4)c(-c4c(F)c(F)c(F)c(F)c4F)c4nc(c(-c5c(F)c(F)c(F)c(F)c5F)c5ccc2[nH]5)C=C4)C=C3)cc1
REMARK SMILES IDX 5 1 4 2 3 3 1 4 2 5 21 7 22 8 83 9 23 10 82 11 24 12 25 13
REMARK SMILES IDX 26 14 76 15 27 16 81 17 75 18 77 19 28 20 80 21 74 22 73 23
REMARK SMILES IDX 29 25 61 26 41 27 60 28 42 29 45 30 59 31 78 32 43 33 44 34
REMARK SMILES IDX 58 36 79 37 46 38 30 39 31 40 39 41 32 42 33 43 37 44 40 45
REMARK SMILES IDX 34 46 35 47 38 48 36 49 62 50 63 51 71 52 64 53 65 54 69 55
REMARK SMILES IDX 72 56 66 57 67 58 70 59 68 60 47 61 48 62 56 63 49 64 50 65
REMARK SMILES IDX 54 66 57 67 51 68 52 69 55 70 53 71 6 72 7 73 8 74 9 75
REMARK SMILES IDX 10 77 11 78 12 79 20 80 13 81 19 82 14 84 15 85 18 86 16 87
REMARK SMILES IDX 17 88
REMARK H PARENT 3 6 77 24 45 35 8 76 20 83
REMARK Flexibility Score: inf
ROOT
ATOM      1  C   UNL A   1      35.082  33.654  28.027  1.00  0.00     0.023 C 
ENDROOT
BRANCH   1   2
ATOM      2  C   UNL A   1      34.634  32.547  28.971  1.00  0.00     0.116 C 
BRANCH   2   3
ATOM      3  N   UNL A   1      34.059  31.399  28.286  1.00  0.00    -0.352 N 
ATOM      4  O   UNL A   1      34.063  29.378  27.272  1.00  0.00    -0.269 OA
ATOM      5  C   UNL A   1      34.659  30.206  27.952  1.00  0.00     0.251 C 
ATOM      6  H   UNL A   1      33.113  31.488  28.027  1.00  0.00     0.163 HD
BRANCH   5   7
ATOM      7  C   UNL A   1      36.046  29.942  28.392  1.00  0.00     0.039 A 
ATOM      8  C   UNL A   1      37.119  30.222  27.545  1.00  0.00     0.014 A 
ATOM      9  C   UNL A   1      36.272  29.381  29.653  1.00  0.00     0.014 A 
ATOM     10  C   UNL A   1      38.393  29.790  27.887  1.00  0.00     0.010 A 
ATOM     11  C   UNL A   1      37.573  29.035  30.037  1.00  0.00     0.010 A 
ATOM     12  C   UNL A   1      38.639  29.204  29.141  1.00  0.00    -0.014 A 
BRANCH  12  13
ATOM     13  C   UNL A   1      40.037  28.846  29.493  1.00  0.00     0.031 A 
ATOM     14  C   UNL A   1      40.698  27.614  28.943  1.00  0.00     0.074 A 
ATOM     15  C   UNL A   1      40.734  29.702  30.266  1.00  0.00     0.049 A 
ATOM     16  N   UNL A   1      41.938  27.213  29.087  1.00  0.00    -0.248 NA
ATOM     17  C   UNL A   1      39.869  26.709  28.135  1.00  0.00     0.031 C 
ATOM     18  C   UNL A   1      40.186  30.916  30.876  1.00  0.00     0.029 A 
ATOM     19  N   UNL A   1      42.052  29.708  30.640  1.00  0.00    -0.354 N 
ATOM     20  C   UNL A   1      42.033  26.009  28.400  1.00  0.00     0.074 A 
ATOM     21  C   UNL A   1      40.720  25.728  27.861  1.00  0.00     0.031 C 
ATOM     22  C   UNL A   1      41.172  31.583  31.491  1.00  0.00     0.029 A 
ATOM     23  C   UNL A   1      42.407  30.816  31.370  1.00  0.00     0.049 A 
ATOM     24  H   UNL A   1      42.684  28.989  30.408  1.00  0.00     0.167 HD
ATOM     25  C   UNL A   1      43.122  25.220  28.231  1.00  0.00     0.037 A 
ATOM     26  C   UNL A   1      43.594  31.176  31.890  1.00  0.00     0.037 A 
ATOM     27  C   UNL A   1      44.431  25.511  28.761  1.00  0.00     0.049 A 
ATOM     28  C   UNL A   1      44.783  30.288  31.670  1.00  0.00     0.074 A 
ATOM     29  C   UNL A   1      45.597  24.775  28.636  1.00  0.00     0.029 A 
ATOM     30  N   UNL A   1      44.747  26.632  29.514  1.00  0.00    -0.354 N 
ATOM     31  N   UNL A   1      44.859  29.162  31.003  1.00  0.00    -0.248 NA
ATOM     32  C   UNL A   1      46.049  30.719  32.275  1.00  0.00     0.031 C 
ATOM     33  C   UNL A   1      46.611  25.436  29.339  1.00  0.00     0.029 A 
ATOM     34  C   UNL A   1      46.087  26.602  29.869  1.00  0.00     0.049 A 
ATOM     35  H   UNL A   1      44.113  27.344  29.760  1.00  0.00     0.167 HD
ATOM     36  C   UNL A   1      46.178  28.746  31.112  1.00  0.00     0.074 A 
ATOM     37  C   UNL A   1      46.875  29.764  31.873  1.00  0.00     0.031 C 
ATOM     38  C   UNL A   1      46.758  27.618  30.638  1.00  0.00     0.037 A 
BRANCH  25  39
ATOM     39  C   UNL A   1      42.953  23.954  27.441  1.00  0.00     0.064 A 
ATOM     40  C   UNL A   1      43.268  23.895  26.075  1.00  0.00     0.173 A 
ATOM     41  C   UNL A   1      42.543  22.769  28.072  1.00  0.00     0.173 A 
ATOM     42  F   UNL A   1      43.654  25.002  25.424  1.00  0.00    -0.203 F 
ATOM     43  C   UNL A   1      43.168  22.700  25.369  1.00  0.00     0.198 A 
ATOM     44  C   UNL A   1      42.466  21.571  27.367  1.00  0.00     0.198 A 
ATOM     45  F   UNL A   1      42.237  22.771  29.378  1.00  0.00    -0.203 F 
ATOM     46  F   UNL A   1      43.449  22.673  24.058  1.00  0.00    -0.200 F 
ATOM     47  C   UNL A   1      42.777  21.537  26.015  1.00  0.00     0.200 A 
ATOM     48  F   UNL A   1      42.099  20.446  27.997  1.00  0.00    -0.200 F 
ATOM     49  F   UNL A   1      42.696  20.384  25.337  1.00  0.00    -0.200 F 
ENDBRANCH  25  39
BRANCH  26  50
ATOM     50  C   UNL A   1      43.705  32.435  32.670  1.00  0.00     0.064 A 
ATOM     51  C   UNL A   1      43.963  33.659  32.039  1.00  0.00     0.173 A 
ATOM     52  C   UNL A   1      43.540  32.438  34.063  1.00  0.00     0.173 A 
ATOM     53  F   UNL A   1      44.144  33.703  30.711  1.00  0.00    -0.203 F 
ATOM     54  C   UNL A   1      44.069  34.837  32.775  1.00  0.00     0.198 A 
ATOM     55  C   UNL A   1      43.615  33.621  34.793  1.00  0.00     0.198 A 
ATOM     56  F   UNL A   1      43.285  31.293  34.712  1.00  0.00    -0.203 F 
ATOM     57  F   UNL A   1      44.357  35.988  32.153  1.00  0.00    -0.200 F 
ATOM     58  C   UNL A   1      43.889  34.819  34.150  1.00  0.00     0.200 A 
ATOM     59  F   UNL A   1      43.422  33.600  36.119  1.00  0.00    -0.200 F 
ATOM     60  F   UNL A   1      43.981  35.953  34.855  1.00  0.00    -0.200 F 
ENDBRANCH  26  50
BRANCH  38  61
ATOM     61  C   UNL A   1      48.214  27.432  30.938  1.00  0.00     0.064 A 
ATOM     62  C   UNL A   1      49.205  27.939  30.084  1.00  0.00     0.173 A 
ATOM     63  C   UNL A   1      48.624  26.740  32.086  1.00  0.00     0.173 A 
ATOM     64  F   UNL A   1      48.859  28.593  28.964  1.00  0.00    -0.203 F 
ATOM     65  C   UNL A   1      50.554  27.732  30.352  1.00  0.00     0.198 A 
ATOM     66  C   UNL A   1      49.976  26.557  32.364  1.00  0.00     0.198 A 
ATOM     67  F   UNL A   1      47.716  26.239  32.936  1.00  0.00    -0.203 F 
ATOM     68  F   UNL A   1      51.482  28.177  29.493  1.00  0.00    -0.200 F 
ATOM     69  C   UNL A   1      50.939  27.044  31.492  1.00  0.00     0.200 A 
ATOM     70  F   UNL A   1      50.347  25.899  33.471  1.00  0.00    -0.200 F 
ATOM     71  F   UNL A   1      52.239  26.839  31.746  1.00  0.00    -0.200 F 
ENDBRANCH  38  61
ENDBRANCH  12  13
ENDBRANCH   5   7
ENDBRANCH   2   3
ENDBRANCH   1   2
BRANCH   1  72
ATOM     72  C   UNL A   1      34.532  35.041  28.350  1.00  0.00     0.023 C 
BRANCH  72  73
ATOM     73  C   UNL A   1      33.238  35.052  29.161  1.00  0.00     0.116 C 
BRANCH  73  74
ATOM     74  N   UNL A   1      33.098  36.260  29.959  1.00  0.00    -0.351 N 
ATOM     75  C   UNL A   1      33.158  36.394  31.324  1.00  0.00     0.269 C 
ATOM     76  H   UNL A   1      32.939  37.090  29.454  1.00  0.00     0.163 HD
ATOM     77  O   UNL A   1      32.739  37.431  31.839  1.00  0.00    -0.268 OA
BRANCH  75  78
ATOM     78  C   UNL A   1      33.663  35.300  32.092  1.00  0.00     0.123 A 
ATOM     79  C   UNL A   1      34.953  34.885  32.362  1.00  0.00     0.064 A 
ATOM     80  N   UNL A   1      32.860  34.416  32.754  1.00  0.00    -0.272 N 
ATOM     81  C   UNL A   1      34.804  33.641  33.005  1.00  0.00     0.096 A 
ATOM     82  N   UNL A   1      33.520  33.339  33.224  1.00  0.00    -0.175 NA
ATOM     83  H   UNL A   1      31.892  34.551  32.874  1.00  0.00     0.190 HD
BRANCH  81  84
ATOM     84  C   UNL A   1      35.908  32.743  33.293  1.00  0.00     0.040 A 
ATOM     85  C   UNL A   1      36.265  31.588  32.556  1.00  0.00     0.052 A 
ATOM     86  C   UNL A   1      36.782  32.816  34.352  1.00  0.00     0.205 A 
ATOM     87  C   UNL A   1      37.332  31.030  33.223  1.00  0.00     0.195 A 
ATOM     88  O   UNL A   1      37.646  31.766  34.322  1.00  0.00    -0.472 OA
ENDBRANCH  81  84
ENDBRANCH  75  78
ENDBRANCH  73  74
ENDBRANCH  72  73
ENDBRANCH   1  72
TORSDOF 12
ENDMDL
