MODEL 1
REMARK VINA RESULT:     -12.8      0.000      0.000
REMARK SMILES CC[C@](C)(NC(=O)[C@H]1CNc2ccccc2O1)C(=O)NCCCCNC(=O)c1ccc(-c2c3nc(c(-c4c(F)c(F)c(F)c(F)c4F)c4ccc([nH]4)c(-c4c(F)c(F)c(F)c(F)c4F)c4nc(c(-c5c(F)c(F)c(F)c(F)c5F)c5ccc2[nH]5)C=C4)C=C3)cc1
REMARK SMILES IDX 22 1 21 2 20 3 18 4 19 5 3 7 4 8 2 9 1 10 5 11 6 12 7 14
REMARK SMILES IDX 8 15 9 16 17 17 10 18 16 19 11 20 15 22 12 23 14 24 13 25
REMARK SMILES IDX 23 26 24 27 25 28 26 29 27 31 28 32 29 33 90 34 30 35 89 36
REMARK SMILES IDX 31 37 32 38 33 39 83 40 34 41 88 42 82 43 84 44 35 45 87 46
REMARK SMILES IDX 81 47 80 48 36 50 68 51 48 52 67 53 49 54 52 55 66 56 85 57
REMARK SMILES IDX 50 58 51 59 65 61 86 62 53 63 37 64 38 65 46 66 39 67 40 68
REMARK SMILES IDX 44 69 47 70 41 71 42 72 45 73 43 74 69 75 70 76 78 77 71 78
REMARK SMILES IDX 72 79 76 80 79 81 73 82 74 83 77 84 75 85 54 86 55 87 63 88
REMARK SMILES IDX 56 89 57 90 61 91 64 92 58 93 59 94 62 95 60 96
REMARK H PARENT 20 6 5 13 10 21 25 30 84 49 52 60
REMARK Flexibility Score: inf
ROOT
ATOM      1  C   UNL A   1      36.516  20.227  25.033  1.00  0.00     0.023 C 
ENDROOT
BRANCH   1   2
ATOM      2  C   UNL A   1      36.234  21.686  25.412  1.00  0.00     0.116 C 
BRANCH   2   3
ATOM      3  N   UNL A   1      35.416  21.907  26.597  1.00  0.00    -0.354 N 
ATOM      4  C   UNL A   1      34.066  21.895  26.823  1.00  0.00     0.245 C 
ATOM      5  O   UNL A   1      33.725  21.907  28.011  1.00  0.00    -0.272 OA
ATOM      6  H   UNL A   1      35.945  22.108  27.402  1.00  0.00     0.163 HD
BRANCH   4   7
ATOM      7  C   UNL A   1      32.996  21.851  25.682  1.00  0.00     0.116 C 
ATOM      8  C   UNL A   1      32.983  20.456  25.018  1.00  0.00     0.045 C 
BRANCH   7   9
ATOM      9  C   UNL A   1      33.396  22.953  24.635  1.00  0.00     0.035 C 
ATOM     10  C   UNL A   1      33.164  22.665  23.155  1.00  0.00     0.007 C 
ENDBRANCH   7   9
BRANCH   7  11
ATOM     11  N   UNL A   1      31.626  22.118  26.210  1.00  0.00    -0.339 N 
ATOM     12  C   UNL A   1      31.044  23.287  26.660  1.00  0.00     0.263 C 
ATOM     13  H   UNL A   1      31.037  21.330  26.243  1.00  0.00     0.164 HD
ATOM     14  O   UNL A   1      30.066  23.161  27.400  1.00  0.00    -0.271 OA
BRANCH  12  15
ATOM     15  C   UNL A   1      31.513  24.673  26.156  1.00  0.00     0.281 C 
ATOM     16  C   UNL A   1      30.562  25.012  25.018  1.00  0.00     0.168 C 
ATOM     17  O   UNL A   1      31.462  25.738  27.122  1.00  0.00    -0.477 OA
ATOM     18  N   UNL A   1      31.052  26.161  24.292  1.00  0.00    -0.378 N 
ATOM     19  C   UNL A   1      31.548  26.993  26.535  1.00  0.00     0.143 A 
ATOM     20  C   UNL A   1      31.369  27.214  25.150  1.00  0.00     0.077 A 
ATOM     21  H   UNL A   1      31.149  26.197  23.314  1.00  0.00     0.160 HD
ATOM     22  C   UNL A   1      31.767  28.074  27.385  1.00  0.00     0.049 A 
ATOM     23  C   UNL A   1      31.529  28.499  24.629  1.00  0.00     0.029 A 
ATOM     24  C   UNL A   1      31.867  29.365  26.856  1.00  0.00     0.004 A 
ATOM     25  C   UNL A   1      31.766  29.575  25.481  1.00  0.00     0.002 A 
ENDBRANCH  12  15
ENDBRANCH   7  11
ENDBRANCH   4   7
ENDBRANCH   2   3
ENDBRANCH   1   2
BRANCH   1  26
ATOM     26  C   UNL A   1      37.960  19.810  24.737  1.00  0.00     0.023 C 
BRANCH  26  27
ATOM     27  C   UNL A   1      39.016  20.216  25.747  1.00  0.00     0.116 C 
BRANCH  27  28
ATOM     28  N   UNL A   1      40.018  19.188  25.918  1.00  0.00    -0.352 N 
ATOM     29  C   UNL A   1      41.378  19.330  26.058  1.00  0.00     0.251 C 
ATOM     30  H   UNL A   1      39.682  18.262  25.934  1.00  0.00     0.163 HD
ATOM     31  O   UNL A   1      42.107  18.351  25.944  1.00  0.00    -0.269 OA
BRANCH  29  32
ATOM     32  C   UNL A   1      41.974  20.659  26.345  1.00  0.00     0.039 A 
ATOM     33  C   UNL A   1      42.184  21.029  27.677  1.00  0.00     0.014 A 
ATOM     34  C   UNL A   1      42.265  21.565  25.319  1.00  0.00     0.014 A 
ATOM     35  C   UNL A   1      42.695  22.295  27.980  1.00  0.00     0.010 A 
ATOM     36  C   UNL A   1      42.840  22.800  25.618  1.00  0.00     0.010 A 
ATOM     37  C   UNL A   1      43.032  23.190  26.952  1.00  0.00    -0.014 A 
BRANCH  37  38
ATOM     38  C   UNL A   1      43.512  24.563  27.255  1.00  0.00     0.031 A 
ATOM     39  C   UNL A   1      42.558  25.578  27.827  1.00  0.00     0.074 A 
ATOM     40  C   UNL A   1      44.783  24.914  26.984  1.00  0.00     0.049 A 
ATOM     41  N   UNL A   1      42.757  26.842  28.105  1.00  0.00    -0.248 NA
ATOM     42  C   UNL A   1      41.187  25.116  28.098  1.00  0.00     0.031 C 
ATOM     43  C   UNL A   1      45.796  24.037  26.398  1.00  0.00     0.029 A 
ATOM     44  N   UNL A   1      45.437  26.108  27.158  1.00  0.00    -0.354 N 
ATOM     45  C   UNL A   1      41.537  27.327  28.558  1.00  0.00     0.074 A 
ATOM     46  C   UNL A   1      40.590  26.236  28.475  1.00  0.00     0.031 C 
ATOM     47  C   UNL A   1      46.948  24.717  26.278  1.00  0.00     0.029 A 
ATOM     48  C   UNL A   1      46.748  26.083  26.753  1.00  0.00     0.049 A 
ATOM     49  H   UNL A   1      45.006  26.908  27.538  1.00  0.00     0.167 HD
ATOM     50  C   UNL A   1      41.235  28.564  29.021  1.00  0.00     0.037 A 
ATOM     51  C   UNL A   1      47.681  27.055  26.761  1.00  0.00     0.037 A 
ATOM     52  C   UNL A   1      42.187  29.636  29.148  1.00  0.00     0.049 A 
ATOM     53  C   UNL A   1      47.326  28.416  27.295  1.00  0.00     0.074 A 
ATOM     54  C   UNL A   1      41.997  30.901  29.674  1.00  0.00     0.029 A 
ATOM     55  N   UNL A   1      43.512  29.563  28.746  1.00  0.00    -0.354 N 
ATOM     56  N   UNL A   1      46.185  28.845  27.777  1.00  0.00    -0.248 NA
ATOM     57  C   UNL A   1      48.392  29.428  27.292  1.00  0.00     0.031 C 
ATOM     58  C   UNL A   1      43.199  31.609  29.558  1.00  0.00     0.029 A 
ATOM     59  C   UNL A   1      44.147  30.769  28.996  1.00  0.00     0.049 A 
ATOM     60  H   UNL A   1      43.938  28.773  28.343  1.00  0.00     0.167 HD
ATOM     61  C   UNL A   1      46.401  30.161  28.159  1.00  0.00     0.074 A 
ATOM     62  C   UNL A   1      47.787  30.460  27.864  1.00  0.00     0.031 C 
ATOM     63  C   UNL A   1      45.530  31.045  28.706  1.00  0.00     0.037 A 
BRANCH  50  64
ATOM     64  C   UNL A   1      39.816  28.825  29.434  1.00  0.00     0.064 A 
ATOM     65  C   UNL A   1      38.865  29.319  28.529  1.00  0.00     0.173 A 
ATOM     66  C   UNL A   1      39.393  28.543  30.742  1.00  0.00     0.173 A 
ATOM     67  F   UNL A   1      39.222  29.616  27.270  1.00  0.00    -0.203 F 
ATOM     68  C   UNL A   1      37.551  29.548  28.925  1.00  0.00     0.198 A 
ATOM     69  C   UNL A   1      38.071  28.746  31.128  1.00  0.00     0.198 A 
ATOM     70  F   UNL A   1      40.262  28.064  31.645  1.00  0.00    -0.203 F 
ATOM     71  F   UNL A   1      36.670  30.065  28.057  1.00  0.00    -0.200 F 
ATOM     72  C   UNL A   1      37.153  29.255  30.222  1.00  0.00     0.200 A 
ATOM     73  F   UNL A   1      37.686  28.453  32.378  1.00  0.00    -0.200 F 
ATOM     74  F   UNL A   1      35.886  29.472  30.601  1.00  0.00    -0.200 F 
ENDBRANCH  50  64
BRANCH  51  75
ATOM     75  C   UNL A   1      49.055  26.766  26.276  1.00  0.00     0.064 A 
ATOM     76  C   UNL A   1      49.409  27.007  24.940  1.00  0.00     0.173 A 
ATOM     77  C   UNL A   1      50.037  26.241  27.128  1.00  0.00     0.173 A 
ATOM     78  F   UNL A   1      48.496  27.486  24.083  1.00  0.00    -0.203 F 
ATOM     79  C   UNL A   1      50.689  26.717  24.473  1.00  0.00     0.198 A 
ATOM     80  C   UNL A   1      51.323  25.976  26.665  1.00  0.00     0.198 A 
ATOM     81  F   UNL A   1      49.747  25.995  28.415  1.00  0.00    -0.203 F 
ATOM     82  F   UNL A   1      50.988  26.917  23.181  1.00  0.00    -0.200 F 
ATOM     83  C   UNL A   1      51.646  26.207  25.336  1.00  0.00     0.200 A 
ATOM     84  F   UNL A   1      52.248  25.491  27.504  1.00  0.00    -0.200 F 
ATOM     85  F   UNL A   1      52.878  25.930  24.885  1.00  0.00    -0.200 F 
ENDBRANCH  51  75
BRANCH  63  86
ATOM     86  C   UNL A   1      46.056  32.406  29.052  1.00  0.00     0.064 A 
ATOM     87  C   UNL A   1      45.979  33.475  28.147  1.00  0.00     0.173 A 
ATOM     88  C   UNL A   1      46.605  32.653  30.320  1.00  0.00     0.173 A 
ATOM     89  F   UNL A   1      45.476  33.282  26.918  1.00  0.00    -0.203 F 
ATOM     90  C   UNL A   1      46.450  34.738  28.492  1.00  0.00     0.198 A 
ATOM     91  C   UNL A   1      47.052  33.924  30.669  1.00  0.00     0.198 A 
ATOM     92  F   UNL A   1      46.695  31.665  31.222  1.00  0.00    -0.203 F 
ATOM     93  F   UNL A   1      46.404  35.735  27.598  1.00  0.00    -0.200 F 
ATOM     94  C   UNL A   1      46.980  34.964  29.754  1.00  0.00     0.200 A 
ATOM     95  F   UNL A   1      47.552  34.144  31.893  1.00  0.00    -0.200 F 
ATOM     96  F   UNL A   1      47.428  36.182  30.086  1.00  0.00    -0.200 F 
ENDBRANCH  63  86
ENDBRANCH  37  38
ENDBRANCH  29  32
ENDBRANCH  27  28
ENDBRANCH  26  27
ENDBRANCH   1  26
TORSDOF 14
ENDMDL
MODEL 2
REMARK VINA RESULT:     -12.8      5.472     11.182
REMARK SMILES CC[C@](C)(NC(=O)[C@H]1CNc2ccccc2O1)C(=O)NCCCCNC(=O)c1ccc(-c2c3nc(c(-c4c(F)c(F)c(F)c(F)c4F)c4ccc([nH]4)c(-c4c(F)c(F)c(F)c(F)c4F)c4nc(c(-c5c(F)c(F)c(F)c(F)c5F)c5ccc2[nH]5)C=C4)C=C3)cc1
REMARK SMILES IDX 22 1 21 2 20 3 18 4 19 5 3 7 4 8 2 9 1 10 5 11 6 12 7 14
REMARK SMILES IDX 8 15 9 16 17 17 10 18 16 19 11 20 15 22 12 23 14 24 13 25
REMARK SMILES IDX 23 26 24 27 25 28 26 29 27 31 28 32 29 33 90 34 30 35 89 36
REMARK SMILES IDX 31 37 32 38 33 39 83 40 34 41 88 42 82 43 84 44 35 45 87 46
REMARK SMILES IDX 81 47 80 48 36 50 68 51 48 52 67 53 49 54 52 55 66 56 85 57
REMARK SMILES IDX 50 58 51 59 65 61 86 62 53 63 37 64 38 65 46 66 39 67 40 68
REMARK SMILES IDX 44 69 47 70 41 71 42 72 45 73 43 74 69 75 70 76 78 77 71 78
REMARK SMILES IDX 72 79 76 80 79 81 73 82 74 83 77 84 75 85 54 86 55 87 63 88
REMARK SMILES IDX 56 89 57 90 61 91 64 92 58 93 59 94 62 95 60 96
REMARK H PARENT 20 6 5 13 10 21 25 30 84 49 52 60
REMARK Flexibility Score: inf
ROOT
ATOM      1  C   UNL A   1      31.229  30.816  26.502  1.00  0.00     0.023 C 
ENDROOT
BRANCH   1   2
ATOM      2  C   UNL A   1      32.014  29.989  25.476  1.00  0.00     0.116 C 
BRANCH   2   3
ATOM      3  N   UNL A   1      31.378  29.780  24.182  1.00  0.00    -0.354 N 
ATOM      4  C   UNL A   1      31.320  28.715  23.324  1.00  0.00     0.245 C 
ATOM      5  O   UNL A   1      30.498  28.815  22.406  1.00  0.00    -0.272 OA
ATOM      6  H   UNL A   1      30.889  30.570  23.858  1.00  0.00     0.163 HD
BRANCH   4   7
ATOM      7  C   UNL A   1      32.205  27.433  23.473  1.00  0.00     0.116 C 
ATOM      8  C   UNL A   1      31.663  26.541  24.612  1.00  0.00     0.045 C 
BRANCH   7   9
ATOM      9  C   UNL A   1      33.664  27.917  23.801  1.00  0.00     0.035 C 
ATOM     10  C   UNL A   1      34.424  28.700  22.735  1.00  0.00     0.007 C 
ENDBRANCH   7   9
BRANCH   7  11
ATOM     11  N   UNL A   1      32.204  26.623  22.219  1.00  0.00    -0.339 N 
ATOM     12  C   UNL A   1      32.955  25.522  21.855  1.00  0.00     0.263 C 
ATOM     13  H   UNL A   1      31.560  26.922  21.537  1.00  0.00     0.164 HD
ATOM     14  O   UNL A   1      33.044  25.298  20.645  1.00  0.00    -0.271 OA
BRANCH  12  15
ATOM     15  C   UNL A   1      33.539  24.552  22.910  1.00  0.00     0.281 C 
ATOM     16  C   UNL A   1      32.690  23.296  22.790  1.00  0.00     0.168 C 
ATOM     17  O   UNL A   1      34.919  24.188  22.726  1.00  0.00    -0.477 OA
ATOM     18  N   UNL A   1      32.965  22.409  23.897  1.00  0.00    -0.378 N 
ATOM     19  C   UNL A   1      35.276  23.070  23.467  1.00  0.00     0.143 A 
ATOM     20  C   UNL A   1      34.333  22.202  24.063  1.00  0.00     0.077 A 
ATOM     21  H   UNL A   1      32.271  22.001  24.463  1.00  0.00     0.160 HD
ATOM     22  C   UNL A   1      36.636  22.787  23.566  1.00  0.00     0.049 A 
ATOM     23  C   UNL A   1      34.775  21.132  24.843  1.00  0.00     0.029 A 
ATOM     24  C   UNL A   1      37.064  21.677  24.302  1.00  0.00     0.004 A 
ATOM     25  C   UNL A   1      36.137  20.863  24.954  1.00  0.00     0.002 A 
ENDBRANCH  12  15
ENDBRANCH   7  11
ENDBRANCH   4   7
ENDBRANCH   2   3
ENDBRANCH   1   2
BRANCH   1  26
ATOM     26  C   UNL A   1      31.412  32.337  26.515  1.00  0.00     0.023 C 
BRANCH  26  27
ATOM     27  C   UNL A   1      32.603  32.882  27.281  1.00  0.00     0.116 C 
BRANCH  27  28
ATOM     28  N   UNL A   1      32.435  34.282  27.605  1.00  0.00    -0.352 N 
ATOM     29  C   UNL A   1      33.012  35.000  28.626  1.00  0.00     0.251 C 
ATOM     30  H   UNL A   1      31.826  34.787  27.018  1.00  0.00     0.163 HD
ATOM     31  O   UNL A   1      32.574  36.109  28.910  1.00  0.00    -0.269 OA
BRANCH  29  32
ATOM     32  C   UNL A   1      34.157  34.445  29.388  1.00  0.00     0.039 A 
ATOM     33  C   UNL A   1      35.442  34.558  28.849  1.00  0.00     0.014 A 
ATOM     34  C   UNL A   1      33.969  33.759  30.593  1.00  0.00     0.014 A 
ATOM     35  C   UNL A   1      36.536  33.999  29.520  1.00  0.00     0.010 A 
ATOM     36  C   UNL A   1      35.066  33.264  31.296  1.00  0.00     0.010 A 
ATOM     37  C   UNL A   1      36.356  33.350  30.752  1.00  0.00    -0.014 A 
BRANCH  37  38
ATOM     38  C   UNL A   1      37.493  32.691  31.446  1.00  0.00     0.031 A 
ATOM     39  C   UNL A   1      38.218  31.555  30.776  1.00  0.00     0.074 A 
ATOM     40  C   UNL A   1      37.850  33.080  32.684  1.00  0.00     0.049 A 
ATOM     41  N   UNL A   1      39.193  30.807  31.230  1.00  0.00    -0.248 NA
ATOM     42  C   UNL A   1      37.770  31.192  29.422  1.00  0.00     0.031 C 
ATOM     43  C   UNL A   1      37.208  34.143  33.456  1.00  0.00     0.029 A 
ATOM     44  N   UNL A   1      38.839  32.616  33.516  1.00  0.00    -0.354 N 
ATOM     45  C   UNL A   1      39.454  29.877  30.233  1.00  0.00     0.074 A 
ATOM     46  C   UNL A   1      38.507  30.122  29.167  1.00  0.00     0.031 C 
ATOM     47  C   UNL A   1      37.830  34.263  34.640  1.00  0.00     0.029 A 
ATOM     48  C   UNL A   1      38.896  33.268  34.722  1.00  0.00     0.049 A 
ATOM     49  H   UNL A   1      39.451  31.884  33.270  1.00  0.00     0.167 HD
ATOM     50  C   UNL A   1      40.410  28.917  30.198  1.00  0.00     0.037 A 
ATOM     51  C   UNL A   1      39.715  33.081  35.776  1.00  0.00     0.037 A 
ATOM     52  C   UNL A   1      41.382  28.703  31.236  1.00  0.00     0.049 A 
ATOM     53  C   UNL A   1      40.780  32.019  35.705  1.00  0.00     0.074 A 
ATOM     54  C   UNL A   1      42.435  27.807  31.262  1.00  0.00     0.029 A 
ATOM     55  N   UNL A   1      41.419  29.401  32.435  1.00  0.00    -0.354 N 
ATOM     56  N   UNL A   1      41.055  31.187  34.731  1.00  0.00    -0.248 NA
ATOM     57  C   UNL A   1      41.651  31.876  36.880  1.00  0.00     0.031 C 
ATOM     58  C   UNL A   1      43.090  27.936  32.492  1.00  0.00     0.029 A 
ATOM     59  C   UNL A   1      42.468  28.941  33.215  1.00  0.00     0.049 A 
ATOM     60  H   UNL A   1      40.794  30.115  32.693  1.00  0.00     0.167 HD
ATOM     61  C   UNL A   1      42.145  30.442  35.162  1.00  0.00     0.074 A 
ATOM     62  C   UNL A   1      42.489  30.929  36.482  1.00  0.00     0.031 C 
ATOM     63  C   UNL A   1      42.802  29.444  34.521  1.00  0.00     0.037 A 
BRANCH  50  64
ATOM     64  C   UNL A   1      40.457  28.028  28.990  1.00  0.00     0.064 A 
ATOM     65  C   UNL A   1      39.725  26.833  28.927  1.00  0.00     0.173 A 
ATOM     66  C   UNL A   1      41.216  28.393  27.868  1.00  0.00     0.173 A 
ATOM     67  F   UNL A   1      38.994  26.433  29.978  1.00  0.00    -0.203 F 
ATOM     68  C   UNL A   1      39.773  26.022  27.796  1.00  0.00     0.198 A 
ATOM     69  C   UNL A   1      41.240  27.595  26.727  1.00  0.00     0.198 A 
ATOM     70  F   UNL A   1      41.931  29.529  27.875  1.00  0.00    -0.203 F 
ATOM     71  F   UNL A   1      39.103  24.862  27.775  1.00  0.00    -0.200 F 
ATOM     72  C   UNL A   1      40.525  26.407  26.694  1.00  0.00     0.200 A 
ATOM     73  F   UNL A   1      41.958  27.973  25.661  1.00  0.00    -0.200 F 
ATOM     74  F   UNL A   1      40.566  25.628  25.605  1.00  0.00    -0.200 F 
ENDBRANCH  50  64
BRANCH  51  75
ATOM     75  C   UNL A   1      39.583  33.943  36.978  1.00  0.00     0.064 A 
ATOM     76  C   UNL A   1      38.826  33.523  38.081  1.00  0.00     0.173 A 
ATOM     77  C   UNL A   1      40.200  35.200  37.050  1.00  0.00     0.173 A 
ATOM     78  F   UNL A   1      38.197  32.339  38.048  1.00  0.00    -0.203 F 
ATOM     79  C   UNL A   1      38.678  34.335  39.204  1.00  0.00     0.198 A 
ATOM     80  C   UNL A   1      40.072  36.000  38.182  1.00  0.00     0.198 A 
ATOM     81  F   UNL A   1      40.937  35.645  36.021  1.00  0.00    -0.203 F 
ATOM     82  F   UNL A   1      37.914  33.927  40.226  1.00  0.00    -0.200 F 
ATOM     83  C   UNL A   1      39.305  35.570  39.255  1.00  0.00     0.200 A 
ATOM     84  F   UNL A   1      40.688  37.189  38.233  1.00  0.00    -0.200 F 
ATOM     85  F   UNL A   1      39.164  36.350  40.336  1.00  0.00    -0.200 F 
ENDBRANCH  51  75
BRANCH  63  86
ATOM     86  C   UNL A   1      43.979  28.835  35.223  1.00  0.00     0.064 A 
ATOM     87  C   UNL A   1      45.270  29.367  35.088  1.00  0.00     0.173 A 
ATOM     88  C   UNL A   1      43.805  27.733  36.074  1.00  0.00     0.173 A 
ATOM     89  F   UNL A   1      45.487  30.411  34.274  1.00  0.00    -0.203 F 
ATOM     90  C   UNL A   1      46.349  28.804  35.764  1.00  0.00     0.198 A 
ATOM     91  C   UNL A   1      44.883  27.188  36.767  1.00  0.00     0.198 A 
ATOM     92  F   UNL A   1      42.590  27.193  36.241  1.00  0.00    -0.203 F 
ATOM     93  F   UNL A   1      47.581  29.302  35.589  1.00  0.00    -0.200 F 
ATOM     94  C   UNL A   1      46.153  27.720  36.608  1.00  0.00     0.200 A 
ATOM     95  F   UNL A   1      44.690  26.150  37.593  1.00  0.00    -0.200 F 
ATOM     96  F   UNL A   1      47.192  27.184  37.263  1.00  0.00    -0.200 F 
ENDBRANCH  63  86
ENDBRANCH  37  38
ENDBRANCH  29  32
ENDBRANCH  27  28
ENDBRANCH  26  27
ENDBRANCH   1  26
TORSDOF 14
ENDMDL
MODEL 3
REMARK VINA RESULT:     -12.7      5.455     11.182
REMARK SMILES CC[C@](C)(NC(=O)[C@H]1CNc2ccccc2O1)C(=O)NCCCCNC(=O)c1ccc(-c2c3nc(c(-c4c(F)c(F)c(F)c(F)c4F)c4ccc([nH]4)c(-c4c(F)c(F)c(F)c(F)c4F)c4nc(c(-c5c(F)c(F)c(F)c(F)c5F)c5ccc2[nH]5)C=C4)C=C3)cc1
REMARK SMILES IDX 22 1 21 2 20 3 18 4 19 5 3 7 4 8 2 9 1 10 5 11 6 12 7 14
REMARK SMILES IDX 8 15 9 16 17 17 10 18 16 19 11 20 15 22 12 23 14 24 13 25
REMARK SMILES IDX 23 26 24 27 25 28 26 29 27 31 28 32 29 33 90 34 30 35 89 36
REMARK SMILES IDX 31 37 32 38 33 39 83 40 34 41 88 42 82 43 84 44 35 45 87 46
REMARK SMILES IDX 81 47 80 48 36 50 68 51 48 52 67 53 49 54 52 55 66 56 85 57
REMARK SMILES IDX 50 58 51 59 65 61 86 62 53 63 37 64 38 65 46 66 39 67 40 68
REMARK SMILES IDX 44 69 47 70 41 71 42 72 45 73 43 74 69 75 70 76 78 77 71 78
REMARK SMILES IDX 72 79 76 80 79 81 73 82 74 83 77 84 75 85 54 86 55 87 63 88
REMARK SMILES IDX 56 89 57 90 61 91 64 92 58 93 59 94 62 95 60 96
REMARK H PARENT 20 6 5 13 10 21 25 30 84 49 52 60
REMARK Flexibility Score: inf
ROOT
ATOM      1  C   UNL A   1      31.375  30.698  26.543  1.00  0.00     0.023 C 
ENDROOT
BRANCH   1   2
ATOM      2  C   UNL A   1      32.156  29.991  25.428  1.00  0.00     0.116 C 
BRANCH   2   3
ATOM      3  N   UNL A   1      31.436  29.730  24.190  1.00  0.00    -0.354 N 
ATOM      4  C   UNL A   1      31.311  28.627  23.388  1.00  0.00     0.245 C 
ATOM      5  O   UNL A   1      30.433  28.695  22.521  1.00  0.00    -0.272 OA
ATOM      6  H   UNL A   1      30.934  30.510  23.860  1.00  0.00     0.163 HD
BRANCH   4   7
ATOM      7  C   UNL A   1      32.192  27.342  23.540  1.00  0.00     0.116 C 
ATOM      8  C   UNL A   1      31.683  26.484  24.719  1.00  0.00     0.045 C 
BRANCH   7   9
ATOM      9  C   UNL A   1      33.664  27.822  23.805  1.00  0.00     0.035 C 
ATOM     10  C   UNL A   1      34.383  28.597  22.705  1.00  0.00     0.007 C 
ENDBRANCH   7   9
BRANCH   7  11
ATOM     11  N   UNL A   1      32.141  26.500  22.308  1.00  0.00    -0.339 N 
ATOM     12  C   UNL A   1      32.886  25.397  21.938  1.00  0.00     0.263 C 
ATOM     13  H   UNL A   1      31.465  26.776  21.649  1.00  0.00     0.164 HD
ATOM     14  O   UNL A   1      32.922  25.142  20.732  1.00  0.00    -0.271 OA
BRANCH  12  15
ATOM     15  C   UNL A   1      33.526  24.459  22.990  1.00  0.00     0.281 C 
ATOM     16  C   UNL A   1      32.683  23.193  22.942  1.00  0.00     0.168 C 
ATOM     17  O   UNL A   1      34.898  24.100  22.752  1.00  0.00    -0.477 OA
ATOM     18  N   UNL A   1      33.015  22.338  24.058  1.00  0.00    -0.378 N 
ATOM     19  C   UNL A   1      35.299  23.004  23.505  1.00  0.00     0.143 A 
ATOM     20  C   UNL A   1      34.392  22.145  24.166  1.00  0.00     0.077 A 
ATOM     21  H   UNL A   1      32.352  21.939  24.666  1.00  0.00     0.160 HD
ATOM     22  C   UNL A   1      36.664  22.734  23.548  1.00  0.00     0.049 A 
ATOM     23  C   UNL A   1      34.878  21.099  24.952  1.00  0.00     0.029 A 
ATOM     24  C   UNL A   1      37.135  21.647  24.293  1.00  0.00     0.004 A 
ATOM     25  C   UNL A   1      36.246  20.843  25.007  1.00  0.00     0.002 A 
ENDBRANCH  12  15
ENDBRANCH   7  11
ENDBRANCH   4   7
ENDBRANCH   2   3
ENDBRANCH   1   2
BRANCH   1  26
ATOM     26  C   UNL A   1      31.427  32.227  26.621  1.00  0.00     0.023 C 
BRANCH  26  27
ATOM     27  C   UNL A   1      32.675  32.845  27.220  1.00  0.00     0.116 C 
BRANCH  27  28
ATOM     28  N   UNL A   1      32.466  34.230  27.582  1.00  0.00    -0.352 N 
ATOM     29  C   UNL A   1      33.008  34.933  28.631  1.00  0.00     0.251 C 
ATOM     30  H   UNL A   1      31.853  34.736  27.000  1.00  0.00     0.163 HD
ATOM     31  O   UNL A   1      32.537  36.022  28.941  1.00  0.00    -0.269 OA
BRANCH  29  32
ATOM     32  C   UNL A   1      34.156  34.386  29.396  1.00  0.00     0.039 A 
ATOM     33  C   UNL A   1      35.445  34.541  28.878  1.00  0.00     0.014 A 
ATOM     34  C   UNL A   1      33.968  33.666  30.582  1.00  0.00     0.014 A 
ATOM     35  C   UNL A   1      36.542  33.991  29.549  1.00  0.00     0.010 A 
ATOM     36  C   UNL A   1      35.067  33.179  31.287  1.00  0.00     0.010 A 
ATOM     37  C   UNL A   1      36.361  33.308  30.763  1.00  0.00    -0.014 A 
BRANCH  37  38
ATOM     38  C   UNL A   1      37.504  32.658  31.456  1.00  0.00     0.031 A 
ATOM     39  C   UNL A   1      38.235  31.524  30.788  1.00  0.00     0.074 A 
ATOM     40  C   UNL A   1      37.862  33.052  32.693  1.00  0.00     0.049 A 
ATOM     41  N   UNL A   1      39.215  30.783  31.243  1.00  0.00    -0.248 NA
ATOM     42  C   UNL A   1      37.786  31.154  29.436  1.00  0.00     0.031 C 
ATOM     43  C   UNL A   1      37.214  34.114  33.463  1.00  0.00     0.029 A 
ATOM     44  N   UNL A   1      38.855  32.597  33.523  1.00  0.00    -0.354 N 
ATOM     45  C   UNL A   1      39.480  29.852  30.248  1.00  0.00     0.074 A 
ATOM     46  C   UNL A   1      38.529  30.088  29.182  1.00  0.00     0.031 C 
ATOM     47  C   UNL A   1      37.839  34.241  34.645  1.00  0.00     0.029 A 
ATOM     48  C   UNL A   1      38.911  33.253  34.727  1.00  0.00     0.049 A 
ATOM     49  H   UNL A   1      39.471  31.868  33.278  1.00  0.00     0.167 HD
ATOM     50  C   UNL A   1      40.441  28.899  30.213  1.00  0.00     0.037 A 
ATOM     51  C   UNL A   1      39.733  33.075  35.780  1.00  0.00     0.037 A 
ATOM     52  C   UNL A   1      41.417  28.693  31.250  1.00  0.00     0.049 A 
ATOM     53  C   UNL A   1      40.804  32.019  35.710  1.00  0.00     0.074 A 
ATOM     54  C   UNL A   1      42.476  27.804  31.275  1.00  0.00     0.029 A 
ATOM     55  N   UNL A   1      41.453  29.395  32.446  1.00  0.00    -0.354 N 
ATOM     56  N   UNL A   1      41.083  31.185  34.738  1.00  0.00    -0.248 NA
ATOM     57  C   UNL A   1      41.679  31.884  36.884  1.00  0.00     0.031 C 
ATOM     58  C   UNL A   1      43.133  27.940  32.504  1.00  0.00     0.029 A 
ATOM     59  C   UNL A   1      42.506  28.944  33.225  1.00  0.00     0.049 A 
ATOM     60  H   UNL A   1      40.823  30.106  32.704  1.00  0.00     0.167 HD
ATOM     61  C   UNL A   1      42.178  30.449  35.168  1.00  0.00     0.074 A 
ATOM     62  C   UNL A   1      42.522  30.942  36.486  1.00  0.00     0.031 C 
ATOM     63  C   UNL A   1      42.840  29.453  34.530  1.00  0.00     0.037 A 
BRANCH  50  64
ATOM     64  C   UNL A   1      40.491  28.006  29.007  1.00  0.00     0.064 A 
ATOM     65  C   UNL A   1      39.758  26.812  28.945  1.00  0.00     0.173 A 
ATOM     66  C   UNL A   1      41.255  28.367  27.887  1.00  0.00     0.173 A 
ATOM     67  F   UNL A   1      39.023  26.416  29.995  1.00  0.00    -0.203 F 
ATOM     68  C   UNL A   1      39.809  25.998  27.816  1.00  0.00     0.198 A 
ATOM     69  C   UNL A   1      41.281  27.566  26.749  1.00  0.00     0.198 A 
ATOM     70  F   UNL A   1      41.971  29.501  27.894  1.00  0.00    -0.203 F 
ATOM     71  F   UNL A   1      39.137  24.838  27.797  1.00  0.00    -0.200 F 
ATOM     72  C   UNL A   1      40.565  26.379  26.717  1.00  0.00     0.200 A 
ATOM     73  F   UNL A   1      42.004  27.940  25.684  1.00  0.00    -0.200 F 
ATOM     74  F   UNL A   1      40.609  25.597  25.629  1.00  0.00    -0.200 F 
ENDBRANCH  50  64
BRANCH  51  75
ATOM     75  C   UNL A   1      39.598  33.939  36.980  1.00  0.00     0.064 A 
ATOM     76  C   UNL A   1      38.847  33.517  38.087  1.00  0.00     0.173 A 
ATOM     77  C   UNL A   1      40.207  35.200  37.046  1.00  0.00     0.173 A 
ATOM     78  F   UNL A   1      38.226  32.329  38.059  1.00  0.00    -0.203 F 
ATOM     79  C   UNL A   1      38.697  34.332  39.207  1.00  0.00     0.198 A 
ATOM     80  C   UNL A   1      40.077  36.003  38.177  1.00  0.00     0.198 A 
ATOM     81  F   UNL A   1      40.938  35.648  36.014  1.00  0.00    -0.203 F 
ATOM     82  F   UNL A   1      37.938  33.922  40.233  1.00  0.00    -0.200 F 
ATOM     83  C   UNL A   1      39.316  35.571  39.253  1.00  0.00     0.200 A 
ATOM     84  F   UNL A   1      40.685  37.196  38.222  1.00  0.00    -0.200 F 
ATOM     85  F   UNL A   1      39.172  36.354  40.332  1.00  0.00    -0.200 F 
ENDBRANCH  51  75
BRANCH  63  86
ATOM     86  C   UNL A   1      44.023  28.853  35.230  1.00  0.00     0.064 A 
ATOM     87  C   UNL A   1      43.881  27.778  36.119  1.00  0.00     0.173 A 
ATOM     88  C   UNL A   1      45.317  29.332  34.974  1.00  0.00     0.173 A 
ATOM     89  F   UNL A   1      42.662  27.296  36.406  1.00  0.00    -0.203 F 
ATOM     90  C   UNL A   1      44.991  27.217  36.743  1.00  0.00     0.198 A 
ATOM     91  C   UNL A   1      46.427  28.751  35.582  1.00  0.00     0.198 A 
ATOM     92  F   UNL A   1      45.504  30.354  34.127  1.00  0.00    -0.203 F 
ATOM     93  F   UNL A   1      44.830  26.216  37.621  1.00  0.00    -0.200 F 
ATOM     94  C   UNL A   1      46.263  27.699  36.469  1.00  0.00     0.200 A 
ATOM     95  F   UNL A   1      47.656  29.210  35.306  1.00  0.00    -0.200 F 
ATOM     96  F   UNL A   1      47.331  27.152  37.067  1.00  0.00    -0.200 F 
ENDBRANCH  63  86
ENDBRANCH  37  38
ENDBRANCH  29  32
ENDBRANCH  27  28
ENDBRANCH  26  27
ENDBRANCH   1  26
TORSDOF 14
ENDMDL
