MODEL 1
REMARK VINA RESULT:     -11.9      0.000      0.000
REMARK SMILES C[NH2+][C@]1(C(=O)NCCCCNC(=O)c2ccc(-c3c4nc(c(-c5c(F)c(F)c(F)c(F)c5F)c5ccc([nH]5)c(-c5c(F)c(F)c(F)c(F)c5F)c5nc(c(-c6c(F)c(F)c(F)c(F)c6F)c6ccc3[nH]6)C=C5)C=C4)cc2)CCC[C@@H](Sc2nccn2C)C1
REMARK SMILES IDX 8 1 7 2 6 3 4 4 5 5 3 7 77 8 88 9 78 10 80 11 79 12 2 13
REMARK SMILES IDX 1 14 81 17 82 18 83 19 86 20 84 21 85 22 87 23 9 24 10 25
REMARK SMILES IDX 11 26 12 27 13 29 14 30 15 31 76 32 16 33 75 34 17 35 18 36
REMARK SMILES IDX 19 37 69 38 20 39 74 40 68 41 70 42 21 43 73 44 67 45 66 46
REMARK SMILES IDX 22 48 54 49 34 50 53 51 35 52 38 53 52 54 71 55 36 56 37 57
REMARK SMILES IDX 51 59 72 60 39 61 23 62 24 63 32 64 25 65 26 66 30 67 33 68
REMARK SMILES IDX 27 69 28 70 31 71 29 72 55 73 56 74 64 75 57 76 58 77 62 78
REMARK SMILES IDX 65 79 59 80 60 81 63 82 61 83 40 84 41 85 49 86 42 87 43 88
REMARK SMILES IDX 47 89 50 90 44 91 45 92 48 93 46 94
REMARK H PARENT 6 6 2 15 2 16 11 28 70 47 38 58
REMARK Flexibility Score: inf
ROOT
ATOM      1  C   UNL A   1      31.800  30.553  26.367  1.00  0.00     0.023 C 
ENDROOT
BRANCH   1   2
ATOM      2  C   UNL A   1      31.170  30.024  25.078  1.00  0.00     0.116 C 
BRANCH   2   3
ATOM      3  N   UNL A   1      32.188  29.692  24.094  1.00  0.00    -0.351 N 
ATOM      4  C   UNL A   1      32.735  28.499  23.727  1.00  0.00     0.281 C 
ATOM      5  O   UNL A   1      33.687  28.557  22.935  1.00  0.00    -0.268 OA
ATOM      6  H   UNL A   1      32.546  30.469  23.607  1.00  0.00     0.163 HD
BRANCH   4   7
ATOM      7  C   UNL A   1      32.222  27.105  24.267  1.00  0.00     0.176 C 
ATOM      8  C   UNL A   1      30.703  26.993  23.974  1.00  0.00     0.079 C 
ATOM      9  C   UNL A   1      33.082  25.989  23.616  1.00  0.00     0.094 C 
ATOM     10  C   UNL A   1      30.126  25.581  23.953  1.00  0.00     0.008 C 
ATOM     11  C   UNL A   1      32.424  24.609  23.631  1.00  0.00     0.061 C 
ATOM     12  C   UNL A   1      30.981  24.632  23.126  1.00  0.00     0.015 C 
BRANCH   7  13
ATOM     13  N   UNL A   1      32.587  27.076  25.719  1.00  0.00    -0.336 N 
ATOM     14  C   UNL A   1      33.932  27.418  26.126  1.00  0.00     0.331 C 
ATOM     15  H   UNL A   1      31.960  27.725  26.195  1.00  0.00     0.346 HD
ATOM     16  H   UNL A   1      32.507  26.089  25.965  1.00  0.00     0.346 HD
ENDBRANCH   7  13
BRANCH  11  17
ATOM     17  S   UNL A   1      33.426  23.360  22.735  1.00  0.00    -0.084 SA
BRANCH  17  18
ATOM     18  C   UNL A   1      34.120  22.419  24.014  1.00  0.00     0.167 A 
ATOM     19  N   UNL A   1      35.162  22.773  24.735  1.00  0.00    -0.231 NA
ATOM     20  N   UNL A   1      33.622  21.208  24.414  1.00  0.00    -0.329 N 
ATOM     21  C   UNL A   1      35.319  21.776  25.662  1.00  0.00     0.132 A 
ATOM     22  C   UNL A   1      34.384  20.787  25.475  1.00  0.00     0.108 A 
ATOM     23  C   UNL A   1      32.528  20.447  23.863  1.00  0.00     0.152 C 
ENDBRANCH  17  18
ENDBRANCH  11  17
ENDBRANCH   4   7
ENDBRANCH   2   3
ENDBRANCH   1   2
BRANCH   1  24
ATOM     24  C   UNL A   1      31.555  32.037  26.632  1.00  0.00     0.023 C 
BRANCH  24  25
ATOM     25  C   UNL A   1      32.703  32.762  27.321  1.00  0.00     0.116 C 
BRANCH  25  26
ATOM     26  N   UNL A   1      32.400  34.153  27.625  1.00  0.00    -0.352 N 
ATOM     27  C   UNL A   1      32.981  34.977  28.560  1.00  0.00     0.251 C 
ATOM     28  H   UNL A   1      31.682  34.557  27.088  1.00  0.00     0.163 HD
ATOM     29  O   UNL A   1      32.528  36.091  28.774  1.00  0.00    -0.269 OA
BRANCH  27  30
ATOM     30  C   UNL A   1      34.141  34.484  29.330  1.00  0.00     0.039 A 
ATOM     31  C   UNL A   1      33.924  33.902  30.580  1.00  0.00     0.014 A 
ATOM     32  C   UNL A   1      35.432  34.563  28.800  1.00  0.00     0.014 A 
ATOM     33  C   UNL A   1      34.995  33.333  31.271  1.00  0.00     0.010 A 
ATOM     34  C   UNL A   1      36.484  33.928  29.451  1.00  0.00     0.010 A 
ATOM     35  C   UNL A   1      36.275  33.308  30.693  1.00  0.00    -0.014 A 
BRANCH  35  36
ATOM     36  C   UNL A   1      37.413  32.637  31.369  1.00  0.00     0.031 A 
ATOM     37  C   UNL A   1      38.114  31.489  30.702  1.00  0.00     0.074 A 
ATOM     38  C   UNL A   1      37.770  33.019  32.611  1.00  0.00     0.049 A 
ATOM     39  N   UNL A   1      39.076  30.727  31.157  1.00  0.00    -0.248 NA
ATOM     40  C   UNL A   1      37.652  31.129  29.351  1.00  0.00     0.031 C 
ATOM     41  C   UNL A   1      37.136  34.089  33.383  1.00  0.00     0.029 A 
ATOM     42  N   UNL A   1      38.749  32.543  33.447  1.00  0.00    -0.354 N 
ATOM     43  C   UNL A   1      39.322  29.794  30.159  1.00  0.00     0.074 A 
ATOM     44  C   UNL A   1      38.373  30.048  29.097  1.00  0.00     0.031 C 
ATOM     45  C   UNL A   1      37.757  34.204  34.568  1.00  0.00     0.029 A 
ATOM     46  C   UNL A   1      38.806  33.193  34.655  1.00  0.00     0.049 A 
ATOM     47  H   UNL A   1      39.352  31.804  33.203  1.00  0.00     0.167 HD
ATOM     48  C   UNL A   1      40.272  28.829  30.120  1.00  0.00     0.037 A 
ATOM     49  C   UNL A   1      39.612  32.993  35.715  1.00  0.00     0.037 A 
ATOM     50  C   UNL A   1      41.230  28.596  31.167  1.00  0.00     0.049 A 
ATOM     51  C   UNL A   1      40.654  31.908  35.648  1.00  0.00     0.074 A 
ATOM     52  C   UNL A   1      42.266  27.680  31.200  1.00  0.00     0.029 A 
ATOM     53  N   UNL A   1      41.268  29.287  32.370  1.00  0.00    -0.354 N 
ATOM     54  N   UNL A   1      40.921  31.075  34.673  1.00  0.00    -0.248 NA
ATOM     55  C   UNL A   1      41.511  31.741  36.832  1.00  0.00     0.031 C 
ATOM     56  C   UNL A   1      42.905  27.787  32.440  1.00  0.00     0.029 A 
ATOM     57  C   UNL A   1      42.299  28.804  33.159  1.00  0.00     0.049 A 
ATOM     58  H   UNL A   1      40.653  30.012  32.624  1.00  0.00     0.167 HD
ATOM     59  C   UNL A   1      41.992  30.307  35.109  1.00  0.00     0.074 A 
ATOM     60  C   UNL A   1      42.335  30.783  36.433  1.00  0.00     0.031 C 
ATOM     61  C   UNL A   1      42.634  29.299  34.470  1.00  0.00     0.037 A 
BRANCH  48  62
ATOM     62  C   UNL A   1      40.325  27.959  28.899  1.00  0.00     0.064 A 
ATOM     63  C   UNL A   1      39.617  26.749  28.827  1.00  0.00     0.173 A 
ATOM     64  C   UNL A   1      41.066  28.351  27.773  1.00  0.00     0.173 A 
ATOM     65  F   UNL A   1      38.905  26.321  29.881  1.00  0.00    -0.203 F 
ATOM     66  C   UNL A   1      39.671  25.952  27.687  1.00  0.00     0.198 A 
ATOM     67  C   UNL A   1      41.092  27.567  26.624  1.00  0.00     0.198 A 
ATOM     68  F   UNL A   1      41.757  29.501  27.785  1.00  0.00    -0.203 F 
ATOM     69  F   UNL A   1      39.027  24.776  27.662  1.00  0.00    -0.200 F 
ATOM     70  C   UNL A   1      40.403  26.365  26.584  1.00  0.00     0.200 A 
ATOM     71  F   UNL A   1      41.788  27.973  25.552  1.00  0.00    -0.200 F 
ATOM     72  F   UNL A   1      40.448  25.600  25.484  1.00  0.00    -0.200 F 
ENDBRANCH  48  62
BRANCH  49  73
ATOM     73  C   UNL A   1      39.489  33.856  36.918  1.00  0.00     0.064 A 
ATOM     74  C   UNL A   1      38.726  33.445  38.020  1.00  0.00     0.173 A 
ATOM     75  C   UNL A   1      40.121  35.106  36.991  1.00  0.00     0.173 A 
ATOM     76  F   UNL A   1      38.087  32.267  37.989  1.00  0.00    -0.203 F 
ATOM     77  C   UNL A   1      38.582  34.260  39.140  1.00  0.00     0.198 A 
ATOM     78  C   UNL A   1      39.999  35.909  38.124  1.00  0.00     0.198 A 
ATOM     79  F   UNL A   1      40.866  35.543  35.965  1.00  0.00    -0.203 F 
ATOM     80  F   UNL A   1      37.809  33.863  40.160  1.00  0.00    -0.200 F 
ATOM     81  C   UNL A   1      39.222  35.489  39.194  1.00  0.00     0.200 A 
ATOM     82  F   UNL A   1      40.630  37.089  38.177  1.00  0.00    -0.200 F 
ATOM     83  F   UNL A   1      39.086  36.272  40.273  1.00  0.00    -0.200 F 
ENDBRANCH  49  73
BRANCH  61  84
ATOM     84  C   UNL A   1      43.798  28.667  35.176  1.00  0.00     0.064 A 
ATOM     85  C   UNL A   1      43.642  27.531  35.984  1.00  0.00     0.173 A 
ATOM     86  C   UNL A   1      45.092  29.184  35.010  1.00  0.00     0.173 A 
ATOM     87  F   UNL A   1      42.423  27.009  36.187  1.00  0.00    -0.203 F 
ATOM     88  C   UNL A   1      44.737  26.950  36.617  1.00  0.00     0.198 A 
ATOM     89  C   UNL A   1      46.188  28.581  35.620  1.00  0.00     0.198 A 
ATOM     90  F   UNL A   1      45.295  30.265  34.243  1.00  0.00    -0.203 F 
ATOM     91  F   UNL A   1      44.559  25.891  37.422  1.00  0.00    -0.200 F 
ATOM     92  C   UNL A   1      46.009  27.469  36.428  1.00  0.00     0.200 A 
ATOM     93  F   UNL A   1      47.418  29.077  35.426  1.00  0.00    -0.200 F 
ATOM     94  F   UNL A   1      47.062  26.903  37.033  1.00  0.00    -0.200 F 
ENDBRANCH  61  84
ENDBRANCH  35  36
ENDBRANCH  27  30
ENDBRANCH  25  26
ENDBRANCH  24  25
ENDBRANCH   1  24
TORSDOF 14
ENDMDL
MODEL 2
REMARK VINA RESULT:     -11.9      0.334      1.727
REMARK SMILES C[NH2+][C@]1(C(=O)NCCCCNC(=O)c2ccc(-c3c4nc(c(-c5c(F)c(F)c(F)c(F)c5F)c5ccc([nH]5)c(-c5c(F)c(F)c(F)c(F)c5F)c5nc(c(-c6c(F)c(F)c(F)c(F)c6F)c6ccc3[nH]6)C=C5)C=C4)cc2)CCC[C@@H](Sc2nccn2C)C1
REMARK SMILES IDX 8 1 7 2 6 3 4 4 5 5 3 7 77 8 88 9 78 10 80 11 79 12 2 13
REMARK SMILES IDX 1 14 81 17 82 18 83 19 86 20 84 21 85 22 87 23 9 24 10 25
REMARK SMILES IDX 11 26 12 27 13 29 14 30 15 31 76 32 16 33 75 34 17 35 18 36
REMARK SMILES IDX 19 37 69 38 20 39 74 40 68 41 70 42 21 43 73 44 67 45 66 46
REMARK SMILES IDX 22 48 54 49 34 50 53 51 35 52 38 53 52 54 71 55 36 56 37 57
REMARK SMILES IDX 51 59 72 60 39 61 23 62 24 63 32 64 25 65 26 66 30 67 33 68
REMARK SMILES IDX 27 69 28 70 31 71 29 72 55 73 56 74 64 75 57 76 58 77 62 78
REMARK SMILES IDX 65 79 59 80 60 81 63 82 61 83 40 84 41 85 49 86 42 87 43 88
REMARK SMILES IDX 47 89 50 90 44 91 45 92 48 93 46 94
REMARK H PARENT 6 6 2 15 2 16 11 28 70 47 38 58
REMARK Flexibility Score: inf
ROOT
ATOM      1  C   UNL A   1      31.995  30.543  26.511  1.00  0.00     0.023 C 
ENDROOT
BRANCH   1   2
ATOM      2  C   UNL A   1      31.335  30.018  25.235  1.00  0.00     0.116 C 
BRANCH   2   3
ATOM      3  N   UNL A   1      32.330  29.698  24.224  1.00  0.00    -0.351 N 
ATOM      4  C   UNL A   1      32.842  28.507  23.805  1.00  0.00     0.281 C 
ATOM      5  O   UNL A   1      33.784  28.570  23.001  1.00  0.00    -0.268 OA
ATOM      6  H   UNL A   1      32.699  30.483  23.759  1.00  0.00     0.163 HD
BRANCH   4   7
ATOM      7  C   UNL A   1      32.303  27.106  24.304  1.00  0.00     0.176 C 
ATOM      8  C   UNL A   1      30.778  27.043  24.035  1.00  0.00     0.079 C 
ATOM      9  C   UNL A   1      33.124  25.995  23.597  1.00  0.00     0.094 C 
ATOM     10  C   UNL A   1      30.165  25.647  23.973  1.00  0.00     0.008 C 
ATOM     11  C   UNL A   1      32.431  24.631  23.574  1.00  0.00     0.061 C 
ATOM     12  C   UNL A   1      30.981  24.708  23.096  1.00  0.00     0.015 C 
BRANCH   7  13
ATOM     13  N   UNL A   1      32.692  27.014  25.747  1.00  0.00    -0.336 N 
ATOM     14  C   UNL A   1      34.017  27.425  26.159  1.00  0.00     0.331 C 
ATOM     15  H   UNL A   1      32.030  27.589  26.269  1.00  0.00     0.346 HD
ATOM     16  H   UNL A   1      32.685  26.012  25.932  1.00  0.00     0.346 HD
ENDBRANCH   7  13
BRANCH  11  17
ATOM     17  S   UNL A   1      33.386  23.392  22.614  1.00  0.00    -0.084 SA
BRANCH  17  18
ATOM     18  C   UNL A   1      34.049  22.367  23.844  1.00  0.00     0.167 A 
ATOM     19  N   UNL A   1      33.348  21.597  24.648  1.00  0.00    -0.231 NA
ATOM     20  N   UNL A   1      35.393  22.244  24.079  1.00  0.00    -0.329 N 
ATOM     21  C   UNL A   1      34.271  20.922  25.403  1.00  0.00     0.132 A 
ATOM     22  C   UNL A   1      35.547  21.315  25.078  1.00  0.00     0.108 A 
ATOM     23  C   UNL A   1      36.493  22.939  23.457  1.00  0.00     0.152 C 
ENDBRANCH  17  18
ENDBRANCH  11  17
ENDBRANCH   4   7
ENDBRANCH   2   3
ENDBRANCH   1   2
BRANCH   1  24
ATOM     24  C   UNL A   1      31.655  31.993  26.851  1.00  0.00     0.023 C 
BRANCH  24  25
ATOM     25  C   UNL A   1      32.850  32.855  27.237  1.00  0.00     0.116 C 
BRANCH  25  26
ATOM     26  N   UNL A   1      32.478  34.211  27.616  1.00  0.00    -0.352 N 
ATOM     27  C   UNL A   1      33.000  35.003  28.611  1.00  0.00     0.251 C 
ATOM     28  H   UNL A   1      31.753  34.615  27.087  1.00  0.00     0.163 HD
ATOM     29  O   UNL A   1      32.493  36.081  28.879  1.00  0.00    -0.269 OA
BRANCH  27  30
ATOM     30  C   UNL A   1      34.165  34.517  29.378  1.00  0.00     0.039 A 
ATOM     31  C   UNL A   1      33.948  33.849  30.585  1.00  0.00     0.014 A 
ATOM     32  C   UNL A   1      35.462  34.686  28.886  1.00  0.00     0.014 A 
ATOM     33  C   UNL A   1      35.029  33.287  31.266  1.00  0.00     0.010 A 
ATOM     34  C   UNL A   1      36.528  34.060  29.524  1.00  0.00     0.010 A 
ATOM     35  C   UNL A   1      36.321  33.356  30.720  1.00  0.00    -0.014 A 
BRANCH  35  36
ATOM     36  C   UNL A   1      37.474  32.697  31.382  1.00  0.00     0.031 A 
ATOM     37  C   UNL A   1      38.175  31.553  30.709  1.00  0.00     0.074 A 
ATOM     38  C   UNL A   1      37.845  33.086  32.618  1.00  0.00     0.049 A 
ATOM     39  N   UNL A   1      39.150  30.801  31.153  1.00  0.00    -0.248 NA
ATOM     40  C   UNL A   1      37.698  31.186  29.365  1.00  0.00     0.031 C 
ATOM     41  C   UNL A   1      37.212  34.153  33.395  1.00  0.00     0.029 A 
ATOM     42  N   UNL A   1      38.839  32.621  33.442  1.00  0.00    -0.354 N 
ATOM     43  C   UNL A   1      39.391  29.867  30.154  1.00  0.00     0.074 A 
ATOM     44  C   UNL A   1      38.425  30.110  29.104  1.00  0.00     0.031 C 
ATOM     45  C   UNL A   1      37.848  34.276  34.571  1.00  0.00     0.029 A 
ATOM     46  C   UNL A   1      38.906  33.275  34.647  1.00  0.00     0.049 A 
ATOM     47  H   UNL A   1      39.445  31.887  33.192  1.00  0.00     0.167 HD
ATOM     48  C   UNL A   1      40.348  28.911  30.105  1.00  0.00     0.037 A 
ATOM     49  C   UNL A   1      39.729  33.085  35.697  1.00  0.00     0.037 A 
ATOM     50  C   UNL A   1      41.323  28.688  31.139  1.00  0.00     0.049 A 
ATOM     51  C   UNL A   1      40.779  32.009  35.619  1.00  0.00     0.074 A 
ATOM     52  C   UNL A   1      42.368  27.782  31.161  1.00  0.00     0.029 A 
ATOM     53  N   UNL A   1      41.372  29.383  32.339  1.00  0.00    -0.354 N 
ATOM     54  N   UNL A   1      41.040  31.175  34.642  1.00  0.00    -0.248 NA
ATOM     55  C   UNL A   1      41.654  31.853  36.791  1.00  0.00     0.031 C 
ATOM     56  C   UNL A   1      43.022  27.898  32.391  1.00  0.00     0.029 A 
ATOM     57  C   UNL A   1      42.417  28.912  33.116  1.00  0.00     0.049 A 
ATOM     58  H   UNL A   1      40.754  30.104  32.600  1.00  0.00     0.167 HD
ATOM     59  C   UNL A   1      42.124  30.418  35.066  1.00  0.00     0.074 A 
ATOM     60  C   UNL A   1      42.480  30.901  36.384  1.00  0.00     0.031 C 
ATOM     61  C   UNL A   1      42.766  29.414  34.421  1.00  0.00     0.037 A 
BRANCH  48  62
ATOM     62  C   UNL A   1      40.392  28.037  28.885  1.00  0.00     0.064 A 
ATOM     63  C   UNL A   1      41.147  28.390  27.756  1.00  0.00     0.173 A 
ATOM     64  C   UNL A   1      39.700  26.817  28.855  1.00  0.00     0.173 A 
ATOM     65  F   UNL A   1      41.817  29.552  27.729  1.00  0.00    -0.203 F 
ATOM     66  C   UNL A   1      41.184  27.569  26.632  1.00  0.00     0.198 A 
ATOM     67  C   UNL A   1      39.763  25.984  27.742  1.00  0.00     0.198 A 
ATOM     68  F   UNL A   1      38.967  26.428  29.910  1.00  0.00    -0.203 F 
ATOM     69  F   UNL A   1      41.871  27.952  25.547  1.00  0.00    -0.200 F 
ATOM     70  C   UNL A   1      40.498  26.364  26.628  1.00  0.00     0.200 A 
ATOM     71  F   UNL A   1      39.112  24.812  27.744  1.00  0.00    -0.200 F 
ATOM     72  F   UNL A   1      40.541  25.570  25.549  1.00  0.00    -0.200 F 
ENDBRANCH  48  62
BRANCH  49  73
ATOM     73  C   UNL A   1      39.615  33.950  36.899  1.00  0.00     0.064 A 
ATOM     74  C   UNL A   1      38.821  33.564  37.988  1.00  0.00     0.173 A 
ATOM     75  C   UNL A   1      40.287  35.179  36.984  1.00  0.00     0.173 A 
ATOM     76  F   UNL A   1      38.144  32.407  37.944  1.00  0.00    -0.203 F 
ATOM     77  C   UNL A   1      38.685  34.382  39.107  1.00  0.00     0.198 A 
ATOM     78  C   UNL A   1      40.172  35.984  38.116  1.00  0.00     0.198 A 
ATOM     79  F   UNL A   1      41.063  35.592  35.971  1.00  0.00    -0.203 F 
ATOM     80  F   UNL A   1      37.883  34.009  40.113  1.00  0.00    -0.200 F 
ATOM     81  C   UNL A   1      39.365  35.590  39.173  1.00  0.00     0.200 A 
ATOM     82  F   UNL A   1      40.841  37.143  38.181  1.00  0.00    -0.200 F 
ATOM     83  F   UNL A   1      39.237  36.375  40.250  1.00  0.00    -0.200 F 
ENDBRANCH  49  73
BRANCH  61  84
ATOM     84  C   UNL A   1      43.945  28.794  35.113  1.00  0.00     0.064 A 
ATOM     85  C   UNL A   1      45.242  29.305  34.959  1.00  0.00     0.173 A 
ATOM     86  C   UNL A   1      43.766  27.700  35.973  1.00  0.00     0.173 A 
ATOM     87  F   UNL A   1      45.467  30.341  34.136  1.00  0.00    -0.203 F 
ATOM     88  C   UNL A   1      46.320  28.727  35.623  1.00  0.00     0.198 A 
ATOM     89  C   UNL A   1      44.842  27.144  36.658  1.00  0.00     0.198 A 
ATOM     90  F   UNL A   1      42.544  27.178  36.159  1.00  0.00    -0.203 F 
ATOM     91  F   UNL A   1      47.559  29.202  35.425  1.00  0.00    -0.200 F 
ATOM     92  C   UNL A   1      46.119  27.653  36.477  1.00  0.00     0.200 A 
ATOM     93  F   UNL A   1      44.644  26.115  37.493  1.00  0.00    -0.200 F 
ATOM     94  F   UNL A   1      47.158  27.103  37.121  1.00  0.00    -0.200 F 
ENDBRANCH  61  84
ENDBRANCH  35  36
ENDBRANCH  27  30
ENDBRANCH  25  26
ENDBRANCH  24  25
ENDBRANCH   1  24
TORSDOF 14
ENDMDL
MODEL 3
REMARK VINA RESULT:     -11.9      5.668     11.292
REMARK SMILES C[NH2+][C@]1(C(=O)NCCCCNC(=O)c2ccc(-c3c4nc(c(-c5c(F)c(F)c(F)c(F)c5F)c5ccc([nH]5)c(-c5c(F)c(F)c(F)c(F)c5F)c5nc(c(-c6c(F)c(F)c(F)c(F)c6F)c6ccc3[nH]6)C=C5)C=C4)cc2)CCC[C@@H](Sc2nccn2C)C1
REMARK SMILES IDX 8 1 7 2 6 3 4 4 5 5 3 7 77 8 88 9 78 10 80 11 79 12 2 13
REMARK SMILES IDX 1 14 81 17 82 18 83 19 86 20 84 21 85 22 87 23 9 24 10 25
REMARK SMILES IDX 11 26 12 27 13 29 14 30 15 31 76 32 16 33 75 34 17 35 18 36
REMARK SMILES IDX 19 37 69 38 20 39 74 40 68 41 70 42 21 43 73 44 67 45 66 46
REMARK SMILES IDX 22 48 54 49 34 50 53 51 35 52 38 53 52 54 71 55 36 56 37 57
REMARK SMILES IDX 51 59 72 60 39 61 23 62 24 63 32 64 25 65 26 66 30 67 33 68
REMARK SMILES IDX 27 69 28 70 31 71 29 72 55 73 56 74 64 75 57 76 58 77 62 78
REMARK SMILES IDX 65 79 59 80 60 81 63 82 61 83 40 84 41 85 49 86 42 87 43 88
REMARK SMILES IDX 47 89 50 90 44 91 45 92 48 93 46 94
REMARK H PARENT 6 6 2 15 2 16 11 28 70 47 38 58
REMARK Flexibility Score: inf
ROOT
ATOM      1  C   UNL A   1      36.945  21.022  24.990  1.00  0.00     0.023 C 
ENDROOT
BRANCH   1   2
ATOM      2  C   UNL A   1      35.514  20.482  24.982  1.00  0.00     0.116 C 
BRANCH   2   3
ATOM      3  N   UNL A   1      34.793  20.892  26.176  1.00  0.00    -0.351 N 
ATOM      4  C   UNL A   1      33.966  21.949  26.414  1.00  0.00     0.281 C 
ATOM      5  O   UNL A   1      33.599  22.101  27.588  1.00  0.00    -0.268 OA
ATOM      6  H   UNL A   1      34.926  20.300  26.951  1.00  0.00     0.163 HD
BRANCH   4   7
ATOM      7  C   UNL A   1      33.493  22.953  25.287  1.00  0.00     0.176 C 
ATOM      8  C   UNL A   1      32.995  22.128  24.072  1.00  0.00     0.079 C 
ATOM      9  C   UNL A   1      32.425  23.897  25.900  1.00  0.00     0.094 C 
ATOM     10  C   UNL A   1      32.059  22.851  23.109  1.00  0.00     0.008 C 
ATOM     11  C   UNL A   1      31.526  24.574  24.864  1.00  0.00     0.061 C 
ATOM     12  C   UNL A   1      30.950  23.591  23.844  1.00  0.00     0.015 C 
BRANCH   7  13
ATOM     13  N   UNL A   1      34.672  23.833  25.009  1.00  0.00    -0.336 N 
ATOM     14  C   UNL A   1      35.234  23.878  23.677  1.00  0.00     0.331 C 
ATOM     15  H   UNL A   1      34.393  24.786  25.244  1.00  0.00     0.346 HD
ATOM     16  H   UNL A   1      35.417  23.416  25.567  1.00  0.00     0.346 HD
ENDBRANCH   7  13
BRANCH  11  17
ATOM     17  S   UNL A   1      30.203  25.572  25.651  1.00  0.00    -0.084 SA
BRANCH  17  18
ATOM     18  C   UNL A   1      31.027  27.027  26.109  1.00  0.00     0.167 A 
ATOM     19  N   UNL A   1      31.411  27.327  27.330  1.00  0.00    -0.231 NA
ATOM     20  N   UNL A   1      31.382  28.004  25.217  1.00  0.00    -0.329 N 
ATOM     21  C   UNL A   1      32.073  28.521  27.222  1.00  0.00     0.132 A 
ATOM     22  C   UNL A   1      32.057  28.969  25.922  1.00  0.00     0.108 A 
ATOM     23  C   UNL A   1      31.113  28.088  23.803  1.00  0.00     0.152 C 
ENDBRANCH  17  18
ENDBRANCH  11  17
ENDBRANCH   4   7
ENDBRANCH   2   3
ENDBRANCH   1   2
BRANCH   1  24
ATOM     24  C   UNL A   1      38.030  19.947  25.002  1.00  0.00     0.023 C 
BRANCH  24  25
ATOM     25  C   UNL A   1      39.268  20.298  25.817  1.00  0.00     0.116 C 
BRANCH  25  26
ATOM     26  N   UNL A   1      40.221  19.201  25.910  1.00  0.00    -0.352 N 
ATOM     27  C   UNL A   1      41.578  19.253  26.126  1.00  0.00     0.251 C 
ATOM     28  H   UNL A   1      39.842  18.300  25.802  1.00  0.00     0.163 HD
ATOM     29  O   UNL A   1      42.259  18.242  26.057  1.00  0.00    -0.269 OA
BRANCH  27  30
ATOM     30  C   UNL A   1      42.209  20.558  26.409  1.00  0.00     0.039 A 
ATOM     31  C   UNL A   1      42.698  21.317  25.344  1.00  0.00     0.014 A 
ATOM     32  C   UNL A   1      42.282  21.044  27.717  1.00  0.00     0.014 A 
ATOM     33  C   UNL A   1      43.197  22.599  25.583  1.00  0.00     0.010 A 
ATOM     34  C   UNL A   1      42.707  22.349  27.945  1.00  0.00     0.010 A 
ATOM     35  C   UNL A   1      43.169  23.138  26.880  1.00  0.00    -0.014 A 
BRANCH  35  36
ATOM     36  C   UNL A   1      43.617  24.527  27.148  1.00  0.00     0.031 A 
ATOM     37  C   UNL A   1      42.644  25.544  27.669  1.00  0.00     0.074 A 
ATOM     38  C   UNL A   1      44.883  24.887  26.857  1.00  0.00     0.049 A 
ATOM     39  N   UNL A   1      42.820  26.822  27.895  1.00  0.00    -0.248 NA
ATOM     40  C   UNL A   1      41.279  25.069  27.948  1.00  0.00     0.031 C 
ATOM     41  C   UNL A   1      45.908  24.002  26.302  1.00  0.00     0.029 A 
ATOM     42  N   UNL A   1      45.520  26.097  26.980  1.00  0.00    -0.354 N 
ATOM     43  C   UNL A   1      41.591  27.302  28.326  1.00  0.00     0.074 A 
ATOM     44  C   UNL A   1      40.662  26.194  28.278  1.00  0.00     0.031 C 
ATOM     45  C   UNL A   1      47.051  24.692  26.155  1.00  0.00     0.029 A 
ATOM     46  C   UNL A   1      46.829  26.073  26.568  1.00  0.00     0.049 A 
ATOM     47  H   UNL A   1      45.078  26.905  27.328  1.00  0.00     0.167 HD
ATOM     48  C   UNL A   1      41.272  28.548  28.749  1.00  0.00     0.037 A 
ATOM     49  C   UNL A   1      47.747  27.059  26.527  1.00  0.00     0.037 A 
ATOM     50  C   UNL A   1      42.205  29.641  28.820  1.00  0.00     0.049 A 
ATOM     51  C   UNL A   1      47.364  28.437  26.996  1.00  0.00     0.074 A 
ATOM     52  C   UNL A   1      41.995  30.927  29.285  1.00  0.00     0.029 A 
ATOM     53  N   UNL A   1      43.530  29.575  28.411  1.00  0.00    -0.354 N 
ATOM     54  N   UNL A   1      46.216  28.863  27.463  1.00  0.00    -0.248 NA
ATOM     55  C   UNL A   1      48.409  29.470  26.935  1.00  0.00     0.031 C 
ATOM     56  C   UNL A   1      43.180  31.651  29.119  1.00  0.00     0.029 A 
ATOM     57  C   UNL A   1      44.143  30.803  28.596  1.00  0.00     0.049 A 
ATOM     58  H   UNL A   1      43.968  28.774  28.043  1.00  0.00     0.167 HD
ATOM     59  C   UNL A   1      46.408  30.202  27.781  1.00  0.00     0.074 A 
ATOM     60  C   UNL A   1      47.786  30.513  27.465  1.00  0.00     0.031 C 
ATOM     61  C   UNL A   1      45.520  31.092  28.289  1.00  0.00     0.037 A 
BRANCH  48  62
ATOM     62  C   UNL A   1      39.855  28.793  29.178  1.00  0.00     0.064 A 
ATOM     63  C   UNL A   1      38.879  29.234  28.272  1.00  0.00     0.173 A 
ATOM     64  C   UNL A   1      39.458  28.553  30.502  1.00  0.00     0.173 A 
ATOM     65  F   UNL A   1      39.210  29.492  26.997  1.00  0.00    -0.203 F 
ATOM     66  C   UNL A   1      37.567  29.454  28.680  1.00  0.00     0.198 A 
ATOM     67  C   UNL A   1      38.138  28.744  30.900  1.00  0.00     0.198 A 
ATOM     68  F   UNL A   1      40.349  28.124  31.409  1.00  0.00    -0.203 F 
ATOM     69  F   UNL A   1      36.664  29.924  27.808  1.00  0.00    -0.200 F 
ATOM     70  C   UNL A   1      37.195  29.201  29.992  1.00  0.00     0.200 A 
ATOM     71  F   UNL A   1      37.777  28.486  32.166  1.00  0.00    -0.200 F 
ATOM     72  F   UNL A   1      35.930  29.405  30.383  1.00  0.00    -0.200 F 
ENDBRANCH  48  62
BRANCH  49  73
ATOM     73  C   UNL A   1      49.125  26.773  26.053  1.00  0.00     0.064 A 
ATOM     74  C   UNL A   1      49.485  26.996  24.716  1.00  0.00     0.173 A 
ATOM     75  C   UNL A   1      50.108  26.267  26.917  1.00  0.00     0.173 A 
ATOM     76  F   UNL A   1      48.574  27.460  23.848  1.00  0.00    -0.203 F 
ATOM     77  C   UNL A   1      50.766  26.704  24.256  1.00  0.00     0.198 A 
ATOM     78  C   UNL A   1      51.398  26.002  26.462  1.00  0.00     0.198 A 
ATOM     79  F   UNL A   1      49.817  26.041  28.206  1.00  0.00    -0.203 F 
ATOM     80  F   UNL A   1      51.069  26.883  22.963  1.00  0.00    -0.200 F 
ATOM     81  C   UNL A   1      51.724  26.212  25.130  1.00  0.00     0.200 A 
ATOM     82  F   UNL A   1      52.324  25.539  27.312  1.00  0.00    -0.200 F 
ATOM     83  F   UNL A   1      52.958  25.934  24.688  1.00  0.00    -0.200 F 
ENDBRANCH  49  73
BRANCH  61  84
ATOM     84  C   UNL A   1      46.022  32.477  28.572  1.00  0.00     0.064 A 
ATOM     85  C   UNL A   1      46.611  32.812  29.801  1.00  0.00     0.173 A 
ATOM     86  C   UNL A   1      45.949  33.473  27.586  1.00  0.00     0.173 A 
ATOM     87  F   UNL A   1      46.690  31.899  30.782  1.00  0.00    -0.203 F 
ATOM     88  C   UNL A   1      47.085  34.098  30.039  1.00  0.00     0.198 A 
ATOM     89  C   UNL A   1      46.452  34.749  27.817  1.00  0.00     0.198 A 
ATOM     90  F   UNL A   1      45.400  33.202  26.392  1.00  0.00    -0.203 F 
ATOM     91  F   UNL A   1      47.602  34.409  31.237  1.00  0.00    -0.200 F 
ATOM     92  C   UNL A   1      47.013  35.063  29.045  1.00  0.00     0.200 A 
ATOM     93  F   UNL A   1      46.394  35.676  26.851  1.00  0.00    -0.200 F 
ATOM     94  F   UNL A   1      47.478  36.299  29.274  1.00  0.00    -0.200 F 
ENDBRANCH  61  84
ENDBRANCH  35  36
ENDBRANCH  27  30
ENDBRANCH  25  26
ENDBRANCH  24  25
ENDBRANCH   1  24
TORSDOF 14
ENDMDL
