MODEL 1
REMARK VINA RESULT:     -13.4      0.000      0.000
REMARK SMILES O=C(NCCCCNC(=O)[C@H]1Cc2[nH]cnc2CN1C(=O)N1CCC[C@H](O)C1)c1ccc(-c2c3nc(c(-c4c(F)c(F)c(F)c(F)c4F)c4ccc([nH]4)c(-c4c(F)c(F)c(F)c(F)c4F)c4nc(c(-c5c(F)c(F)c(F)c(F)c5F)c5ccc2[nH]5)C=C4)C=C3)cc1
REMARK SMILES IDX 6 1 5 2 4 3 3 4 1 5 2 6 29 8 30 9 91 10 31 11 90 12 32 13
REMARK SMILES IDX 33 14 34 15 84 16 35 17 89 18 83 19 85 20 36 21 88 22 82 23
REMARK SMILES IDX 81 24 37 26 69 27 49 28 68 29 50 30 53 31 67 32 86 33 51 34
REMARK SMILES IDX 52 35 66 37 87 38 54 39 38 40 39 41 47 42 40 43 41 44 45 45
REMARK SMILES IDX 48 46 42 47 43 48 46 49 44 50 70 51 71 52 79 53 72 54 73 55
REMARK SMILES IDX 77 56 80 57 74 58 75 59 78 60 76 61 55 62 56 63 64 64 57 65
REMARK SMILES IDX 58 66 62 67 65 68 59 69 60 70 63 71 61 72 7 73 8 74 9 75
REMARK SMILES IDX 10 77 11 78 12 79 19 80 13 81 18 82 14 83 17 84 15 85 16 87
REMARK SMILES IDX 20 88 21 89 22 90 23 91 28 92 24 93 26 94 25 95 27 96
REMARK H PARENT 3 7 85 25 53 36 8 76 14 86 27 97
REMARK Flexibility Score: inf
ROOT
ATOM      1  C   UNL A   1      35.359  22.953  23.288  1.00  0.00     0.023 C 
ENDROOT
BRANCH   1   2
ATOM      2  C   UNL A   1      36.788  22.869  23.831  1.00  0.00     0.023 C 
BRANCH   2   3
ATOM      3  C   UNL A   1      36.949  22.313  25.246  1.00  0.00     0.116 C 
BRANCH   3   4
ATOM      4  N   UNL A   1      38.149  21.536  25.487  1.00  0.00    -0.352 N 
ATOM      5  O   UNL A   1      40.090  20.816  26.268  1.00  0.00    -0.269 OA
ATOM      6  C   UNL A   1      39.315  21.765  26.162  1.00  0.00     0.251 C 
ATOM      7  H   UNL A   1      38.117  20.644  25.072  1.00  0.00     0.163 HD
BRANCH   6   8
ATOM      8  C   UNL A   1      39.719  23.083  26.718  1.00  0.00     0.039 A 
ATOM      9  C   UNL A   1      39.011  24.273  26.555  1.00  0.00     0.014 A 
ATOM     10  C   UNL A   1      40.897  23.103  27.488  1.00  0.00     0.014 A 
ATOM     11  C   UNL A   1      39.507  25.470  27.060  1.00  0.00     0.010 A 
ATOM     12  C   UNL A   1      41.374  24.291  28.039  1.00  0.00     0.010 A 
ATOM     13  C   UNL A   1      40.690  25.483  27.804  1.00  0.00    -0.014 A 
BRANCH  13  14
ATOM     14  C   UNL A   1      41.064  26.744  28.455  1.00  0.00     0.031 A 
ATOM     15  C   UNL A   1      42.320  27.380  27.960  1.00  0.00     0.074 A 
ATOM     16  C   UNL A   1      40.279  27.419  29.318  1.00  0.00     0.049 A 
ATOM     17  N   UNL A   1      43.326  27.815  28.652  1.00  0.00    -0.248 NA
ATOM     18  C   UNL A   1      42.485  27.526  26.505  1.00  0.00     0.031 C 
ATOM     19  C   UNL A   1      38.895  27.104  29.668  1.00  0.00     0.029 A 
ATOM     20  N   UNL A   1      40.515  28.604  29.969  1.00  0.00    -0.354 N 
ATOM     21  C   UNL A   1      44.173  28.441  27.740  1.00  0.00     0.074 A 
ATOM     22  C   UNL A   1      43.660  28.151  26.427  1.00  0.00     0.031 C 
ATOM     23  C   UNL A   1      38.345  28.173  30.280  1.00  0.00     0.029 A 
ATOM     24  C   UNL A   1      39.365  29.196  30.465  1.00  0.00     0.049 A 
ATOM     25  H   UNL A   1      41.412  28.995  30.072  1.00  0.00     0.167 HD
ATOM     26  C   UNL A   1      45.105  29.346  28.139  1.00  0.00     0.037 A 
ATOM     27  C   UNL A   1      39.218  30.455  30.940  1.00  0.00     0.037 A 
ATOM     28  C   UNL A   1      45.406  29.239  29.539  1.00  0.00     0.049 A 
ATOM     29  C   UNL A   1      40.538  30.981  31.356  1.00  0.00     0.074 A 
ATOM     30  C   UNL A   1      46.074  28.362  30.364  1.00  0.00     0.029 A 
ATOM     31  N   UNL A   1      44.738  30.114  30.346  1.00  0.00    -0.354 N 
ATOM     32  N   UNL A   1      41.205  30.564  32.396  1.00  0.00    -0.248 NA
ATOM     33  C   UNL A   1      41.260  31.899  30.481  1.00  0.00     0.031 C 
ATOM     34  C   UNL A   1      45.586  28.603  31.683  1.00  0.00     0.029 A 
ATOM     35  C   UNL A   1      44.619  29.603  31.609  1.00  0.00     0.049 A 
ATOM     36  H   UNL A   1      44.390  30.990  30.059  1.00  0.00     0.167 HD
ATOM     37  C   UNL A   1      42.524  30.824  32.083  1.00  0.00     0.074 A 
ATOM     38  C   UNL A   1      42.478  31.813  31.021  1.00  0.00     0.031 C 
ATOM     39  C   UNL A   1      43.504  29.955  32.457  1.00  0.00     0.037 A 
BRANCH  26  40
ATOM     40  C   UNL A   1      45.416  30.629  27.391  1.00  0.00     0.064 A 
ATOM     41  C   UNL A   1      46.763  30.929  27.089  1.00  0.00     0.173 A 
ATOM     42  C   UNL A   1      44.517  31.712  27.304  1.00  0.00     0.173 A 
ATOM     43  F   UNL A   1      47.706  29.976  27.153  1.00  0.00    -0.203 F 
ATOM     44  C   UNL A   1      47.187  32.234  26.824  1.00  0.00     0.198 A 
ATOM     45  C   UNL A   1      44.938  33.005  26.986  1.00  0.00     0.198 A 
ATOM     46  F   UNL A   1      43.227  31.593  27.640  1.00  0.00    -0.203 F 
ATOM     47  F   UNL A   1      48.495  32.494  26.686  1.00  0.00    -0.200 F 
ATOM     48  C   UNL A   1      46.276  33.273  26.783  1.00  0.00     0.200 A 
ATOM     49  F   UNL A   1      44.043  34.003  26.970  1.00  0.00    -0.200 F 
ATOM     50  F   UNL A   1      46.688  34.534  26.604  1.00  0.00    -0.200 F 
ENDBRANCH  26  40
BRANCH  27  51
ATOM     51  C   UNL A   1      38.000  31.299  30.952  1.00  0.00     0.064 A 
ATOM     52  C   UNL A   1      37.389  31.711  29.756  1.00  0.00     0.173 A 
ATOM     53  C   UNL A   1      37.273  31.530  32.136  1.00  0.00     0.173 A 
ATOM     54  F   UNL A   1      37.983  31.481  28.576  1.00  0.00    -0.203 F 
ATOM     55  C   UNL A   1      36.127  32.312  29.746  1.00  0.00     0.198 A 
ATOM     56  C   UNL A   1      36.024  32.151  32.126  1.00  0.00     0.198 A 
ATOM     57  F   UNL A   1      37.719  31.083  33.318  1.00  0.00    -0.203 F 
ATOM     58  F   UNL A   1      35.553  32.634  28.579  1.00  0.00    -0.200 F 
ATOM     59  C   UNL A   1      35.446  32.531  30.931  1.00  0.00     0.200 A 
ATOM     60  F   UNL A   1      35.362  32.328  33.279  1.00  0.00    -0.200 F 
ATOM     61  F   UNL A   1      34.218  33.068  30.918  1.00  0.00    -0.200 F 
ENDBRANCH  27  51
BRANCH  39  62
ATOM     62  C   UNL A   1      43.262  29.146  33.690  1.00  0.00     0.064 A 
ATOM     63  C   UNL A   1      42.569  27.926  33.710  1.00  0.00     0.173 A 
ATOM     64  C   UNL A   1      43.798  29.614  34.898  1.00  0.00     0.173 A 
ATOM     65  F   UNL A   1      42.116  27.372  32.576  1.00  0.00    -0.203 F 
ATOM     66  C   UNL A   1      42.360  27.244  34.905  1.00  0.00     0.198 A 
ATOM     67  C   UNL A   1      43.621  28.909  36.084  1.00  0.00     0.198 A 
ATOM     68  F   UNL A   1      44.516  30.748  34.923  1.00  0.00    -0.203 F 
ATOM     69  F   UNL A   1      41.660  26.100  34.911  1.00  0.00    -0.200 F 
ATOM     70  C   UNL A   1      42.888  27.735  36.090  1.00  0.00     0.200 A 
ATOM     71  F   UNL A   1      44.173  29.363  37.218  1.00  0.00    -0.200 F 
ATOM     72  F   UNL A   1      42.704  27.064  37.237  1.00  0.00    -0.200 F 
ENDBRANCH  39  62
ENDBRANCH  13  14
ENDBRANCH   6   8
ENDBRANCH   3   4
ENDBRANCH   2   3
ENDBRANCH   1   2
BRANCH   1  73
ATOM     73  C   UNL A   1      34.506  24.099  23.814  1.00  0.00     0.116 C 
BRANCH  73  74
ATOM     74  N   UNL A   1      33.744  24.787  22.784  1.00  0.00    -0.354 N 
ATOM     75  C   UNL A   1      33.463  26.129  22.780  1.00  0.00     0.243 C 
ATOM     76  H   UNL A   1      33.406  24.249  22.032  1.00  0.00     0.163 HD
ATOM     77  O   UNL A   1      33.638  26.732  21.722  1.00  0.00    -0.273 OA
BRANCH  75  78
ATOM     78  C   UNL A   1      33.028  26.804  24.087  1.00  0.00     0.182 C 
ATOM     79  C   UNL A   1      33.985  28.025  24.226  1.00  0.00     0.091 C 
ATOM     80  N   UNL A   1      31.608  27.207  24.362  1.00  0.00    -0.306 N 
ATOM     81  C   UNL A   1      33.645  28.740  25.470  1.00  0.00     0.042 A 
ATOM     82  C   UNL A   1      31.343  27.708  25.733  1.00  0.00     0.180 C 
ATOM     83  N   UNL A   1      34.376  29.665  26.147  1.00  0.00    -0.348 N 
ATOM     84  C   UNL A   1      32.459  28.609  26.154  1.00  0.00     0.081 A 
ATOM     85  C   UNL A   1      33.625  30.034  27.232  1.00  0.00     0.197 A 
ATOM     86  H   UNL A   1      35.269  30.004  25.906  1.00  0.00     0.167 HD
ATOM     87  N   UNL A   1      32.468  29.404  27.269  1.00  0.00    -0.240 NA
BRANCH  80  88
ATOM     88  C   UNL A   1      30.490  26.853  23.632  1.00  0.00     0.321 C 
ATOM     89  O   UNL A   1      30.109  25.690  23.510  1.00  0.00    -0.248 OA
BRANCH  88  90
ATOM     90  N   UNL A   1      29.713  27.896  23.173  1.00  0.00    -0.322 N 
ATOM     91  C   UNL A   1      28.296  27.869  23.503  1.00  0.00     0.121 C 
ATOM     92  C   UNL A   1      30.326  29.216  23.329  1.00  0.00     0.153 C 
ATOM     93  C   UNL A   1      27.495  28.880  22.684  1.00  0.00     0.024 C 
ATOM     94  C   UNL A   1      29.631  30.279  22.477  1.00  0.00     0.134 C 
ATOM     95  C   UNL A   1      28.114  30.282  22.690  1.00  0.00     0.035 C 
BRANCH  94  96
ATOM     96  O   UNL A   1      29.927  30.078  21.095  1.00  0.00    -0.391 OA
ATOM     97  H   UNL A   1      29.746  30.895  20.604  1.00  0.00     0.211 HD
ENDBRANCH  94  96
ENDBRANCH  88  90
ENDBRANCH  80  88
ENDBRANCH  75  78
ENDBRANCH  73  74
ENDBRANCH   1  73
TORSDOF 14
ENDMDL
MODEL 2
REMARK VINA RESULT:     -13.2      3.165      8.372
REMARK SMILES O=C(NCCCCNC(=O)[C@H]1Cc2[nH]cnc2CN1C(=O)N1CCC[C@H](O)C1)c1ccc(-c2c3nc(c(-c4c(F)c(F)c(F)c(F)c4F)c4ccc([nH]4)c(-c4c(F)c(F)c(F)c(F)c4F)c4nc(c(-c5c(F)c(F)c(F)c(F)c5F)c5ccc2[nH]5)C=C4)C=C3)cc1
REMARK SMILES IDX 6 1 5 2 4 3 3 4 1 5 2 6 29 8 30 9 91 10 31 11 90 12 32 13
REMARK SMILES IDX 33 14 34 15 84 16 35 17 89 18 83 19 85 20 36 21 88 22 82 23
REMARK SMILES IDX 81 24 37 26 69 27 49 28 68 29 50 30 53 31 67 32 86 33 51 34
REMARK SMILES IDX 52 35 66 37 87 38 54 39 38 40 39 41 47 42 40 43 41 44 45 45
REMARK SMILES IDX 48 46 42 47 43 48 46 49 44 50 70 51 71 52 79 53 72 54 73 55
REMARK SMILES IDX 77 56 80 57 74 58 75 59 78 60 76 61 55 62 56 63 64 64 57 65
REMARK SMILES IDX 58 66 62 67 65 68 59 69 60 70 63 71 61 72 7 73 8 74 9 75
REMARK SMILES IDX 10 77 11 78 12 79 19 80 13 81 18 82 14 83 17 84 15 85 16 87
REMARK SMILES IDX 20 88 21 89 22 90 23 91 28 92 24 93 26 94 25 95 27 96
REMARK H PARENT 3 7 85 25 53 36 8 76 14 86 27 97
REMARK Flexibility Score: inf
ROOT
ATOM      1  C   UNL A   1      33.026  29.998  27.230  1.00  0.00     0.023 C 
ENDROOT
BRANCH   1   2
ATOM      2  C   UNL A   1      34.528  30.222  27.415  1.00  0.00     0.023 C 
BRANCH   2   3
ATOM      3  C   UNL A   1      34.953  31.590  27.950  1.00  0.00     0.116 C 
BRANCH   3   4
ATOM      4  N   UNL A   1      34.778  31.794  29.375  1.00  0.00    -0.352 N 
ATOM      5  O   UNL A   1      35.131  31.979  31.551  1.00  0.00    -0.269 OA
ATOM      6  C   UNL A   1      35.556  31.564  30.474  1.00  0.00     0.251 C 
ATOM      7  H   UNL A   1      33.903  32.185  29.600  1.00  0.00     0.163 HD
BRANCH   6   8
ATOM      8  C   UNL A   1      36.837  30.809  30.455  1.00  0.00     0.039 A 
ATOM      9  C   UNL A   1      38.107  31.386  30.456  1.00  0.00     0.014 A 
ATOM     10  C   UNL A   1      36.737  29.405  30.463  1.00  0.00     0.014 A 
ATOM     11  C   UNL A   1      39.246  30.592  30.371  1.00  0.00     0.010 A 
ATOM     12  C   UNL A   1      37.876  28.604  30.427  1.00  0.00     0.010 A 
ATOM     13  C   UNL A   1      39.135  29.200  30.356  1.00  0.00    -0.014 A 
BRANCH  13  14
ATOM     14  C   UNL A   1      40.377  28.423  30.442  1.00  0.00     0.031 A 
ATOM     15  C   UNL A   1      40.946  28.262  31.812  1.00  0.00     0.074 A 
ATOM     16  C   UNL A   1      40.915  27.731  29.419  1.00  0.00     0.049 A 
ATOM     17  N   UNL A   1      42.161  28.478  32.207  1.00  0.00    -0.248 NA
ATOM     18  C   UNL A   1      40.036  27.828  32.884  1.00  0.00     0.031 C 
ATOM     19  C   UNL A   1      40.323  27.521  28.100  1.00  0.00     0.029 A 
ATOM     20  N   UNL A   1      42.053  26.963  29.389  1.00  0.00    -0.354 N 
ATOM     21  C   UNL A   1      42.213  28.049  33.532  1.00  0.00     0.074 A 
ATOM     22  C   UNL A   1      40.862  27.751  33.927  1.00  0.00     0.031 C 
ATOM     23  C   UNL A   1      40.979  26.518  27.480  1.00  0.00     0.029 A 
ATOM     24  C   UNL A   1      42.100  26.097  28.308  1.00  0.00     0.049 A 
ATOM     25  H   UNL A   1      42.763  27.021  30.067  1.00  0.00     0.167 HD
ATOM     26  C   UNL A   1      43.392  27.750  34.137  1.00  0.00     0.037 A 
ATOM     27  C   UNL A   1      42.949  25.060  28.113  1.00  0.00     0.037 A 
ATOM     28  C   UNL A   1      44.517  28.329  33.459  1.00  0.00     0.049 A 
ATOM     29  C   UNL A   1      44.164  25.256  28.935  1.00  0.00     0.074 A 
ATOM     30  C   UNL A   1      45.057  29.584  33.289  1.00  0.00     0.029 A 
ATOM     31  N   UNL A   1      45.167  27.496  32.594  1.00  0.00    -0.354 N 
ATOM     32  N   UNL A   1      45.071  26.164  28.707  1.00  0.00    -0.248 NA
ATOM     33  C   UNL A   1      44.313  24.529  30.192  1.00  0.00     0.031 C 
ATOM     34  C   UNL A   1      45.881  29.511  32.127  1.00  0.00     0.029 A 
ATOM     35  C   UNL A   1      45.793  28.218  31.616  1.00  0.00     0.049 A 
ATOM     36  H   UNL A   1      45.181  26.513  32.664  1.00  0.00     0.167 HD
ATOM     37  C   UNL A   1      45.632  26.405  29.945  1.00  0.00     0.074 A 
ATOM     38  C   UNL A   1      45.287  25.249  30.754  1.00  0.00     0.031 C 
ATOM     39  C   UNL A   1      46.006  27.667  30.298  1.00  0.00     0.037 A 
BRANCH  26  40
ATOM     40  C   UNL A   1      43.592  26.567  35.067  1.00  0.00     0.064 A 
ATOM     41  C   UNL A   1      44.048  26.806  36.382  1.00  0.00     0.173 A 
ATOM     42  C   UNL A   1      43.715  25.237  34.612  1.00  0.00     0.173 A 
ATOM     43  F   UNL A   1      43.991  28.038  36.911  1.00  0.00    -0.203 F 
ATOM     44  C   UNL A   1      44.674  25.812  37.139  1.00  0.00     0.198 A 
ATOM     45  C   UNL A   1      44.293  24.235  35.394  1.00  0.00     0.198 A 
ATOM     46  F   UNL A   1      43.399  24.882  33.361  1.00  0.00    -0.203 F 
ATOM     47  F   UNL A   1      45.220  26.121  38.323  1.00  0.00    -0.200 F 
ATOM     48  C   UNL A   1      44.805  24.530  36.640  1.00  0.00     0.200 A 
ATOM     49  F   UNL A   1      44.430  23.001  34.886  1.00  0.00    -0.200 F 
ATOM     50  F   UNL A   1      45.470  23.595  37.331  1.00  0.00    -0.200 F 
ENDBRANCH  26  40
BRANCH  27  51
ATOM     51  C   UNL A   1      42.725  23.821  27.332  1.00  0.00     0.064 A 
ATOM     52  C   UNL A   1      43.246  23.674  26.035  1.00  0.00     0.173 A 
ATOM     53  C   UNL A   1      42.191  22.659  27.924  1.00  0.00     0.173 A 
ATOM     54  F   UNL A   1      43.824  24.713  25.415  1.00  0.00    -0.203 F 
ATOM     55  C   UNL A   1      43.238  22.442  25.376  1.00  0.00     0.198 A 
ATOM     56  C   UNL A   1      42.163  21.436  27.256  1.00  0.00     0.198 A 
ATOM     57  F   UNL A   1      41.763  22.667  29.194  1.00  0.00    -0.203 F 
ATOM     58  F   UNL A   1      43.800  22.330  24.165  1.00  0.00    -0.200 F 
ATOM     59  C   UNL A   1      42.696  21.324  25.987  1.00  0.00     0.200 A 
ATOM     60  F   UNL A   1      41.663  20.355  27.873  1.00  0.00    -0.200 F 
ATOM     61  F   UNL A   1      42.727  20.133  25.373  1.00  0.00    -0.200 F 
ENDBRANCH  27  51
BRANCH  39  62
ATOM     62  C   UNL A   1      46.412  28.590  29.196  1.00  0.00     0.064 A 
ATOM     63  C   UNL A   1      47.718  28.691  28.692  1.00  0.00     0.173 A 
ATOM     64  C   UNL A   1      45.417  29.378  28.599  1.00  0.00     0.173 A 
ATOM     65  F   UNL A   1      48.696  27.896  29.149  1.00  0.00    -0.203 F 
ATOM     66  C   UNL A   1      48.024  29.597  27.680  1.00  0.00     0.198 A 
ATOM     67  C   UNL A   1      45.720  30.253  27.561  1.00  0.00     0.198 A 
ATOM     68  F   UNL A   1      44.143  29.279  29.008  1.00  0.00    -0.203 F 
ATOM     69  F   UNL A   1      49.285  29.708  27.239  1.00  0.00    -0.200 F 
ATOM     70  C   UNL A   1      47.025  30.376  27.115  1.00  0.00     0.200 A 
ATOM     71  F   UNL A   1      44.743  30.970  26.987  1.00  0.00    -0.200 F 
ATOM     72  F   UNL A   1      47.319  31.232  26.126  1.00  0.00    -0.200 F 
ENDBRANCH  39  62
ENDBRANCH  13  14
ENDBRANCH   6   8
ENDBRANCH   3   4
ENDBRANCH   2   3
ENDBRANCH   1   2
BRANCH   1  73
ATOM     73  C   UNL A   1      32.539  28.561  27.355  1.00  0.00     0.116 C 
BRANCH  73  74
ATOM     74  N   UNL A   1      33.117  27.654  26.377  1.00  0.00    -0.354 N 
ATOM     75  C   UNL A   1      32.964  27.762  25.019  1.00  0.00     0.243 C 
ATOM     76  H   UNL A   1      33.660  26.907  26.715  1.00  0.00     0.163 HD
ATOM     77  O   UNL A   1      33.976  27.637  24.332  1.00  0.00    -0.273 OA
BRANCH  75  78
ATOM     78  C   UNL A   1      31.580  28.102  24.450  1.00  0.00     0.182 C 
ATOM     79  C   UNL A   1      31.885  28.945  23.176  1.00  0.00     0.091 C 
ATOM     80  N   UNL A   1      30.540  27.058  24.160  1.00  0.00    -0.306 N 
ATOM     81  C   UNL A   1      30.602  29.328  22.557  1.00  0.00     0.042 A 
ATOM     82  C   UNL A   1      29.211  27.578  23.756  1.00  0.00     0.180 C 
ATOM     83  N   UNL A   1      30.360  30.287  21.624  1.00  0.00    -0.348 N 
ATOM     84  C   UNL A   1      29.395  28.719  22.807  1.00  0.00     0.081 A 
ATOM     85  C   UNL A   1      29.014  30.248  21.369  1.00  0.00     0.197 A 
ATOM     86  H   UNL A   1      31.021  30.891  21.212  1.00  0.00     0.167 HD
ATOM     87  N   UNL A   1      28.404  29.319  22.077  1.00  0.00    -0.240 NA
BRANCH  80  88
ATOM     88  C   UNL A   1      30.566  25.732  24.547  1.00  0.00     0.321 C 
ATOM     89  O   UNL A   1      29.746  25.244  25.323  1.00  0.00    -0.248 OA
BRANCH  88  90
ATOM     90  N   UNL A   1      31.471  24.927  23.887  1.00  0.00    -0.322 N 
ATOM     91  C   UNL A   1      31.416  23.499  24.158  1.00  0.00     0.121 C 
ATOM     92  C   UNL A   1      31.638  25.249  22.469  1.00  0.00     0.153 C 
ATOM     93  C   UNL A   1      32.650  22.766  23.633  1.00  0.00     0.024 C 
ATOM     94  C   UNL A   1      32.901  24.616  21.880  1.00  0.00     0.134 C 
ATOM     95  C   UNL A   1      32.981  23.116  22.179  1.00  0.00     0.035 C 
BRANCH  94  96
ATOM     96  O   UNL A   1      34.064  25.275  22.377  1.00  0.00    -0.391 OA
ATOM     97  H   UNL A   1      34.824  25.060  21.813  1.00  0.00     0.211 HD
ENDBRANCH  94  96
ENDBRANCH  88  90
ENDBRANCH  80  88
ENDBRANCH  75  78
ENDBRANCH  73  74
ENDBRANCH   1  73
TORSDOF 14
ENDMDL
MODEL 3
REMARK VINA RESULT:     -13.0      2.771      4.641
REMARK SMILES O=C(NCCCCNC(=O)[C@H]1Cc2[nH]cnc2CN1C(=O)N1CCC[C@H](O)C1)c1ccc(-c2c3nc(c(-c4c(F)c(F)c(F)c(F)c4F)c4ccc([nH]4)c(-c4c(F)c(F)c(F)c(F)c4F)c4nc(c(-c5c(F)c(F)c(F)c(F)c5F)c5ccc2[nH]5)C=C4)C=C3)cc1
REMARK SMILES IDX 6 1 5 2 4 3 3 4 1 5 2 6 29 8 30 9 91 10 31 11 90 12 32 13
REMARK SMILES IDX 33 14 34 15 84 16 35 17 89 18 83 19 85 20 36 21 88 22 82 23
REMARK SMILES IDX 81 24 37 26 69 27 49 28 68 29 50 30 53 31 67 32 86 33 51 34
REMARK SMILES IDX 52 35 66 37 87 38 54 39 38 40 39 41 47 42 40 43 41 44 45 45
REMARK SMILES IDX 48 46 42 47 43 48 46 49 44 50 70 51 71 52 79 53 72 54 73 55
REMARK SMILES IDX 77 56 80 57 74 58 75 59 78 60 76 61 55 62 56 63 64 64 57 65
REMARK SMILES IDX 58 66 62 67 65 68 59 69 60 70 63 71 61 72 7 73 8 74 9 75
REMARK SMILES IDX 10 77 11 78 12 79 19 80 13 81 18 82 14 83 17 84 15 85 16 87
REMARK SMILES IDX 20 88 21 89 22 90 23 91 28 92 24 93 26 94 25 95 27 96
REMARK H PARENT 3 7 85 25 53 36 8 76 14 86 27 97
REMARK Flexibility Score: inf
ROOT
ATOM      1  C   UNL A   1      37.995  22.014  25.712  1.00  0.00     0.023 C 
ENDROOT
BRANCH   1   2
ATOM      2  C   UNL A   1      38.902  22.963  26.497  1.00  0.00     0.023 C 
BRANCH   2   3
ATOM      3  C   UNL A   1      40.277  22.422  26.894  1.00  0.00     0.116 C 
BRANCH   3   4
ATOM      4  N   UNL A   1      41.362  22.722  25.981  1.00  0.00    -0.352 N 
ATOM      5  O   UNL A   1      43.117  23.647  25.002  1.00  0.00    -0.269 OA
ATOM      6  C   UNL A   1      42.211  23.781  25.823  1.00  0.00     0.251 C 
ATOM      7  H   UNL A   1      41.523  22.003  25.329  1.00  0.00     0.163 HD
BRANCH   6   8
ATOM      8  C   UNL A   1      42.076  25.080  26.533  1.00  0.00     0.039 A 
ATOM      9  C   UNL A   1      42.761  25.434  27.695  1.00  0.00     0.014 A 
ATOM     10  C   UNL A   1      41.204  26.022  25.956  1.00  0.00     0.014 A 
ATOM     11  C   UNL A   1      42.516  26.651  28.321  1.00  0.00     0.010 A 
ATOM     12  C   UNL A   1      40.990  27.263  26.552  1.00  0.00     0.010 A 
ATOM     13  C   UNL A   1      41.630  27.569  27.752  1.00  0.00    -0.014 A 
BRANCH  13  14
ATOM     14  C   UNL A   1      41.551  28.899  28.367  1.00  0.00     0.031 A 
ATOM     15  C   UNL A   1      42.626  29.858  27.977  1.00  0.00     0.074 A 
ATOM     16  C   UNL A   1      40.508  29.340  29.098  1.00  0.00     0.049 A 
ATOM     17  N   UNL A   1      43.376  30.581  28.749  1.00  0.00    -0.248 NA
ATOM     18  C   UNL A   1      42.919  30.011  26.543  1.00  0.00     0.031 C 
ATOM     19  C   UNL A   1      39.238  28.649  29.312  1.00  0.00     0.029 A 
ATOM     20  N   UNL A   1      40.319  30.558  29.702  1.00  0.00    -0.354 N 
ATOM     21  C   UNL A   1      44.116  31.402  27.901  1.00  0.00     0.074 A 
ATOM     22  C   UNL A   1      43.869  30.945  26.558  1.00  0.00     0.031 C 
ATOM     23  C   UNL A   1      38.338  29.529  29.798  1.00  0.00     0.029 A 
ATOM     24  C   UNL A   1      38.997  30.806  30.034  1.00  0.00     0.049 A 
ATOM     25  H   UNL A   1      41.049  31.193  29.880  1.00  0.00     0.167 HD
ATOM     26  C   UNL A   1      44.698  32.546  28.347  1.00  0.00     0.037 A 
ATOM     27  C   UNL A   1      38.444  31.980  30.417  1.00  0.00     0.037 A 
ATOM     28  C   UNL A   1      44.845  32.562  29.775  1.00  0.00     0.049 A 
ATOM     29  C   UNL A   1      39.500  32.874  30.945  1.00  0.00     0.074 A 
ATOM     30  C   UNL A   1      45.628  31.934  30.717  1.00  0.00     0.029 A 
ATOM     31  N   UNL A   1      43.864  33.228  30.453  1.00  0.00    -0.354 N 
ATOM     32  N   UNL A   1      40.126  32.691  32.074  1.00  0.00    -0.248 NA
ATOM     33  C   UNL A   1      40.034  33.940  30.103  1.00  0.00     0.031 C 
ATOM     34  C   UNL A   1      44.936  32.056  31.958  1.00  0.00     0.029 A 
ATOM     35  C   UNL A   1      43.742  32.734  31.722  1.00  0.00     0.049 A 
ATOM     36  H   UNL A   1      43.320  33.959  30.079  1.00  0.00     0.167 HD
ATOM     37  C   UNL A   1      41.345  33.311  31.893  1.00  0.00     0.074 A 
ATOM     38  C   UNL A   1      41.151  34.221  30.777  1.00  0.00     0.031 C 
ATOM     39  C   UNL A   1      42.478  32.770  32.421  1.00  0.00     0.037 A 
BRANCH  26  40
ATOM     40  C   UNL A   1      44.723  33.846  27.565  1.00  0.00     0.064 A 
ATOM     41  C   UNL A   1      45.971  34.429  27.256  1.00  0.00     0.173 A 
ATOM     42  C   UNL A   1      43.606  34.700  27.448  1.00  0.00     0.173 A 
ATOM     43  F   UNL A   1      47.101  33.711  27.346  1.00  0.00    -0.203 F 
ATOM     44  C   UNL A   1      46.098  35.789  26.956  1.00  0.00     0.198 A 
ATOM     45  C   UNL A   1      43.733  36.045  27.096  1.00  0.00     0.198 A 
ATOM     46  F   UNL A   1      42.372  34.307  27.787  1.00  0.00    -0.203 F 
ATOM     47  F   UNL A   1      47.316  36.328  26.813  1.00  0.00    -0.200 F 
ATOM     48  C   UNL A   1      44.979  36.597  26.888  1.00  0.00     0.200 A 
ATOM     49  F   UNL A   1      42.639  36.820  27.053  1.00  0.00    -0.200 F 
ATOM     50  F   UNL A   1      45.103  37.914  26.675  1.00  0.00    -0.200 F 
ENDBRANCH  26  40
BRANCH  27  51
ATOM     51  C   UNL A   1      37.045  32.439  30.248  1.00  0.00     0.064 A 
ATOM     52  C   UNL A   1      36.113  32.333  31.294  1.00  0.00     0.173 A 
ATOM     53  C   UNL A   1      36.647  33.203  29.133  1.00  0.00     0.173 A 
ATOM     54  F   UNL A   1      36.426  31.672  32.417  1.00  0.00    -0.203 F 
ATOM     55  C   UNL A   1      34.864  32.959  31.230  1.00  0.00     0.198 A 
ATOM     56  C   UNL A   1      35.392  33.807  29.061  1.00  0.00     0.198 A 
ATOM     57  F   UNL A   1      37.498  33.452  28.128  1.00  0.00    -0.203 F 
ATOM     58  F   UNL A   1      34.029  32.885  32.275  1.00  0.00    -0.200 F 
ATOM     59  C   UNL A   1      34.505  33.695  30.114  1.00  0.00     0.200 A 
ATOM     60  F   UNL A   1      35.071  34.543  27.987  1.00  0.00    -0.200 F 
ATOM     61  F   UNL A   1      33.325  34.329  30.070  1.00  0.00    -0.200 F 
ENDBRANCH  27  51
BRANCH  39  62
ATOM     62  C   UNL A   1      42.328  31.955  33.665  1.00  0.00     0.064 A 
ATOM     63  C   UNL A   1      42.330  32.489  34.962  1.00  0.00     0.173 A 
ATOM     64  C   UNL A   1      42.130  30.574  33.524  1.00  0.00     0.173 A 
ATOM     65  F   UNL A   1      42.415  33.811  35.164  1.00  0.00    -0.203 F 
ATOM     66  C   UNL A   1      42.213  31.659  36.075  1.00  0.00     0.198 A 
ATOM     67  C   UNL A   1      41.973  29.754  34.637  1.00  0.00     0.198 A 
ATOM     68  F   UNL A   1      42.066  30.023  32.302  1.00  0.00    -0.203 F 
ATOM     69  F   UNL A   1      42.258  32.182  37.308  1.00  0.00    -0.200 F 
ATOM     70  C   UNL A   1      42.033  30.294  35.911  1.00  0.00     0.200 A 
ATOM     71  F   UNL A   1      41.753  28.442  34.472  1.00  0.00    -0.200 F 
ATOM     72  F   UNL A   1      41.898  29.500  36.983  1.00  0.00    -0.200 F 
ENDBRANCH  39  62
ENDBRANCH  13  14
ENDBRANCH   6   8
ENDBRANCH   3   4
ENDBRANCH   2   3
ENDBRANCH   1   2
BRANCH   1  73
ATOM     73  C   UNL A   1      37.094  22.654  24.666  1.00  0.00     0.116 C 
BRANCH  73  74
ATOM     74  N   UNL A   1      35.978  23.399  25.225  1.00  0.00    -0.354 N 
ATOM     75  C   UNL A   1      34.870  22.837  25.805  1.00  0.00     0.243 C 
ATOM     76  H   UNL A   1      36.021  24.381  25.186  1.00  0.00     0.163 HD
ATOM     77  O   UNL A   1      34.497  23.315  26.875  1.00  0.00    -0.273 OA
BRANCH  75  78
ATOM     78  C   UNL A   1      34.217  21.619  25.139  1.00  0.00     0.182 C 
ATOM     79  C   UNL A   1      33.795  20.709  26.330  1.00  0.00     0.091 C 
ATOM     80  N   UNL A   1      33.101  21.738  24.140  1.00  0.00    -0.306 N 
ATOM     81  C   UNL A   1      33.156  19.497  25.784  1.00  0.00     0.042 A 
ATOM     82  C   UNL A   1      32.693  20.470  23.487  1.00  0.00     0.180 C 
ATOM     83  N   UNL A   1      32.903  18.314  26.405  1.00  0.00    -0.348 N 
ATOM     84  C   UNL A   1      32.654  19.379  24.509  1.00  0.00     0.081 A 
ATOM     85  C   UNL A   1      32.291  17.513  25.477  1.00  0.00     0.197 A 
ATOM     86  H   UNL A   1      33.118  18.079  27.337  1.00  0.00     0.167 HD
ATOM     87  N   UNL A   1      32.138  18.125  24.320  1.00  0.00    -0.240 NA
BRANCH  80  88
ATOM     88  C   UNL A   1      32.663  22.893  23.521  1.00  0.00     0.321 C 
ATOM     89  O   UNL A   1      32.777  23.090  22.312  1.00  0.00    -0.248 OA
BRANCH  88  90
ATOM     90  N   UNL A   1      31.932  23.759  24.306  1.00  0.00    -0.322 N 
ATOM     91  C   UNL A   1      31.344  24.919  23.653  1.00  0.00     0.121 C 
ATOM     92  C   UNL A   1      31.028  23.098  25.249  1.00  0.00     0.153 C 
ATOM     93  C   UNL A   1      30.846  25.955  24.658  1.00  0.00     0.024 C 
ATOM     94  C   UNL A   1      30.541  24.050  26.344  1.00  0.00     0.134 C 
ATOM     95  C   UNL A   1      29.972  25.348  25.761  1.00  0.00     0.035 C 
BRANCH  94  96
ATOM     96  O   UNL A   1      31.602  24.347  27.251  1.00  0.00    -0.391 OA
ATOM     97  H   UNL A   1      31.334  24.104  28.151  1.00  0.00     0.211 HD
ENDBRANCH  94  96
ENDBRANCH  88  90
ENDBRANCH  80  88
ENDBRANCH  75  78
ENDBRANCH  73  74
ENDBRANCH   1  73
TORSDOF 14
ENDMDL
