MODEL 1
REMARK VINA RESULT:     -12.9      0.000      0.000
REMARK SMILES CC(C)c1ccc(C(=O)N2CCC[C@@H](C(=O)NCCCCNC(=O)c3ccc(-c4c5nc(c(-c6c(F)c(F)c(F)c(F)c6F)c6ccc([nH]6)c(-c6c(F)c(F)c(F)c(F)c6F)c6nc(c(-c7c(F)c(F)c(F)c(F)c7F)c7ccc4[nH]7)C=C6)C=C5)cc3)C2)cc1
REMARK SMILES IDX 19 1 18 2 17 3 15 4 16 5 14 7 10 8 11 9 88 10 12 11 13 12
REMARK SMILES IDX 8 13 9 14 7 15 4 16 5 17 90 18 6 19 89 20 2 21 1 22 3 23
REMARK SMILES IDX 20 24 21 25 22 26 23 27 24 29 25 30 26 31 87 32 27 33 86 34
REMARK SMILES IDX 28 35 29 36 30 37 80 38 31 39 85 40 79 41 81 42 32 43 84 44
REMARK SMILES IDX 78 45 77 46 33 48 65 49 45 50 64 51 46 52 49 53 63 54 82 55
REMARK SMILES IDX 47 56 48 57 62 59 83 60 50 61 34 62 35 63 43 64 36 65 37 66
REMARK SMILES IDX 41 67 44 68 38 69 39 70 42 71 40 72 66 73 67 74 75 75 68 76
REMARK SMILES IDX 69 77 73 78 76 79 70 80 71 81 74 82 72 83 51 84 52 85 60 86
REMARK SMILES IDX 53 87 54 88 58 89 61 90 55 91 56 92 59 93 57 94
REMARK H PARENT 17 6 22 28 81 47 49 58
REMARK Flexibility Score: inf
ROOT
ATOM      1  C   UNL A   1      31.854  30.536  26.887  1.00  0.00     0.023 C 
ENDROOT
BRANCH   1   2
ATOM      2  C   UNL A   1      32.295  29.954  25.543  1.00  0.00     0.116 C 
BRANCH   2   3
ATOM      3  N   UNL A   1      31.188  29.870  24.609  1.00  0.00    -0.356 N 
ATOM      4  C   UNL A   1      30.680  28.885  23.832  1.00  0.00     0.224 C 
ATOM      5  O   UNL A   1      29.743  29.233  23.099  1.00  0.00    -0.275 OA
ATOM      6  H   UNL A   1      30.697  30.718  24.522  1.00  0.00     0.163 HD
BRANCH   4   7
ATOM      7  C   UNL A   1      31.150  27.424  23.794  1.00  0.00     0.098 C 
ATOM      8  N   UNL A   1      30.624  25.242  24.926  1.00  0.00    -0.338 N 
ATOM      9  C   UNL A   1      30.527  24.539  23.665  1.00  0.00     0.120 C 
ATOM     10  C   UNL A   1      30.398  26.687  24.925  1.00  0.00     0.133 C 
ATOM     11  C   UNL A   1      31.430  25.178  22.631  1.00  0.00     0.022 C 
ATOM     12  C   UNL A   1      31.073  26.652  22.476  1.00  0.00     0.017 C 
BRANCH   8  13
ATOM     13  C   UNL A   1      31.256  24.597  25.978  1.00  0.00     0.253 C 
ATOM     14  O   UNL A   1      30.750  24.515  27.093  1.00  0.00    -0.269 OA
BRANCH  13  15
ATOM     15  C   UNL A   1      32.689  24.228  25.760  1.00  0.00     0.040 A 
ATOM     16  C   UNL A   1      35.358  23.631  25.060  1.00  0.00    -0.045 A 
ATOM     17  C   UNL A   1      34.941  24.960  25.215  1.00  0.00     0.005 A 
ATOM     18  C   UNL A   1      34.426  22.606  25.272  1.00  0.00     0.005 A 
ATOM     19  C   UNL A   1      33.619  25.255  25.566  1.00  0.00     0.014 A 
ATOM     20  C   UNL A   1      33.105  22.900  25.613  1.00  0.00     0.014 A 
BRANCH  16  21
ATOM     21  C   UNL A   1      36.785  23.322  24.646  1.00  0.00     0.013 C 
ATOM     22  C   UNL A   1      37.421  22.267  25.555  1.00  0.00     0.012 C 
ATOM     23  C   UNL A   1      36.850  22.888  23.178  1.00  0.00     0.012 C 
ENDBRANCH  16  21
ENDBRANCH  13  15
ENDBRANCH   8  13
ENDBRANCH   4   7
ENDBRANCH   2   3
ENDBRANCH   1   2
BRANCH   1  24
ATOM     24  C   UNL A   1      31.602  32.047  26.867  1.00  0.00     0.023 C 
BRANCH  24  25
ATOM     25  C   UNL A   1      32.808  32.917  27.219  1.00  0.00     0.116 C 
BRANCH  25  26
ATOM     26  N   UNL A   1      32.457  34.269  27.627  1.00  0.00    -0.352 N 
ATOM     27  C   UNL A   1      33.010  35.042  28.616  1.00  0.00     0.251 C 
ATOM     28  H   UNL A   1      31.721  34.686  27.123  1.00  0.00     0.163 HD
ATOM     29  O   UNL A   1      32.524  36.136  28.888  1.00  0.00    -0.269 OA
BRANCH  27  30
ATOM     30  C   UNL A   1      34.163  34.534  29.388  1.00  0.00     0.039 A 
ATOM     31  C   UNL A   1      33.923  33.947  30.633  1.00  0.00     0.014 A 
ATOM     32  C   UNL A   1      35.463  34.612  28.885  1.00  0.00     0.014 A 
ATOM     33  C   UNL A   1      34.979  33.372  31.338  1.00  0.00     0.010 A 
ATOM     34  C   UNL A   1      36.505  33.976  29.555  1.00  0.00     0.010 A 
ATOM     35  C   UNL A   1      36.271  33.345  30.786  1.00  0.00    -0.014 A 
BRANCH  35  36
ATOM     36  C   UNL A   1      37.369  32.625  31.478  1.00  0.00     0.031 A 
ATOM     37  C   UNL A   1      38.053  31.458  30.826  1.00  0.00     0.074 A 
ATOM     38  C   UNL A   1      37.717  33.004  32.722  1.00  0.00     0.049 A 
ATOM     39  N   UNL A   1      39.045  30.729  31.271  1.00  0.00    -0.248 NA
ATOM     40  C   UNL A   1      37.539  31.034  29.515  1.00  0.00     0.031 C 
ATOM     41  C   UNL A   1      37.074  34.072  33.490  1.00  0.00     0.029 A 
ATOM     42  N   UNL A   1      38.697  32.537  33.562  1.00  0.00    -0.354 N 
ATOM     43  C   UNL A   1      39.270  29.763  30.301  1.00  0.00     0.074 A 
ATOM     44  C   UNL A   1      38.273  29.959  29.270  1.00  0.00     0.031 C 
ATOM     45  C   UNL A   1      37.698  34.203  34.670  1.00  0.00     0.029 A 
ATOM     46  C   UNL A   1      38.766  33.212  34.755  1.00  0.00     0.049 A 
ATOM     47  H   UNL A   1      39.293  31.788  33.330  1.00  0.00     0.167 HD
ATOM     48  C   UNL A   1      40.238  28.815  30.261  1.00  0.00     0.037 A 
ATOM     49  C   UNL A   1      39.603  33.054  35.799  1.00  0.00     0.037 A 
ATOM     50  C   UNL A   1      41.238  28.637  31.280  1.00  0.00     0.049 A 
ATOM     51  C   UNL A   1      40.681  32.009  35.719  1.00  0.00     0.074 A 
ATOM     52  C   UNL A   1      42.307  27.757  31.298  1.00  0.00     0.029 A 
ATOM     53  N   UNL A   1      41.289  29.349  32.470  1.00  0.00    -0.354 N 
ATOM     54  N   UNL A   1      40.947  31.166  34.751  1.00  0.00    -0.248 NA
ATOM     55  C   UNL A   1      41.585  31.904  36.873  1.00  0.00     0.031 C 
ATOM     56  C   UNL A   1      42.974  27.903  32.519  1.00  0.00     0.029 A 
ATOM     57  C   UNL A   1      42.354  28.910  33.242  1.00  0.00     0.049 A 
ATOM     58  H   UNL A   1      40.661  30.062  32.728  1.00  0.00     0.167 HD
ATOM     59  C   UNL A   1      42.056  30.443  35.168  1.00  0.00     0.074 A 
ATOM     60  C   UNL A   1      42.429  30.966  36.467  1.00  0.00     0.031 C 
ATOM     61  C   UNL A   1      42.705  29.434  34.537  1.00  0.00     0.037 A 
BRANCH  48  62
ATOM     62  C   UNL A   1      40.264  27.900  29.069  1.00  0.00     0.064 A 
ATOM     63  C   UNL A   1      39.541  26.697  29.050  1.00  0.00     0.173 A 
ATOM     64  C   UNL A   1      40.991  28.246  27.921  1.00  0.00     0.173 A 
ATOM     65  F   UNL A   1      38.838  26.314  30.127  1.00  0.00    -0.203 F 
ATOM     66  C   UNL A   1      39.570  25.861  27.937  1.00  0.00     0.198 A 
ATOM     67  C   UNL A   1      40.993  27.422  26.798  1.00  0.00     0.198 A 
ATOM     68  F   UNL A   1      41.696  29.387  27.883  1.00  0.00    -0.203 F 
ATOM     69  F   UNL A   1      38.912  24.693  27.961  1.00  0.00    -0.200 F 
ATOM     70  C   UNL A   1      40.290  26.226  26.810  1.00  0.00     0.200 A 
ATOM     71  F   UNL A   1      41.679  27.783  25.704  1.00  0.00    -0.200 F 
ATOM     72  F   UNL A   1      40.310  25.424  25.737  1.00  0.00    -0.200 F 
ENDBRANCH  48  62
BRANCH  49  73
ATOM     73  C   UNL A   1      39.476  33.935  36.988  1.00  0.00     0.064 A 
ATOM     74  C   UNL A   1      38.742  33.529  38.110  1.00  0.00     0.173 A 
ATOM     75  C   UNL A   1      40.090  35.195  37.030  1.00  0.00     0.173 A 
ATOM     76  F   UNL A   1      38.122  32.340  38.111  1.00  0.00    -0.203 F 
ATOM     77  C   UNL A   1      38.609  34.357  39.222  1.00  0.00     0.198 A 
ATOM     78  C   UNL A   1      39.980  36.011  38.154  1.00  0.00     0.198 A 
ATOM     79  F   UNL A   1      40.811  35.627  35.986  1.00  0.00    -0.203 F 
ATOM     80  F   UNL A   1      37.864  33.962  40.265  1.00  0.00    -0.200 F 
ATOM     81  C   UNL A   1      39.233  35.596  39.246  1.00  0.00     0.200 A 
ATOM     82  F   UNL A   1      40.598  37.200  38.180  1.00  0.00    -0.200 F 
ATOM     83  F   UNL A   1      39.111  36.390  40.319  1.00  0.00    -0.200 F 
ENDBRANCH  49  73
BRANCH  61  84
ATOM     84  C   UNL A   1      43.891  28.841  35.240  1.00  0.00     0.064 A 
ATOM     85  C   UNL A   1      45.190  29.329  35.028  1.00  0.00     0.173 A 
ATOM     86  C   UNL A   1      43.727  27.784  36.149  1.00  0.00     0.173 A 
ATOM     87  F   UNL A   1      45.401  30.327  34.156  1.00  0.00    -0.203 F 
ATOM     88  C   UNL A   1      46.283  28.759  35.674  1.00  0.00     0.198 A 
ATOM     89  C   UNL A   1      44.819  27.239  36.818  1.00  0.00     0.198 A 
ATOM     90  F   UNL A   1      42.506  27.285  36.393  1.00  0.00    -0.203 F 
ATOM     91  F   UNL A   1      47.520  29.204  35.411  1.00  0.00    -0.200 F 
ATOM     92  C   UNL A   1      46.096  27.719  36.572  1.00  0.00     0.200 A 
ATOM     93  F   UNL A   1      44.635  26.243  37.695  1.00  0.00    -0.200 F 
ATOM     94  F   UNL A   1      47.150  27.173  37.195  1.00  0.00    -0.200 F 
ENDBRANCH  61  84
ENDBRANCH  35  36
ENDBRANCH  27  30
ENDBRANCH  25  26
ENDBRANCH  24  25
ENDBRANCH   1  24
TORSDOF 14
ENDMDL
MODEL 2
REMARK VINA RESULT:     -12.9      0.236      1.638
REMARK SMILES CC(C)c1ccc(C(=O)N2CCC[C@@H](C(=O)NCCCCNC(=O)c3ccc(-c4c5nc(c(-c6c(F)c(F)c(F)c(F)c6F)c6ccc([nH]6)c(-c6c(F)c(F)c(F)c(F)c6F)c6nc(c(-c7c(F)c(F)c(F)c(F)c7F)c7ccc4[nH]7)C=C6)C=C5)cc3)C2)cc1
REMARK SMILES IDX 19 1 18 2 17 3 15 4 16 5 14 7 10 8 11 9 88 10 12 11 13 12
REMARK SMILES IDX 8 13 9 14 7 15 4 16 5 17 90 18 6 19 89 20 2 21 1 22 3 23
REMARK SMILES IDX 20 24 21 25 22 26 23 27 24 29 25 30 26 31 87 32 27 33 86 34
REMARK SMILES IDX 28 35 29 36 30 37 80 38 31 39 85 40 79 41 81 42 32 43 84 44
REMARK SMILES IDX 78 45 77 46 33 48 65 49 45 50 64 51 46 52 49 53 63 54 82 55
REMARK SMILES IDX 47 56 48 57 62 59 83 60 50 61 34 62 35 63 43 64 36 65 37 66
REMARK SMILES IDX 41 67 44 68 38 69 39 70 42 71 40 72 66 73 67 74 75 75 68 76
REMARK SMILES IDX 69 77 73 78 76 79 70 80 71 81 74 82 72 83 51 84 52 85 60 86
REMARK SMILES IDX 53 87 54 88 58 89 61 90 55 91 56 92 59 93 57 94
REMARK H PARENT 17 6 22 28 81 47 49 58
REMARK Flexibility Score: inf
ROOT
ATOM      1  C   UNL A   1      31.762  30.496  26.867  1.00  0.00     0.023 C 
ENDROOT
BRANCH   1   2
ATOM      2  C   UNL A   1      32.288  29.870  25.575  1.00  0.00     0.116 C 
BRANCH   2   3
ATOM      3  N   UNL A   1      31.283  29.878  24.530  1.00  0.00    -0.356 N 
ATOM      4  C   UNL A   1      30.798  28.945  23.677  1.00  0.00     0.224 C 
ATOM      5  O   UNL A   1      29.968  29.370  22.861  1.00  0.00    -0.275 OA
ATOM      6  H   UNL A   1      30.860  30.759  24.415  1.00  0.00     0.163 HD
BRANCH   4   7
ATOM      7  C   UNL A   1      31.176  27.458  23.648  1.00  0.00     0.098 C 
ATOM      8  N   UNL A   1      30.427  25.300  24.700  1.00  0.00    -0.338 N 
ATOM      9  C   UNL A   1      30.381  24.621  23.423  1.00  0.00     0.120 C 
ATOM     10  C   UNL A   1      30.294  26.756  24.707  1.00  0.00     0.133 C 
ATOM     11  C   UNL A   1      31.398  25.214  22.471  1.00  0.00     0.022 C 
ATOM     12  C   UNL A   1      31.148  26.709  22.315  1.00  0.00     0.017 C 
BRANCH   8  13
ATOM     13  C   UNL A   1      30.936  24.602  25.784  1.00  0.00     0.253 C 
ATOM     14  O   UNL A   1      30.365  24.575  26.870  1.00  0.00    -0.269 OA
BRANCH  13  15
ATOM     15  C   UNL A   1      32.336  24.094  25.644  1.00  0.00     0.040 A 
ATOM     16  C   UNL A   1      34.979  23.264  25.101  1.00  0.00    -0.045 A 
ATOM     17  C   UNL A   1      34.692  24.612  25.356  1.00  0.00     0.005 A 
ATOM     18  C   UNL A   1      33.928  22.337  25.132  1.00  0.00     0.005 A 
ATOM     19  C   UNL A   1      33.383  25.022  25.630  1.00  0.00     0.014 A 
ATOM     20  C   UNL A   1      32.621  22.747  25.396  1.00  0.00     0.014 A 
BRANCH  16  21
ATOM     21  C   UNL A   1      36.397  22.835  24.771  1.00  0.00     0.013 C 
ATOM     22  C   UNL A   1      36.657  22.855  23.263  1.00  0.00     0.012 C 
ATOM     23  C   UNL A   1      37.420  23.700  25.513  1.00  0.00     0.012 C 
ENDBRANCH  16  21
ENDBRANCH  13  15
ENDBRANCH   8  13
ENDBRANCH   4   7
ENDBRANCH   2   3
ENDBRANCH   1   2
BRANCH   1  24
ATOM     24  C   UNL A   1      31.574  32.015  26.801  1.00  0.00     0.023 C 
BRANCH  24  25
ATOM     25  C   UNL A   1      32.776  32.845  27.251  1.00  0.00     0.116 C 
BRANCH  25  26
ATOM     26  N   UNL A   1      32.439  34.208  27.629  1.00  0.00    -0.352 N 
ATOM     27  C   UNL A   1      33.004  34.999  28.598  1.00  0.00     0.251 C 
ATOM     28  H   UNL A   1      31.703  34.620  27.120  1.00  0.00     0.163 HD
ATOM     29  O   UNL A   1      32.529  36.103  28.848  1.00  0.00    -0.269 OA
BRANCH  27  30
ATOM     30  C   UNL A   1      34.157  34.498  29.374  1.00  0.00     0.039 A 
ATOM     31  C   UNL A   1      33.917  33.919  30.623  1.00  0.00     0.014 A 
ATOM     32  C   UNL A   1      35.458  34.575  28.872  1.00  0.00     0.014 A 
ATOM     33  C   UNL A   1      34.974  33.352  31.333  1.00  0.00     0.010 A 
ATOM     34  C   UNL A   1      36.500  33.946  29.548  1.00  0.00     0.010 A 
ATOM     35  C   UNL A   1      36.266  33.323  30.783  1.00  0.00    -0.014 A 
BRANCH  35  36
ATOM     36  C   UNL A   1      37.365  32.610  31.481  1.00  0.00     0.031 A 
ATOM     37  C   UNL A   1      38.061  31.447  30.832  1.00  0.00     0.074 A 
ATOM     38  C   UNL A   1      37.703  32.990  32.727  1.00  0.00     0.049 A 
ATOM     39  N   UNL A   1      39.055  30.725  31.282  1.00  0.00    -0.248 NA
ATOM     40  C   UNL A   1      37.557  31.021  29.518  1.00  0.00     0.031 C 
ATOM     41  C   UNL A   1      37.048  34.054  33.492  1.00  0.00     0.029 A 
ATOM     42  N   UNL A   1      38.681  32.529  33.573  1.00  0.00    -0.354 N 
ATOM     43  C   UNL A   1      39.292  29.761  30.313  1.00  0.00     0.074 A 
ATOM     44  C   UNL A   1      38.300  29.951  29.277  1.00  0.00     0.031 C 
ATOM     45  C   UNL A   1      37.665  34.188  34.676  1.00  0.00     0.029 A 
ATOM     46  C   UNL A   1      38.739  33.204  34.767  1.00  0.00     0.049 A 
ATOM     47  H   UNL A   1      39.284  31.784  33.344  1.00  0.00     0.167 HD
ATOM     48  C   UNL A   1      40.266  28.820  30.278  1.00  0.00     0.037 A 
ATOM     49  C   UNL A   1      39.570  33.051  35.815  1.00  0.00     0.037 A 
ATOM     50  C   UNL A   1      41.262  28.648  31.303  1.00  0.00     0.049 A 
ATOM     51  C   UNL A   1      40.656  32.014  35.741  1.00  0.00     0.074 A 
ATOM     52  C   UNL A   1      42.337  27.775  31.327  1.00  0.00     0.029 A 
ATOM     53  N   UNL A   1      41.301  29.360  32.494  1.00  0.00    -0.354 N 
ATOM     54  N   UNL A   1      40.933  31.173  34.774  1.00  0.00    -0.248 NA
ATOM     55  C   UNL A   1      41.553  31.914  36.901  1.00  0.00     0.031 C 
ATOM     56  C   UNL A   1      42.995  27.925  32.553  1.00  0.00     0.029 A 
ATOM     57  C   UNL A   1      42.364  28.927  33.272  1.00  0.00     0.049 A 
ATOM     58  H   UNL A   1      40.666  30.068  32.749  1.00  0.00     0.167 HD
ATOM     59  C   UNL A   1      42.045  30.457  35.198  1.00  0.00     0.074 A 
ATOM     60  C   UNL A   1      42.406  30.982  36.499  1.00  0.00     0.031 C 
ATOM     61  C   UNL A   1      42.704  29.453  34.570  1.00  0.00     0.037 A 
BRANCH  48  62
ATOM     62  C   UNL A   1      40.306  27.906  29.086  1.00  0.00     0.064 A 
ATOM     63  C   UNL A   1      41.049  28.226  27.939  1.00  0.00     0.173 A 
ATOM     64  C   UNL A   1      39.624  26.681  29.104  1.00  0.00     0.173 A 
ATOM     65  F   UNL A   1      41.711  29.391  27.866  1.00  0.00    -0.203 F 
ATOM     66  C   UNL A   1      41.082  27.368  26.843  1.00  0.00     0.198 A 
ATOM     67  C   UNL A   1      39.684  25.810  28.018  1.00  0.00     0.198 A 
ATOM     68  F   UNL A   1      38.904  26.323  30.178  1.00  0.00    -0.203 F 
ATOM     69  F   UNL A   1      41.756  27.719  25.739  1.00  0.00    -0.200 F 
ATOM     70  C   UNL A   1      40.406  26.158  26.886  1.00  0.00     0.200 A 
ATOM     71  F   UNL A   1      39.041  24.636  28.066  1.00  0.00    -0.200 F 
ATOM     72  F   UNL A   1      40.444  25.330  25.833  1.00  0.00    -0.200 F 
ENDBRANCH  48  62
BRANCH  49  73
ATOM     73  C   UNL A   1      39.431  33.931  37.004  1.00  0.00     0.064 A 
ATOM     74  C   UNL A   1      38.693  33.518  38.122  1.00  0.00     0.173 A 
ATOM     75  C   UNL A   1      40.034  35.196  37.050  1.00  0.00     0.173 A 
ATOM     76  F   UNL A   1      38.082  32.325  38.119  1.00  0.00    -0.203 F 
ATOM     77  C   UNL A   1      38.548  34.345  39.234  1.00  0.00     0.198 A 
ATOM     78  C   UNL A   1      39.913  36.010  38.174  1.00  0.00     0.198 A 
ATOM     79  F   UNL A   1      40.758  35.633  36.009  1.00  0.00    -0.203 F 
ATOM     80  F   UNL A   1      37.801  33.944  40.272  1.00  0.00    -0.200 F 
ATOM     81  C   UNL A   1      39.162  35.588  39.261  1.00  0.00     0.200 A 
ATOM     82  F   UNL A   1      40.521  37.203  38.203  1.00  0.00    -0.200 F 
ATOM     83  F   UNL A   1      39.029  36.381  40.334  1.00  0.00    -0.200 F 
ENDBRANCH  49  73
BRANCH  61  84
ATOM     84  C   UNL A   1      43.890  28.867  35.279  1.00  0.00     0.064 A 
ATOM     85  C   UNL A   1      43.753  27.794  36.173  1.00  0.00     0.173 A 
ATOM     86  C   UNL A   1      45.179  29.371  35.049  1.00  0.00     0.173 A 
ATOM     87  F   UNL A   1      42.540  27.287  36.439  1.00  0.00    -0.203 F 
ATOM     88  C   UNL A   1      44.859  27.270  36.836  1.00  0.00     0.198 A 
ATOM     89  C   UNL A   1      46.287  28.823  35.690  1.00  0.00     0.198 A 
ATOM     90  F   UNL A   1      45.365  30.391  34.199  1.00  0.00    -0.203 F 
ATOM     91  F   UNL A   1      44.697  26.284  37.729  1.00  0.00    -0.200 F 
ATOM     92  C   UNL A   1      46.125  27.781  36.589  1.00  0.00     0.200 A 
ATOM     93  F   UNL A   1      47.510  29.308  35.440  1.00  0.00    -0.200 F 
ATOM     94  F   UNL A   1      47.189  27.273  37.228  1.00  0.00    -0.200 F 
ENDBRANCH  61  84
ENDBRANCH  35  36
ENDBRANCH  27  30
ENDBRANCH  25  26
ENDBRANCH  24  25
ENDBRANCH   1  24
TORSDOF 14
ENDMDL
MODEL 3
REMARK VINA RESULT:     -12.9      5.810     11.328
REMARK SMILES CC(C)c1ccc(C(=O)N2CCC[C@@H](C(=O)NCCCCNC(=O)c3ccc(-c4c5nc(c(-c6c(F)c(F)c(F)c(F)c6F)c6ccc([nH]6)c(-c6c(F)c(F)c(F)c(F)c6F)c6nc(c(-c7c(F)c(F)c(F)c(F)c7F)c7ccc4[nH]7)C=C6)C=C5)cc3)C2)cc1
REMARK SMILES IDX 19 1 18 2 17 3 15 4 16 5 14 7 10 8 11 9 88 10 12 11 13 12
REMARK SMILES IDX 8 13 9 14 7 15 4 16 5 17 90 18 6 19 89 20 2 21 1 22 3 23
REMARK SMILES IDX 20 24 21 25 22 26 23 27 24 29 25 30 26 31 87 32 27 33 86 34
REMARK SMILES IDX 28 35 29 36 30 37 80 38 31 39 85 40 79 41 81 42 32 43 84 44
REMARK SMILES IDX 78 45 77 46 33 48 65 49 45 50 64 51 46 52 49 53 63 54 82 55
REMARK SMILES IDX 47 56 48 57 62 59 83 60 50 61 34 62 35 63 43 64 36 65 37 66
REMARK SMILES IDX 41 67 44 68 38 69 39 70 42 71 40 72 66 73 67 74 75 75 68 76
REMARK SMILES IDX 69 77 73 78 76 79 70 80 71 81 74 82 72 83 51 84 52 85 60 86
REMARK SMILES IDX 53 87 54 88 58 89 61 90 55 91 56 92 59 93 57 94
REMARK H PARENT 17 6 22 28 81 47 49 58
REMARK Flexibility Score: inf
ROOT
ATOM      1  C   UNL A   1      37.403  21.034  24.636  1.00  0.00     0.023 C 
ENDROOT
BRANCH   1   2
ATOM      2  C   UNL A   1      36.233  21.272  25.590  1.00  0.00     0.116 C 
BRANCH   2   3
ATOM      3  N   UNL A   1      35.145  20.344  25.345  1.00  0.00    -0.356 N 
ATOM      4  C   UNL A   1      33.822  20.483  25.097  1.00  0.00     0.224 C 
ATOM      5  O   UNL A   1      33.196  19.418  25.008  1.00  0.00    -0.275 OA
ATOM      6  H   UNL A   1      35.435  19.404  25.361  1.00  0.00     0.163 HD
BRANCH   4   7
ATOM      7  C   UNL A   1      33.066  21.807  24.918  1.00  0.00     0.098 C 
ATOM      8  N   UNL A   1      32.458  23.398  23.068  1.00  0.00    -0.338 N 
ATOM      9  C   UNL A   1      31.069  23.437  23.473  1.00  0.00     0.120 C 
ATOM     10  C   UNL A   1      33.248  22.225  23.441  1.00  0.00     0.133 C 
ATOM     11  C   UNL A   1      30.946  23.213  24.965  1.00  0.00     0.022 C 
ATOM     12  C   UNL A   1      31.599  21.889  25.344  1.00  0.00     0.017 C 
BRANCH   8  13
ATOM     13  C   UNL A   1      33.049  24.588  22.673  1.00  0.00     0.253 C 
ATOM     14  O   UNL A   1      33.659  24.695  21.613  1.00  0.00    -0.269 OA
BRANCH  13  15
ATOM     15  C   UNL A   1      33.126  25.663  23.711  1.00  0.00     0.040 A 
ATOM     16  C   UNL A   1      33.114  27.502  25.852  1.00  0.00    -0.045 A 
ATOM     17  C   UNL A   1      33.911  26.350  25.904  1.00  0.00     0.005 A 
ATOM     18  C   UNL A   1      32.334  27.726  24.710  1.00  0.00     0.005 A 
ATOM     19  C   UNL A   1      33.920  25.441  24.841  1.00  0.00     0.014 A 
ATOM     20  C   UNL A   1      32.335  26.815  23.653  1.00  0.00     0.014 A 
BRANCH  16  21
ATOM     21  C   UNL A   1      33.086  28.464  27.026  1.00  0.00     0.013 C 
ATOM     22  C   UNL A   1      33.543  29.867  26.617  1.00  0.00     0.012 C 
ATOM     23  C   UNL A   1      31.696  28.509  27.666  1.00  0.00     0.012 C 
ENDBRANCH  16  21
ENDBRANCH  13  15
ENDBRANCH   8  13
ENDBRANCH   4   7
ENDBRANCH   2   3
ENDBRANCH   1   2
BRANCH   1  24
ATOM     24  C   UNL A   1      38.255  19.806  24.977  1.00  0.00     0.023 C 
BRANCH  24  25
ATOM     25  C   UNL A   1      39.418  20.060  25.934  1.00  0.00     0.116 C 
BRANCH  25  26
ATOM     26  N   UNL A   1      40.422  19.008  25.930  1.00  0.00    -0.352 N 
ATOM     27  C   UNL A   1      41.780  19.112  26.096  1.00  0.00     0.251 C 
ATOM     28  H   UNL A   1      40.079  18.096  25.789  1.00  0.00     0.163 HD
ATOM     29  O   UNL A   1      42.494  18.121  25.969  1.00  0.00    -0.269 OA
BRANCH  27  30
ATOM     30  C   UNL A   1      42.388  20.428  26.378  1.00  0.00     0.039 A 
ATOM     31  C   UNL A   1      42.925  21.154  25.313  1.00  0.00     0.014 A 
ATOM     32  C   UNL A   1      42.408  20.955  27.672  1.00  0.00     0.014 A 
ATOM     33  C   UNL A   1      43.417  22.440  25.535  1.00  0.00     0.010 A 
ATOM     34  C   UNL A   1      42.833  22.265  27.880  1.00  0.00     0.010 A 
ATOM     35  C   UNL A   1      43.336  23.021  26.812  1.00  0.00    -0.014 A 
BRANCH  35  36
ATOM     36  C   UNL A   1      43.743  24.433  27.022  1.00  0.00     0.031 A 
ATOM     37  C   UNL A   1      42.754  25.455  27.503  1.00  0.00     0.074 A 
ATOM     38  C   UNL A   1      45.006  24.799  26.732  1.00  0.00     0.049 A 
ATOM     39  N   UNL A   1      42.939  26.724  27.766  1.00  0.00    -0.248 NA
ATOM     40  C   UNL A   1      41.367  25.001  27.688  1.00  0.00     0.031 C 
ATOM     41  C   UNL A   1      46.037  23.915  26.184  1.00  0.00     0.029 A 
ATOM     42  N   UNL A   1      45.641  26.009  26.857  1.00  0.00    -0.354 N 
ATOM     43  C   UNL A   1      41.698  27.218  28.141  1.00  0.00     0.074 A 
ATOM     44  C   UNL A   1      40.754  26.129  28.015  1.00  0.00     0.031 C 
ATOM     45  C   UNL A   1      47.182  24.601  26.055  1.00  0.00     0.029 A 
ATOM     46  C   UNL A   1      46.962  25.979  26.484  1.00  0.00     0.049 A 
ATOM     47  H   UNL A   1      45.192  26.823  27.184  1.00  0.00     0.167 HD
ATOM     48  C   UNL A   1      41.381  28.461  28.578  1.00  0.00     0.037 A 
ATOM     49  C   UNL A   1      47.894  26.951  26.494  1.00  0.00     0.037 A 
ATOM     50  C   UNL A   1      42.328  29.536  28.718  1.00  0.00     0.049 A 
ATOM     51  C   UNL A   1      47.520  28.316  27.003  1.00  0.00     0.074 A 
ATOM     52  C   UNL A   1      42.123  30.809  29.223  1.00  0.00     0.029 A 
ATOM     53  N   UNL A   1      43.663  29.466  28.345  1.00  0.00    -0.354 N 
ATOM     54  N   UNL A   1      46.365  28.744  27.450  1.00  0.00    -0.248 NA
ATOM     55  C   UNL A   1      48.585  29.328  27.020  1.00  0.00     0.031 C 
ATOM     56  C   UNL A   1      43.321  31.523  29.109  1.00  0.00     0.029 A 
ATOM     57  C   UNL A   1      44.287  30.681  28.582  1.00  0.00     0.049 A 
ATOM     58  H   UNL A   1      44.102  28.669  27.968  1.00  0.00     0.167 HD
ATOM     59  C   UNL A   1      46.566  30.068  27.819  1.00  0.00     0.074 A 
ATOM     60  C   UNL A   1      47.962  30.362  27.567  1.00  0.00     0.031 C 
ATOM     61  C   UNL A   1      45.675  30.960  28.316  1.00  0.00     0.037 A 
BRANCH  48  62
ATOM     62  C   UNL A   1      39.946  28.724  28.941  1.00  0.00     0.064 A 
ATOM     63  C   UNL A   1      39.025  29.204  27.997  1.00  0.00     0.173 A 
ATOM     64  C   UNL A   1      39.480  28.460  30.237  1.00  0.00     0.173 A 
ATOM     65  F   UNL A   1      39.423  29.483  26.746  1.00  0.00    -0.203 F 
ATOM     66  C   UNL A   1      37.697  29.438  28.345  1.00  0.00     0.198 A 
ATOM     67  C   UNL A   1      38.144  28.666  30.573  1.00  0.00     0.198 A 
ATOM     68  F   UNL A   1      40.316  27.995  31.176  1.00  0.00    -0.203 F 
ATOM     69  F   UNL A   1      36.848  29.945  27.440  1.00  0.00    -0.200 F 
ATOM     70  C   UNL A   1      37.256  29.163  29.630  1.00  0.00     0.200 A 
ATOM     71  F   UNL A   1      37.715  28.388  31.812  1.00  0.00    -0.200 F 
ATOM     72  F   UNL A   1      35.976  29.382  29.962  1.00  0.00    -0.200 F 
ENDBRANCH  48  62
BRANCH  49  73
ATOM     73  C   UNL A   1      49.278  26.654  26.044  1.00  0.00     0.064 A 
ATOM     74  C   UNL A   1      49.684  26.934  24.732  1.00  0.00     0.173 A 
ATOM     75  C   UNL A   1      50.222  26.090  26.914  1.00  0.00     0.173 A 
ATOM     76  F   UNL A   1      48.812  27.457  23.858  1.00  0.00    -0.203 F 
ATOM     77  C   UNL A   1      50.977  26.645  24.302  1.00  0.00     0.198 A 
ATOM     78  C   UNL A   1      51.523  25.828  26.491  1.00  0.00     0.198 A 
ATOM     79  F   UNL A   1      49.885  25.811  28.181  1.00  0.00    -0.203 F 
ATOM     80  F   UNL A   1      51.327  26.883  23.030  1.00  0.00    -0.200 F 
ATOM     81  C   UNL A   1      51.898  26.096  25.183  1.00  0.00     0.200 A 
ATOM     82  F   UNL A   1      52.414  25.313  27.350  1.00  0.00    -0.200 F 
ATOM     83  F   UNL A   1      53.144  25.824  24.771  1.00  0.00    -0.200 F 
ENDBRANCH  49  73
BRANCH  61  84
ATOM     84  C   UNL A   1      46.190  32.334  28.631  1.00  0.00     0.064 A 
ATOM     85  C   UNL A   1      46.721  32.648  29.892  1.00  0.00     0.173 A 
ATOM     86  C   UNL A   1      46.170  33.345  27.657  1.00  0.00     0.173 A 
ATOM     87  F   UNL A   1      46.748  31.722  30.862  1.00  0.00    -0.203 F 
ATOM     88  C   UNL A   1      47.181  33.931  30.176  1.00  0.00     0.198 A 
ATOM     89  C   UNL A   1      46.660  34.617  27.935  1.00  0.00     0.198 A 
ATOM     90  F   UNL A   1      45.680  33.095  26.434  1.00  0.00    -0.203 F 
ATOM     91  F   UNL A   1      47.630  34.222  31.405  1.00  0.00    -0.200 F 
ATOM     92  C   UNL A   1      47.156  34.912  29.196  1.00  0.00     0.200 A 
ATOM     93  F   UNL A   1      46.648  35.560  26.983  1.00  0.00    -0.200 F 
ATOM     94  F   UNL A   1      47.600  36.147  29.471  1.00  0.00    -0.200 F 
ENDBRANCH  61  84
ENDBRANCH  35  36
ENDBRANCH  27  30
ENDBRANCH  25  26
ENDBRANCH  24  25
ENDBRANCH   1  24
TORSDOF 14
ENDMDL
