MODEL 1
REMARK VINA RESULT:     -12.6      0.000      0.000
REMARK SMILES O=C(Cc1ccc(NC(=O)Nc2ccc(Br)cc2)cc1)NCCCCNC(=O)c1ccc(-c2c3nc(c(-c4c(F)c(F)c(F)c(F)c4F)c4ccc([nH]4)c(-c4c(F)c(F)c(F)c(F)c4F)c4nc(c(-c5c(F)c(F)c(F)c(F)c5F)c5ccc2[nH]5)C=C4)C=C3)cc1
REMARK SMILES IDX 23 1 22 2 21 3 1 4 2 5 3 7 4 8 5 9 20 10 6 11 19 12 7 13
REMARK SMILES IDX 8 14 9 15 10 17 11 18 12 20 13 21 18 22 14 23 17 24 15 25
REMARK SMILES IDX 16 26 24 27 25 28 26 29 27 30 28 32 29 33 30 34 91 35 31 36
REMARK SMILES IDX 90 37 32 38 33 39 34 40 84 41 35 42 89 43 83 44 85 45 36 46
REMARK SMILES IDX 88 47 82 48 81 49 37 51 69 52 49 53 68 54 50 55 53 56 67 57
REMARK SMILES IDX 86 58 51 59 52 60 66 62 87 63 54 64 38 65 39 66 47 67 40 68
REMARK SMILES IDX 41 69 45 70 48 71 42 72 43 73 46 74 44 75 70 76 71 77 79 78
REMARK SMILES IDX 72 79 73 80 77 81 80 82 74 83 75 84 78 85 76 86 55 87 56 88
REMARK SMILES IDX 64 89 57 90 58 91 62 92 65 93 59 94 60 95 63 96 61 97
REMARK H PARENT 21 6 8 16 11 19 26 31 85 50 53 61
REMARK Flexibility Score: inf
ROOT
ATOM      1  C   UNL A   1      31.560  30.878  25.885  1.00  0.00     0.023 C 
ENDROOT
BRANCH   1   2
ATOM      2  C   UNL A   1      32.466  29.747  26.361  1.00  0.00     0.116 C 
BRANCH   2   3
ATOM      3  N   UNL A   1      32.054  28.423  25.930  1.00  0.00    -0.356 N 
ATOM      4  O   UNL A   1      31.174  27.831  27.975  1.00  0.00    -0.275 OA
ATOM      5  C   UNL A   1      31.308  27.611  26.775  1.00  0.00     0.224 C 
ATOM      6  H   UNL A   1      32.305  28.100  25.036  1.00  0.00     0.163 HD
BRANCH   5   7
ATOM      7  C   UNL A   1      30.584  26.467  26.080  1.00  0.00     0.135 C 
BRANCH   7   8
ATOM      8  C   UNL A   1      31.124  25.091  26.427  1.00  0.00    -0.039 A 
ATOM      9  C   UNL A   1      30.279  23.989  26.590  1.00  0.00     0.006 A 
ATOM     10  C   UNL A   1      32.509  24.871  26.475  1.00  0.00     0.006 A 
ATOM     11  C   UNL A   1      30.796  22.699  26.672  1.00  0.00     0.026 A 
ATOM     12  C   UNL A   1      33.027  23.569  26.542  1.00  0.00     0.026 A 
ATOM     13  C   UNL A   1      32.161  22.476  26.521  1.00  0.00     0.042 A 
BRANCH  13  14
ATOM     14  N   UNL A   1      32.692  21.194  26.279  1.00  0.00    -0.308 N 
ATOM     15  C   UNL A   1      32.546  20.374  25.198  1.00  0.00     0.323 C 
ATOM     16  H   UNL A   1      33.256  20.835  27.002  1.00  0.00     0.171 HD
ATOM     17  O   UNL A   1      32.694  19.159  25.340  1.00  0.00    -0.248 OA
ATOM     18  N   UNL A   1      32.224  20.862  23.965  1.00  0.00    -0.308 N 
ATOM     19  H   UNL A   1      31.722  20.240  23.391  1.00  0.00     0.171 HD
BRANCH  18  20
ATOM     20  C   UNL A   1      32.497  22.117  23.389  1.00  0.00     0.042 A 
ATOM     21  C   UNL A   1      31.418  22.972  23.132  1.00  0.00     0.027 A 
ATOM     22  C   UNL A   1      33.799  22.557  23.129  1.00  0.00     0.027 A 
ATOM     23  C   UNL A   1      31.653  24.295  22.747  1.00  0.00     0.018 A 
ATOM     24  C   UNL A   1      34.033  23.873  22.728  1.00  0.00     0.018 A 
ATOM     25  C   UNL A   1      32.960  24.746  22.570  1.00  0.00     0.018 A 
ATOM     26  Br  UNL A   1      33.287  26.557  22.147  1.00  0.00    -0.051 Br
ENDBRANCH  18  20
ENDBRANCH  13  14
ENDBRANCH   7   8
ENDBRANCH   5   7
ENDBRANCH   2   3
ENDBRANCH   1   2
BRANCH   1  27
ATOM     27  C   UNL A   1      31.403  32.063  26.841  1.00  0.00     0.023 C 
BRANCH  27  28
ATOM     28  C   UNL A   1      32.672  32.850  27.159  1.00  0.00     0.116 C 
BRANCH  28  29
ATOM     29  N   UNL A   1      32.416  34.198  27.639  1.00  0.00    -0.352 N 
ATOM     30  C   UNL A   1      33.018  34.910  28.651  1.00  0.00     0.251 C 
ATOM     31  H   UNL A   1      31.699  34.677  27.163  1.00  0.00     0.163 HD
ATOM     32  O   UNL A   1      32.563  36.002  28.976  1.00  0.00    -0.269 OA
BRANCH  30  33
ATOM     33  C   UNL A   1      34.190  34.366  29.384  1.00  0.00     0.039 A 
ATOM     34  C   UNL A   1      33.963  33.651  30.565  1.00  0.00     0.014 A 
ATOM     35  C   UNL A   1      35.501  34.578  28.951  1.00  0.00     0.014 A 
ATOM     36  C   UNL A   1      35.036  33.093  31.267  1.00  0.00     0.010 A 
ATOM     37  C   UNL A   1      36.567  33.960  29.612  1.00  0.00     0.010 A 
ATOM     38  C   UNL A   1      36.347  33.208  30.776  1.00  0.00    -0.014 A 
BRANCH  38  39
ATOM     39  C   UNL A   1      37.484  32.536  31.467  1.00  0.00     0.031 A 
ATOM     40  C   UNL A   1      38.188  31.366  30.833  1.00  0.00     0.074 A 
ATOM     41  C   UNL A   1      37.864  32.953  32.692  1.00  0.00     0.049 A 
ATOM     42  N   UNL A   1      39.164  30.630  31.305  1.00  0.00    -0.248 NA
ATOM     43  C   UNL A   1      37.717  30.954  29.503  1.00  0.00     0.031 C 
ATOM     44  C   UNL A   1      37.248  34.051  33.437  1.00  0.00     0.029 A 
ATOM     45  N   UNL A   1      38.854  32.499  33.530  1.00  0.00    -0.354 N 
ATOM     46  C   UNL A   1      39.421  29.670  30.335  1.00  0.00     0.074 A 
ATOM     47  C   UNL A   1      38.458  29.879  29.274  1.00  0.00     0.031 C 
ATOM     48  C   UNL A   1      37.884  34.199  34.610  1.00  0.00     0.029 A 
ATOM     49  C   UNL A   1      38.924  33.181  34.721  1.00  0.00     0.049 A 
ATOM     50  H   UNL A   1      39.456  31.756  33.300  1.00  0.00     0.167 HD
ATOM     51  C   UNL A   1      40.384  28.716  30.316  1.00  0.00     0.037 A 
ATOM     52  C   UNL A   1      39.727  33.002  35.790  1.00  0.00     0.037 A 
ATOM     53  C   UNL A   1      41.349  28.512  31.367  1.00  0.00     0.049 A 
ATOM     54  C   UNL A   1      40.768  31.915  35.759  1.00  0.00     0.074 A 
ATOM     55  C   UNL A   1      42.391  27.601  31.417  1.00  0.00     0.029 A 
ATOM     56  N   UNL A   1      41.388  29.224  32.557  1.00  0.00    -0.354 N 
ATOM     57  N   UNL A   1      41.040  31.056  34.807  1.00  0.00    -0.248 NA
ATOM     58  C   UNL A   1      41.618  31.777  36.949  1.00  0.00     0.031 C 
ATOM     59  C   UNL A   1      43.022  27.721  32.660  1.00  0.00     0.029 A 
ATOM     60  C   UNL A   1      42.417  28.753  33.359  1.00  0.00     0.049 A 
ATOM     61  H   UNL A   1      40.775  29.956  32.797  1.00  0.00     0.167 HD
ATOM     62  C   UNL A   1      42.109  30.299  35.270  1.00  0.00     0.074 A 
ATOM     63  C   UNL A   1      42.446  30.811  36.581  1.00  0.00     0.031 C 
ATOM     64  C   UNL A   1      42.752  29.271  34.662  1.00  0.00     0.037 A 
BRANCH  51  65
ATOM     65  C   UNL A   1      40.444  27.811  29.117  1.00  0.00     0.064 A 
ATOM     66  C   UNL A   1      39.679  26.638  29.039  1.00  0.00     0.173 A 
ATOM     67  C   UNL A   1      41.245  28.142  28.012  1.00  0.00     0.173 A 
ATOM     68  F   UNL A   1      38.901  26.270  30.070  1.00  0.00    -0.203 F 
ATOM     69  C   UNL A   1      39.739  25.813  27.919  1.00  0.00     0.198 A 
ATOM     70  C   UNL A   1      41.276  27.334  26.879  1.00  0.00     0.198 A 
ATOM     71  F   UNL A   1      41.990  29.258  28.026  1.00  0.00    -0.203 F 
ATOM     72  F   UNL A   1      39.041  24.669  27.893  1.00  0.00    -0.200 F 
ATOM     73  C   UNL A   1      40.531  26.165  26.837  1.00  0.00     0.200 A 
ATOM     74  F   UNL A   1      42.029  27.684  25.828  1.00  0.00    -0.200 F 
ATOM     75  F   UNL A   1      40.582  25.374  25.757  1.00  0.00    -0.200 F 
ENDBRANCH  51  65
BRANCH  52  76
ATOM     76  C   UNL A   1      39.582  33.881  36.981  1.00  0.00     0.064 A 
ATOM     77  C   UNL A   1      38.786  33.499  38.069  1.00  0.00     0.173 A 
ATOM     78  C   UNL A   1      40.228  35.125  37.051  1.00  0.00     0.173 A 
ATOM     79  F   UNL A   1      38.130  32.330  38.041  1.00  0.00    -0.203 F 
ATOM     80  C   UNL A   1      38.621  34.337  39.172  1.00  0.00     0.198 A 
ATOM     81  C   UNL A   1      40.090  35.947  38.167  1.00  0.00     0.198 A 
ATOM     82  F   UNL A   1      41.005  35.536  36.039  1.00  0.00    -0.203 F 
ATOM     83  F   UNL A   1      37.813  33.969  40.175  1.00  0.00    -0.200 F 
ATOM     84  C   UNL A   1      39.280  35.557  39.223  1.00  0.00     0.200 A 
ATOM     85  F   UNL A   1      40.740  37.117  38.219  1.00  0.00    -0.200 F 
ATOM     86  F   UNL A   1      39.125  36.360  40.284  1.00  0.00    -0.200 F 
ENDBRANCH  52  76
BRANCH  64  87
ATOM     87  C   UNL A   1      43.914  28.653  35.388  1.00  0.00     0.064 A 
ATOM     88  C   UNL A   1      43.753  27.549  36.239  1.00  0.00     0.173 A 
ATOM     89  C   UNL A   1      45.213  29.151  35.199  1.00  0.00     0.173 A 
ATOM     90  F   UNL A   1      42.532  27.044  36.467  1.00  0.00    -0.203 F 
ATOM     91  C   UNL A   1      44.845  26.987  36.896  1.00  0.00     0.198 A 
ATOM     92  C   UNL A   1      46.306  28.563  35.830  1.00  0.00     0.198 A 
ATOM     93  F   UNL A   1      45.425  30.200  34.391  1.00  0.00    -0.203 F 
ATOM     94  F   UNL A   1      44.660  25.966  37.746  1.00  0.00    -0.200 F 
ATOM     95  C   UNL A   1      46.121  27.488  36.685  1.00  0.00     0.200 A 
ATOM     96  F   UNL A   1      47.540  29.040  35.612  1.00  0.00    -0.200 F 
ATOM     97  F   UNL A   1      47.171  26.939  37.311  1.00  0.00    -0.200 F 
ENDBRANCH  64  87
ENDBRANCH  38  39
ENDBRANCH  30  33
ENDBRANCH  28  29
ENDBRANCH  27  28
ENDBRANCH   1  27
TORSDOF 14
ENDMDL
MODEL 2
REMARK VINA RESULT:     -12.5      5.590     11.182
REMARK SMILES O=C(Cc1ccc(NC(=O)Nc2ccc(Br)cc2)cc1)NCCCCNC(=O)c1ccc(-c2c3nc(c(-c4c(F)c(F)c(F)c(F)c4F)c4ccc([nH]4)c(-c4c(F)c(F)c(F)c(F)c4F)c4nc(c(-c5c(F)c(F)c(F)c(F)c5F)c5ccc2[nH]5)C=C4)C=C3)cc1
REMARK SMILES IDX 23 1 22 2 21 3 1 4 2 5 3 7 4 8 5 9 20 10 6 11 19 12 7 13
REMARK SMILES IDX 8 14 9 15 10 17 11 18 12 20 13 21 18 22 14 23 17 24 15 25
REMARK SMILES IDX 16 26 24 27 25 28 26 29 27 30 28 32 29 33 30 34 91 35 31 36
REMARK SMILES IDX 90 37 32 38 33 39 34 40 84 41 35 42 89 43 83 44 85 45 36 46
REMARK SMILES IDX 88 47 82 48 81 49 37 51 69 52 49 53 68 54 50 55 53 56 67 57
REMARK SMILES IDX 86 58 51 59 52 60 66 62 87 63 54 64 38 65 39 66 47 67 40 68
REMARK SMILES IDX 41 69 45 70 48 71 42 72 43 73 46 74 44 75 70 76 71 77 79 78
REMARK SMILES IDX 72 79 73 80 77 81 80 82 74 83 75 84 78 85 76 86 55 87 56 88
REMARK SMILES IDX 64 89 57 90 58 91 62 92 65 93 59 94 60 95 63 96 61 97
REMARK H PARENT 21 6 8 16 11 19 26 31 85 50 53 61
REMARK Flexibility Score: inf
ROOT
ATOM      1  C   UNL A   1      36.704  20.225  25.000  1.00  0.00     0.023 C 
ENDROOT
BRANCH   1   2
ATOM      2  C   UNL A   1      36.540  21.717  25.276  1.00  0.00     0.116 C 
BRANCH   2   3
ATOM      3  N   UNL A   1      35.353  22.311  24.689  1.00  0.00    -0.356 N 
ATOM      4  O   UNL A   1      36.412  22.955  22.747  1.00  0.00    -0.275 OA
ATOM      5  C   UNL A   1      35.376  22.778  23.380  1.00  0.00     0.224 C 
ATOM      6  H   UNL A   1      34.529  22.385  25.220  1.00  0.00     0.163 HD
BRANCH   5   7
ATOM      7  C   UNL A   1      34.004  22.968  22.750  1.00  0.00     0.135 C 
BRANCH   7   8
ATOM      8  C   UNL A   1      33.666  24.413  22.428  1.00  0.00    -0.039 A 
ATOM      9  C   UNL A   1      32.902  24.758  21.309  1.00  0.00     0.006 A 
ATOM     10  C   UNL A   1      34.017  25.434  23.325  1.00  0.00     0.006 A 
ATOM     11  C   UNL A   1      32.403  26.048  21.154  1.00  0.00     0.026 A 
ATOM     12  C   UNL A   1      33.500  26.729  23.175  1.00  0.00     0.026 A 
ATOM     13  C   UNL A   1      32.595  27.001  22.150  1.00  0.00     0.042 A 
BRANCH  13  14
ATOM     14  N   UNL A   1      31.857  28.200  22.196  1.00  0.00    -0.308 N 
ATOM     15  C   UNL A   1      30.529  28.404  22.436  1.00  0.00     0.323 C 
ATOM     16  H   UNL A   1      32.381  29.017  22.030  1.00  0.00     0.171 HD
ATOM     17  O   UNL A   1      29.989  29.425  22.005  1.00  0.00    -0.248 OA
ATOM     18  N   UNL A   1      29.777  27.499  23.126  1.00  0.00    -0.308 N 
ATOM     19  H   UNL A   1      28.823  27.480  22.884  1.00  0.00     0.171 HD
BRANCH  18  20
ATOM     20  C   UNL A   1      30.154  26.587  24.131  1.00  0.00     0.042 A 
ATOM     21  C   UNL A   1      30.090  25.220  23.837  1.00  0.00     0.027 A 
ATOM     22  C   UNL A   1      30.646  27.000  25.374  1.00  0.00     0.027 A 
ATOM     23  C   UNL A   1      30.637  24.289  24.724  1.00  0.00     0.018 A 
ATOM     24  C   UNL A   1      31.177  26.069  26.268  1.00  0.00     0.018 A 
ATOM     25  C   UNL A   1      31.199  24.721  25.925  1.00  0.00     0.018 A 
ATOM     26  Br  UNL A   1      32.027  23.479  27.082  1.00  0.00    -0.051 Br
ENDBRANCH  18  20
ENDBRANCH  13  14
ENDBRANCH   7   8
ENDBRANCH   5   7
ENDBRANCH   2   3
ENDBRANCH   1   2
BRANCH   1  27
ATOM     27  C   UNL A   1      38.130  19.745  24.723  1.00  0.00     0.023 C 
BRANCH  27  28
ATOM     28  C   UNL A   1      39.184  20.112  25.766  1.00  0.00     0.116 C 
BRANCH  28  29
ATOM     29  N   UNL A   1      40.247  19.129  25.889  1.00  0.00    -0.352 N 
ATOM     30  C   UNL A   1      41.590  19.300  26.137  1.00  0.00     0.251 C 
ATOM     31  H   UNL A   1      39.961  18.193  25.780  1.00  0.00     0.163 HD
ATOM     32  O   UNL A   1      42.344  18.334  26.081  1.00  0.00    -0.269 OA
BRANCH  30  33
ATOM     33  C   UNL A   1      42.154  20.641  26.438  1.00  0.00     0.039 A 
ATOM     34  C   UNL A   1      42.479  21.482  25.368  1.00  0.00     0.014 A 
ATOM     35  C   UNL A   1      42.398  21.067  27.746  1.00  0.00     0.014 A 
ATOM     36  C   UNL A   1      42.980  22.765  25.610  1.00  0.00     0.010 A 
ATOM     37  C   UNL A   1      42.830  22.375  27.988  1.00  0.00     0.010 A 
ATOM     38  C   UNL A   1      43.124  23.241  26.923  1.00  0.00    -0.014 A 
BRANCH  38  39
ATOM     39  C   UNL A   1      43.565  24.640  27.187  1.00  0.00     0.031 A 
ATOM     40  C   UNL A   1      42.602  25.664  27.723  1.00  0.00     0.074 A 
ATOM     41  C   UNL A   1      44.832  25.005  26.904  1.00  0.00     0.049 A 
ATOM     42  N   UNL A   1      42.796  26.937  27.969  1.00  0.00    -0.248 NA
ATOM     43  C   UNL A   1      41.233  25.203  27.998  1.00  0.00     0.031 C 
ATOM     44  C   UNL A   1      45.860  24.125  26.348  1.00  0.00     0.029 A 
ATOM     45  N   UNL A   1      45.471  26.215  27.038  1.00  0.00    -0.354 N 
ATOM     46  C   UNL A   1      41.578  27.427  28.423  1.00  0.00     0.074 A 
ATOM     47  C   UNL A   1      40.636  26.329  28.361  1.00  0.00     0.031 C 
ATOM     48  C   UNL A   1      47.003  24.815  26.207  1.00  0.00     0.029 A 
ATOM     49  C   UNL A   1      46.780  26.197  26.622  1.00  0.00     0.049 A 
ATOM     50  H   UNL A   1      45.032  27.019  27.399  1.00  0.00     0.167 HD
ATOM     51  C   UNL A   1      41.277  28.670  28.873  1.00  0.00     0.037 A 
ATOM     52  C   UNL A   1      47.698  27.184  26.567  1.00  0.00     0.037 A 
ATOM     53  C   UNL A   1      42.216  29.761  28.944  1.00  0.00     0.049 A 
ATOM     54  C   UNL A   1      47.329  28.564  27.041  1.00  0.00     0.074 A 
ATOM     55  C   UNL A   1      42.013  31.043  29.427  1.00  0.00     0.029 A 
ATOM     56  N   UNL A   1      43.532  29.703  28.513  1.00  0.00    -0.354 N 
ATOM     57  N   UNL A   1      46.191  28.996  27.527  1.00  0.00    -0.248 NA
ATOM     58  C   UNL A   1      48.376  29.592  26.966  1.00  0.00     0.031 C 
ATOM     59  C   UNL A   1      43.188  31.777  29.234  1.00  0.00     0.029 A 
ATOM     60  C   UNL A   1      44.146  30.934  28.692  1.00  0.00     0.049 A 
ATOM     61  H   UNL A   1      43.968  28.905  28.135  1.00  0.00     0.167 HD
ATOM     62  C   UNL A   1      46.394  30.334  27.843  1.00  0.00     0.074 A 
ATOM     63  C   UNL A   1      47.769  30.637  27.508  1.00  0.00     0.031 C 
ATOM     64  C   UNL A   1      45.518  31.229  28.362  1.00  0.00     0.037 A 
BRANCH  51  65
ATOM     65  C   UNL A   1      39.865  28.922  29.325  1.00  0.00     0.064 A 
ATOM     66  C   UNL A   1      38.882  29.395  28.443  1.00  0.00     0.173 A 
ATOM     67  C   UNL A   1      39.478  28.648  30.646  1.00  0.00     0.173 A 
ATOM     68  F   UNL A   1      39.197  29.681  27.170  1.00  0.00    -0.203 F 
ATOM     69  C   UNL A   1      37.576  29.618  28.874  1.00  0.00     0.198 A 
ATOM     70  C   UNL A   1      38.164  28.837  31.065  1.00  0.00     0.198 A 
ATOM     71  F   UNL A   1      40.374  28.183  31.531  1.00  0.00    -0.203 F 
ATOM     72  F   UNL A   1      36.669  30.123  28.026  1.00  0.00    -0.200 F 
ATOM     73  C   UNL A   1      37.216  29.331  30.182  1.00  0.00     0.200 A 
ATOM     74  F   UNL A   1      37.815  28.544  32.325  1.00  0.00    -0.200 F 
ATOM     75  F   UNL A   1      35.958  29.539  30.593  1.00  0.00    -0.200 F 
ENDBRANCH  51  65
BRANCH  52  76
ATOM     76  C   UNL A   1      49.062  26.899  26.047  1.00  0.00     0.064 A 
ATOM     77  C   UNL A   1      49.381  27.108  24.698  1.00  0.00     0.173 A 
ATOM     78  C   UNL A   1      50.072  26.401  26.885  1.00  0.00     0.173 A 
ATOM     79  F   UNL A   1      48.444  27.560  23.851  1.00  0.00    -0.203 F 
ATOM     80  C   UNL A   1      50.649  26.809  24.202  1.00  0.00     0.198 A 
ATOM     81  C   UNL A   1      51.348  26.134  26.396  1.00  0.00     0.198 A 
ATOM     82  F   UNL A   1      49.821  26.187  28.184  1.00  0.00    -0.203 F 
ATOM     83  F   UNL A   1      50.910  26.969  22.898  1.00  0.00    -0.200 F 
ATOM     84  C   UNL A   1      51.634  26.329  25.053  1.00  0.00     0.200 A 
ATOM     85  F   UNL A   1      52.300  25.687  27.225  1.00  0.00    -0.200 F 
ATOM     86  F   UNL A   1      52.853  26.046  24.577  1.00  0.00    -0.200 F 
ENDBRANCH  52  76
BRANCH  64  87
ATOM     87  C   UNL A   1      46.026  32.616  28.641  1.00  0.00     0.064 A 
ATOM     88  C   UNL A   1      46.651  32.946  29.853  1.00  0.00     0.173 A 
ATOM     89  C   UNL A   1      45.918  33.620  27.665  1.00  0.00     0.173 A 
ATOM     90  F   UNL A   1      46.766  32.029  30.825  1.00  0.00    -0.203 F 
ATOM     91  C   UNL A   1      47.121  34.236  30.088  1.00  0.00     0.198 A 
ATOM     92  C   UNL A   1      46.421  34.898  27.891  1.00  0.00     0.198 A 
ATOM     93  F   UNL A   1      45.335  33.357  26.486  1.00  0.00    -0.203 F 
ATOM     94  F   UNL A   1      47.667  34.542  31.274  1.00  0.00    -0.200 F 
ATOM     95  C   UNL A   1      47.014  35.208  29.104  1.00  0.00     0.200 A 
ATOM     96  F   UNL A   1      46.330  35.831  26.933  1.00  0.00    -0.200 F 
ATOM     97  F   UNL A   1      47.476  36.446  29.330  1.00  0.00    -0.200 F 
ENDBRANCH  64  87
ENDBRANCH  38  39
ENDBRANCH  30  33
ENDBRANCH  28  29
ENDBRANCH  27  28
ENDBRANCH   1  27
TORSDOF 14
ENDMDL
MODEL 3
REMARK VINA RESULT:     -12.5      5.402      9.791
REMARK SMILES O=C(Cc1ccc(NC(=O)Nc2ccc(Br)cc2)cc1)NCCCCNC(=O)c1ccc(-c2c3nc(c(-c4c(F)c(F)c(F)c(F)c4F)c4ccc([nH]4)c(-c4c(F)c(F)c(F)c(F)c4F)c4nc(c(-c5c(F)c(F)c(F)c(F)c5F)c5ccc2[nH]5)C=C4)C=C3)cc1
REMARK SMILES IDX 23 1 22 2 21 3 1 4 2 5 3 7 4 8 5 9 20 10 6 11 19 12 7 13
REMARK SMILES IDX 8 14 9 15 10 17 11 18 12 20 13 21 18 22 14 23 17 24 15 25
REMARK SMILES IDX 16 26 24 27 25 28 26 29 27 30 28 32 29 33 30 34 91 35 31 36
REMARK SMILES IDX 90 37 32 38 33 39 34 40 84 41 35 42 89 43 83 44 85 45 36 46
REMARK SMILES IDX 88 47 82 48 81 49 37 51 69 52 49 53 68 54 50 55 53 56 67 57
REMARK SMILES IDX 86 58 51 59 52 60 66 62 87 63 54 64 38 65 39 66 47 67 40 68
REMARK SMILES IDX 41 69 45 70 48 71 42 72 43 73 46 74 44 75 70 76 71 77 79 78
REMARK SMILES IDX 72 79 73 80 77 81 80 82 74 83 75 84 78 85 76 86 55 87 56 88
REMARK SMILES IDX 64 89 57 90 58 91 62 92 65 93 59 94 60 95 63 96 61 97
REMARK H PARENT 21 6 8 16 11 19 26 31 85 50 53 61
REMARK Flexibility Score: inf
ROOT
ATOM      1  C   UNL A   1      36.567  20.195  25.036  1.00  0.00     0.023 C 
ENDROOT
BRANCH   1   2
ATOM      2  C   UNL A   1      36.392  21.680  25.340  1.00  0.00     0.116 C 
BRANCH   2   3
ATOM      3  N   UNL A   1      35.227  22.288  24.723  1.00  0.00    -0.356 N 
ATOM      4  O   UNL A   1      36.360  22.989  22.843  1.00  0.00    -0.275 OA
ATOM      5  C   UNL A   1      35.300  22.792  23.430  1.00  0.00     0.224 C 
ATOM      6  H   UNL A   1      34.382  22.345  25.223  1.00  0.00     0.163 HD
BRANCH   5   7
ATOM      7  C   UNL A   1      33.954  22.996  22.751  1.00  0.00     0.135 C 
BRANCH   7   8
ATOM      8  C   UNL A   1      33.638  24.445  22.426  1.00  0.00    -0.039 A 
ATOM      9  C   UNL A   1      32.908  24.802  21.287  1.00  0.00     0.006 A 
ATOM     10  C   UNL A   1      33.975  25.459  23.336  1.00  0.00     0.006 A 
ATOM     11  C   UNL A   1      32.426  26.097  21.125  1.00  0.00     0.026 A 
ATOM     12  C   UNL A   1      33.475  26.760  23.178  1.00  0.00     0.026 A 
ATOM     13  C   UNL A   1      32.601  27.045  22.129  1.00  0.00     0.042 A 
BRANCH  13  14
ATOM     14  N   UNL A   1      31.873  28.251  22.160  1.00  0.00    -0.308 N 
ATOM     15  C   UNL A   1      30.541  28.467  22.360  1.00  0.00     0.323 C 
ATOM     16  H   UNL A   1      32.410  29.064  22.015  1.00  0.00     0.171 HD
ATOM     17  O   UNL A   1      30.025  29.496  21.919  1.00  0.00    -0.248 OA
ATOM     18  N   UNL A   1      29.759  27.565  23.021  1.00  0.00    -0.308 N 
ATOM     19  H   UNL A   1      28.813  27.557  22.749  1.00  0.00     0.171 HD
BRANCH  18  20
ATOM     20  C   UNL A   1      30.096  26.644  24.031  1.00  0.00     0.042 A 
ATOM     21  C   UNL A   1      30.031  25.279  23.726  1.00  0.00     0.027 A 
ATOM     22  C   UNL A   1      30.550  27.044  25.292  1.00  0.00     0.027 A 
ATOM     23  C   UNL A   1      30.542  24.337  24.624  1.00  0.00     0.018 A 
ATOM     24  C   UNL A   1      31.044  26.103  26.197  1.00  0.00     0.018 A 
ATOM     25  C   UNL A   1      31.067  24.757  25.846  1.00  0.00     0.018 A 
ATOM     26  Br  UNL A   1      31.847  23.501  27.020  1.00  0.00    -0.051 Br
ENDBRANCH  18  20
ENDBRANCH  13  14
ENDBRANCH   7   8
ENDBRANCH   5   7
ENDBRANCH   2   3
ENDBRANCH   1   2
BRANCH   1  27
ATOM     27  C   UNL A   1      37.997  19.731  24.751  1.00  0.00     0.023 C 
BRANCH  27  28
ATOM     28  C   UNL A   1      39.056  20.127  25.778  1.00  0.00     0.116 C 
BRANCH  28  29
ATOM     29  N   UNL A   1      40.158  19.185  25.870  1.00  0.00    -0.352 N 
ATOM     30  C   UNL A   1      41.495  19.402  26.117  1.00  0.00     0.251 C 
ATOM     31  H   UNL A   1      39.909  18.242  25.735  1.00  0.00     0.163 HD
ATOM     32  O   UNL A   1      42.286  18.469  26.032  1.00  0.00    -0.269 OA
BRANCH  30  33
ATOM     33  C   UNL A   1      42.005  20.756  26.454  1.00  0.00     0.039 A 
ATOM     34  C   UNL A   1      42.242  21.657  25.410  1.00  0.00     0.014 A 
ATOM     35  C   UNL A   1      42.287  21.138  27.769  1.00  0.00     0.014 A 
ATOM     36  C   UNL A   1      42.691  22.952  25.687  1.00  0.00     0.010 A 
ATOM     37  C   UNL A   1      42.665  22.454  28.050  1.00  0.00     0.010 A 
ATOM     38  C   UNL A   1      42.869  23.378  27.014  1.00  0.00    -0.014 A 
BRANCH  38  39
ATOM     39  C   UNL A   1      43.254  24.785  27.321  1.00  0.00     0.031 A 
ATOM     40  C   UNL A   1      44.661  25.266  27.092  1.00  0.00     0.074 A 
ATOM     41  C   UNL A   1      42.343  25.627  27.849  1.00  0.00     0.049 A 
ATOM     42  N   UNL A   1      45.188  26.440  27.343  1.00  0.00    -0.248 NA
ATOM     43  C   UNL A   1      45.608  24.294  26.525  1.00  0.00     0.031 C 
ATOM     44  C   UNL A   1      40.954  25.283  28.155  1.00  0.00     0.029 A 
ATOM     45  N   UNL A   1      42.449  26.943  28.229  1.00  0.00    -0.354 N 
ATOM     46  C   UNL A   1      46.523  26.346  26.970  1.00  0.00     0.074 A 
ATOM     47  C   UNL A   1      46.740  24.983  26.532  1.00  0.00     0.031 C 
ATOM     48  C   UNL A   1      40.333  26.363  28.656  1.00  0.00     0.029 A 
ATOM     49  C   UNL A   1      41.287  27.464  28.747  1.00  0.00     0.049 A 
ATOM     50  H   UNL A   1      43.279  27.466  28.138  1.00  0.00     0.167 HD
ATOM     51  C   UNL A   1      47.475  27.311  26.970  1.00  0.00     0.037 A 
ATOM     52  C   UNL A   1      41.021  28.686  29.251  1.00  0.00     0.037 A 
ATOM     53  C   UNL A   1      47.259  28.670  27.398  1.00  0.00     0.049 A 
ATOM     54  C   UNL A   1      42.104  29.731  29.271  1.00  0.00     0.074 A 
ATOM     55  C   UNL A   1      48.151  29.729  27.391  1.00  0.00     0.029 A 
ATOM     56  N   UNL A   1      46.068  29.158  27.916  1.00  0.00    -0.354 N 
ATOM     57  N   UNL A   1      43.344  29.645  28.856  1.00  0.00    -0.248 NA
ATOM     58  C   UNL A   1      41.748  31.045  29.823  1.00  0.00     0.031 C 
ATOM     59  C   UNL A   1      47.519  30.840  27.960  1.00  0.00     0.029 A 
ATOM     60  C   UNL A   1      46.211  30.494  28.259  1.00  0.00     0.049 A 
ATOM     61  H   UNL A   1      45.242  28.633  28.024  1.00  0.00     0.167 HD
ATOM     62  C   UNL A   1      43.906  30.899  29.067  1.00  0.00     0.074 A 
ATOM     63  C   UNL A   1      42.865  31.731  29.633  1.00  0.00     0.031 C 
ATOM     64  C   UNL A   1      45.169  31.319  28.816  1.00  0.00     0.037 A 
BRANCH  51  65
ATOM     65  C   UNL A   1      48.850  26.931  26.493  1.00  0.00     0.064 A 
ATOM     66  C   UNL A   1      49.811  26.395  27.364  1.00  0.00     0.173 A 
ATOM     67  C   UNL A   1      49.198  27.065  25.140  1.00  0.00     0.173 A 
ATOM     68  F   UNL A   1      49.534  26.251  28.669  1.00  0.00    -0.203 F 
ATOM     69  C   UNL A   1      51.078  26.041  26.906  1.00  0.00     0.198 A 
ATOM     70  C   UNL A   1      50.453  26.678  24.678  1.00  0.00     0.198 A 
ATOM     71  F   UNL A   1      48.315  27.562  24.260  1.00  0.00    -0.203 F 
ATOM     72  F   UNL A   1      51.996  25.583  27.768  1.00  0.00    -0.200 F 
ATOM     73  C   UNL A   1      51.395  26.175  25.563  1.00  0.00     0.200 A 
ATOM     74  F   UNL A   1      50.752  26.792  23.377  1.00  0.00    -0.200 F 
ATOM     75  F   UNL A   1      52.612  25.828  25.123  1.00  0.00    -0.200 F 
ENDBRANCH  51  65
BRANCH  52  76
ATOM     76  C   UNL A   1      39.662  28.991  29.775  1.00  0.00     0.064 A 
ATOM     77  C   UNL A   1      39.325  28.729  31.110  1.00  0.00     0.173 A 
ATOM     78  C   UNL A   1      38.669  29.540  28.948  1.00  0.00     0.173 A 
ATOM     79  F   UNL A   1      40.231  28.183  31.934  1.00  0.00    -0.203 F 
ATOM     80  C   UNL A   1      38.042  28.982  31.593  1.00  0.00     0.198 A 
ATOM     81  C   UNL A   1      37.398  29.824  29.440  1.00  0.00     0.198 A 
ATOM     82  F   UNL A   1      38.941  29.814  27.664  1.00  0.00    -0.203 F 
ATOM     83  F   UNL A   1      37.733  28.674  32.859  1.00  0.00    -0.200 F 
ATOM     84  C   UNL A   1      37.081  29.536  30.760  1.00  0.00     0.200 A 
ATOM     85  F   UNL A   1      36.479  30.374  28.636  1.00  0.00    -0.200 F 
ATOM     86  F   UNL A   1      35.850  29.784  31.225  1.00  0.00    -0.200 F 
ENDBRANCH  52  76
BRANCH  64  87
ATOM     87  C   UNL A   1      45.494  32.757  29.112  1.00  0.00     0.064 A 
ATOM     88  C   UNL A   1      46.011  33.160  30.353  1.00  0.00     0.173 A 
ATOM     89  C   UNL A   1      45.318  33.741  28.126  1.00  0.00     0.173 A 
ATOM     90  F   UNL A   1      46.185  32.264  31.335  1.00  0.00    -0.203 F 
ATOM     91  C   UNL A   1      46.312  34.496  30.603  1.00  0.00     0.198 A 
ATOM     92  C   UNL A   1      45.653  35.070  28.369  1.00  0.00     0.198 A 
ATOM     93  F   UNL A   1      44.832  33.411  26.920  1.00  0.00    -0.203 F 
ATOM     94  F   UNL A   1      46.756  34.866  31.814  1.00  0.00    -0.200 F 
ATOM     95  C   UNL A   1      46.141  35.449  29.609  1.00  0.00     0.200 A 
ATOM     96  F   UNL A   1      45.501  35.986  27.402  1.00  0.00    -0.200 F 
ATOM     97  F   UNL A   1      46.440  36.733  29.850  1.00  0.00    -0.200 F 
ENDBRANCH  64  87
ENDBRANCH  38  39
ENDBRANCH  30  33
ENDBRANCH  28  29
ENDBRANCH  27  28
ENDBRANCH   1  27
TORSDOF 14
ENDMDL
