MODEL 1
REMARK VINA RESULT:      -9.1      0.000      0.000
REMARK SMILES CCCCCCNC(=O)Oc1cccc(-c2ccc([C@H](C)C(=O)NCCCCNC(=O)c3ccc(-c4c5nc(c(-c6c(F)c(F)c(F)c(F)c6F)c6ccc([nH]6)c(-c6c(F)c(F)c(F)c(F)c6F)c6nc(c(-c7c(F)c(F)c(F)c(F)c7F)c7ccc4[nH]7)C=C6)C=C5)cc3)cc2F)c1
REMARK SMILES IDX 20 1 21 2 19 3 16 4 17 5 96 6 18 7 95 8 97 9 15 10 11 11
REMARK SMILES IDX 12 12 98 13 13 14 14 15 10 16 8 17 7 18 9 20 6 21 5 22 4 23
REMARK SMILES IDX 3 24 2 25 1 26 22 27 23 28 24 29 25 31 26 32 27 33 28 34
REMARK SMILES IDX 29 35 30 36 31 38 32 39 33 40 94 41 34 42 93 43 35 44 36 45
REMARK SMILES IDX 37 46 87 47 38 48 92 49 86 50 88 51 39 52 91 53 85 54 84 55
REMARK SMILES IDX 40 57 72 58 52 59 71 60 53 61 56 62 70 63 89 64 54 65 55 66
REMARK SMILES IDX 69 68 90 69 57 70 41 71 42 72 50 73 43 74 44 75 48 76 51 77
REMARK SMILES IDX 45 78 46 79 49 80 47 81 73 82 74 83 82 84 75 85 76 86 80 87
REMARK SMILES IDX 83 88 77 89 78 90 81 91 79 92 58 93 59 94 67 95 60 96 61 97
REMARK SMILES IDX 65 98 68 99 62 100 63 101 66 102 64 103
REMARK H PARENT 7 19 24 30 29 37 88 56 56 67
REMARK Flexibility Score: inf
ROOT
ATOM      1  C   UNL A   1      44.975  24.544  26.532  1.00  0.00     0.105 C 
ATOM      2  C   UNL A   1      45.741  23.808  27.642  1.00  0.00     0.023 C 
ENDROOT
BRANCH   1   3
ATOM      3  C   UNL A   1      44.962  26.059  26.699  1.00  0.00    -0.033 A 
ATOM      4  C   UNL A   1      44.770  28.888  27.110  1.00  0.00     0.018 A 
ATOM      5  C   UNL A   1      45.877  28.152  27.557  1.00  0.00     0.012 A 
ATOM      6  C   UNL A   1      43.799  28.178  26.386  1.00  0.00     0.131 A 
ATOM      7  C   UNL A   1      45.989  26.775  27.324  1.00  0.00     0.005 A 
ATOM      8  C   UNL A   1      43.884  26.797  26.191  1.00  0.00     0.044 A 
ATOM      9  F   UNL A   1      42.741  28.813  25.858  1.00  0.00    -0.206 F 
BRANCH   4  10
ATOM     10  C   UNL A   1      44.636  30.324  27.430  1.00  0.00    -0.012 A 
ATOM     11  C   UNL A   1      45.159  32.656  26.966  1.00  0.00     0.133 A 
ATOM     12  C   UNL A   1      44.308  33.084  27.978  1.00  0.00     0.047 A 
ATOM     13  C   UNL A   1      45.336  31.297  26.695  1.00  0.00     0.056 A 
ATOM     14  C   UNL A   1      43.610  32.139  28.721  1.00  0.00     0.004 A 
ATOM     15  C   UNL A   1      43.777  30.775  28.452  1.00  0.00     0.009 A 
BRANCH  11  16
ATOM     16  O   UNL A   1      45.918  33.634  26.309  1.00  0.00    -0.410 OA
BRANCH  16  17
ATOM     17  C   UNL A   1      45.294  34.405  25.344  1.00  0.00     0.412 C 
ATOM     18  N   UNL A   1      45.104  35.701  25.732  1.00  0.00    -0.321 N 
ATOM     19  H   UNL A   1      44.647  36.293  25.091  1.00  0.00     0.167 HD
ATOM     20  O   UNL A   1      44.917  34.018  24.238  1.00  0.00    -0.224 OA
BRANCH  18  21
ATOM     21  C   UNL A   1      45.506  36.292  26.993  1.00  0.00     0.119 C 
BRANCH  21  22
ATOM     22  C   UNL A   1      44.446  37.247  27.540  1.00  0.00     0.021 C 
BRANCH  22  23
ATOM     23  C   UNL A   1      43.144  37.293  26.733  1.00  0.00     0.002 C 
BRANCH  23  24
ATOM     24  C   UNL A   1      41.942  36.592  27.376  1.00  0.00    -0.000 C 
BRANCH  24  25
ATOM     25  C   UNL A   1      42.176  36.049  28.788  1.00  0.00    -0.003 C 
ATOM     26  C   UNL A   1      41.223  34.927  29.167  1.00  0.00     0.004 C 
ENDBRANCH  24  25
ENDBRANCH  23  24
ENDBRANCH  22  23
ENDBRANCH  21  22
ENDBRANCH  18  21
ENDBRANCH  16  17
ENDBRANCH  11  16
ENDBRANCH   4  10
ENDBRANCH   1   3
BRANCH   1  27
ATOM     27  C   UNL A   1      45.373  24.008  25.154  1.00  0.00     0.227 C 
ATOM     28  O   UNL A   1      46.063  24.690  24.390  1.00  0.00    -0.274 OA
ATOM     29  N   UNL A   1      44.976  22.787  24.695  1.00  0.00    -0.356 N 
ATOM     30  H   UNL A   1      45.153  22.628  23.739  1.00  0.00     0.163 HD
BRANCH  29  31
ATOM     31  C   UNL A   1      44.334  21.683  25.385  1.00  0.00     0.116 C 
BRANCH  31  32
ATOM     32  C   UNL A   1      42.883  21.984  25.740  1.00  0.00     0.023 C 
BRANCH  32  33
ATOM     33  C   UNL A   1      42.407  21.383  27.066  1.00  0.00     0.023 C 
BRANCH  33  34
ATOM     34  C   UNL A   1      41.131  21.986  27.644  1.00  0.00     0.116 C 
BRANCH  34  35
ATOM     35  N   UNL A   1      40.045  22.071  26.679  1.00  0.00    -0.352 N 
ATOM     36  C   UNL A   1      39.205  23.125  26.412  1.00  0.00     0.251 C 
ATOM     37  H   UNL A   1      39.892  21.260  26.143  1.00  0.00     0.163 HD
ATOM     38  O   UNL A   1      38.261  22.991  25.641  1.00  0.00    -0.269 OA
BRANCH  36  39
ATOM     39  C   UNL A   1      39.423  24.418  27.092  1.00  0.00     0.039 A 
ATOM     40  C   UNL A   1      38.908  24.599  28.377  1.00  0.00     0.014 A 
ATOM     41  C   UNL A   1      40.162  25.432  26.476  1.00  0.00     0.014 A 
ATOM     42  C   UNL A   1      39.203  25.769  29.080  1.00  0.00     0.010 A 
ATOM     43  C   UNL A   1      40.511  26.567  27.201  1.00  0.00     0.010 A 
ATOM     44  C   UNL A   1      40.041  26.743  28.513  1.00  0.00    -0.014 A 
BRANCH  44  45
ATOM     45  C   UNL A   1      40.447  27.951  29.277  1.00  0.00     0.031 A 
ATOM     46  C   UNL A   1      41.808  28.016  29.911  1.00  0.00     0.074 A 
ATOM     47  C   UNL A   1      39.566  28.953  29.463  1.00  0.00     0.049 A 
ATOM     48  N   UNL A   1      42.314  28.932  30.697  1.00  0.00    -0.248 NA
ATOM     49  C   UNL A   1      42.714  26.887  29.645  1.00  0.00     0.031 C 
ATOM     50  C   UNL A   1      38.201  28.989  28.935  1.00  0.00     0.029 A 
ATOM     51  N   UNL A   1      39.683  30.130  30.159  1.00  0.00    -0.354 N 
ATOM     52  C   UNL A   1      43.584  28.484  31.030  1.00  0.00     0.074 A 
ATOM     53  C   UNL A   1      43.757  27.192  30.404  1.00  0.00     0.031 C 
ATOM     54  C   UNL A   1      37.614  30.136  29.313  1.00  0.00     0.029 A 
ATOM     55  C   UNL A   1      38.544  30.899  30.139  1.00  0.00     0.049 A 
ATOM     56  H   UNL A   1      40.506  30.399  30.629  1.00  0.00     0.167 HD
ATOM     57  C   UNL A   1      44.531  29.106  31.772  1.00  0.00     0.037 A 
ATOM     58  C   UNL A   1      38.279  32.080  30.730  1.00  0.00     0.037 A 
ATOM     59  C   UNL A   1      44.369  30.404  32.371  1.00  0.00     0.049 A 
ATOM     60  C   UNL A   1      39.349  32.746  31.553  1.00  0.00     0.074 A 
ATOM     61  C   UNL A   1      45.287  31.139  33.103  1.00  0.00     0.029 A 
ATOM     62  N   UNL A   1      43.210  31.165  32.303  1.00  0.00    -0.354 N 
ATOM     63  N   UNL A   1      40.567  32.339  31.814  1.00  0.00    -0.248 NA
ATOM     64  C   UNL A   1      39.008  34.040  32.160  1.00  0.00     0.031 C 
ATOM     65  C   UNL A   1      44.672  32.328  33.507  1.00  0.00     0.029 A 
ATOM     66  C   UNL A   1      43.387  32.355  32.990  1.00  0.00     0.049 A 
ATOM     67  H   UNL A   1      42.386  30.899  31.836  1.00  0.00     0.167 HD
ATOM     68  C   UNL A   1      41.148  33.338  32.583  1.00  0.00     0.074 A 
ATOM     69  C   UNL A   1      40.152  34.377  32.738  1.00  0.00     0.031 C 
ATOM     70  C   UNL A   1      42.393  33.389  33.115  1.00  0.00     0.037 A 
BRANCH  57  71
ATOM     71  C   UNL A   1      45.838  28.395  31.969  1.00  0.00     0.064 A 
ATOM     72  C   UNL A   1      46.948  28.666  31.155  1.00  0.00     0.173 A 
ATOM     73  C   UNL A   1      45.998  27.470  33.012  1.00  0.00     0.173 A 
ATOM     74  F   UNL A   1      46.842  29.534  30.137  1.00  0.00    -0.203 F 
ATOM     75  C   UNL A   1      48.163  28.020  31.363  1.00  0.00     0.198 A 
ATOM     76  C   UNL A   1      47.223  26.848  33.235  1.00  0.00     0.198 A 
ATOM     77  F   UNL A   1      44.969  27.180  33.823  1.00  0.00    -0.203 F 
ATOM     78  F   UNL A   1      49.197  28.263  30.546  1.00  0.00    -0.200 F 
ATOM     79  C   UNL A   1      48.302  27.118  32.407  1.00  0.00     0.200 A 
ATOM     80  F   UNL A   1      47.359  25.986  34.252  1.00  0.00    -0.200 F 
ATOM     81  F   UNL A   1      49.477  26.505  32.613  1.00  0.00    -0.200 F 
ENDBRANCH  57  71
BRANCH  58  82
ATOM     82  C   UNL A   1      36.953  32.726  30.550  1.00  0.00     0.064 A 
ATOM     83  C   UNL A   1      35.954  32.600  31.527  1.00  0.00     0.173 A 
ATOM     84  C   UNL A   1      36.646  33.458  29.395  1.00  0.00     0.173 A 
ATOM     85  F   UNL A   1      36.193  31.892  32.640  1.00  0.00    -0.203 F 
ATOM     86  C   UNL A   1      34.691  33.158  31.341  1.00  0.00     0.198 A 
ATOM     87  C   UNL A   1      35.391  34.039  29.222  1.00  0.00     0.198 A 
ATOM     88  F   UNL A   1      37.566  33.612  28.432  1.00  0.00    -0.203 F 
ATOM     89  F   UNL A   1      33.739  32.976  32.266  1.00  0.00    -0.200 F 
ATOM     90  C   UNL A   1      34.411  33.880  30.191  1.00  0.00     0.200 A 
ATOM     91  F   UNL A   1      35.128  34.747  28.115  1.00  0.00    -0.200 F 
ATOM     92  F   UNL A   1      33.195  34.413  30.012  1.00  0.00    -0.200 F 
ENDBRANCH  58  82
BRANCH  70  93
ATOM     93  C   UNL A   1      42.769  34.629  33.871  1.00  0.00     0.064 A 
ATOM     94  C   UNL A   1      43.239  35.777  33.216  1.00  0.00     0.173 A 
ATOM     95  C   UNL A   1      42.613  34.683  35.264  1.00  0.00     0.173 A 
ATOM     96  F   UNL A   1      43.420  35.769  31.886  1.00  0.00    -0.203 F 
ATOM     97  C   UNL A   1      43.561  36.926  33.932  1.00  0.00     0.198 A 
ATOM     98  C   UNL A   1      42.908  35.844  35.973  1.00  0.00     0.198 A 
ATOM     99  F   UNL A   1      42.160  33.614  35.935  1.00  0.00    -0.203 F 
ATOM    100  F   UNL A   1      44.051  37.997  33.291  1.00  0.00    -0.200 F 
ATOM    101  C   UNL A   1      43.389  36.962  35.308  1.00  0.00     0.200 A 
ATOM    102  F   UNL A   1      42.729  35.880  37.301  1.00  0.00    -0.200 F 
ATOM    103  F   UNL A   1      43.690  38.072  35.994  1.00  0.00    -0.200 F 
ENDBRANCH  70  93
ENDBRANCH  44  45
ENDBRANCH  36  39
ENDBRANCH  34  35
ENDBRANCH  33  34
ENDBRANCH  32  33
ENDBRANCH  31  32
ENDBRANCH  29  31
ENDBRANCH   1  27
TORSDOF 20
ENDMDL
MODEL 2
REMARK VINA RESULT:      -9.1      4.297      8.829
REMARK SMILES CCCCCCNC(=O)Oc1cccc(-c2ccc([C@H](C)C(=O)NCCCCNC(=O)c3ccc(-c4c5nc(c(-c6c(F)c(F)c(F)c(F)c6F)c6ccc([nH]6)c(-c6c(F)c(F)c(F)c(F)c6F)c6nc(c(-c7c(F)c(F)c(F)c(F)c7F)c7ccc4[nH]7)C=C6)C=C5)cc3)cc2F)c1
REMARK SMILES IDX 20 1 21 2 19 3 16 4 17 5 96 6 18 7 95 8 97 9 15 10 11 11
REMARK SMILES IDX 12 12 98 13 13 14 14 15 10 16 8 17 7 18 9 20 6 21 5 22 4 23
REMARK SMILES IDX 3 24 2 25 1 26 22 27 23 28 24 29 25 31 26 32 27 33 28 34
REMARK SMILES IDX 29 35 30 36 31 38 32 39 33 40 94 41 34 42 93 43 35 44 36 45
REMARK SMILES IDX 37 46 87 47 38 48 92 49 86 50 88 51 39 52 91 53 85 54 84 55
REMARK SMILES IDX 40 57 72 58 52 59 71 60 53 61 56 62 70 63 89 64 54 65 55 66
REMARK SMILES IDX 69 68 90 69 57 70 41 71 42 72 50 73 43 74 44 75 48 76 51 77
REMARK SMILES IDX 45 78 46 79 49 80 47 81 73 82 74 83 82 84 75 85 76 86 80 87
REMARK SMILES IDX 83 88 77 89 78 90 81 91 79 92 58 93 59 94 67 95 60 96 61 97
REMARK SMILES IDX 65 98 68 99 62 100 63 101 66 102 64 103
REMARK H PARENT 7 19 24 30 29 37 88 56 56 67
REMARK Flexibility Score: inf
ROOT
ATOM      1  C   UNL A   1      40.869  22.813  26.595  1.00  0.00     0.105 C 
ATOM      2  C   UNL A   1      41.838  22.232  25.554  1.00  0.00     0.023 C 
ENDROOT
BRANCH   1   3
ATOM      3  C   UNL A   1      39.403  22.703  26.195  1.00  0.00    -0.033 A 
ATOM      4  C   UNL A   1      36.631  22.346  25.565  1.00  0.00     0.018 A 
ATOM      5  C   UNL A   1      37.121  23.559  26.072  1.00  0.00     0.012 A 
ATOM      6  C   UNL A   1      37.581  21.345  25.312  1.00  0.00     0.131 A 
ATOM      7  C   UNL A   1      38.482  23.746  26.346  1.00  0.00     0.005 A 
ATOM      8  C   UNL A   1      38.933  21.510  25.626  1.00  0.00     0.044 A 
ATOM      9  F   UNL A   1      37.213  20.178  24.760  1.00  0.00    -0.206 F 
BRANCH   4  10
ATOM     10  C   UNL A   1      35.182  22.145  25.353  1.00  0.00    -0.012 A 
ATOM     11  C   UNL A   1      32.928  23.037  25.140  1.00  0.00     0.133 A 
ATOM     12  C   UNL A   1      32.418  21.776  24.851  1.00  0.00     0.047 A 
ATOM     13  C   UNL A   1      34.287  23.227  25.399  1.00  0.00     0.056 A 
ATOM     14  C   UNL A   1      33.285  20.690  24.805  1.00  0.00     0.004 A 
ATOM     15  C   UNL A   1      34.649  20.874  25.058  1.00  0.00     0.009 A 
BRANCH  11  16
ATOM     16  O   UNL A   1      32.007  24.086  25.274  1.00  0.00    -0.410 OA
BRANCH  16  17
ATOM     17  C   UNL A   1      31.566  24.408  26.545  1.00  0.00     0.412 C 
ATOM     18  N   UNL A   1      31.589  25.751  26.798  1.00  0.00    -0.321 N 
ATOM     19  H   UNL A   1      31.302  26.037  27.696  1.00  0.00     0.167 HD
ATOM     20  O   UNL A   1      31.189  23.612  27.406  1.00  0.00    -0.224 OA
BRANCH  18  21
ATOM     21  C   UNL A   1      31.995  26.795  25.878  1.00  0.00     0.119 C 
BRANCH  21  22
ATOM     22  C   UNL A   1      33.374  27.355  26.223  1.00  0.00     0.021 C 
BRANCH  22  23
ATOM     23  C   UNL A   1      33.365  28.504  27.238  1.00  0.00     0.002 C 
BRANCH  23  24
ATOM     24  C   UNL A   1      34.648  29.341  27.300  1.00  0.00    -0.000 C 
BRANCH  24  25
ATOM     25  C   UNL A   1      34.442  30.846  27.485  1.00  0.00    -0.003 C 
ATOM     26  C   UNL A   1      35.643  31.547  28.102  1.00  0.00     0.004 C 
ENDBRANCH  24  25
ENDBRANCH  23  24
ENDBRANCH  22  23
ENDBRANCH  21  22
ENDBRANCH  18  21
ENDBRANCH  16  17
ENDBRANCH  11  16
ENDBRANCH   4  10
ENDBRANCH   1   3
BRANCH   1  27
ATOM     27  C   UNL A   1      41.235  22.332  28.002  1.00  0.00     0.227 C 
ATOM     28  O   UNL A   1      41.330  23.134  28.935  1.00  0.00    -0.274 OA
ATOM     29  N   UNL A   1      41.494  21.024  28.290  1.00  0.00    -0.356 N 
ATOM     30  H   UNL A   1      41.877  20.866  29.183  1.00  0.00     0.163 HD
BRANCH  29  31
ATOM     31  C   UNL A   1      41.296  19.826  27.495  1.00  0.00     0.116 C 
BRANCH  31  32
ATOM     32  C   UNL A   1      42.415  18.810  27.686  1.00  0.00     0.023 C 
BRANCH  32  33
ATOM     33  C   UNL A   1      42.894  18.130  26.399  1.00  0.00     0.023 C 
BRANCH  33  34
ATOM     34  C   UNL A   1      43.161  19.062  25.221  1.00  0.00     0.116 C 
BRANCH  34  35
ATOM     35  N   UNL A   1      44.436  18.808  24.564  1.00  0.00    -0.352 N 
ATOM     36  C   UNL A   1      45.452  19.689  24.278  1.00  0.00     0.251 C 
ATOM     37  H   UNL A   1      44.590  17.876  24.288  1.00  0.00     0.163 HD
ATOM     38  O   UNL A   1      46.417  19.331  23.613  1.00  0.00    -0.269 OA
BRANCH  36  39
ATOM     39  C   UNL A   1      45.356  21.086  24.746  1.00  0.00     0.039 A 
ATOM     40  C   UNL A   1      45.571  21.360  26.098  1.00  0.00     0.014 A 
ATOM     41  C   UNL A   1      45.090  22.123  23.847  1.00  0.00     0.014 A 
ATOM     42  C   UNL A   1      45.600  22.685  26.537  1.00  0.00     0.010 A 
ATOM     43  C   UNL A   1      45.186  23.444  24.273  1.00  0.00     0.010 A 
ATOM     44  C   UNL A   1      45.449  23.738  25.620  1.00  0.00    -0.014 A 
BRANCH  44  45
ATOM     45  C   UNL A   1      45.572  25.156  26.047  1.00  0.00     0.031 A 
ATOM     46  C   UNL A   1      46.910  25.840  26.005  1.00  0.00     0.074 A 
ATOM     47  C   UNL A   1      44.497  25.802  26.540  1.00  0.00     0.049 A 
ATOM     48  N   UNL A   1      47.244  27.034  26.425  1.00  0.00    -0.248 NA
ATOM     49  C   UNL A   1      48.027  25.069  25.437  1.00  0.00     0.031 C 
ATOM     50  C   UNL A   1      43.155  25.233  26.672  1.00  0.00     0.029 A 
ATOM     51  N   UNL A   1      44.368  27.075  27.036  1.00  0.00    -0.354 N 
ATOM     52  C   UNL A   1      48.606  27.149  26.188  1.00  0.00     0.074 A 
ATOM     53  C   UNL A   1      49.049  25.889  25.633  1.00  0.00     0.031 C 
ATOM     54  C   UNL A   1      42.335  26.159  27.198  1.00  0.00     0.029 A 
ATOM     55  C   UNL A   1      43.099  27.370  27.475  1.00  0.00     0.049 A 
ATOM     56  H   UNL A   1      45.114  27.717  27.074  1.00  0.00     0.167 HD
ATOM     57  C   UNL A   1      49.411  28.219  26.392  1.00  0.00     0.037 A 
ATOM     58  C   UNL A   1      42.613  28.490  28.045  1.00  0.00     0.037 A 
ATOM     59  C   UNL A   1      48.964  29.482  26.917  1.00  0.00     0.049 A 
ATOM     60  C   UNL A   1      43.532  29.662  28.264  1.00  0.00     0.074 A 
ATOM     61  C   UNL A   1      49.693  30.641  27.117  1.00  0.00     0.029 A 
ATOM     62  N   UNL A   1      47.664  29.752  27.322  1.00  0.00    -0.354 N 
ATOM     63  N   UNL A   1      44.807  29.779  27.983  1.00  0.00    -0.248 NA
ATOM     64  C   UNL A   1      42.942  30.861  28.877  1.00  0.00     0.031 C 
ATOM     65  C   UNL A   1      48.844  31.601  27.677  1.00  0.00     0.029 A 
ATOM     66  C   UNL A   1      47.575  31.055  27.782  1.00  0.00     0.049 A 
ATOM     67  H   UNL A   1      46.917  29.113  27.287  1.00  0.00     0.167 HD
ATOM     68  C   UNL A   1      45.162  31.070  28.350  1.00  0.00     0.074 A 
ATOM     69  C   UNL A   1      43.965  31.702  28.865  1.00  0.00     0.031 C 
ATOM     70  C   UNL A   1      46.371  31.676  28.270  1.00  0.00     0.037 A 
BRANCH  57  71
ATOM     71  C   UNL A   1      50.861  28.076  26.033  1.00  0.00     0.064 A 
ATOM     72  C   UNL A   1      51.831  27.795  27.007  1.00  0.00     0.173 A 
ATOM     73  C   UNL A   1      51.280  28.172  24.698  1.00  0.00     0.173 A 
ATOM     74  F   UNL A   1      51.483  27.705  28.300  1.00  0.00    -0.203 F 
ATOM     75  C   UNL A   1      53.169  27.638  26.660  1.00  0.00     0.198 A 
ATOM     76  C   UNL A   1      52.615  27.986  24.351  1.00  0.00     0.198 A 
ATOM     77  F   UNL A   1      50.390  28.434  23.727  1.00  0.00    -0.203 F 
ATOM     78  F   UNL A   1      54.084  27.412  27.613  1.00  0.00    -0.200 F 
ATOM     79  C   UNL A   1      53.559  27.726  25.332  1.00  0.00     0.200 A 
ATOM     80  F   UNL A   1      52.988  28.059  23.066  1.00  0.00    -0.200 F 
ATOM     81  F   UNL A   1      54.848  27.563  24.999  1.00  0.00    -0.200 F 
ENDBRANCH  57  71
BRANCH  58  82
ATOM     82  C   UNL A   1      41.180  28.571  28.433  1.00  0.00     0.064 A 
ATOM     83  C   UNL A   1      40.211  29.004  27.516  1.00  0.00     0.173 A 
ATOM     84  C   UNL A   1      40.753  28.243  29.727  1.00  0.00     0.173 A 
ATOM     85  F   UNL A   1      40.574  29.348  26.272  1.00  0.00    -0.203 F 
ATOM     86  C   UNL A   1      38.875  29.133  27.888  1.00  0.00     0.198 A 
ATOM     87  C   UNL A   1      39.412  28.346  30.090  1.00  0.00     0.198 A 
ATOM     88  F   UNL A   1      41.638  27.820  30.641  1.00  0.00    -0.203 F 
ATOM     89  F   UNL A   1      37.979  29.601  27.008  1.00  0.00    -0.200 F 
ATOM     90  C   UNL A   1      38.475  28.801  29.173  1.00  0.00     0.200 A 
ATOM     91  F   UNL A   1      39.027  28.012  31.330  1.00  0.00    -0.200 F 
ATOM     92  F   UNL A   1      37.190  28.929  29.531  1.00  0.00    -0.200 F 
ENDBRANCH  58  82
BRANCH  70  93
ATOM     93  C   UNL A   1      46.452  33.111  28.700  1.00  0.00     0.064 A 
ATOM     94  C   UNL A   1      46.210  34.163  27.805  1.00  0.00     0.173 A 
ATOM     95  C   UNL A   1      46.730  33.434  30.036  1.00  0.00     0.173 A 
ATOM     96  F   UNL A   1      45.956  33.905  26.512  1.00  0.00    -0.203 F 
ATOM     97  C   UNL A   1      46.267  35.488  28.228  1.00  0.00     0.198 A 
ATOM     98  C   UNL A   1      46.757  34.759  30.462  1.00  0.00     0.198 A 
ATOM     99  F   UNL A   1      46.961  32.463  30.933  1.00  0.00    -0.203 F 
ATOM    100  F   UNL A   1      46.077  36.479  27.346  1.00  0.00    -0.200 F 
ATOM    101  C   UNL A   1      46.533  35.785  29.556  1.00  0.00     0.200 A 
ATOM    102  F   UNL A   1      47.001  35.043  31.749  1.00  0.00    -0.200 F 
ATOM    103  F   UNL A   1      46.578  37.060  29.963  1.00  0.00    -0.200 F 
ENDBRANCH  70  93
ENDBRANCH  44  45
ENDBRANCH  36  39
ENDBRANCH  34  35
ENDBRANCH  33  34
ENDBRANCH  32  33
ENDBRANCH  31  32
ENDBRANCH  29  31
ENDBRANCH   1  27
TORSDOF 20
ENDMDL
MODEL 3
REMARK VINA RESULT:      -9.0      0.940      2.310
REMARK SMILES CCCCCCNC(=O)Oc1cccc(-c2ccc([C@H](C)C(=O)NCCCCNC(=O)c3ccc(-c4c5nc(c(-c6c(F)c(F)c(F)c(F)c6F)c6ccc([nH]6)c(-c6c(F)c(F)c(F)c(F)c6F)c6nc(c(-c7c(F)c(F)c(F)c(F)c7F)c7ccc4[nH]7)C=C6)C=C5)cc3)cc2F)c1
REMARK SMILES IDX 20 1 21 2 19 3 16 4 17 5 96 6 18 7 95 8 97 9 15 10 11 11
REMARK SMILES IDX 12 12 98 13 13 14 14 15 10 16 8 17 7 18 9 20 6 21 5 22 4 23
REMARK SMILES IDX 3 24 2 25 1 26 22 27 23 28 24 29 25 31 26 32 27 33 28 34
REMARK SMILES IDX 29 35 30 36 31 38 32 39 33 40 94 41 34 42 93 43 35 44 36 45
REMARK SMILES IDX 37 46 87 47 38 48 92 49 86 50 88 51 39 52 91 53 85 54 84 55
REMARK SMILES IDX 40 57 72 58 52 59 71 60 53 61 56 62 70 63 89 64 54 65 55 66
REMARK SMILES IDX 69 68 90 69 57 70 41 71 42 72 50 73 43 74 44 75 48 76 51 77
REMARK SMILES IDX 45 78 46 79 49 80 47 81 73 82 74 83 82 84 75 85 76 86 80 87
REMARK SMILES IDX 83 88 77 89 78 90 81 91 79 92 58 93 59 94 67 95 60 96 61 97
REMARK SMILES IDX 65 98 68 99 62 100 63 101 66 102 64 103
REMARK H PARENT 7 19 24 30 29 37 88 56 56 67
REMARK Flexibility Score: inf
ROOT
ATOM      1  C   UNL A   1      45.333  25.451  27.017  1.00  0.00     0.105 C 
ATOM      2  C   UNL A   1      46.445  24.902  27.922  1.00  0.00     0.023 C 
ENDROOT
BRANCH   1   3
ATOM      3  C   UNL A   1      45.150  26.961  27.119  1.00  0.00    -0.033 A 
ATOM      4  C   UNL A   1      44.657  29.766  27.431  1.00  0.00     0.018 A 
ATOM      5  C   UNL A   1      45.899  29.196  27.750  1.00  0.00     0.012 A 
ATOM      6  C   UNL A   1      43.697  28.904  26.881  1.00  0.00     0.131 A 
ATOM      7  C   UNL A   1      46.152  27.831  27.563  1.00  0.00     0.005 A 
ATOM      8  C   UNL A   1      43.929  27.533  26.735  1.00  0.00     0.044 A 
ATOM      9  F   UNL A   1      42.506  29.375  26.480  1.00  0.00    -0.206 F 
BRANCH   4  10
ATOM     10  C   UNL A   1      44.387  31.193  27.705  1.00  0.00    -0.012 A 
ATOM     11  C   UNL A   1      43.956  33.456  26.921  1.00  0.00     0.133 A 
ATOM     12  C   UNL A   1      43.774  33.910  28.222  1.00  0.00     0.047 A 
ATOM     13  C   UNL A   1      44.269  32.121  26.656  1.00  0.00     0.056 A 
ATOM     14  C   UNL A   1      43.890  33.010  29.275  1.00  0.00     0.004 A 
ATOM     15  C   UNL A   1      44.198  31.669  29.018  1.00  0.00     0.009 A 
BRANCH  11  16
ATOM     16  O   UNL A   1      43.928  34.414  25.897  1.00  0.00    -0.410 OA
BRANCH  16  17
ATOM     17  C   UNL A   1      44.697  34.187  24.769  1.00  0.00     0.412 C 
ATOM     18  N   UNL A   1      45.884  34.863  24.783  1.00  0.00    -0.321 N 
ATOM     19  H   UNL A   1      46.465  34.753  23.996  1.00  0.00     0.167 HD
ATOM     20  O   UNL A   1      44.392  33.470  23.816  1.00  0.00    -0.224 OA
BRANCH  18  21
ATOM     21  C   UNL A   1      46.373  35.726  25.841  1.00  0.00     0.119 C 
BRANCH  21  22
ATOM     22  C   UNL A   1      47.347  34.999  26.766  1.00  0.00     0.021 C 
BRANCH  22  23
ATOM     23  C   UNL A   1      47.610  33.533  26.400  1.00  0.00     0.002 C 
BRANCH  23  24
ATOM     24  C   UNL A   1      47.947  32.608  27.574  1.00  0.00    -0.000 C 
BRANCH  24  25
ATOM     25  C   UNL A   1      48.828  31.405  27.232  1.00  0.00    -0.003 C 
ATOM     26  C   UNL A   1      49.327  30.655  28.457  1.00  0.00     0.004 C 
ENDBRANCH  24  25
ENDBRANCH  23  24
ENDBRANCH  22  23
ENDBRANCH  21  22
ENDBRANCH  18  21
ENDBRANCH  16  17
ENDBRANCH  11  16
ENDBRANCH   4  10
ENDBRANCH   1   3
BRANCH   1  27
ATOM     27  C   UNL A   1      45.446  24.867  25.606  1.00  0.00     0.227 C 
ATOM     28  O   UNL A   1      46.530  24.862  25.014  1.00  0.00    -0.274 OA
ATOM     29  N   UNL A   1      44.377  24.355  24.931  1.00  0.00    -0.356 N 
ATOM     30  H   UNL A   1      44.543  24.166  23.979  1.00  0.00     0.163 HD
BRANCH  29  31
ATOM     31  C   UNL A   1      43.035  24.043  25.388  1.00  0.00     0.116 C 
BRANCH  31  32
ATOM     32  C   UNL A   1      42.755  22.545  25.388  1.00  0.00     0.023 C 
BRANCH  32  33
ATOM     33  C   UNL A   1      42.617  21.916  26.778  1.00  0.00     0.023 C 
BRANCH  33  34
ATOM     34  C   UNL A   1      41.331  22.249  27.529  1.00  0.00     0.116 C 
BRANCH  34  35
ATOM     35  N   UNL A   1      40.156  22.280  26.671  1.00  0.00    -0.352 N 
ATOM     36  C   UNL A   1      39.233  23.285  26.505  1.00  0.00     0.251 C 
ATOM     37  H   UNL A   1      40.002  21.469  26.135  1.00  0.00     0.163 HD
ATOM     38  O   UNL A   1      38.230  23.104  25.823  1.00  0.00    -0.269 OA
BRANCH  36  39
ATOM     39  C   UNL A   1      39.436  24.579  27.187  1.00  0.00     0.039 A 
ATOM     40  C   UNL A   1      38.962  24.735  28.491  1.00  0.00     0.014 A 
ATOM     41  C   UNL A   1      40.123  25.619  26.554  1.00  0.00     0.014 A 
ATOM     42  C   UNL A   1      39.247  25.909  29.192  1.00  0.00     0.010 A 
ATOM     43  C   UNL A   1      40.463  26.758  27.276  1.00  0.00     0.010 A 
ATOM     44  C   UNL A   1      40.035  26.911  28.605  1.00  0.00    -0.014 A 
BRANCH  44  45
ATOM     45  C   UNL A   1      40.432  28.125  29.364  1.00  0.00     0.031 A 
ATOM     46  C   UNL A   1      41.780  28.189  30.025  1.00  0.00     0.074 A 
ATOM     47  C   UNL A   1      39.553  29.134  29.519  1.00  0.00     0.049 A 
ATOM     48  N   UNL A   1      42.274  29.112  30.811  1.00  0.00    -0.248 NA
ATOM     49  C   UNL A   1      42.685  27.052  29.791  1.00  0.00     0.031 C 
ATOM     50  C   UNL A   1      38.200  29.172  28.963  1.00  0.00     0.029 A 
ATOM     51  N   UNL A   1      39.663  30.318  30.205  1.00  0.00    -0.354 N 
ATOM     52  C   UNL A   1      43.534  28.661  31.177  1.00  0.00     0.074 A 
ATOM     53  C   UNL A   1      43.713  27.360  30.568  1.00  0.00     0.031 C 
ATOM     54  C   UNL A   1      37.611  30.327  29.315  1.00  0.00     0.029 A 
ATOM     55  C   UNL A   1      38.529  31.093  30.152  1.00  0.00     0.049 A 
ATOM     56  H   UNL A   1      40.476  30.588  30.689  1.00  0.00     0.167 HD
ATOM     57  C   UNL A   1      44.469  29.286  31.932  1.00  0.00     0.037 A 
ATOM     58  C   UNL A   1      38.258  32.283  30.724  1.00  0.00     0.037 A 
ATOM     59  C   UNL A   1      44.302  30.591  32.513  1.00  0.00     0.049 A 
ATOM     60  C   UNL A   1      39.314  32.951  31.562  1.00  0.00     0.074 A 
ATOM     61  C   UNL A   1      45.208  31.329  33.255  1.00  0.00     0.029 A 
ATOM     62  N   UNL A   1      43.150  31.358  32.411  1.00  0.00    -0.354 N 
ATOM     63  N   UNL A   1      40.524  32.540  31.853  1.00  0.00    -0.248 NA
ATOM     64  C   UNL A   1      38.968  34.255  32.148  1.00  0.00     0.031 C 
ATOM     65  C   UNL A   1      44.592  32.526  33.633  1.00  0.00     0.029 A 
ATOM     66  C   UNL A   1      43.318  32.554  33.088  1.00  0.00     0.049 A 
ATOM     67  H   UNL A   1      42.334  31.091  31.930  1.00  0.00     0.167 HD
ATOM     68  C   UNL A   1      41.094  33.545  32.623  1.00  0.00     0.074 A 
ATOM     69  C   UNL A   1      40.101  34.591  32.746  1.00  0.00     0.031 C 
ATOM     70  C   UNL A   1      42.328  33.595  33.181  1.00  0.00     0.037 A 
BRANCH  57  71
ATOM     71  C   UNL A   1      45.767  28.569  32.164  1.00  0.00     0.064 A 
ATOM     72  C   UNL A   1      45.875  27.539  33.111  1.00  0.00     0.173 A 
ATOM     73  C   UNL A   1      46.902  28.880  31.400  1.00  0.00     0.173 A 
ATOM     74  F   UNL A   1      44.821  27.212  33.875  1.00  0.00    -0.203 F 
ATOM     75  C   UNL A   1      47.077  26.863  33.299  1.00  0.00     0.198 A 
ATOM     76  C   UNL A   1      48.094  28.182  31.572  1.00  0.00     0.198 A 
ATOM     77  F   UNL A   1      46.850  29.854  30.477  1.00  0.00    -0.203 F 
ATOM     78  F   UNL A   1      47.167  25.912  34.239  1.00  0.00    -0.200 F 
ATOM     79  C   UNL A   1      48.182  27.180  32.525  1.00  0.00     0.200 A 
ATOM     80  F   UNL A   1      49.159  28.481  30.814  1.00  0.00    -0.200 F 
ATOM     81  F   UNL A   1      49.336  26.519  32.701  1.00  0.00    -0.200 F 
ENDBRANCH  57  71
BRANCH  58  82
ATOM     82  C   UNL A   1      36.940  32.934  30.509  1.00  0.00     0.064 A 
ATOM     83  C   UNL A   1      35.943  32.880  31.494  1.00  0.00     0.173 A 
ATOM     84  C   UNL A   1      36.639  33.599  29.312  1.00  0.00     0.173 A 
ATOM     85  F   UNL A   1      36.176  32.237  32.647  1.00  0.00    -0.203 F 
ATOM     86  C   UNL A   1      34.686  33.442  31.278  1.00  0.00     0.198 A 
ATOM     87  C   UNL A   1      35.391  34.185  29.108  1.00  0.00     0.198 A 
ATOM     88  F   UNL A   1      37.558  33.683  28.340  1.00  0.00    -0.203 F 
ATOM     89  F   UNL A   1      33.735  33.328  32.215  1.00  0.00    -0.200 F 
ATOM     90  C   UNL A   1      34.412  34.097  30.087  1.00  0.00     0.200 A 
ATOM     91  F   UNL A   1      35.134  34.829  27.961  1.00  0.00    -0.200 F 
ATOM     92  F   UNL A   1      33.202  34.634  29.879  1.00  0.00    -0.200 F 
ENDBRANCH  58  82
BRANCH  70  93
ATOM     93  C   UNL A   1      42.696  34.841  33.931  1.00  0.00     0.064 A 
ATOM     94  C   UNL A   1      42.527  34.943  35.320  1.00  0.00     0.173 A 
ATOM     95  C   UNL A   1      43.267  35.931  33.256  1.00  0.00     0.173 A 
ATOM     96  F   UNL A   1      41.971  33.933  36.007  1.00  0.00    -0.203 F 
ATOM     97  C   UNL A   1      42.897  36.098  36.001  1.00  0.00     0.198 A 
ATOM     98  C   UNL A   1      43.662  37.073  33.945  1.00  0.00     0.198 A 
ATOM     99  F   UNL A   1      43.456  35.880  31.928  1.00  0.00    -0.203 F 
ATOM    100  F   UNL A   1      42.686  36.191  37.322  1.00  0.00    -0.200 F 
ATOM    101  C   UNL A   1      43.470  37.159  35.316  1.00  0.00     0.200 A 
ATOM    102  F   UNL A   1      44.227  38.092  33.283  1.00  0.00    -0.200 F 
ATOM    103  F   UNL A   1      43.833  38.267  35.975  1.00  0.00    -0.200 F 
ENDBRANCH  70  93
ENDBRANCH  44  45
ENDBRANCH  36  39
ENDBRANCH  34  35
ENDBRANCH  33  34
ENDBRANCH  32  33
ENDBRANCH  31  32
ENDBRANCH  29  31
ENDBRANCH   1  27
TORSDOF 20
ENDMDL
