MODEL 1
REMARK VINA RESULT:     -12.3      0.000      0.000
REMARK SMILES C[C@](NC(=O)c1c(F)cccc1F)(C(=O)NCCCCNC(=O)c1ccc(-c2c3nc(c(-c4c(F)c(F)c(F)c(F)c4F)c4ccc([nH]4)c(-c4c(F)c(F)c(F)c(F)c4F)c4nc(c(-c5c(F)c(F)c(F)c(F)c5F)c5ccc2[nH]5)C=C4)C=C3)cc1)C(F)(F)F
REMARK SMILES IDX 18 1 17 2 16 3 14 4 15 5 2 7 1 8 87 9 88 10 89 11 90 12 3 13
REMARK SMILES IDX 4 14 5 16 6 17 7 18 12 19 8 20 9 21 11 22 13 23 10 24 19 25
REMARK SMILES IDX 20 26 21 27 22 28 23 30 24 31 25 32 86 33 26 34 85 35 27 36
REMARK SMILES IDX 28 37 29 38 79 39 30 40 84 41 78 42 80 43 31 44 83 45 77 46
REMARK SMILES IDX 76 47 32 49 64 50 44 51 63 52 45 53 48 54 62 55 81 56 46 57
REMARK SMILES IDX 47 58 61 60 82 61 49 62 33 63 34 64 42 65 35 66 36 67 40 68
REMARK SMILES IDX 43 69 37 70 38 71 41 72 39 73 65 74 66 75 74 76 67 77 68 78
REMARK SMILES IDX 72 79 75 80 69 81 70 82 73 83 71 84 50 85 51 86 59 87 52 88
REMARK SMILES IDX 53 89 57 90 60 91 54 92 55 93 58 94 56 95
REMARK H PARENT 16 6 3 15 21 29 80 48 48 59
REMARK Flexibility Score: inf
ROOT
ATOM      1  C   UNL A   1      31.790  30.479  26.677  1.00  0.00     0.023 C 
ENDROOT
BRANCH   1   2
ATOM      2  C   UNL A   1      31.368  29.906  25.326  1.00  0.00     0.116 C 
BRANCH   2   3
ATOM      3  N   UNL A   1      32.506  29.758  24.440  1.00  0.00    -0.354 N 
ATOM      4  C   UNL A   1      33.215  28.674  24.018  1.00  0.00     0.254 C 
ATOM      5  O   UNL A   1      33.956  28.902  23.055  1.00  0.00    -0.272 OA
ATOM      6  H   UNL A   1      32.831  30.610  24.069  1.00  0.00     0.163 HD
BRANCH   4   7
ATOM      7  C   UNL A   1      32.919  27.235  24.502  1.00  0.00     0.212 C 
ATOM      8  C   UNL A   1      33.612  26.340  23.458  1.00  0.00     0.056 C 
BRANCH   7   9
ATOM      9  C   UNL A   1      33.587  27.158  25.907  1.00  0.00     0.420 C 
ATOM     10  F   UNL A   1      32.694  27.218  26.924  1.00  0.00    -0.168 F 
ATOM     11  F   UNL A   1      34.217  25.973  26.092  1.00  0.00    -0.168 F 
ATOM     12  F   UNL A   1      34.510  28.127  26.094  1.00  0.00    -0.168 F 
ENDBRANCH   7   9
BRANCH   7  13
ATOM     13  N   UNL A   1      31.444  26.967  24.591  1.00  0.00    -0.330 N 
ATOM     14  C   UNL A   1      30.692  25.863  24.922  1.00  0.00     0.258 C 
ATOM     15  H   UNL A   1      30.896  27.752  24.364  1.00  0.00     0.165 HD
ATOM     16  O   UNL A   1      29.488  26.029  25.114  1.00  0.00    -0.269 OA
BRANCH  14  17
ATOM     17  C   UNL A   1      31.213  24.485  24.935  1.00  0.00     0.111 A 
ATOM     18  C   UNL A   1      31.685  23.843  26.074  1.00  0.00     0.138 A 
ATOM     19  C   UNL A   1      31.155  23.748  23.750  1.00  0.00     0.138 A 
ATOM     20  F   UNL A   1      31.720  24.456  27.257  1.00  0.00    -0.206 F 
ATOM     21  C   UNL A   1      32.178  22.538  26.026  1.00  0.00     0.040 A 
ATOM     22  C   UNL A   1      31.615  22.430  23.694  1.00  0.00     0.040 A 
ATOM     23  F   UNL A   1      30.682  24.297  22.622  1.00  0.00    -0.206 F 
ATOM     24  C   UNL A   1      32.147  21.827  24.832  1.00  0.00     0.006 A 
ENDBRANCH  14  17
ENDBRANCH   7  13
ENDBRANCH   4   7
ENDBRANCH   2   3
ENDBRANCH   1   2
BRANCH   1  25
ATOM     25  C   UNL A   1      31.568  31.989  26.833  1.00  0.00     0.023 C 
BRANCH  25  26
ATOM     26  C   UNL A   1      32.805  32.799  27.207  1.00  0.00     0.116 C 
BRANCH  26  27
ATOM     27  N   UNL A   1      32.486  34.158  27.610  1.00  0.00    -0.352 N 
ATOM     28  C   UNL A   1      33.022  34.914  28.621  1.00  0.00     0.251 C 
ATOM     29  H   UNL A   1      31.782  34.600  27.081  1.00  0.00     0.163 HD
ATOM     30  O   UNL A   1      32.518  35.995  28.919  1.00  0.00    -0.269 OA
BRANCH  28  31
ATOM     31  C   UNL A   1      34.192  34.418  29.377  1.00  0.00     0.039 A 
ATOM     32  C   UNL A   1      33.981  33.769  30.596  1.00  0.00     0.014 A 
ATOM     33  C   UNL A   1      35.490  34.583  28.883  1.00  0.00     0.014 A 
ATOM     34  C   UNL A   1      35.067  33.225  31.286  1.00  0.00     0.010 A 
ATOM     35  C   UNL A   1      36.560  33.975  29.535  1.00  0.00     0.010 A 
ATOM     36  C   UNL A   1      36.360  33.288  30.742  1.00  0.00    -0.014 A 
BRANCH  36  37
ATOM     37  C   UNL A   1      37.511  32.632  31.414  1.00  0.00     0.031 A 
ATOM     38  C   UNL A   1      38.231  31.494  30.747  1.00  0.00     0.074 A 
ATOM     39  C   UNL A   1      37.872  33.026  32.652  1.00  0.00     0.049 A 
ATOM     40  N   UNL A   1      39.211  30.755  31.204  1.00  0.00    -0.248 NA
ATOM     41  C   UNL A   1      37.776  31.118  29.399  1.00  0.00     0.031 C 
ATOM     42  C   UNL A   1      37.227  34.091  33.420  1.00  0.00     0.029 A 
ATOM     43  N   UNL A   1      38.865  32.572  33.486  1.00  0.00    -0.354 N 
ATOM     44  C   UNL A   1      39.483  29.828  30.206  1.00  0.00     0.074 A 
ATOM     45  C   UNL A   1      38.529  30.057  29.144  1.00  0.00     0.031 C 
ATOM     46  C   UNL A   1      37.857  34.230  34.597  1.00  0.00     0.029 A 
ATOM     47  C   UNL A   1      38.921  33.234  34.688  1.00  0.00     0.049 A 
ATOM     48  H   UNL A   1      39.479  31.841  33.244  1.00  0.00     0.167 HD
ATOM     49  C   UNL A   1      40.457  28.890  30.169  1.00  0.00     0.037 A 
ATOM     50  C   UNL A   1      39.732  33.056  35.749  1.00  0.00     0.037 A 
ATOM     51  C   UNL A   1      41.421  28.682  31.219  1.00  0.00     0.049 A 
ATOM     52  C   UNL A   1      40.794  31.989  35.691  1.00  0.00     0.074 A 
ATOM     53  C   UNL A   1      42.479  27.790  31.249  1.00  0.00     0.029 A 
ATOM     54  N   UNL A   1      41.445  29.374  32.420  1.00  0.00    -0.354 N 
ATOM     55  N   UNL A   1      41.077  31.159  34.718  1.00  0.00    -0.248 NA
ATOM     56  C   UNL A   1      41.650  31.837  36.876  1.00  0.00     0.031 C 
ATOM     57  C   UNL A   1      43.109  27.903  32.491  1.00  0.00     0.029 A 
ATOM     58  C   UNL A   1      42.486  28.909  33.210  1.00  0.00     0.049 A 
ATOM     59  H   UNL A   1      40.818  30.089  32.675  1.00  0.00     0.167 HD
ATOM     60  C   UNL A   1      42.158  30.407  35.159  1.00  0.00     0.074 A 
ATOM     61  C   UNL A   1      42.489  30.889  36.483  1.00  0.00     0.031 C 
ATOM     62  C   UNL A   1      42.814  29.407  34.522  1.00  0.00     0.037 A 
BRANCH  49  63
ATOM     63  C   UNL A   1      40.551  28.018  28.950  1.00  0.00     0.064 A 
ATOM     64  C   UNL A   1      41.333  28.409  27.852  1.00  0.00     0.173 A 
ATOM     65  C   UNL A   1      39.800  26.840  28.833  1.00  0.00     0.173 A 
ATOM     66  F   UNL A   1      42.066  29.531  27.909  1.00  0.00    -0.203 F 
ATOM     67  C   UNL A   1      41.345  27.661  26.677  1.00  0.00     0.198 A 
ATOM     68  C   UNL A   1      39.839  26.077  27.668  1.00  0.00     0.198 A 
ATOM     69  F   UNL A   1      39.044  26.415  29.858  1.00  0.00    -0.203 F 
ATOM     70  F   UNL A   1      42.069  28.075  25.629  1.00  0.00    -0.200 F 
ATOM     71  C   UNL A   1      40.601  26.495  26.588  1.00  0.00     0.200 A 
ATOM     72  F   UNL A   1      39.139  24.936  27.593  1.00  0.00    -0.200 F 
ATOM     73  F   UNL A   1      40.618  25.771  25.460  1.00  0.00    -0.200 F 
ENDBRANCH  49  63
BRANCH  50  74
ATOM     74  C   UNL A   1      39.588  33.930  36.943  1.00  0.00     0.064 A 
ATOM     75  C   UNL A   1      38.805  33.545  38.042  1.00  0.00     0.173 A 
ATOM     76  C   UNL A   1      40.219  35.180  37.000  1.00  0.00     0.173 A 
ATOM     77  F   UNL A   1      38.176  32.361  38.038  1.00  0.00    -0.203 F 
ATOM     78  C   UNL A   1      38.642  34.387  39.140  1.00  0.00     0.198 A 
ATOM     79  C   UNL A   1      40.081  36.008  38.112  1.00  0.00     0.198 A 
ATOM     80  F   UNL A   1      40.996  35.584  35.984  1.00  0.00    -0.203 F 
ATOM     81  F   UNL A   1      37.858  34.011  40.160  1.00  0.00    -0.200 F 
ATOM     82  C   UNL A   1      39.285  35.615  39.178  1.00  0.00     0.200 A 
ATOM     83  F   UNL A   1      40.726  37.182  38.155  1.00  0.00    -0.200 F 
ATOM     84  F   UNL A   1      39.141  36.417  40.241  1.00  0.00    -0.200 F 
ENDBRANCH  50  74
BRANCH  62  85
ATOM     85  C   UNL A   1      43.979  28.773  35.225  1.00  0.00     0.064 A 
ATOM     86  C   UNL A   1      43.773  27.730  36.142  1.00  0.00     0.173 A 
ATOM     87  C   UNL A   1      45.287  29.253  35.061  1.00  0.00     0.173 A 
ATOM     88  F   UNL A   1      42.540  27.240  36.342  1.00  0.00    -0.203 F 
ATOM     89  C   UNL A   1      44.828  27.206  36.882  1.00  0.00     0.198 A 
ATOM     90  C   UNL A   1      46.345  28.704  35.781  1.00  0.00     0.198 A 
ATOM     91  F   UNL A   1      45.539  30.240  34.189  1.00  0.00    -0.203 F 
ATOM     92  F   UNL A   1      44.599  26.240  37.784  1.00  0.00    -0.200 F 
ATOM     93  C   UNL A   1      46.114  27.691  36.698  1.00  0.00     0.200 A 
ATOM     94  F   UNL A   1      47.591  29.156  35.584  1.00  0.00    -0.200 F 
ATOM     95  F   UNL A   1      47.131  27.181  37.407  1.00  0.00    -0.200 F 
ENDBRANCH  62  85
ENDBRANCH  36  37
ENDBRANCH  28  31
ENDBRANCH  26  27
ENDBRANCH  25  26
ENDBRANCH   1  25
TORSDOF 14
ENDMDL
MODEL 2
REMARK VINA RESULT:     -12.1      0.668      7.474
REMARK SMILES C[C@](NC(=O)c1c(F)cccc1F)(C(=O)NCCCCNC(=O)c1ccc(-c2c3nc(c(-c4c(F)c(F)c(F)c(F)c4F)c4ccc([nH]4)c(-c4c(F)c(F)c(F)c(F)c4F)c4nc(c(-c5c(F)c(F)c(F)c(F)c5F)c5ccc2[nH]5)C=C4)C=C3)cc1)C(F)(F)F
REMARK SMILES IDX 18 1 17 2 16 3 14 4 15 5 2 7 1 8 87 9 88 10 89 11 90 12 3 13
REMARK SMILES IDX 4 14 5 16 6 17 7 18 12 19 8 20 9 21 11 22 13 23 10 24 19 25
REMARK SMILES IDX 20 26 21 27 22 28 23 30 24 31 25 32 86 33 26 34 85 35 27 36
REMARK SMILES IDX 28 37 29 38 79 39 30 40 84 41 78 42 80 43 31 44 83 45 77 46
REMARK SMILES IDX 76 47 32 49 64 50 44 51 63 52 45 53 48 54 62 55 81 56 46 57
REMARK SMILES IDX 47 58 61 60 82 61 49 62 33 63 34 64 42 65 35 66 36 67 40 68
REMARK SMILES IDX 43 69 37 70 38 71 41 72 39 73 65 74 66 75 74 76 67 77 68 78
REMARK SMILES IDX 72 79 75 80 69 81 70 82 73 83 71 84 50 85 51 86 59 87 52 88
REMARK SMILES IDX 53 89 57 90 60 91 54 92 55 93 58 94 56 95
REMARK H PARENT 16 6 3 15 21 29 80 48 48 59
REMARK Flexibility Score: inf
ROOT
ATOM      1  C   UNL A   1      31.805  30.483  26.785  1.00  0.00     0.023 C 
ENDROOT
BRANCH   1   2
ATOM      2  C   UNL A   1      31.400  29.842  25.459  1.00  0.00     0.116 C 
BRANCH   2   3
ATOM      3  N   UNL A   1      32.536  29.723  24.566  1.00  0.00    -0.354 N 
ATOM      4  C   UNL A   1      33.247  28.654  24.110  1.00  0.00     0.254 C 
ATOM      5  O   UNL A   1      33.984  28.913  23.151  1.00  0.00    -0.272 OA
ATOM      6  H   UNL A   1      32.857  30.587  24.219  1.00  0.00     0.163 HD
BRANCH   4   7
ATOM      7  C   UNL A   1      32.956  27.200  24.551  1.00  0.00     0.212 C 
ATOM      8  C   UNL A   1      33.653  26.340  23.483  1.00  0.00     0.056 C 
BRANCH   7   9
ATOM      9  C   UNL A   1      33.624  27.086  25.954  1.00  0.00     0.420 C 
ATOM     10  F   UNL A   1      34.496  28.090  26.211  1.00  0.00    -0.168 F 
ATOM     11  F   UNL A   1      32.708  27.184  26.948  1.00  0.00    -0.168 F 
ATOM     12  F   UNL A   1      34.267  25.910  26.126  1.00  0.00    -0.168 F 
ENDBRANCH   7   9
BRANCH   7  13
ATOM     13  N   UNL A   1      31.482  26.924  24.633  1.00  0.00    -0.330 N 
ATOM     14  C   UNL A   1      30.734  25.811  24.942  1.00  0.00     0.258 C 
ATOM     15  H   UNL A   1      30.931  27.711  24.420  1.00  0.00     0.165 HD
ATOM     16  O   UNL A   1      29.530  25.968  25.134  1.00  0.00    -0.269 OA
BRANCH  14  17
ATOM     17  C   UNL A   1      31.262  24.435  24.931  1.00  0.00     0.111 A 
ATOM     18  C   UNL A   1      31.741  23.778  26.058  1.00  0.00     0.138 A 
ATOM     19  C   UNL A   1      31.203  23.718  23.735  1.00  0.00     0.138 A 
ATOM     20  F   UNL A   1      31.778  24.372  27.251  1.00  0.00    -0.206 F 
ATOM     21  C   UNL A   1      32.239  22.476  25.987  1.00  0.00     0.040 A 
ATOM     22  C   UNL A   1      31.668  22.403  23.656  1.00  0.00     0.040 A 
ATOM     23  F   UNL A   1      30.723  24.283  22.617  1.00  0.00    -0.206 F 
ATOM     24  C   UNL A   1      32.207  21.784  24.781  1.00  0.00     0.006 A 
ENDBRANCH  14  17
ENDBRANCH   7  13
ENDBRANCH   4   7
ENDBRANCH   2   3
ENDBRANCH   1   2
BRANCH   1  25
ATOM     25  C   UNL A   1      31.573  31.997  26.864  1.00  0.00     0.023 C 
BRANCH  25  26
ATOM     26  C   UNL A   1      32.825  32.841  27.081  1.00  0.00     0.116 C 
BRANCH  26  27
ATOM     27  N   UNL A   1      32.528  34.156  27.626  1.00  0.00    -0.352 N 
ATOM     28  C   UNL A   1      33.074  34.790  28.713  1.00  0.00     0.251 C 
ATOM     29  H   UNL A   1      31.835  34.664  27.146  1.00  0.00     0.163 HD
ATOM     30  O   UNL A   1      32.589  35.842  29.124  1.00  0.00    -0.269 OA
BRANCH  28  31
ATOM     31  C   UNL A   1      34.232  34.195  29.414  1.00  0.00     0.039 A 
ATOM     32  C   UNL A   1      33.999  33.330  30.486  1.00  0.00     0.014 A 
ATOM     33  C   UNL A   1      35.540  34.481  29.012  1.00  0.00     0.014 A 
ATOM     34  C   UNL A   1      35.077  32.697  31.110  1.00  0.00     0.010 A 
ATOM     35  C   UNL A   1      36.606  33.792  29.586  1.00  0.00     0.010 A 
ATOM     36  C   UNL A   1      36.386  32.892  30.640  1.00  0.00    -0.014 A 
BRANCH  36  37
ATOM     37  C   UNL A   1      37.533  32.154  31.229  1.00  0.00     0.031 A 
ATOM     38  C   UNL A   1      38.030  32.497  32.605  1.00  0.00     0.074 A 
ATOM     39  C   UNL A   1      38.162  31.211  30.500  1.00  0.00     0.049 A 
ATOM     40  N   UNL A   1      39.055  32.011  33.259  1.00  0.00    -0.248 NA
ATOM     41  C   UNL A   1      37.294  33.541  33.337  1.00  0.00     0.031 C 
ATOM     42  C   UNL A   1      37.800  30.815  29.139  1.00  0.00     0.029 A 
ATOM     43  N   UNL A   1      39.244  30.418  30.798  1.00  0.00    -0.354 N 
ATOM     44  C   UNL A   1      39.090  32.693  34.469  1.00  0.00     0.074 A 
ATOM     45  C   UNL A   1      38.021  33.666  34.438  1.00  0.00     0.031 C 
ATOM     46  C   UNL A   1      38.623  29.836  28.731  1.00  0.00     0.029 A 
ATOM     47  C   UNL A   1      39.600  29.565  29.782  1.00  0.00     0.049 A 
ATOM     48  H   UNL A   1      39.719  30.457  31.660  1.00  0.00     0.167 HD
ATOM     49  C   UNL A   1      39.921  32.503  35.519  1.00  0.00     0.037 A 
ATOM     50  C   UNL A   1      40.604  28.671  29.701  1.00  0.00     0.037 A 
ATOM     51  C   UNL A   1      40.969  31.515  35.555  1.00  0.00     0.049 A 
ATOM     52  C   UNL A   1      41.530  28.496  30.876  1.00  0.00     0.074 A 
ATOM     53  C   UNL A   1      41.830  31.213  36.596  1.00  0.00     0.029 A 
ATOM     54  N   UNL A   1      41.297  30.671  34.506  1.00  0.00    -0.354 N 
ATOM     55  N   UNL A   1      41.515  29.105  32.036  1.00  0.00    -0.248 NA
ATOM     56  C   UNL A   1      42.609  27.508  30.732  1.00  0.00     0.031 C 
ATOM     57  C   UNL A   1      42.714  30.225  36.158  1.00  0.00     0.029 A 
ATOM     58  C   UNL A   1      42.365  29.864  34.867  1.00  0.00     0.049 A 
ATOM     59  H   UNL A   1      40.839  30.646  33.634  1.00  0.00     0.167 HD
ATOM     60  C   UNL A   1      42.559  28.558  32.768  1.00  0.00     0.074 A 
ATOM     61  C   UNL A   1      43.179  27.556  31.928  1.00  0.00     0.031 C 
ATOM     62  C   UNL A   1      42.966  28.861  34.025  1.00  0.00     0.037 A 
BRANCH  49  63
ATOM     63  C   UNL A   1      39.732  33.367  36.733  1.00  0.00     0.064 A 
ATOM     64  C   UNL A   1      38.816  33.004  37.732  1.00  0.00     0.173 A 
ATOM     65  C   UNL A   1      40.393  34.598  36.865  1.00  0.00     0.173 A 
ATOM     66  F   UNL A   1      38.153  31.840  37.650  1.00  0.00    -0.203 F 
ATOM     67  C   UNL A   1      38.557  33.847  38.809  1.00  0.00     0.198 A 
ATOM     68  C   UNL A   1      40.154  35.425  37.960  1.00  0.00     0.198 A 
ATOM     69  F   UNL A   1      41.286  34.988  35.944  1.00  0.00    -0.203 F 
ATOM     70  F   UNL A   1      37.650  33.496  39.730  1.00  0.00    -0.200 F 
ATOM     71  C   UNL A   1      39.228  35.054  38.923  1.00  0.00     0.200 A 
ATOM     72  F   UNL A   1      40.823  36.580  38.083  1.00  0.00    -0.200 F 
ATOM     73  F   UNL A   1      38.983  35.863  39.964  1.00  0.00    -0.200 F 
ENDBRANCH  49  63
BRANCH  50  74
ATOM     74  C   UNL A   1      40.766  27.852  28.470  1.00  0.00     0.064 A 
ATOM     75  C   UNL A   1      41.540  28.299  27.389  1.00  0.00     0.173 A 
ATOM     76  C   UNL A   1      40.128  26.610  28.343  1.00  0.00     0.173 A 
ATOM     77  F   UNL A   1      42.168  29.482  27.455  1.00  0.00    -0.203 F 
ATOM     78  C   UNL A   1      41.653  27.544  26.223  1.00  0.00     0.198 A 
ATOM     79  C   UNL A   1      40.268  25.842  27.190  1.00  0.00     0.198 A 
ATOM     80  F   UNL A   1      39.393  26.129  29.357  1.00  0.00    -0.203 F 
ATOM     81  F   UNL A   1      42.370  28.012  25.191  1.00  0.00    -0.200 F 
ATOM     82  C   UNL A   1      41.022  26.313  26.126  1.00  0.00     0.200 A 
ATOM     83  F   UNL A   1      39.678  24.641  27.112  1.00  0.00    -0.200 F 
ATOM     84  F   UNL A   1      41.145  25.580  25.011  1.00  0.00    -0.200 F 
ENDBRANCH  50  74
BRANCH  62  85
ATOM     85  C   UNL A   1      44.121  28.088  34.594  1.00  0.00     0.064 A 
ATOM     86  C   UNL A   1      45.437  28.539  34.409  1.00  0.00     0.173 A 
ATOM     87  C   UNL A   1      43.934  26.860  35.245  1.00  0.00     0.173 A 
ATOM     88  F   UNL A   1      45.670  29.704  33.785  1.00  0.00    -0.203 F 
ATOM     89  C   UNL A   1      46.523  27.780  34.834  1.00  0.00     0.198 A 
ATOM     90  C   UNL A   1      45.022  26.118  35.698  1.00  0.00     0.198 A 
ATOM     91  F   UNL A   1      42.696  26.390  35.458  1.00  0.00    -0.203 F 
ATOM     92  F   UNL A   1      47.771  28.211  34.606  1.00  0.00    -0.200 F 
ATOM     93  C   UNL A   1      46.314  26.572  35.482  1.00  0.00     0.200 A 
ATOM     94  F   UNL A   1      44.819  24.962  36.345  1.00  0.00    -0.200 F 
ATOM     95  F   UNL A   1      47.360  25.844  35.897  1.00  0.00    -0.200 F 
ENDBRANCH  62  85
ENDBRANCH  36  37
ENDBRANCH  28  31
ENDBRANCH  26  27
ENDBRANCH  25  26
ENDBRANCH   1  25
TORSDOF 14
ENDMDL
MODEL 3
REMARK VINA RESULT:     -12.1      5.875     11.100
REMARK SMILES C[C@](NC(=O)c1c(F)cccc1F)(C(=O)NCCCCNC(=O)c1ccc(-c2c3nc(c(-c4c(F)c(F)c(F)c(F)c4F)c4ccc([nH]4)c(-c4c(F)c(F)c(F)c(F)c4F)c4nc(c(-c5c(F)c(F)c(F)c(F)c5F)c5ccc2[nH]5)C=C4)C=C3)cc1)C(F)(F)F
REMARK SMILES IDX 18 1 17 2 16 3 14 4 15 5 2 7 1 8 87 9 88 10 89 11 90 12 3 13
REMARK SMILES IDX 4 14 5 16 6 17 7 18 12 19 8 20 9 21 11 22 13 23 10 24 19 25
REMARK SMILES IDX 20 26 21 27 22 28 23 30 24 31 25 32 86 33 26 34 85 35 27 36
REMARK SMILES IDX 28 37 29 38 79 39 30 40 84 41 78 42 80 43 31 44 83 45 77 46
REMARK SMILES IDX 76 47 32 49 64 50 44 51 63 52 45 53 48 54 62 55 81 56 46 57
REMARK SMILES IDX 47 58 61 60 82 61 49 62 33 63 34 64 42 65 35 66 36 67 40 68
REMARK SMILES IDX 43 69 37 70 38 71 41 72 39 73 65 74 66 75 74 76 67 77 68 78
REMARK SMILES IDX 72 79 75 80 69 81 70 82 73 83 71 84 50 85 51 86 59 87 52 88
REMARK SMILES IDX 53 89 57 90 60 91 54 92 55 93 58 94 56 95
REMARK H PARENT 16 6 3 15 21 29 80 48 48 59
REMARK Flexibility Score: inf
ROOT
ATOM      1  C   UNL A   1      37.205  21.043  24.669  1.00  0.00     0.023 C 
ENDROOT
BRANCH   1   2
ATOM      2  C   UNL A   1      35.713  20.727  24.742  1.00  0.00     0.116 C 
BRANCH   2   3
ATOM      3  N   UNL A   1      35.166  21.079  26.038  1.00  0.00    -0.354 N 
ATOM      4  C   UNL A   1      34.384  22.110  26.463  1.00  0.00     0.254 C 
ATOM      5  O   UNL A   1      33.895  21.940  27.586  1.00  0.00    -0.272 OA
ATOM      6  H   UNL A   1      35.406  20.446  26.753  1.00  0.00     0.163 HD
BRANCH   4   7
ATOM      7  C   UNL A   1      33.918  23.252  25.530  1.00  0.00     0.212 C 
ATOM      8  C   UNL A   1      32.755  23.908  26.295  1.00  0.00     0.056 C 
BRANCH   7   9
ATOM      9  C   UNL A   1      35.164  24.179  25.407  1.00  0.00     0.420 C 
ATOM     10  F   UNL A   1      35.811  24.046  24.225  1.00  0.00    -0.168 F 
ATOM     11  F   UNL A   1      34.813  25.488  25.444  1.00  0.00    -0.168 F 
ATOM     12  F   UNL A   1      36.055  23.982  26.404  1.00  0.00    -0.168 F 
ENDBRANCH   7   9
BRANCH   7  13
ATOM     13  N   UNL A   1      33.495  22.738  24.184  1.00  0.00    -0.330 N 
ATOM     14  C   UNL A   1      32.979  23.329  23.053  1.00  0.00     0.258 C 
ATOM     15  H   UNL A   1      33.612  21.765  24.090  1.00  0.00     0.165 HD
ATOM     16  O   UNL A   1      32.940  22.657  22.025  1.00  0.00    -0.269 OA
BRANCH  14  17
ATOM     17  C   UNL A   1      32.360  24.666  23.033  1.00  0.00     0.111 A 
ATOM     18  C   UNL A   1      33.036  25.831  22.691  1.00  0.00     0.138 A 
ATOM     19  C   UNL A   1      30.991  24.761  23.293  1.00  0.00     0.138 A 
ATOM     20  F   UNL A   1      34.331  25.820  22.374  1.00  0.00    -0.206 F 
ATOM     21  C   UNL A   1      32.401  27.074  22.699  1.00  0.00     0.040 A 
ATOM     22  C   UNL A   1      30.334  25.994  23.273  1.00  0.00     0.040 A 
ATOM     23  F   UNL A   1      30.272  23.670  23.598  1.00  0.00    -0.206 F 
ATOM     24  C   UNL A   1      31.044  27.159  22.994  1.00  0.00     0.006 A 
ENDBRANCH  14  17
ENDBRANCH   7  13
ENDBRANCH   4   7
ENDBRANCH   2   3
ENDBRANCH   1   2
BRANCH   1  25
ATOM     25  C   UNL A   1      38.129  19.875  25.039  1.00  0.00     0.023 C 
BRANCH  25  26
ATOM     26  C   UNL A   1      39.291  20.225  25.963  1.00  0.00     0.116 C 
BRANCH  26  27
ATOM     27  N   UNL A   1      40.306  19.187  26.007  1.00  0.00    -0.352 N 
ATOM     28  C   UNL A   1      41.668  19.306  26.125  1.00  0.00     0.251 C 
ATOM     29  H   UNL A   1      39.968  18.264  25.943  1.00  0.00     0.163 HD
ATOM     30  O   UNL A   1      42.389  18.320  25.987  1.00  0.00    -0.269 OA
BRANCH  28  31
ATOM     31  C   UNL A   1      42.276  20.628  26.390  1.00  0.00     0.039 A 
ATOM     32  C   UNL A   1      42.655  21.424  25.307  1.00  0.00     0.014 A 
ATOM     33  C   UNL A   1      42.464  21.083  27.698  1.00  0.00     0.014 A 
ATOM     34  C   UNL A   1      43.159  22.707  25.535  1.00  0.00     0.010 A 
ATOM     35  C   UNL A   1      42.895  22.389  27.920  1.00  0.00     0.010 A 
ATOM     36  C   UNL A   1      43.246  23.215  26.842  1.00  0.00    -0.014 A 
BRANCH  36  37
ATOM     37  C   UNL A   1      43.688  24.610  27.097  1.00  0.00     0.031 A 
ATOM     38  C   UNL A   1      42.711  25.636  27.597  1.00  0.00     0.074 A 
ATOM     39  C   UNL A   1      44.959  24.965  26.823  1.00  0.00     0.049 A 
ATOM     40  N   UNL A   1      42.894  26.914  27.814  1.00  0.00    -0.248 NA
ATOM     41  C   UNL A   1      41.340  25.173  27.868  1.00  0.00     0.031 C 
ATOM     42  C   UNL A   1      45.991  24.072  26.297  1.00  0.00     0.029 A 
ATOM     43  N   UNL A   1      45.600  26.175  26.943  1.00  0.00    -0.354 N 
ATOM     44  C   UNL A   1      41.665  27.406  28.238  1.00  0.00     0.074 A 
ATOM     45  C   UNL A   1      40.730  26.304  28.193  1.00  0.00     0.031 C 
ATOM     46  C   UNL A   1      47.140  24.753  26.167  1.00  0.00     0.029 A 
ATOM     47  C   UNL A   1      46.918  26.142  26.557  1.00  0.00     0.049 A 
ATOM     48  H   UNL A   1      45.156  26.989  27.275  1.00  0.00     0.167 HD
ATOM     49  C   UNL A   1      41.356  28.656  28.652  1.00  0.00     0.037 A 
ATOM     50  C   UNL A   1      47.842  27.121  26.514  1.00  0.00     0.037 A 
ATOM     51  C   UNL A   1      42.297  29.744  28.719  1.00  0.00     0.049 A 
ATOM     52  C   UNL A   1      47.465  28.509  26.959  1.00  0.00     0.074 A 
ATOM     53  C   UNL A   1      42.088  31.034  29.176  1.00  0.00     0.029 A 
ATOM     54  N   UNL A   1      43.622  29.670  28.320  1.00  0.00    -0.354 N 
ATOM     55  N   UNL A   1      46.315  28.946  27.413  1.00  0.00    -0.248 NA
ATOM     56  C   UNL A   1      48.511  29.539  26.890  1.00  0.00     0.031 C 
ATOM     57  C   UNL A   1      43.270  31.755  29.001  1.00  0.00     0.029 A 
ATOM     58  C   UNL A   1      44.236  30.900  28.497  1.00  0.00     0.049 A 
ATOM     59  H   UNL A   1      44.063  28.864  27.966  1.00  0.00     0.167 HD
ATOM     60  C   UNL A   1      46.506  30.288  27.709  1.00  0.00     0.074 A 
ATOM     61  C   UNL A   1      47.887  30.593  27.396  1.00  0.00     0.031 C 
ATOM     62  C   UNL A   1      45.616  31.187  28.194  1.00  0.00     0.037 A 
BRANCH  49  63
ATOM     63  C   UNL A   1      39.943  28.925  29.085  1.00  0.00     0.064 A 
ATOM     64  C   UNL A   1      39.557  28.735  30.421  1.00  0.00     0.173 A 
ATOM     65  C   UNL A   1      38.951  29.286  28.162  1.00  0.00     0.173 A 
ATOM     66  F   UNL A   1      40.466  28.383  31.344  1.00  0.00    -0.203 F 
ATOM     67  C   UNL A   1      38.229  28.880  30.812  1.00  0.00     0.198 A 
ATOM     68  C   UNL A   1      37.628  29.462  28.563  1.00  0.00     0.198 A 
ATOM     69  F   UNL A   1      39.268  29.491  26.874  1.00  0.00    -0.203 F 
ATOM     70  F   UNL A   1      37.879  28.656  32.086  1.00  0.00    -0.200 F 
ATOM     71  C   UNL A   1      37.267  29.247  29.884  1.00  0.00     0.200 A 
ATOM     72  F   UNL A   1      36.704  29.841  27.668  1.00  0.00    -0.200 F 
ATOM     73  F   UNL A   1      35.989  29.394  30.262  1.00  0.00    -0.200 F 
ENDBRANCH  49  63
BRANCH  50  74
ATOM     74  C   UNL A   1      49.224  26.812  26.058  1.00  0.00     0.064 A 
ATOM     75  C   UNL A   1      49.610  26.987  24.720  1.00  0.00     0.173 A 
ATOM     76  C   UNL A   1      50.182  26.315  26.952  1.00  0.00     0.173 A 
ATOM     77  F   UNL A   1      48.731  27.455  23.822  1.00  0.00    -0.203 F 
ATOM     78  C   UNL A   1      50.894  26.657  24.292  1.00  0.00     0.198 A 
ATOM     79  C   UNL A   1      51.475  26.015  26.529  1.00  0.00     0.198 A 
ATOM     80  F   UNL A   1      49.868  26.150  28.246  1.00  0.00    -0.203 F 
ATOM     81  F   UNL A   1      51.226  26.799  23.001  1.00  0.00    -0.200 F 
ATOM     82  C   UNL A   1      51.828  26.177  25.198  1.00  0.00     0.200 A 
ATOM     83  F   UNL A   1      52.382  25.577  27.414  1.00  0.00    -0.200 F 
ATOM     84  F   UNL A   1      53.068  25.876  24.790  1.00  0.00    -0.200 F 
ENDBRANCH  50  74
BRANCH  62  85
ATOM     85  C   UNL A   1      46.099  32.585  28.451  1.00  0.00     0.064 A 
ATOM     86  C   UNL A   1      46.593  32.945  29.714  1.00  0.00     0.173 A 
ATOM     87  C   UNL A   1      45.992  33.591  27.478  1.00  0.00     0.173 A 
ATOM     88  F   UNL A   1      46.708  32.023  30.682  1.00  0.00    -0.203 F 
ATOM     89  C   UNL A   1      46.942  34.261  30.001  1.00  0.00     0.198 A 
ATOM     90  C   UNL A   1      46.372  34.901  27.759  1.00  0.00     0.198 A 
ATOM     91  F   UNL A   1      45.536  33.297  26.251  1.00  0.00    -0.203 F 
ATOM     92  F   UNL A   1      47.370  34.588  31.229  1.00  0.00    -0.200 F 
ATOM     93  C   UNL A   1      46.835  35.237  29.022  1.00  0.00     0.200 A 
ATOM     94  F   UNL A   1      46.291  35.838  26.805  1.00  0.00    -0.200 F 
ATOM     95  F   UNL A   1      47.178  36.503  29.297  1.00  0.00    -0.200 F 
ENDBRANCH  62  85
ENDBRANCH  36  37
ENDBRANCH  28  31
ENDBRANCH  26  27
ENDBRANCH  25  26
ENDBRANCH   1  25
TORSDOF 14
ENDMDL
