MODEL 1
REMARK VINA RESULT:     -12.8      0.000      0.000
REMARK SMILES COc1ccc2c(c1)[C@]1(CCC2)C[C@H]1C(=O)NCCCCNC(=O)c1ccc(-c2c3nc(c(-c4c(F)c(F)c(F)c(F)c4F)c4ccc([nH]4)c(-c4c(F)c(F)c(F)c(F)c4F)c4nc(c(-c5c(F)c(F)c(F)c(F)c5F)c5ccc2[nH]5)C=C4)C=C3)cc1
REMARK SMILES IDX 20 1 19 2 18 3 17 4 15 5 16 6 14 8 3 9 4 10 8 11 5 12 7 13
REMARK SMILES IDX 6 14 9 15 12 16 10 17 13 18 11 19 2 20 1 21 21 22 22 23
REMARK SMILES IDX 23 24 24 26 25 27 26 28 87 29 27 30 86 31 28 32 29 33 30 34
REMARK SMILES IDX 80 35 31 36 85 37 79 38 81 39 32 40 84 41 78 42 77 43 33 45
REMARK SMILES IDX 65 46 45 47 64 48 46 49 49 50 63 51 82 52 47 53 48 54 62 56
REMARK SMILES IDX 83 57 50 58 34 59 35 60 43 61 36 62 37 63 41 64 44 65 38 66
REMARK SMILES IDX 39 67 42 68 40 69 66 70 67 71 75 72 68 73 69 74 73 75 76 76
REMARK SMILES IDX 70 77 71 78 74 79 72 80 51 81 52 82 60 83 53 84 54 85 58 86
REMARK SMILES IDX 61 87 55 88 56 89 59 90 57 91
REMARK H PARENT 17 7 22 25 81 44 49 55
REMARK Flexibility Score: inf
ROOT
ATOM      1  C   UNL A   1      32.219  29.566  25.394  1.00  0.00     0.023 C 
ENDROOT
BRANCH   1   2
ATOM      2  C   UNL A   1      33.440  28.945  24.722  1.00  0.00     0.023 C 
BRANCH   2   3
ATOM      3  C   UNL A   1      33.441  28.990  23.198  1.00  0.00     0.116 C 
BRANCH   3   4
ATOM      4  N   UNL A   1      32.121  29.134  22.607  1.00  0.00    -0.356 N 
ATOM      5  C   UNL A   1      31.219  28.139  22.313  1.00  0.00     0.224 C 
ATOM      6  O   UNL A   1      30.088  28.396  21.926  1.00  0.00    -0.275 OA
ATOM      7  H   UNL A   1      31.838  30.053  22.392  1.00  0.00     0.163 HD
BRANCH   5   8
ATOM      8  C   UNL A   1      31.696  26.743  22.417  1.00  0.00     0.090 C 
ATOM      9  C   UNL A   1      34.916  24.210  24.022  1.00  0.00     0.119 A 
ATOM     10  C   UNL A   1      35.008  24.005  25.389  1.00  0.00     0.047 A 
ATOM     11  C   UNL A   1      33.765  24.779  23.473  1.00  0.00     0.051 A 
ATOM     12  C   UNL A   1      33.919  24.311  26.200  1.00  0.00     0.008 A 
ATOM     13  C   UNL A   1      32.660  25.153  24.268  1.00  0.00    -0.034 A 
ATOM     14  C   UNL A   1      32.748  24.865  25.651  1.00  0.00    -0.044 A 
ATOM     15  C   UNL A   1      31.450  25.929  23.700  1.00  0.00     0.008 C 
ATOM     16  C   UNL A   1      31.623  25.224  26.595  1.00  0.00     0.036 C 
ATOM     17  C   UNL A   1      30.511  26.500  24.759  1.00  0.00     0.013 C 
ATOM     18  C   UNL A   1      30.792  25.537  22.399  1.00  0.00     0.027 C 
ATOM     19  C   UNL A   1      30.302  25.490  25.879  1.00  0.00     0.006 C 
BRANCH   9  20
ATOM     20  O   UNL A   1      36.025  23.955  23.263  1.00  0.00    -0.497 OA
ATOM     21  C   UNL A   1      36.487  22.615  23.425  1.00  0.00     0.278 C 
ENDBRANCH   9  20
ENDBRANCH   5   8
ENDBRANCH   3   4
ENDBRANCH   2   3
ENDBRANCH   1   2
BRANCH   1  22
ATOM     22  C   UNL A   1      32.405  30.002  26.843  1.00  0.00     0.116 C 
BRANCH  22  23
ATOM     23  N   UNL A   1      32.308  31.440  27.059  1.00  0.00    -0.352 N 
ATOM     24  C   UNL A   1      33.269  32.316  27.523  1.00  0.00     0.251 C 
ATOM     25  H   UNL A   1      31.436  31.842  26.844  1.00  0.00     0.163 HD
ATOM     26  O   UNL A   1      32.990  33.496  27.711  1.00  0.00    -0.269 OA
BRANCH  24  27
ATOM     27  C   UNL A   1      34.626  31.819  27.854  1.00  0.00     0.039 A 
ATOM     28  C   UNL A   1      34.845  30.472  28.141  1.00  0.00     0.014 A 
ATOM     29  C   UNL A   1      35.685  32.728  27.947  1.00  0.00     0.014 A 
ATOM     30  C   UNL A   1      36.036  30.084  28.744  1.00  0.00     0.010 A 
ATOM     31  C   UNL A   1      36.923  32.310  28.452  1.00  0.00     0.010 A 
ATOM     32  C   UNL A   1      37.084  31.002  28.933  1.00  0.00    -0.014 A 
BRANCH  32  33
ATOM     33  C   UNL A   1      38.295  30.569  29.689  1.00  0.00     0.031 A 
ATOM     34  C   UNL A   1      38.497  30.981  31.126  1.00  0.00     0.074 A 
ATOM     35  C   UNL A   1      39.163  29.711  29.116  1.00  0.00     0.049 A 
ATOM     36  N   UNL A   1      39.429  30.606  31.970  1.00  0.00    -0.248 NA
ATOM     37  C   UNL A   1      37.538  31.941  31.696  1.00  0.00     0.031 C 
ATOM     38  C   UNL A   1      39.080  29.232  27.736  1.00  0.00     0.029 A 
ATOM     39  N   UNL A   1      40.255  29.055  29.630  1.00  0.00    -0.354 N 
ATOM     40  C   UNL A   1      39.171  31.284  33.155  1.00  0.00     0.074 A 
ATOM     41  C   UNL A   1      38.027  32.133  32.913  1.00  0.00     0.031 C 
ATOM     42  C   UNL A   1      40.028  28.306  27.534  1.00  0.00     0.029 A 
ATOM     43  C   UNL A   1      40.828  28.170  28.748  1.00  0.00     0.049 A 
ATOM     44  H   UNL A   1      40.595  29.206  30.541  1.00  0.00     0.167 HD
ATOM     45  C   UNL A   1      39.812  31.190  34.345  1.00  0.00     0.037 A 
ATOM     46  C   UNL A   1      41.878  27.339  28.896  1.00  0.00     0.037 A 
ATOM     47  C   UNL A   1      40.932  30.323  34.599  1.00  0.00     0.049 A 
ATOM     48  C   UNL A   1      42.605  27.294  30.211  1.00  0.00     0.074 A 
ATOM     49  C   UNL A   1      41.619  30.132  35.786  1.00  0.00     0.029 A 
ATOM     50  N   UNL A   1      41.530  29.502  33.655  1.00  0.00    -0.354 N 
ATOM     51  N   UNL A   1      42.321  27.911  31.332  1.00  0.00    -0.248 NA
ATOM     52  C   UNL A   1      43.805  26.447  30.281  1.00  0.00     0.031 C 
ATOM     53  C   UNL A   1      42.665  29.238  35.547  1.00  0.00     0.029 A 
ATOM     54  C   UNL A   1      42.600  28.831  34.224  1.00  0.00     0.049 A 
ATOM     55  H   UNL A   1      41.236  29.410  32.719  1.00  0.00     0.167 HD
ATOM     56  C   UNL A   1      43.298  27.522  32.239  1.00  0.00     0.074 A 
ATOM     57  C   UNL A   1      44.168  26.596  31.547  1.00  0.00     0.031 C 
ATOM     58  C   UNL A   1      43.459  27.908  33.528  1.00  0.00     0.037 A 
BRANCH  45  59
ATOM     59  C   UNL A   1      39.318  32.039  35.482  1.00  0.00     0.064 A 
ATOM     60  C   UNL A   1      38.439  31.529  36.449  1.00  0.00     0.173 A 
ATOM     61  C   UNL A   1      39.795  33.347  35.654  1.00  0.00     0.173 A 
ATOM     62  F   UNL A   1      37.949  30.286  36.328  1.00  0.00    -0.203 F 
ATOM     63  C   UNL A   1      38.044  32.303  37.538  1.00  0.00     0.198 A 
ATOM     64  C   UNL A   1      39.420  34.108  36.759  1.00  0.00     0.198 A 
ATOM     65  F   UNL A   1      40.647  33.879  34.765  1.00  0.00    -0.203 F 
ATOM     66  F   UNL A   1      37.178  31.806  38.431  1.00  0.00    -0.200 F 
ATOM     67  C   UNL A   1      38.542  33.588  37.696  1.00  0.00     0.200 A 
ATOM     68  F   UNL A   1      39.918  35.343  36.920  1.00  0.00    -0.200 F 
ATOM     69  F   UNL A   1      38.175  34.324  38.754  1.00  0.00    -0.200 F 
ENDBRANCH  45  59
BRANCH  46  70
ATOM     70  C   UNL A   1      42.296  26.475  27.761  1.00  0.00     0.064 A 
ATOM     71  C   UNL A   1      41.689  25.230  27.539  1.00  0.00     0.173 A 
ATOM     72  C   UNL A   1      43.292  26.884  26.860  1.00  0.00     0.173 A 
ATOM     73  F   UNL A   1      40.747  24.786  28.384  1.00  0.00    -0.203 F 
ATOM     74  C   UNL A   1      42.065  24.428  26.464  1.00  0.00     0.198 A 
ATOM     75  C   UNL A   1      43.645  26.094  25.768  1.00  0.00     0.198 A 
ATOM     76  F   UNL A   1      43.903  28.066  27.027  1.00  0.00    -0.203 F 
ATOM     77  F   UNL A   1      41.492  23.229  26.293  1.00  0.00    -0.200 F 
ATOM     78  C   UNL A   1      43.035  24.865  25.574  1.00  0.00     0.200 A 
ATOM     79  F   UNL A   1      44.569  26.530  24.902  1.00  0.00    -0.200 F 
ATOM     80  F   UNL A   1      43.384  24.100  24.530  1.00  0.00    -0.200 F 
ENDBRANCH  46  70
BRANCH  58  81
ATOM     81  C   UNL A   1      44.620  27.343  34.291  1.00  0.00     0.064 A 
ATOM     82  C   UNL A   1      45.822  28.053  34.413  1.00  0.00     0.173 A 
ATOM     83  C   UNL A   1      44.492  26.138  34.999  1.00  0.00     0.173 A 
ATOM     84  F   UNL A   1      45.997  29.204  33.746  1.00  0.00    -0.203 F 
ATOM     85  C   UNL A   1      46.855  27.578  35.216  1.00  0.00     0.198 A 
ATOM     86  C   UNL A   1      45.516  25.680  35.823  1.00  0.00     0.198 A 
ATOM     87  F   UNL A   1      43.358  25.426  34.922  1.00  0.00    -0.203 F 
ATOM     88  F   UNL A   1      48.003  28.264  35.304  1.00  0.00    -0.200 F 
ATOM     89  C   UNL A   1      46.695  26.400  35.931  1.00  0.00     0.200 A 
ATOM     90  F   UNL A   1      45.354  24.551  36.526  1.00  0.00    -0.200 F 
ATOM     91  F   UNL A   1      47.680  25.960  36.728  1.00  0.00    -0.200 F 
ENDBRANCH  58  81
ENDBRANCH  32  33
ENDBRANCH  24  27
ENDBRANCH  22  23
ENDBRANCH   1  22
TORSDOF 12
ENDMDL
MODEL 2
REMARK VINA RESULT:     -12.8      1.220      2.790
REMARK SMILES COc1ccc2c(c1)[C@]1(CCC2)C[C@H]1C(=O)NCCCCNC(=O)c1ccc(-c2c3nc(c(-c4c(F)c(F)c(F)c(F)c4F)c4ccc([nH]4)c(-c4c(F)c(F)c(F)c(F)c4F)c4nc(c(-c5c(F)c(F)c(F)c(F)c5F)c5ccc2[nH]5)C=C4)C=C3)cc1
REMARK SMILES IDX 20 1 19 2 18 3 17 4 15 5 16 6 14 8 3 9 4 10 8 11 5 12 7 13
REMARK SMILES IDX 6 14 9 15 12 16 10 17 13 18 11 19 2 20 1 21 21 22 22 23
REMARK SMILES IDX 23 24 24 26 25 27 26 28 87 29 27 30 86 31 28 32 29 33 30 34
REMARK SMILES IDX 80 35 31 36 85 37 79 38 81 39 32 40 84 41 78 42 77 43 33 45
REMARK SMILES IDX 65 46 45 47 64 48 46 49 49 50 63 51 82 52 47 53 48 54 62 56
REMARK SMILES IDX 83 57 50 58 34 59 35 60 43 61 36 62 37 63 41 64 44 65 38 66
REMARK SMILES IDX 39 67 42 68 40 69 66 70 67 71 75 72 68 73 69 74 73 75 76 76
REMARK SMILES IDX 70 77 71 78 74 79 72 80 51 81 52 82 60 83 53 84 54 85 58 86
REMARK SMILES IDX 61 87 55 88 56 89 59 90 57 91
REMARK H PARENT 17 7 22 25 81 44 49 55
REMARK Flexibility Score: inf
ROOT
ATOM      1  C   UNL A   1      31.727  28.985  26.088  1.00  0.00     0.023 C 
ENDROOT
BRANCH   1   2
ATOM      2  C   UNL A   1      32.152  27.629  26.644  1.00  0.00     0.023 C 
BRANCH   2   3
ATOM      3  C   UNL A   1      31.009  26.702  27.047  1.00  0.00     0.116 C 
BRANCH   3   4
ATOM      4  N   UNL A   1      31.334  25.288  26.964  1.00  0.00    -0.356 N 
ATOM      5  C   UNL A   1      31.251  24.470  25.863  1.00  0.00     0.224 C 
ATOM      6  O   UNL A   1      31.666  23.321  25.888  1.00  0.00    -0.275 OA
ATOM      7  H   UNL A   1      31.652  24.866  27.795  1.00  0.00     0.163 HD
BRANCH   5   8
ATOM      8  C   UNL A   1      30.573  25.014  24.667  1.00  0.00     0.090 C 
ATOM      9  C   UNL A   1      28.970  28.699  22.873  1.00  0.00     0.119 A 
ATOM     10  C   UNL A   1      29.843  29.680  22.430  1.00  0.00     0.047 A 
ATOM     11  C   UNL A   1      29.448  27.426  23.193  1.00  0.00     0.051 A 
ATOM     12  C   UNL A   1      31.186  29.366  22.247  1.00  0.00     0.008 A 
ATOM     13  C   UNL A   1      30.812  27.085  23.073  1.00  0.00    -0.034 A 
ATOM     14  C   UNL A   1      31.671  28.080  22.548  1.00  0.00    -0.044 A 
ATOM     15  C   UNL A   1      31.381  25.738  23.575  1.00  0.00     0.008 C 
ATOM     16  C   UNL A   1      33.151  27.822  22.378  1.00  0.00     0.036 C 
ATOM     17  C   UNL A   1      32.905  25.677  23.632  1.00  0.00     0.013 C 
ATOM     18  C   UNL A   1      30.693  24.425  23.284  1.00  0.00     0.027 C 
ATOM     19  C   UNL A   1      33.506  26.339  22.399  1.00  0.00     0.006 C 
BRANCH   9  20
ATOM     20  O   UNL A   1      27.669  29.058  23.099  1.00  0.00    -0.497 OA
ATOM     21  C   UNL A   1      27.523  30.468  23.258  1.00  0.00     0.278 C 
ENDBRANCH   9  20
ENDBRANCH   5   8
ENDBRANCH   3   4
ENDBRANCH   2   3
ENDBRANCH   1   2
BRANCH   1  22
ATOM     22  C   UNL A   1      32.832  30.030  25.963  1.00  0.00     0.116 C 
BRANCH  22  23
ATOM     23  N   UNL A   1      32.528  31.309  26.591  1.00  0.00    -0.352 N 
ATOM     24  C   UNL A   1      33.315  32.078  27.425  1.00  0.00     0.251 C 
ATOM     25  H   UNL A   1      31.637  31.677  26.393  1.00  0.00     0.163 HD
ATOM     26  O   UNL A   1      32.868  33.105  27.924  1.00  0.00    -0.269 OA
BRANCH  24  27
ATOM     27  C   UNL A   1      34.686  31.628  27.769  1.00  0.00     0.039 A 
ATOM     28  C   UNL A   1      34.958  30.284  28.017  1.00  0.00     0.014 A 
ATOM     29  C   UNL A   1      35.703  32.578  27.914  1.00  0.00     0.014 A 
ATOM     30  C   UNL A   1      36.153  29.927  28.632  1.00  0.00     0.010 A 
ATOM     31  C   UNL A   1      36.947  32.198  28.432  1.00  0.00     0.010 A 
ATOM     32  C   UNL A   1      37.155  30.883  28.873  1.00  0.00    -0.014 A 
BRANCH  32  33
ATOM     33  C   UNL A   1      38.369  30.478  29.641  1.00  0.00     0.031 A 
ATOM     34  C   UNL A   1      38.547  30.893  31.081  1.00  0.00     0.074 A 
ATOM     35  C   UNL A   1      39.262  29.642  29.076  1.00  0.00     0.049 A 
ATOM     36  N   UNL A   1      39.479  30.539  31.933  1.00  0.00    -0.248 NA
ATOM     37  C   UNL A   1      37.560  31.829  31.642  1.00  0.00     0.031 C 
ATOM     38  C   UNL A   1      39.204  29.162  27.695  1.00  0.00     0.029 A 
ATOM     39  N   UNL A   1      40.364  29.011  29.600  1.00  0.00    -0.354 N 
ATOM     40  C   UNL A   1      39.193  31.210  33.116  1.00  0.00     0.074 A 
ATOM     41  C   UNL A   1      38.031  32.032  32.864  1.00  0.00     0.031 C 
ATOM     42  C   UNL A   1      40.176  28.259  27.502  1.00  0.00     0.029 A 
ATOM     43  C   UNL A   1      40.966  28.140  28.724  1.00  0.00     0.049 A 
ATOM     44  H   UNL A   1      40.691  29.168  30.515  1.00  0.00     0.167 HD
ATOM     45  C   UNL A   1      39.824  31.130  34.312  1.00  0.00     0.037 A 
ATOM     46  C   UNL A   1      42.035  27.335  28.882  1.00  0.00     0.037 A 
ATOM     47  C   UNL A   1      40.962  30.289  34.577  1.00  0.00     0.049 A 
ATOM     48  C   UNL A   1      42.749  27.305  30.204  1.00  0.00     0.074 A 
ATOM     49  C   UNL A   1      41.642  30.113  35.771  1.00  0.00     0.029 A 
ATOM     50  N   UNL A   1      41.588  29.484  33.638  1.00  0.00    -0.354 N 
ATOM     51  N   UNL A   1      42.440  27.914  31.322  1.00  0.00    -0.248 NA
ATOM     52  C   UNL A   1      43.968  26.486  30.285  1.00  0.00     0.031 C 
ATOM     53  C   UNL A   1      42.710  29.244  35.541  1.00  0.00     0.029 A 
ATOM     54  C   UNL A   1      42.668  28.837  34.217  1.00  0.00     0.049 A 
ATOM     55  H   UNL A   1      41.306  29.385  32.700  1.00  0.00     0.167 HD
ATOM     56  C   UNL A   1      43.416  27.547  32.239  1.00  0.00     0.074 A 
ATOM     57  C   UNL A   1      44.315  26.642  31.555  1.00  0.00     0.031 C 
ATOM     58  C   UNL A   1      43.555  27.936  33.529  1.00  0.00     0.037 A 
BRANCH  45  59
ATOM     59  C   UNL A   1      39.299  31.965  35.446  1.00  0.00     0.064 A 
ATOM     60  C   UNL A   1      38.434  31.430  36.410  1.00  0.00     0.173 A 
ATOM     61  C   UNL A   1      39.733  33.289  35.616  1.00  0.00     0.173 A 
ATOM     62  F   UNL A   1      37.983  30.172  36.291  1.00  0.00    -0.203 F 
ATOM     63  C   UNL A   1      38.010  32.194  37.496  1.00  0.00     0.198 A 
ATOM     64  C   UNL A   1      39.330  34.040  36.717  1.00  0.00     0.198 A 
ATOM     65  F   UNL A   1      40.571  33.845  34.728  1.00  0.00    -0.203 F 
ATOM     66  F   UNL A   1      37.156  31.672  38.388  1.00  0.00    -0.200 F 
ATOM     67  C   UNL A   1      38.466  33.495  37.652  1.00  0.00     0.200 A 
ATOM     68  F   UNL A   1      39.787  35.290  36.876  1.00  0.00    -0.200 F 
ATOM     69  F   UNL A   1      38.071  34.221  38.707  1.00  0.00    -0.200 F 
ENDBRANCH  45  59
BRANCH  46  70
ATOM     70  C   UNL A   1      42.484  26.481  27.750  1.00  0.00     0.064 A 
ATOM     71  C   UNL A   1      41.925  25.214  27.535  1.00  0.00     0.173 A 
ATOM     72  C   UNL A   1      43.463  26.924  26.846  1.00  0.00     0.173 A 
ATOM     73  F   UNL A   1      41.001  24.738  28.382  1.00  0.00    -0.203 F 
ATOM     74  C   UNL A   1      42.330  24.422  26.462  1.00  0.00     0.198 A 
ATOM     75  C   UNL A   1      43.844  26.144  25.757  1.00  0.00     0.198 A 
ATOM     76  F   UNL A   1      44.029  28.129  27.007  1.00  0.00    -0.203 F 
ATOM     77  F   UNL A   1      41.803  23.201  26.298  1.00  0.00    -0.200 F 
ATOM     78  C   UNL A   1      43.282  24.891  25.569  1.00  0.00     0.200 A 
ATOM     79  F   UNL A   1      44.751  26.609  24.888  1.00  0.00    -0.200 F 
ATOM     80  F   UNL A   1      43.659  24.135  24.529  1.00  0.00    -0.200 F 
ENDBRANCH  46  70
BRANCH  58  81
ATOM     81  C   UNL A   1      44.722  27.397  34.304  1.00  0.00     0.064 A 
ATOM     82  C   UNL A   1      45.895  28.148  34.463  1.00  0.00     0.173 A 
ATOM     83  C   UNL A   1      44.625  26.174  34.984  1.00  0.00     0.173 A 
ATOM     84  F   UNL A   1      46.040  29.317  33.822  1.00  0.00    -0.203 F 
ATOM     85  C   UNL A   1      46.929  27.693  35.277  1.00  0.00     0.198 A 
ATOM     86  C   UNL A   1      45.649  25.736  35.819  1.00  0.00     0.198 A 
ATOM     87  F   UNL A   1      43.519  25.423  34.871  1.00  0.00    -0.203 F 
ATOM     88  F   UNL A   1      48.050  28.419  35.400  1.00  0.00    -0.200 F 
ATOM     89  C   UNL A   1      46.799  26.496  35.964  1.00  0.00     0.200 A 
ATOM     90  F   UNL A   1      45.515  24.588  36.496  1.00  0.00    -0.200 F 
ATOM     91  F   UNL A   1      47.784  26.076  36.772  1.00  0.00    -0.200 F 
ENDBRANCH  58  81
ENDBRANCH  32  33
ENDBRANCH  24  27
ENDBRANCH  22  23
ENDBRANCH   1  22
TORSDOF 12
ENDMDL
MODEL 3
REMARK VINA RESULT:     -12.7      1.248      3.225
REMARK SMILES COc1ccc2c(c1)[C@]1(CCC2)C[C@H]1C(=O)NCCCCNC(=O)c1ccc(-c2c3nc(c(-c4c(F)c(F)c(F)c(F)c4F)c4ccc([nH]4)c(-c4c(F)c(F)c(F)c(F)c4F)c4nc(c(-c5c(F)c(F)c(F)c(F)c5F)c5ccc2[nH]5)C=C4)C=C3)cc1
REMARK SMILES IDX 20 1 19 2 18 3 17 4 15 5 16 6 14 8 3 9 4 10 8 11 5 12 7 13
REMARK SMILES IDX 6 14 9 15 12 16 10 17 13 18 11 19 2 20 1 21 21 22 22 23
REMARK SMILES IDX 23 24 24 26 25 27 26 28 87 29 27 30 86 31 28 32 29 33 30 34
REMARK SMILES IDX 80 35 31 36 85 37 79 38 81 39 32 40 84 41 78 42 77 43 33 45
REMARK SMILES IDX 65 46 45 47 64 48 46 49 49 50 63 51 82 52 47 53 48 54 62 56
REMARK SMILES IDX 83 57 50 58 34 59 35 60 43 61 36 62 37 63 41 64 44 65 38 66
REMARK SMILES IDX 39 67 42 68 40 69 66 70 67 71 75 72 68 73 69 74 73 75 76 76
REMARK SMILES IDX 70 77 71 78 74 79 72 80 51 81 52 82 60 83 53 84 54 85 58 86
REMARK SMILES IDX 61 87 55 88 56 89 59 90 57 91
REMARK H PARENT 17 7 22 25 81 44 49 55
REMARK Flexibility Score: inf
ROOT
ATOM      1  C   UNL A   1      31.783  28.926  26.200  1.00  0.00     0.023 C 
ENDROOT
BRANCH   1   2
ATOM      2  C   UNL A   1      32.187  27.532  26.672  1.00  0.00     0.023 C 
BRANCH   2   3
ATOM      3  C   UNL A   1      31.030  26.592  26.994  1.00  0.00     0.116 C 
BRANCH   3   4
ATOM      4  N   UNL A   1      31.360  25.181  26.876  1.00  0.00    -0.356 N 
ATOM      5  C   UNL A   1      31.304  24.397  25.749  1.00  0.00     0.224 C 
ATOM      6  O   UNL A   1      31.722  23.248  25.749  1.00  0.00    -0.275 OA
ATOM      7  H   UNL A   1      31.660  24.734  27.701  1.00  0.00     0.163 HD
BRANCH   5   8
ATOM      8  C   UNL A   1      30.653  24.976  24.554  1.00  0.00     0.090 C 
ATOM      9  C   UNL A   1      29.108  28.717  22.826  1.00  0.00     0.119 A 
ATOM     10  C   UNL A   1      29.996  29.702  22.424  1.00  0.00     0.047 A 
ATOM     11  C   UNL A   1      29.572  27.433  23.122  1.00  0.00     0.051 A 
ATOM     12  C   UNL A   1      31.340  29.384  22.258  1.00  0.00     0.008 A 
ATOM     13  C   UNL A   1      30.936  27.085  23.019  1.00  0.00    -0.034 A 
ATOM     14  C   UNL A   1      31.811  28.087  22.536  1.00  0.00    -0.044 A 
ATOM     15  C   UNL A   1      31.486  25.722  23.496  1.00  0.00     0.008 C 
ATOM     16  C   UNL A   1      33.292  27.823  22.386  1.00  0.00     0.036 C 
ATOM     17  C   UNL A   1      33.009  25.649  23.580  1.00  0.00     0.013 C 
ATOM     18  C   UNL A   1      30.795  24.422  23.159  1.00  0.00     0.027 C 
ATOM     19  C   UNL A   1      33.637  26.337  22.377  1.00  0.00     0.006 C 
BRANCH   9  20
ATOM     20  O   UNL A   1      27.806  29.079  23.036  1.00  0.00    -0.497 OA
ATOM     21  C   UNL A   1      27.653  30.495  23.127  1.00  0.00     0.278 C 
ENDBRANCH   9  20
ENDBRANCH   5   8
ENDBRANCH   3   4
ENDBRANCH   2   3
ENDBRANCH   1   2
BRANCH   1  22
ATOM     22  C   UNL A   1      32.914  29.942  26.075  1.00  0.00     0.116 C 
BRANCH  22  23
ATOM     23  N   UNL A   1      32.644  31.228  26.705  1.00  0.00    -0.352 N 
ATOM     24  C   UNL A   1      33.462  31.988  27.516  1.00  0.00     0.251 C 
ATOM     25  H   UNL A   1      31.753  31.607  26.527  1.00  0.00     0.163 HD
ATOM     26  O   UNL A   1      33.042  33.024  28.022  1.00  0.00    -0.269 OA
BRANCH  24  27
ATOM     27  C   UNL A   1      34.834  31.520  27.829  1.00  0.00     0.039 A 
ATOM     28  C   UNL A   1      35.103  30.166  28.020  1.00  0.00     0.014 A 
ATOM     29  C   UNL A   1      35.856  32.460  28.001  1.00  0.00     0.014 A 
ATOM     30  C   UNL A   1      36.302  29.781  28.610  1.00  0.00     0.010 A 
ATOM     31  C   UNL A   1      37.104  32.054  28.492  1.00  0.00     0.010 A 
ATOM     32  C   UNL A   1      37.311  30.722  28.879  1.00  0.00    -0.014 A 
BRANCH  32  33
ATOM     33  C   UNL A   1      38.530  30.283  29.618  1.00  0.00     0.031 A 
ATOM     34  C   UNL A   1      38.758  30.700  31.049  1.00  0.00     0.074 A 
ATOM     35  C   UNL A   1      39.382  29.415  29.036  1.00  0.00     0.049 A 
ATOM     36  N   UNL A   1      39.700  30.321  31.880  1.00  0.00    -0.248 NA
ATOM     37  C   UNL A   1      37.817  31.671  31.630  1.00  0.00     0.031 C 
ATOM     38  C   UNL A   1      39.273  28.930  27.659  1.00  0.00     0.029 A 
ATOM     39  N   UNL A   1      40.476  28.752  29.535  1.00  0.00    -0.354 N 
ATOM     40  C   UNL A   1      39.466  31.007  33.066  1.00  0.00     0.074 A 
ATOM     41  C   UNL A   1      38.326  31.864  32.838  1.00  0.00     0.031 C 
ATOM     42  C   UNL A   1      40.210  27.995  27.447  1.00  0.00     0.029 A 
ATOM     43  C   UNL A   1      41.027  27.858  28.649  1.00  0.00     0.049 A 
ATOM     44  H   UNL A   1      40.831  28.904  30.440  1.00  0.00     0.167 HD
ATOM     45  C   UNL A   1      40.125  30.913  34.246  1.00  0.00     0.037 A 
ATOM     46  C   UNL A   1      42.073  27.019  28.785  1.00  0.00     0.037 A 
ATOM     47  C   UNL A   1      41.242  30.037  34.487  1.00  0.00     0.049 A 
ATOM     48  C   UNL A   1      42.820  26.974  30.088  1.00  0.00     0.074 A 
ATOM     49  C   UNL A   1      41.946  29.847  35.664  1.00  0.00     0.029 A 
ATOM     50  N   UNL A   1      41.817  29.207  33.537  1.00  0.00    -0.354 N 
ATOM     51  N   UNL A   1      42.559  27.599  31.210  1.00  0.00    -0.248 NA
ATOM     52  C   UNL A   1      44.013  26.117  30.143  1.00  0.00     0.031 C 
ATOM     53  C   UNL A   1      42.980  28.943  35.412  1.00  0.00     0.029 A 
ATOM     54  C   UNL A   1      42.891  28.529  34.093  1.00  0.00     0.049 A 
ATOM     55  H   UNL A   1      41.509  29.113  32.607  1.00  0.00     0.167 HD
ATOM     56  C   UNL A   1      43.546  27.205  32.104  1.00  0.00     0.074 A 
ATOM     57  C   UNL A   1      44.398  26.268  31.403  1.00  0.00     0.031 C 
ATOM     58  C   UNL A   1      43.731  27.596  33.388  1.00  0.00     0.037 A 
BRANCH  45  59
ATOM     59  C   UNL A   1      39.657  31.771  35.387  1.00  0.00     0.064 A 
ATOM     60  C   UNL A   1      40.136  33.077  35.566  1.00  0.00     0.173 A 
ATOM     61  C   UNL A   1      38.656  31.315  36.258  1.00  0.00     0.173 A 
ATOM     62  F   UNL A   1      41.097  33.560  34.765  1.00  0.00    -0.203 F 
ATOM     63  C   UNL A   1      39.642  33.888  36.585  1.00  0.00     0.198 A 
ATOM     64  C   UNL A   1      38.144  32.138  37.258  1.00  0.00     0.198 A 
ATOM     65  F   UNL A   1      38.154  30.078  36.122  1.00  0.00    -0.203 F 
ATOM     66  F   UNL A   1      40.138  35.121  36.758  1.00  0.00    -0.200 F 
ATOM     67  C   UNL A   1      38.640  33.421  37.424  1.00  0.00     0.200 A 
ATOM     68  F   UNL A   1      37.163  31.691  38.054  1.00  0.00    -0.200 F 
ATOM     69  F   UNL A   1      38.154  34.210  38.392  1.00  0.00    -0.200 F 
ENDBRANCH  45  59
BRANCH  46  70
ATOM     70  C   UNL A   1      42.465  26.145  27.647  1.00  0.00     0.064 A 
ATOM     71  C   UNL A   1      43.463  26.539  26.745  1.00  0.00     0.173 A 
ATOM     72  C   UNL A   1      41.867  24.890  27.451  1.00  0.00     0.173 A 
ATOM     73  F   UNL A   1      44.049  27.738  26.876  1.00  0.00    -0.203 F 
ATOM     74  C   UNL A   1      43.845  25.712  25.690  1.00  0.00     0.198 A 
ATOM     75  C   UNL A   1      42.272  24.053  26.415  1.00  0.00     0.198 A 
ATOM     76  F   UNL A   1      40.907  24.467  28.287  1.00  0.00    -0.203 F 
ATOM     77  F   UNL A   1      44.780  26.126  24.823  1.00  0.00    -0.200 F 
ATOM     78  C   UNL A   1      43.257  24.467  25.532  1.00  0.00     0.200 A 
ATOM     79  F   UNL A   1      41.713  22.843  26.278  1.00  0.00    -0.200 F 
ATOM     80  F   UNL A   1      43.637  23.665  24.527  1.00  0.00    -0.200 F 
ENDBRANCH  46  70
BRANCH  58  81
ATOM     81  C   UNL A   1      44.899  27.025  34.136  1.00  0.00     0.064 A 
ATOM     82  C   UNL A   1      46.127  27.699  34.187  1.00  0.00     0.173 A 
ATOM     83  C   UNL A   1      44.757  25.855  34.898  1.00  0.00     0.173 A 
ATOM     84  F   UNL A   1      46.316  28.814  33.466  1.00  0.00    -0.203 F 
ATOM     85  C   UNL A   1      47.171  27.223  34.975  1.00  0.00     0.198 A 
ATOM     86  C   UNL A   1      45.794  25.398  35.706  1.00  0.00     0.198 A 
ATOM     87  F   UNL A   1      43.599  25.179  34.889  1.00  0.00    -0.203 F 
ATOM     88  F   UNL A   1      48.343  27.873  34.996  1.00  0.00    -0.200 F 
ATOM     89  C   UNL A   1      46.999  26.082  35.744  1.00  0.00     0.200 A 
ATOM     90  F   UNL A   1      45.620  24.305  36.462  1.00  0.00    -0.200 F 
ATOM     91  F   UNL A   1      47.996  25.643  36.526  1.00  0.00    -0.200 F 
ENDBRANCH  58  81
ENDBRANCH  32  33
ENDBRANCH  24  27
ENDBRANCH  22  23
ENDBRANCH   1  22
TORSDOF 12
ENDMDL
