MODEL 1
REMARK VINA RESULT:     -10.9      0.000      0.000
REMARK SMILES O=C(Cc1ccc(-c2ccn(C(F)F)c(=O)c2)cc1)NCCCCNC(=O)c1ccc(-c2c3nc(c(-c4c(F)c(F)c(F)c(F)c4F)c4ccc([nH]4)c(-c4c(F)c(F)c(F)c(F)c4F)c4nc(c(-c5c(F)c(F)c(F)c(F)c5F)c5ccc2[nH]5)C=C4)C=C3)cc1
REMARK SMILES IDX 22 1 21 2 20 3 1 4 2 5 3 7 4 8 5 9 19 10 6 11 18 12 7 13
REMARK SMILES IDX 8 14 9 15 17 16 10 17 15 18 11 19 16 20 12 21 13 22 14 23
REMARK SMILES IDX 23 24 24 25 25 26 26 27 27 29 28 30 29 31 90 32 30 33 89 34
REMARK SMILES IDX 31 35 32 36 33 37 83 38 34 39 88 40 82 41 84 42 35 43 87 44
REMARK SMILES IDX 81 45 80 46 36 48 68 49 48 50 67 51 49 52 52 53 66 54 85 55
REMARK SMILES IDX 50 56 51 57 65 59 86 60 53 61 37 62 38 63 46 64 39 65 40 66
REMARK SMILES IDX 44 67 47 68 41 69 42 70 45 71 43 72 69 73 70 74 78 75 71 76
REMARK SMILES IDX 72 77 76 78 79 79 73 80 74 81 77 82 75 83 54 84 55 85 63 86
REMARK SMILES IDX 56 87 57 88 61 89 64 90 58 91 59 92 62 93 60 94
REMARK H PARENT 20 6 25 28 84 47 52 58
REMARK Flexibility Score: inf
ROOT
ATOM      1  C   UNL A   1      33.547  34.495  28.673  1.00  0.00     0.023 C 
ENDROOT
BRANCH   1   2
ATOM      2  C   UNL A   1      33.263  35.881  29.245  1.00  0.00     0.116 C 
BRANCH   2   3
ATOM      3  N   UNL A   1      33.880  36.089  30.537  1.00  0.00    -0.356 N 
ATOM      4  O   UNL A   1      32.027  35.502  31.765  1.00  0.00    -0.275 OA
ATOM      5  C   UNL A   1      33.213  35.814  31.716  1.00  0.00     0.224 C 
ATOM      6  H   UNL A   1      34.801  36.435  30.578  1.00  0.00     0.163 HD
BRANCH   5   7
ATOM      7  C   UNL A   1      34.098  35.882  32.950  1.00  0.00     0.135 C 
BRANCH   7   8
ATOM      8  C   UNL A   1      35.072  34.727  33.036  1.00  0.00    -0.039 A 
ATOM      9  C   UNL A   1      34.622  33.405  33.177  1.00  0.00     0.005 A 
ATOM     10  C   UNL A   1      36.450  34.959  32.942  1.00  0.00     0.005 A 
ATOM     11  C   UNL A   1      35.528  32.346  33.251  1.00  0.00     0.009 A 
ATOM     12  C   UNL A   1      37.357  33.896  33.006  1.00  0.00     0.009 A 
ATOM     13  C   UNL A   1      36.904  32.581  33.162  1.00  0.00    -0.018 A 
BRANCH  13  14
ATOM     14  C   UNL A   1      37.861  31.463  33.238  1.00  0.00    -0.011 A 
ATOM     15  C   UNL A   1      39.269  31.652  33.530  1.00  0.00     0.027 A 
ATOM     16  C   UNL A   1      37.404  30.218  33.018  1.00  0.00     0.080 A 
ATOM     17  C   UNL A   1      40.103  30.606  33.567  1.00  0.00     0.095 A 
ATOM     18  C   UNL A   1      38.316  29.044  33.070  1.00  0.00     0.255 A 
ATOM     19  N   UNL A   1      39.645  29.322  33.337  1.00  0.00    -0.258 N 
ATOM     20  O   UNL A   1      37.841  27.927  32.876  1.00  0.00    -0.269 OA
BRANCH  19  21
ATOM     21  C   UNL A   1      40.554  28.205  33.358  1.00  0.00     0.451 C 
ATOM     22  F   UNL A   1      40.895  27.828  32.102  1.00  0.00    -0.185 F 
ATOM     23  F   UNL A   1      41.690  28.518  34.027  1.00  0.00    -0.185 F 
ENDBRANCH  19  21
ENDBRANCH  13  14
ENDBRANCH   7   8
ENDBRANCH   5   7
ENDBRANCH   2   3
ENDBRANCH   1   2
BRANCH   1  24
ATOM     24  C   UNL A   1      34.911  33.898  29.033  1.00  0.00     0.023 C 
BRANCH  24  25
ATOM     25  C   UNL A   1      34.885  32.474  29.578  1.00  0.00     0.116 C 
BRANCH  25  26
ATOM     26  N   UNL A   1      34.211  31.546  28.684  1.00  0.00    -0.352 N 
ATOM     27  C   UNL A   1      34.706  30.463  28.000  1.00  0.00     0.251 C 
ATOM     28  H   UNL A   1      33.251  31.721  28.550  1.00  0.00     0.163 HD
ATOM     29  O   UNL A   1      34.006  29.905  27.155  1.00  0.00    -0.269 OA
BRANCH  27  30
ATOM     30  C   UNL A   1      36.079  29.969  28.244  1.00  0.00     0.039 A 
ATOM     31  C   UNL A   1      37.040  30.125  27.239  1.00  0.00     0.014 A 
ATOM     32  C   UNL A   1      36.424  29.328  29.438  1.00  0.00     0.014 A 
ATOM     33  C   UNL A   1      38.355  29.703  27.456  1.00  0.00     0.010 A 
ATOM     34  C   UNL A   1      37.750  28.970  29.680  1.00  0.00     0.010 A 
ATOM     35  C   UNL A   1      38.730  29.156  28.693  1.00  0.00    -0.014 A 
BRANCH  35  36
ATOM     36  C   UNL A   1      40.144  28.785  28.975  1.00  0.00     0.031 A 
ATOM     37  C   UNL A   1      41.068  29.759  29.653  1.00  0.00     0.074 A 
ATOM     38  C   UNL A   1      40.615  27.594  28.560  1.00  0.00     0.049 A 
ATOM     39  N   UNL A   1      42.347  29.644  29.914  1.00  0.00    -0.248 NA
ATOM     40  C   UNL A   1      40.483  31.042  30.071  1.00  0.00     0.031 C 
ATOM     41  C   UNL A   1      39.836  26.577  27.854  1.00  0.00     0.029 A 
ATOM     42  N   UNL A   1      41.868  27.040  28.660  1.00  0.00    -0.354 N 
ATOM     43  C   UNL A   1      42.720  30.841  30.511  1.00  0.00     0.074 A 
ATOM     44  C   UNL A   1      41.547  31.687  30.528  1.00  0.00     0.031 C 
ATOM     45  C   UNL A   1      40.622  25.519  27.599  1.00  0.00     0.029 A 
ATOM     46  C   UNL A   1      41.969  25.796  28.086  1.00  0.00     0.049 A 
ATOM     47  H   UNL A   1      42.624  27.494  29.099  1.00  0.00     0.167 HD
ATOM     48  C   UNL A   1      43.927  31.194  31.019  1.00  0.00     0.037 A 
ATOM     49  C   UNL A   1      43.029  24.975  27.959  1.00  0.00     0.037 A 
ATOM     50  C   UNL A   1      45.089  30.345  31.019  1.00  0.00     0.049 A 
ATOM     51  C   UNL A   1      44.360  25.395  28.521  1.00  0.00     0.074 A 
ATOM     52  C   UNL A   1      46.338  30.590  31.562  1.00  0.00     0.029 A 
ATOM     53  N   UNL A   1      45.146  29.083  30.443  1.00  0.00    -0.354 N 
ATOM     54  N   UNL A   1      44.683  26.502  29.144  1.00  0.00    -0.248 NA
ATOM     55  C   UNL A   1      45.472  24.447  28.366  1.00  0.00     0.031 C 
ATOM     56  C   UNL A   1      47.165  29.500  31.274  1.00  0.00     0.029 A 
ATOM     57  C   UNL A   1      46.417  28.550  30.598  1.00  0.00     0.049 A 
ATOM     58  H   UNL A   1      44.397  28.634  29.991  1.00  0.00     0.167 HD
ATOM     59  C   UNL A   1      46.024  26.372  29.480  1.00  0.00     0.074 A 
ATOM     60  C   UNL A   1      46.451  25.074  29.004  1.00  0.00     0.031 C 
ATOM     61  C   UNL A   1      46.829  27.252  30.125  1.00  0.00     0.037 A 
BRANCH  48  62
ATOM     62  C   UNL A   1      44.051  32.565  31.620  1.00  0.00     0.064 A 
ATOM     63  C   UNL A   1      43.738  32.809  32.966  1.00  0.00     0.173 A 
ATOM     64  C   UNL A   1      44.523  33.640  30.853  1.00  0.00     0.173 A 
ATOM     65  F   UNL A   1      43.275  31.817  33.742  1.00  0.00    -0.203 F 
ATOM     66  C   UNL A   1      43.863  34.084  33.512  1.00  0.00     0.198 A 
ATOM     67  C   UNL A   1      44.676  34.908  31.411  1.00  0.00     0.198 A 
ATOM     68  F   UNL A   1      44.846  33.462  29.563  1.00  0.00    -0.203 F 
ATOM     69  F   UNL A   1      43.510  34.302  34.787  1.00  0.00    -0.200 F 
ATOM     70  C   UNL A   1      44.338  35.130  32.737  1.00  0.00     0.200 A 
ATOM     71  F   UNL A   1      45.151  35.914  30.664  1.00  0.00    -0.200 F 
ATOM     72  F   UNL A   1      44.464  36.355  33.266  1.00  0.00    -0.200 F 
ENDBRANCH  48  62
BRANCH  49  73
ATOM     73  C   UNL A   1      42.868  23.660  27.286  1.00  0.00     0.064 A 
ATOM     74  C   UNL A   1      43.253  23.484  25.949  1.00  0.00     0.173 A 
ATOM     75  C   UNL A   1      42.327  22.555  27.960  1.00  0.00     0.173 A 
ATOM     76  F   UNL A   1      43.755  24.516  25.257  1.00  0.00    -0.203 F 
ATOM     77  C   UNL A   1      43.087  22.259  25.308  1.00  0.00     0.198 A 
ATOM     78  C   UNL A   1      42.188  21.323  27.326  1.00  0.00     0.198 A 
ATOM     79  F   UNL A   1      41.948  22.670  29.242  1.00  0.00    -0.203 F 
ATOM     80  F   UNL A   1      43.424  22.130  24.017  1.00  0.00    -0.200 F 
ATOM     81  C   UNL A   1      42.561  21.178  25.998  1.00  0.00     0.200 A 
ATOM     82  F   UNL A   1      41.694  20.276  28.001  1.00  0.00    -0.200 F 
ATOM     83  F   UNL A   1      42.407  19.998  25.382  1.00  0.00    -0.200 F 
ENDBRANCH  49  73
BRANCH  61  84
ATOM     84  C   UNL A   1      48.245  26.829  30.387  1.00  0.00     0.064 A 
ATOM     85  C   UNL A   1      48.589  26.055  31.504  1.00  0.00     0.173 A 
ATOM     86  C   UNL A   1      49.265  27.174  29.487  1.00  0.00     0.173 A 
ATOM     87  F   UNL A   1      47.654  25.714  32.404  1.00  0.00    -0.203 F 
ATOM     88  C   UNL A   1      49.907  25.661  31.723  1.00  0.00     0.198 A 
ATOM     89  C   UNL A   1      50.577  26.752  29.692  1.00  0.00     0.198 A 
ATOM     90  F   UNL A   1      48.989  27.909  28.399  1.00  0.00    -0.203 F 
ATOM     91  F   UNL A   1      50.221  24.961  32.823  1.00  0.00    -0.200 F 
ATOM     92  C   UNL A   1      50.897  26.003  30.815  1.00  0.00     0.200 A 
ATOM     93  F   UNL A   1      51.529  27.073  28.807  1.00  0.00    -0.200 F 
ATOM     94  F   UNL A   1      52.163  25.617  31.023  1.00  0.00    -0.200 F 
ENDBRANCH  61  84
ENDBRANCH  35  36
ENDBRANCH  27  30
ENDBRANCH  25  26
ENDBRANCH  24  25
ENDBRANCH   1  24
TORSDOF 14
ENDMDL
MODEL 2
REMARK VINA RESULT:     -10.8      4.815     10.784
REMARK SMILES O=C(Cc1ccc(-c2ccn(C(F)F)c(=O)c2)cc1)NCCCCNC(=O)c1ccc(-c2c3nc(c(-c4c(F)c(F)c(F)c(F)c4F)c4ccc([nH]4)c(-c4c(F)c(F)c(F)c(F)c4F)c4nc(c(-c5c(F)c(F)c(F)c(F)c5F)c5ccc2[nH]5)C=C4)C=C3)cc1
REMARK SMILES IDX 22 1 21 2 20 3 1 4 2 5 3 7 4 8 5 9 19 10 6 11 18 12 7 13
REMARK SMILES IDX 8 14 9 15 17 16 10 17 15 18 11 19 16 20 12 21 13 22 14 23
REMARK SMILES IDX 23 24 24 25 25 26 26 27 27 29 28 30 29 31 90 32 30 33 89 34
REMARK SMILES IDX 31 35 32 36 33 37 83 38 34 39 88 40 82 41 84 42 35 43 87 44
REMARK SMILES IDX 81 45 80 46 36 48 68 49 48 50 67 51 49 52 52 53 66 54 85 55
REMARK SMILES IDX 50 56 51 57 65 59 86 60 53 61 37 62 38 63 46 64 39 65 40 66
REMARK SMILES IDX 44 67 47 68 41 69 42 70 45 71 43 72 69 73 70 74 78 75 71 76
REMARK SMILES IDX 72 77 76 78 79 79 73 80 74 81 77 82 75 83 54 84 55 85 63 86
REMARK SMILES IDX 56 87 57 88 61 89 64 90 58 91 59 92 62 93 60 94
REMARK H PARENT 20 6 25 28 84 47 52 58
REMARK Flexibility Score: inf
ROOT
ATOM      1  C   UNL A   1      31.516  30.856  26.032  1.00  0.00     0.023 C 
ENDROOT
BRANCH   1   2
ATOM      2  C   UNL A   1      32.147  29.727  26.844  1.00  0.00     0.116 C 
BRANCH   2   3
ATOM      3  N   UNL A   1      33.097  28.951  26.076  1.00  0.00    -0.356 N 
ATOM      4  O   UNL A   1      31.523  27.627  25.050  1.00  0.00    -0.275 OA
ATOM      5  C   UNL A   1      32.689  27.985  25.175  1.00  0.00     0.224 C 
ATOM      6  H   UNL A   1      34.061  29.115  26.199  1.00  0.00     0.163 HD
BRANCH   5   7
ATOM      7  C   UNL A   1      33.816  27.442  24.310  1.00  0.00     0.135 C 
BRANCH   7   8
ATOM      8  C   UNL A   1      33.926  25.934  24.372  1.00  0.00    -0.039 A 
ATOM      9  C   UNL A   1      34.126  25.269  25.592  1.00  0.00     0.005 A 
ATOM     10  C   UNL A   1      33.797  25.169  23.206  1.00  0.00     0.005 A 
ATOM     11  C   UNL A   1      34.222  23.877  25.640  1.00  0.00     0.009 A 
ATOM     12  C   UNL A   1      33.883  23.774  23.256  1.00  0.00     0.009 A 
ATOM     13  C   UNL A   1      34.097  23.117  24.473  1.00  0.00    -0.018 A 
BRANCH  13  14
ATOM     14  C   UNL A   1      34.196  21.647  24.522  1.00  0.00    -0.011 A 
ATOM     15  C   UNL A   1      35.439  20.951  24.790  1.00  0.00     0.027 A 
ATOM     16  C   UNL A   1      33.081  20.927  24.302  1.00  0.00     0.080 A 
ATOM     17  C   UNL A   1      35.482  19.613  24.803  1.00  0.00     0.095 A 
ATOM     18  C   UNL A   1      33.111  19.440  24.330  1.00  0.00     0.255 A 
ATOM     19  N   UNL A   1      34.344  18.863  24.572  1.00  0.00    -0.258 N 
ATOM     20  O   UNL A   1      32.059  18.833  24.137  1.00  0.00    -0.269 OA
BRANCH  19  21
ATOM     21  C   UNL A   1      34.404  17.424  24.569  1.00  0.00     0.451 C 
ATOM     22  F   UNL A   1      34.159  16.927  23.332  1.00  0.00    -0.185 F 
ATOM     23  F   UNL A   1      35.625  16.989  24.963  1.00  0.00    -0.185 F 
ENDBRANCH  19  21
ENDBRANCH  13  14
ENDBRANCH   7   8
ENDBRANCH   5   7
ENDBRANCH   2   3
ENDBRANCH   1   2
BRANCH   1  24
ATOM     24  C   UNL A   1      31.340  32.185  26.774  1.00  0.00     0.023 C 
BRANCH  24  25
ATOM     25  C   UNL A   1      32.631  32.912  27.139  1.00  0.00     0.116 C 
BRANCH  25  26
ATOM     26  N   UNL A   1      32.397  34.276  27.585  1.00  0.00    -0.352 N 
ATOM     27  C   UNL A   1      32.993  34.989  28.596  1.00  0.00     0.251 C 
ATOM     28  H   UNL A   1      31.704  34.764  27.084  1.00  0.00     0.163 HD
ATOM     29  O   UNL A   1      32.530  36.079  28.927  1.00  0.00    -0.269 OA
BRANCH  27  30
ATOM     30  C   UNL A   1      34.173  34.454  29.312  1.00  0.00     0.039 A 
ATOM     31  C   UNL A   1      33.976  33.763  30.513  1.00  0.00     0.014 A 
ATOM     32  C   UNL A   1      35.471  34.650  28.832  1.00  0.00     0.014 A 
ATOM     33  C   UNL A   1      35.067  33.213  31.192  1.00  0.00     0.010 A 
ATOM     34  C   UNL A   1      36.551  34.043  29.473  1.00  0.00     0.010 A 
ATOM     35  C   UNL A   1      36.361  33.316  30.658  1.00  0.00    -0.014 A 
BRANCH  35  36
ATOM     36  C   UNL A   1      37.522  32.661  31.318  1.00  0.00     0.031 A 
ATOM     37  C   UNL A   1      38.227  31.509  30.656  1.00  0.00     0.074 A 
ATOM     38  C   UNL A   1      37.902  33.059  32.547  1.00  0.00     0.049 A 
ATOM     39  N   UNL A   1      39.206  30.765  31.108  1.00  0.00    -0.248 NA
ATOM     40  C   UNL A   1      37.751  31.126  29.318  1.00  0.00     0.031 C 
ATOM     41  C   UNL A   1      37.275  34.134  33.318  1.00  0.00     0.029 A 
ATOM     42  N   UNL A   1      38.897  32.598  33.373  1.00  0.00    -0.354 N 
ATOM     43  C   UNL A   1      39.453  29.822  30.120  1.00  0.00     0.074 A 
ATOM     44  C   UNL A   1      38.489  30.054  29.066  1.00  0.00     0.031 C 
ATOM     45  C   UNL A   1      37.910  34.261  34.493  1.00  0.00     0.029 A 
ATOM     46  C   UNL A   1      38.962  33.252  34.579  1.00  0.00     0.049 A 
ATOM     47  H   UNL A   1      39.507  31.865  33.124  1.00  0.00     0.167 HD
ATOM     48  C   UNL A   1      40.411  28.863  30.084  1.00  0.00     0.037 A 
ATOM     49  C   UNL A   1      39.770  33.056  35.638  1.00  0.00     0.037 A 
ATOM     50  C   UNL A   1      41.382  28.645  31.123  1.00  0.00     0.049 A 
ATOM     51  C   UNL A   1      40.817  31.977  35.578  1.00  0.00     0.074 A 
ATOM     52  C   UNL A   1      42.428  27.738  31.152  1.00  0.00     0.029 A 
ATOM     53  N   UNL A   1      41.425  29.340  32.324  1.00  0.00    -0.354 N 
ATOM     54  N   UNL A   1      41.085  31.137  34.609  1.00  0.00    -0.248 NA
ATOM     55  C   UNL A   1      41.679  31.826  36.759  1.00  0.00     0.031 C 
ATOM     56  C   UNL A   1      43.073  27.851  32.388  1.00  0.00     0.029 A 
ATOM     57  C   UNL A   1      42.465  28.865  33.108  1.00  0.00     0.049 A 
ATOM     58  H   UNL A   1      40.808  30.063  32.581  1.00  0.00     0.167 HD
ATOM     59  C   UNL A   1      42.161  30.377  35.050  1.00  0.00     0.074 A 
ATOM     60  C   UNL A   1      42.506  30.866  36.368  1.00  0.00     0.031 C 
ATOM     61  C   UNL A   1      42.804  29.365  34.417  1.00  0.00     0.037 A 
BRANCH  48  62
ATOM     62  C   UNL A   1      40.455  27.973  28.875  1.00  0.00     0.064 A 
ATOM     63  C   UNL A   1      41.239  28.291  27.755  1.00  0.00     0.173 A 
ATOM     64  C   UNL A   1      39.734  26.769  28.848  1.00  0.00     0.173 A 
ATOM     65  F   UNL A   1      41.941  29.434  27.726  1.00  0.00    -0.203 F 
ATOM     66  C   UNL A   1      41.275  27.453  26.643  1.00  0.00     0.198 A 
ATOM     67  C   UNL A   1      39.798  25.919  27.747  1.00  0.00     0.198 A 
ATOM     68  F   UNL A   1      38.976  26.410  29.895  1.00  0.00    -0.203 F 
ATOM     69  F   UNL A   1      41.991  27.805  25.566  1.00  0.00    -0.200 F 
ATOM     70  C   UNL A   1      40.560  26.266  26.642  1.00  0.00     0.200 A 
ATOM     71  F   UNL A   1      39.119  24.763  27.754  1.00  0.00    -0.200 F 
ATOM     72  F   UNL A   1      40.601  25.458  25.573  1.00  0.00    -0.200 F 
ENDBRANCH  48  62
BRANCH  49  73
ATOM     73  C   UNL A   1      39.633  33.916  36.842  1.00  0.00     0.064 A 
ATOM     74  C   UNL A   1      38.835  33.518  37.924  1.00  0.00     0.173 A 
ATOM     75  C   UNL A   1      40.291  35.151  36.937  1.00  0.00     0.173 A 
ATOM     76  F   UNL A   1      38.169  32.356  37.872  1.00  0.00    -0.203 F 
ATOM     77  C   UNL A   1      38.688  34.329  39.047  1.00  0.00     0.198 A 
ATOM     78  C   UNL A   1      40.165  35.949  38.071  1.00  0.00     0.198 A 
ATOM     79  F   UNL A   1      41.070  35.576  35.930  1.00  0.00    -0.203 F 
ATOM     80  F   UNL A   1      37.885  33.943  40.048  1.00  0.00    -0.200 F 
ATOM     81  C   UNL A   1      39.357  35.541  39.122  1.00  0.00     0.200 A 
ATOM     82  F   UNL A   1      40.826  37.112  38.148  1.00  0.00    -0.200 F 
ATOM     83  F   UNL A   1      39.220  36.318  40.205  1.00  0.00    -0.200 F 
ENDBRANCH  49  73
BRANCH  61  84
ATOM     84  C   UNL A   1      43.970  28.738  35.126  1.00  0.00     0.064 A 
ATOM     85  C   UNL A   1      43.811  27.632  35.973  1.00  0.00     0.173 A 
ATOM     86  C   UNL A   1      45.268  29.231  34.925  1.00  0.00     0.173 A 
ATOM     87  F   UNL A   1      42.587  27.134  36.212  1.00  0.00    -0.203 F 
ATOM     88  C   UNL A   1      44.907  27.056  36.611  1.00  0.00     0.198 A 
ATOM     89  C   UNL A   1      46.366  28.634  35.541  1.00  0.00     0.198 A 
ATOM     90  F   UNL A   1      45.477  30.284  34.121  1.00  0.00    -0.203 F 
ATOM     91  F   UNL A   1      44.725  26.030  37.453  1.00  0.00    -0.200 F 
ATOM     92  C   UNL A   1      46.182  27.552  36.389  1.00  0.00     0.200 A 
ATOM     93  F   UNL A   1      47.598  29.107  35.315  1.00  0.00    -0.200 F 
ATOM     94  F   UNL A   1      47.236  26.992  36.999  1.00  0.00    -0.200 F 
ENDBRANCH  61  84
ENDBRANCH  35  36
ENDBRANCH  27  30
ENDBRANCH  25  26
ENDBRANCH  24  25
ENDBRANCH   1  24
TORSDOF 14
ENDMDL
MODEL 3
REMARK VINA RESULT:     -10.7      5.024     10.848
REMARK SMILES O=C(Cc1ccc(-c2ccn(C(F)F)c(=O)c2)cc1)NCCCCNC(=O)c1ccc(-c2c3nc(c(-c4c(F)c(F)c(F)c(F)c4F)c4ccc([nH]4)c(-c4c(F)c(F)c(F)c(F)c4F)c4nc(c(-c5c(F)c(F)c(F)c(F)c5F)c5ccc2[nH]5)C=C4)C=C3)cc1
REMARK SMILES IDX 22 1 21 2 20 3 1 4 2 5 3 7 4 8 5 9 19 10 6 11 18 12 7 13
REMARK SMILES IDX 8 14 9 15 17 16 10 17 15 18 11 19 16 20 12 21 13 22 14 23
REMARK SMILES IDX 23 24 24 25 25 26 26 27 27 29 28 30 29 31 90 32 30 33 89 34
REMARK SMILES IDX 31 35 32 36 33 37 83 38 34 39 88 40 82 41 84 42 35 43 87 44
REMARK SMILES IDX 81 45 80 46 36 48 68 49 48 50 67 51 49 52 52 53 66 54 85 55
REMARK SMILES IDX 50 56 51 57 65 59 86 60 53 61 37 62 38 63 46 64 39 65 40 66
REMARK SMILES IDX 44 67 47 68 41 69 42 70 45 71 43 72 69 73 70 74 78 75 71 76
REMARK SMILES IDX 72 77 76 78 79 79 73 80 74 81 77 82 75 83 54 84 55 85 63 86
REMARK SMILES IDX 56 87 57 88 61 89 64 90 58 91 59 92 62 93 60 94
REMARK H PARENT 20 6 25 28 84 47 52 58
REMARK Flexibility Score: inf
ROOT
ATOM      1  C   UNL A   1      31.428  30.783  26.322  1.00  0.00     0.023 C 
ENDROOT
BRANCH   1   2
ATOM      2  C   UNL A   1      31.103  30.314  24.907  1.00  0.00     0.116 C 
BRANCH   2   3
ATOM      3  N   UNL A   1      32.142  29.477  24.344  1.00  0.00    -0.356 N 
ATOM      4  O   UNL A   1      31.016  29.008  22.395  1.00  0.00    -0.275 OA
ATOM      5  C   UNL A   1      32.033  28.933  23.078  1.00  0.00     0.224 C 
ATOM      6  H   UNL A   1      32.948  29.290  24.878  1.00  0.00     0.163 HD
BRANCH   5   7
ATOM      7  C   UNL A   1      33.311  28.277  22.582  1.00  0.00     0.135 C 
BRANCH   7   8
ATOM      8  C   UNL A   1      33.364  26.795  22.886  1.00  0.00    -0.039 A 
ATOM      9  C   UNL A   1      33.904  26.318  24.090  1.00  0.00     0.005 A 
ATOM     10  C   UNL A   1      32.839  25.870  21.974  1.00  0.00     0.005 A 
ATOM     11  C   UNL A   1      33.944  24.949  24.362  1.00  0.00     0.009 A 
ATOM     12  C   UNL A   1      32.870  24.500  22.252  1.00  0.00     0.009 A 
ATOM     13  C   UNL A   1      33.424  24.028  23.448  1.00  0.00    -0.018 A 
BRANCH  13  14
ATOM     14  C   UNL A   1      33.464  22.583  23.736  1.00  0.00    -0.011 A 
ATOM     15  C   UNL A   1      32.375  21.685  23.402  1.00  0.00     0.027 A 
ATOM     16  C   UNL A   1      34.557  22.084  24.340  1.00  0.00     0.080 A 
ATOM     17  C   UNL A   1      32.449  20.383  23.704  1.00  0.00     0.095 A 
ATOM     18  C   UNL A   1      34.660  20.637  24.666  1.00  0.00     0.255 A 
ATOM     19  N   UNL A   1      33.566  19.860  24.330  1.00  0.00    -0.258 N 
ATOM     20  O   UNL A   1      35.689  20.233  25.205  1.00  0.00    -0.269 OA
BRANCH  19  21
ATOM     21  C   UNL A   1      33.629  18.462  24.668  1.00  0.00     0.451 C 
ATOM     22  F   UNL A   1      32.425  17.863  24.500  1.00  0.00    -0.185 F 
ATOM     23  F   UNL A   1      34.532  17.817  23.890  1.00  0.00    -0.185 F 
ENDBRANCH  19  21
ENDBRANCH  13  14
ENDBRANCH   7   8
ENDBRANCH   5   7
ENDBRANCH   2   3
ENDBRANCH   1   2
BRANCH   1  24
ATOM     24  C   UNL A   1      31.393  32.299  26.540  1.00  0.00     0.023 C 
BRANCH  24  25
ATOM     25  C   UNL A   1      32.609  32.893  27.245  1.00  0.00     0.116 C 
BRANCH  25  26
ATOM     26  N   UNL A   1      32.401  34.274  27.649  1.00  0.00    -0.352 N 
ATOM     27  C   UNL A   1      33.023  35.011  28.627  1.00  0.00     0.251 C 
ATOM     28  H   UNL A   1      31.708  34.756  27.141  1.00  0.00     0.163 HD
ATOM     29  O   UNL A   1      32.581  36.119  28.927  1.00  0.00    -0.269 OA
BRANCH  27  30
ATOM     30  C   UNL A   1      34.205  34.482  29.344  1.00  0.00     0.039 A 
ATOM     31  C   UNL A   1      34.019  33.867  30.587  1.00  0.00     0.014 A 
ATOM     32  C   UNL A   1      35.495  34.612  28.822  1.00  0.00     0.014 A 
ATOM     33  C   UNL A   1      35.111  33.324  31.270  1.00  0.00     0.010 A 
ATOM     34  C   UNL A   1      36.574  34.010  29.470  1.00  0.00     0.010 A 
ATOM     35  C   UNL A   1      36.394  33.357  30.699  1.00  0.00    -0.014 A 
BRANCH  35  36
ATOM     36  C   UNL A   1      37.552  32.705  31.368  1.00  0.00     0.031 A 
ATOM     37  C   UNL A   1      38.273  31.564  30.705  1.00  0.00     0.074 A 
ATOM     38  C   UNL A   1      37.915  33.097  32.604  1.00  0.00     0.049 A 
ATOM     39  N   UNL A   1      39.253  30.824  31.162  1.00  0.00    -0.248 NA
ATOM     40  C   UNL A   1      37.816  31.188  29.358  1.00  0.00     0.031 C 
ATOM     41  C   UNL A   1      37.271  34.161  33.376  1.00  0.00     0.029 A 
ATOM     42  N   UNL A   1      38.904  32.636  33.438  1.00  0.00    -0.354 N 
ATOM     43  C   UNL A   1      39.519  29.891  30.169  1.00  0.00     0.074 A 
ATOM     44  C   UNL A   1      38.565  30.124  29.107  1.00  0.00     0.031 C 
ATOM     45  C   UNL A   1      37.892  34.283  34.560  1.00  0.00     0.029 A 
ATOM     46  C   UNL A   1      38.950  33.281  34.650  1.00  0.00     0.049 A 
ATOM     47  H   UNL A   1      39.522  31.910  33.190  1.00  0.00     0.167 HD
ATOM     48  C   UNL A   1      40.484  28.939  30.137  1.00  0.00     0.037 A 
ATOM     49  C   UNL A   1      39.747  33.083  35.717  1.00  0.00     0.037 A 
ATOM     50  C   UNL A   1      41.445  28.720  31.186  1.00  0.00     0.049 A 
ATOM     51  C   UNL A   1      40.803  32.013  35.660  1.00  0.00     0.074 A 
ATOM     52  C   UNL A   1      42.497  27.822  31.220  1.00  0.00     0.029 A 
ATOM     53  N   UNL A   1      41.469  29.407  32.392  1.00  0.00    -0.354 N 
ATOM     54  N   UNL A   1      41.088  31.182  34.688  1.00  0.00    -0.248 NA
ATOM     55  C   UNL A   1      41.653  31.859  36.850  1.00  0.00     0.031 C 
ATOM     56  C   UNL A   1      43.128  27.929  32.464  1.00  0.00     0.029 A 
ATOM     57  C   UNL A   1      42.503  28.934  33.185  1.00  0.00     0.049 A 
ATOM     58  H   UNL A   1      40.844  30.122  32.648  1.00  0.00     0.167 HD
ATOM     59  C   UNL A   1      42.165  30.427  35.135  1.00  0.00     0.074 A 
ATOM     60  C   UNL A   1      42.491  30.908  36.461  1.00  0.00     0.031 C 
ATOM     61  C   UNL A   1      42.823  29.425  34.502  1.00  0.00     0.037 A 
BRANCH  48  62
ATOM     62  C   UNL A   1      40.549  28.059  28.922  1.00  0.00     0.064 A 
ATOM     63  C   UNL A   1      39.814  26.867  28.836  1.00  0.00     0.173 A 
ATOM     64  C   UNL A   1      41.327  28.429  27.814  1.00  0.00     0.173 A 
ATOM     65  F   UNL A   1      39.060  26.463  29.871  1.00  0.00    -0.203 F 
ATOM     66  C   UNL A   1      39.879  26.063  27.701  1.00  0.00     0.198 A 
ATOM     67  C   UNL A   1      41.365  27.638  26.668  1.00  0.00     0.198 A 
ATOM     68  F   UNL A   1      42.042  29.564  27.837  1.00  0.00    -0.203 F 
ATOM     69  F   UNL A   1      39.207  24.904  27.664  1.00  0.00    -0.200 F 
ATOM     70  C   UNL A   1      40.649  26.452  26.616  1.00  0.00     0.200 A 
ATOM     71  F   UNL A   1      42.097  28.024  25.614  1.00  0.00    -0.200 F 
ATOM     72  F   UNL A   1      40.706  25.680  25.521  1.00  0.00    -0.200 F 
ENDBRANCH  48  62
BRANCH  49  73
ATOM     73  C   UNL A   1      39.589  33.933  36.926  1.00  0.00     0.064 A 
ATOM     74  C   UNL A   1      38.791  33.515  38.000  1.00  0.00     0.173 A 
ATOM     75  C   UNL A   1      40.228  35.177  37.033  1.00  0.00     0.173 A 
ATOM     76  F   UNL A   1      38.143  32.343  37.935  1.00  0.00    -0.203 F 
ATOM     77  C   UNL A   1      38.625  34.316  39.127  1.00  0.00     0.198 A 
ATOM     78  C   UNL A   1      40.083  35.965  38.172  1.00  0.00     0.198 A 
ATOM     79  F   UNL A   1      41.007  35.621  36.034  1.00  0.00    -0.203 F 
ATOM     80  F   UNL A   1      37.822  33.911  40.120  1.00  0.00    -0.200 F 
ATOM     81  C   UNL A   1      39.275  35.537  39.215  1.00  0.00     0.200 A 
ATOM     82  F   UNL A   1      40.726  37.137  38.261  1.00  0.00    -0.200 F 
ATOM     83  F   UNL A   1      39.119  36.305  40.302  1.00  0.00    -0.200 F 
ENDBRANCH  49  73
BRANCH  61  84
ATOM     84  C   UNL A   1      43.986  28.802  35.219  1.00  0.00     0.064 A 
ATOM     85  C   UNL A   1      45.295  29.277  35.054  1.00  0.00     0.173 A 
ATOM     86  C   UNL A   1      43.780  27.738  36.109  1.00  0.00     0.173 A 
ATOM     87  F   UNL A   1      45.546  30.282  34.200  1.00  0.00    -0.203 F 
ATOM     88  C   UNL A   1      46.359  28.694  35.738  1.00  0.00     0.198 A 
ATOM     89  C   UNL A   1      44.842  27.177  36.815  1.00  0.00     0.198 A 
ATOM     90  F   UNL A   1      42.547  27.248  36.308  1.00  0.00    -0.203 F 
ATOM     91  F   UNL A   1      47.608  29.134  35.529  1.00  0.00    -0.200 F 
ATOM     92  C   UNL A   1      46.131  27.651  36.622  1.00  0.00     0.200 A 
ATOM     93  F   UNL A   1      44.619  26.177  37.678  1.00  0.00    -0.200 F 
ATOM     94  F   UNL A   1      47.156  27.096  37.284  1.00  0.00    -0.200 F 
ENDBRANCH  61  84
ENDBRANCH  35  36
ENDBRANCH  27  30
ENDBRANCH  25  26
ENDBRANCH  24  25
ENDBRANCH   1  24
TORSDOF 14
ENDMDL
