MODEL 1
REMARK VINA RESULT:     -12.1      0.000      0.000
REMARK SMILES Cc1nnc(SCC[C@H]2CCC[C@]2([NH2+]C(C)C)C(=O)NCCCCNC(=O)c2ccc(-c3c4nc(c(-c5c(F)c(F)c(F)c(F)c5F)c5ccc([nH]5)c(-c5c(F)c(F)c(F)c(F)c5F)c5nc(c(-c6c(F)c(F)c(F)c(F)c6F)c6ccc3[nH]6)C=C5)C=C4)cc2)o1
REMARK SMILES IDX 21 1 20 2 18 3 19 4 13 6 9 7 10 8 11 9 12 10 8 11 7 12 6 13
REMARK SMILES IDX 5 14 1 15 2 16 3 17 91 18 4 19 14 20 15 23 16 24 17 25 22 26
REMARK SMILES IDX 23 27 24 28 25 29 26 30 27 32 28 33 29 34 90 35 30 36 89 37
REMARK SMILES IDX 31 38 32 39 33 40 83 41 34 42 88 43 82 44 84 45 35 46 87 47
REMARK SMILES IDX 81 48 80 49 36 51 68 52 48 53 67 54 49 55 52 56 66 57 85 58
REMARK SMILES IDX 50 59 51 60 65 62 86 63 53 64 37 65 38 66 46 67 39 68 40 69
REMARK SMILES IDX 44 70 47 71 41 72 42 73 45 74 43 75 69 76 70 77 78 78 71 79
REMARK SMILES IDX 72 80 76 81 79 82 73 83 74 84 77 85 75 86 54 87 55 88 63 89
REMARK SMILES IDX 56 90 57 91 61 92 64 93 58 94 59 95 62 96 60 97
REMARK H PARENT 20 5 14 21 14 22 25 31 84 50 52 61
REMARK Flexibility Score: inf
ROOT
ATOM      1  C   UNL A   1      33.116  29.970  26.339  1.00  0.00     0.116 C 
ENDROOT
BRANCH   1   2
ATOM      2  N   UNL A   1      33.263  29.889  24.914  1.00  0.00    -0.351 N 
ATOM      3  C   UNL A   1      33.053  28.851  24.078  1.00  0.00     0.281 C 
ATOM      4  O   UNL A   1      33.564  28.998  22.959  1.00  0.00    -0.268 OA
ATOM      5  H   UNL A   1      33.564  30.720  24.479  1.00  0.00     0.163 HD
BRANCH   3   6
ATOM      6  C   UNL A   1      32.143  27.609  24.442  1.00  0.00     0.178 C 
ATOM      7  C   UNL A   1      32.437  26.864  25.784  1.00  0.00     0.061 C 
ATOM      8  C   UNL A   1      33.856  26.353  25.567  1.00  0.00     0.011 C 
ATOM      9  C   UNL A   1      33.871  25.929  24.112  1.00  0.00     0.008 C 
ATOM     10  C   UNL A   1      32.610  26.530  23.456  1.00  0.00     0.079 C 
BRANCH   7  11
ATOM     11  C   UNL A   1      31.471  25.698  26.245  1.00  0.00     0.022 C 
BRANCH  11  12
ATOM     12  C   UNL A   1      31.885  24.211  26.464  1.00  0.00     0.080 C 
BRANCH  12  13
ATOM     13  S   UNL A   1      31.164  22.941  25.355  1.00  0.00    -0.065 SA
BRANCH  13  14
ATOM     14  C   UNL A   1      32.291  21.610  25.405  1.00  0.00     0.276 A 
ATOM     15  C   UNL A   1      35.648  20.627  25.003  1.00  0.00     0.113 C 
ATOM     16  C   UNL A   1      34.186  20.637  25.220  1.00  0.00     0.214 A 
ATOM     17  N   UNL A   1      33.277  19.727  24.942  1.00  0.00    -0.112 NA
ATOM     18  O   UNL A   1      33.633  21.823  25.616  1.00  0.00    -0.416 OA
ATOM     19  N   UNL A   1      32.043  20.353  25.084  1.00  0.00    -0.101 NA
ENDBRANCH  13  14
ENDBRANCH  12  13
ENDBRANCH  11  12
ENDBRANCH   7  11
BRANCH   6  20
ATOM     20  N   UNL A   1      30.734  28.046  24.445  1.00  0.00    -0.331 N 
ATOM     21  H   UNL A   1      30.733  29.064  24.387  1.00  0.00     0.347 HD
ATOM     22  H   UNL A   1      30.345  27.651  25.300  1.00  0.00     0.347 HD
BRANCH  20  23
ATOM     23  C   UNL A   1      29.859  27.549  23.380  1.00  0.00     0.176 C 
ATOM     24  C   UNL A   1      28.809  26.578  23.913  1.00  0.00     0.075 C 
ATOM     25  C   UNL A   1      29.164  28.775  22.776  1.00  0.00     0.075 C 
ENDBRANCH  20  23
ENDBRANCH   6  20
ENDBRANCH   3   6
ENDBRANCH   1   2
BRANCH   1  26
ATOM     26  C   UNL A   1      31.731  30.531  26.670  1.00  0.00     0.023 C 
BRANCH  26  27
ATOM     27  C   UNL A   1      31.654  32.065  26.649  1.00  0.00     0.023 C 
BRANCH  27  28
ATOM     28  C   UNL A   1      32.776  32.766  27.403  1.00  0.00     0.116 C 
BRANCH  28  29
ATOM     29  N   UNL A   1      32.466  34.157  27.683  1.00  0.00    -0.352 N 
ATOM     30  C   UNL A   1      33.018  34.989  28.624  1.00  0.00     0.251 C 
ATOM     31  H   UNL A   1      31.763  34.557  27.121  1.00  0.00     0.163 HD
ATOM     32  O   UNL A   1      32.550  36.093  28.840  1.00  0.00    -0.269 OA
BRANCH  30  33
ATOM     33  C   UNL A   1      34.177  34.500  29.394  1.00  0.00     0.039 A 
ATOM     34  C   UNL A   1      33.947  33.841  30.602  1.00  0.00     0.014 A 
ATOM     35  C   UNL A   1      35.472  34.647  28.890  1.00  0.00     0.014 A 
ATOM     36  C   UNL A   1      35.022  33.274  31.283  1.00  0.00     0.010 A 
ATOM     37  C   UNL A   1      36.529  34.013  29.529  1.00  0.00     0.010 A 
ATOM     38  C   UNL A   1      36.314  33.326  30.734  1.00  0.00    -0.014 A 
BRANCH  38  39
ATOM     39  C   UNL A   1      37.459  32.672  31.411  1.00  0.00     0.031 A 
ATOM     40  C   UNL A   1      38.172  31.532  30.740  1.00  0.00     0.074 A 
ATOM     41  C   UNL A   1      37.818  33.069  32.646  1.00  0.00     0.049 A 
ATOM     42  N   UNL A   1      39.152  30.789  31.189  1.00  0.00    -0.248 NA
ATOM     43  C   UNL A   1      37.702  31.159  29.396  1.00  0.00     0.031 C 
ATOM     44  C   UNL A   1      37.172  34.136  33.414  1.00  0.00     0.029 A 
ATOM     45  N   UNL A   1      38.810  32.616  33.478  1.00  0.00    -0.354 N 
ATOM     46  C   UNL A   1      39.407  29.861  30.189  1.00  0.00     0.074 A 
ATOM     47  C   UNL A   1      38.439  30.089  29.139  1.00  0.00     0.031 C 
ATOM     48  C   UNL A   1      37.803  34.274  34.592  1.00  0.00     0.029 A 
ATOM     49  C   UNL A   1      38.867  33.279  34.680  1.00  0.00     0.049 A 
ATOM     50  H   UNL A   1      39.424  31.884  33.237  1.00  0.00     0.167 HD
ATOM     51  C   UNL A   1      40.381  28.923  30.138  1.00  0.00     0.037 A 
ATOM     52  C   UNL A   1      39.681  33.095  35.736  1.00  0.00     0.037 A 
ATOM     53  C   UNL A   1      41.351  28.712  31.180  1.00  0.00     0.049 A 
ATOM     54  C   UNL A   1      40.735  32.022  35.667  1.00  0.00     0.074 A 
ATOM     55  C   UNL A   1      42.405  27.817  31.210  1.00  0.00     0.029 A 
ATOM     56  N   UNL A   1      41.379  29.406  32.382  1.00  0.00    -0.354 N 
ATOM     57  N   UNL A   1      41.012  31.195  34.688  1.00  0.00    -0.248 NA
ATOM     58  C   UNL A   1      41.594  31.863  36.848  1.00  0.00     0.031 C 
ATOM     59  C   UNL A   1      43.040  27.932  32.451  1.00  0.00     0.029 A 
ATOM     60  C   UNL A   1      42.420  28.941  33.170  1.00  0.00     0.049 A 
ATOM     61  H   UNL A   1      40.753  30.122  32.636  1.00  0.00     0.167 HD
ATOM     62  C   UNL A   1      42.096  30.442  35.120  1.00  0.00     0.074 A 
ATOM     63  C   UNL A   1      42.436  30.922  36.444  1.00  0.00     0.031 C 
ATOM     64  C   UNL A   1      42.752  29.443  34.480  1.00  0.00     0.037 A 
BRANCH  51  65
ATOM     65  C   UNL A   1      40.449  28.058  28.912  1.00  0.00     0.064 A 
ATOM     66  C   UNL A   1      39.724  26.860  28.816  1.00  0.00     0.173 A 
ATOM     67  C   UNL A   1      41.220  28.446  27.805  1.00  0.00     0.173 A 
ATOM     68  F   UNL A   1      38.981  26.436  29.850  1.00  0.00    -0.203 F 
ATOM     69  C   UNL A   1      39.794  26.068  27.673  1.00  0.00     0.198 A 
ATOM     70  C   UNL A   1      41.259  27.668  26.652  1.00  0.00     0.198 A 
ATOM     71  F   UNL A   1      41.929  29.584  27.841  1.00  0.00    -0.203 F 
ATOM     72  F   UNL A   1      39.135  24.901  27.628  1.00  0.00    -0.200 F 
ATOM     73  C   UNL A   1      40.555  26.477  26.589  1.00  0.00     0.200 A 
ATOM     74  F   UNL A   1      41.984  28.073  25.598  1.00  0.00    -0.200 F 
ATOM     75  F   UNL A   1      40.614  25.718  25.486  1.00  0.00    -0.200 F 
ENDBRANCH  51  65
BRANCH  52  76
ATOM     76  C   UNL A   1      39.551  33.958  36.941  1.00  0.00     0.064 A 
ATOM     77  C   UNL A   1      38.795  33.542  38.046  1.00  0.00     0.173 A 
ATOM     78  C   UNL A   1      40.159  35.221  37.007  1.00  0.00     0.173 A 
ATOM     79  F   UNL A   1      38.178  32.351  38.024  1.00  0.00    -0.203 F 
ATOM     80  C   UNL A   1      38.627  34.366  39.156  1.00  0.00     0.198 A 
ATOM     81  C   UNL A   1      40.017  36.030  38.132  1.00  0.00     0.198 A 
ATOM     82  F   UNL A   1      40.899  35.665  35.981  1.00  0.00    -0.203 F 
ATOM     83  F   UNL A   1      37.852  33.965  40.173  1.00  0.00    -0.200 F 
ATOM     84  C   UNL A   1      39.242  35.608  39.201  1.00  0.00     0.200 A 
ATOM     85  F   UNL A   1      40.627  37.223  38.178  1.00  0.00    -0.200 F 
ATOM     86  F   UNL A   1      39.080  36.400  40.269  1.00  0.00    -0.200 F 
ENDBRANCH  52  76
BRANCH  64  87
ATOM     87  C   UNL A   1      43.931  28.833  35.180  1.00  0.00     0.064 A 
ATOM     88  C   UNL A   1      43.798  27.724  36.028  1.00  0.00     0.173 A 
ATOM     89  C   UNL A   1      45.223  29.341  34.962  1.00  0.00     0.173 A 
ATOM     90  F   UNL A   1      42.583  27.211  36.280  1.00  0.00    -0.203 F 
ATOM     91  C   UNL A   1      44.907  27.164  36.654  1.00  0.00     0.198 A 
ATOM     92  C   UNL A   1      46.334  28.755  35.561  1.00  0.00     0.198 A 
ATOM     93  F   UNL A   1      45.407  30.395  34.153  1.00  0.00    -0.203 F 
ATOM     94  F   UNL A   1      44.748  26.137  37.500  1.00  0.00    -0.200 F 
ATOM     95  C   UNL A   1      46.174  27.674  36.413  1.00  0.00     0.200 A 
ATOM     96  F   UNL A   1      47.559  29.240  35.315  1.00  0.00    -0.200 F 
ATOM     97  F   UNL A   1      47.242  27.125  37.009  1.00  0.00    -0.200 F 
ENDBRANCH  64  87
ENDBRANCH  38  39
ENDBRANCH  30  33
ENDBRANCH  28  29
ENDBRANCH  27  28
ENDBRANCH  26  27
ENDBRANCH   1  26
TORSDOF 17
ENDMDL
MODEL 2
REMARK VINA RESULT:     -12.0      0.705      2.056
REMARK SMILES Cc1nnc(SCC[C@H]2CCC[C@]2([NH2+]C(C)C)C(=O)NCCCCNC(=O)c2ccc(-c3c4nc(c(-c5c(F)c(F)c(F)c(F)c5F)c5ccc([nH]5)c(-c5c(F)c(F)c(F)c(F)c5F)c5nc(c(-c6c(F)c(F)c(F)c(F)c6F)c6ccc3[nH]6)C=C5)C=C4)cc2)o1
REMARK SMILES IDX 21 1 20 2 18 3 19 4 13 6 9 7 10 8 11 9 12 10 8 11 7 12 6 13
REMARK SMILES IDX 5 14 1 15 2 16 3 17 91 18 4 19 14 20 15 23 16 24 17 25 22 26
REMARK SMILES IDX 23 27 24 28 25 29 26 30 27 32 28 33 29 34 90 35 30 36 89 37
REMARK SMILES IDX 31 38 32 39 33 40 83 41 34 42 88 43 82 44 84 45 35 46 87 47
REMARK SMILES IDX 81 48 80 49 36 51 68 52 48 53 67 54 49 55 52 56 66 57 85 58
REMARK SMILES IDX 50 59 51 60 65 62 86 63 53 64 37 65 38 66 46 67 39 68 40 69
REMARK SMILES IDX 44 70 47 71 41 72 42 73 45 74 43 75 69 76 70 77 78 78 71 79
REMARK SMILES IDX 72 80 76 81 79 82 73 83 74 84 77 85 75 86 54 87 55 88 63 89
REMARK SMILES IDX 56 90 57 91 61 92 64 93 58 94 59 95 62 96 60 97
REMARK H PARENT 20 5 14 21 14 22 25 31 84 50 52 61
REMARK Flexibility Score: inf
ROOT
ATOM      1  C   UNL A   1      33.094  29.926  26.497  1.00  0.00     0.116 C 
ENDROOT
BRANCH   1   2
ATOM      2  N   UNL A   1      33.223  29.947  25.068  1.00  0.00    -0.351 N 
ATOM      3  C   UNL A   1      33.006  28.971  24.162  1.00  0.00     0.281 C 
ATOM      4  O   UNL A   1      33.503  29.199  23.051  1.00  0.00    -0.268 OA
ATOM      5  H   UNL A   1      33.516  30.808  24.690  1.00  0.00     0.163 HD
BRANCH   3   6
ATOM      6  C   UNL A   1      32.105  27.702  24.448  1.00  0.00     0.178 C 
ATOM      7  C   UNL A   1      32.365  26.911  25.770  1.00  0.00     0.061 C 
ATOM      8  C   UNL A   1      33.799  26.431  25.584  1.00  0.00     0.011 C 
ATOM      9  C   UNL A   1      33.871  26.062  24.116  1.00  0.00     0.008 C 
ATOM     10  C   UNL A   1      32.623  26.669  23.439  1.00  0.00     0.079 C 
BRANCH   7  11
ATOM     11  C   UNL A   1      31.402  25.714  26.153  1.00  0.00     0.022 C 
BRANCH  11  12
ATOM     12  C   UNL A   1      31.856  24.323  26.691  1.00  0.00     0.080 C 
BRANCH  12  13
ATOM     13  S   UNL A   1      31.291  22.825  25.799  1.00  0.00    -0.065 SA
BRANCH  13  14
ATOM     14  C   UNL A   1      32.393  22.660  24.456  1.00  0.00     0.276 A 
ATOM     15  C   UNL A   1      35.751  22.845  23.413  1.00  0.00     0.113 C 
ATOM     16  C   UNL A   1      34.280  22.704  23.452  1.00  0.00     0.214 A 
ATOM     17  N   UNL A   1      33.372  22.989  22.542  1.00  0.00    -0.112 NA
ATOM     18  O   UNL A   1      33.726  22.389  24.662  1.00  0.00    -0.416 OA
ATOM     19  N   UNL A   1      32.143  22.938  23.190  1.00  0.00    -0.101 NA
ENDBRANCH  13  14
ENDBRANCH  12  13
ENDBRANCH  11  12
ENDBRANCH   7  11
BRANCH   6  20
ATOM     20  N   UNL A   1      30.690  28.117  24.418  1.00  0.00    -0.331 N 
ATOM     21  H   UNL A   1      30.674  29.137  24.400  1.00  0.00     0.347 HD
ATOM     22  H   UNL A   1      30.278  27.683  25.242  1.00  0.00     0.347 HD
BRANCH  20  23
ATOM     23  C   UNL A   1      29.861  27.650  23.303  1.00  0.00     0.176 C 
ATOM     24  C   UNL A   1      28.794  26.660  23.763  1.00  0.00     0.075 C 
ATOM     25  C   UNL A   1      29.185  28.892  22.709  1.00  0.00     0.075 C 
ENDBRANCH  20  23
ENDBRANCH   6  20
ENDBRANCH   3   6
ENDBRANCH   1   2
BRANCH   1  26
ATOM     26  C   UNL A   1      31.739  30.521  26.887  1.00  0.00     0.023 C 
BRANCH  26  27
ATOM     27  C   UNL A   1      31.650  32.044  26.717  1.00  0.00     0.023 C 
BRANCH  27  28
ATOM     28  C   UNL A   1      32.822  32.817  27.305  1.00  0.00     0.116 C 
BRANCH  28  29
ATOM     29  N   UNL A   1      32.468  34.187  27.635  1.00  0.00    -0.352 N 
ATOM     30  C   UNL A   1      32.981  34.995  28.619  1.00  0.00     0.251 C 
ATOM     31  H   UNL A   1      31.765  34.590  27.077  1.00  0.00     0.163 HD
ATOM     32  O   UNL A   1      32.479  36.076  28.870  1.00  0.00    -0.269 OA
BRANCH  30  33
ATOM     33  C   UNL A   1      34.140  34.507  29.390  1.00  0.00     0.039 A 
ATOM     34  C   UNL A   1      33.910  33.867  30.608  1.00  0.00     0.014 A 
ATOM     35  C   UNL A   1      35.433  34.634  28.877  1.00  0.00     0.014 A 
ATOM     36  C   UNL A   1      34.984  33.301  31.292  1.00  0.00     0.010 A 
ATOM     37  C   UNL A   1      36.488  34.000  29.520  1.00  0.00     0.010 A 
ATOM     38  C   UNL A   1      36.273  33.333  30.736  1.00  0.00    -0.014 A 
BRANCH  38  39
ATOM     39  C   UNL A   1      37.416  32.678  31.416  1.00  0.00     0.031 A 
ATOM     40  C   UNL A   1      38.118  31.526  30.755  1.00  0.00     0.074 A 
ATOM     41  C   UNL A   1      37.782  33.087  32.645  1.00  0.00     0.049 A 
ATOM     42  N   UNL A   1      39.094  30.781  31.209  1.00  0.00    -0.248 NA
ATOM     43  C   UNL A   1      37.641  31.141  29.418  1.00  0.00     0.031 C 
ATOM     44  C   UNL A   1      37.146  34.167  33.402  1.00  0.00     0.029 A 
ATOM     45  N   UNL A   1      38.774  32.637  33.479  1.00  0.00    -0.354 N 
ATOM     46  C   UNL A   1      39.339  29.840  30.219  1.00  0.00     0.074 A 
ATOM     47  C   UNL A   1      38.369  30.063  29.170  1.00  0.00     0.031 C 
ATOM     48  C   UNL A   1      37.783  34.315  34.576  1.00  0.00     0.029 A 
ATOM     49  C   UNL A   1      38.839  33.313  34.673  1.00  0.00     0.049 A 
ATOM     50  H   UNL A   1      39.382  31.898  33.244  1.00  0.00     0.167 HD
ATOM     51  C   UNL A   1      40.307  28.894  30.176  1.00  0.00     0.037 A 
ATOM     52  C   UNL A   1      39.656  33.136  35.728  1.00  0.00     0.037 A 
ATOM     53  C   UNL A   1      41.278  28.688  31.217  1.00  0.00     0.049 A 
ATOM     54  C   UNL A   1      40.703  32.054  35.667  1.00  0.00     0.074 A 
ATOM     55  C   UNL A   1      42.326  27.786  31.253  1.00  0.00     0.029 A 
ATOM     56  N   UNL A   1      41.315  29.396  32.411  1.00  0.00    -0.354 N 
ATOM     57  N   UNL A   1      40.970  31.214  34.697  1.00  0.00    -0.248 NA
ATOM     58  C   UNL A   1      41.565  31.902  36.847  1.00  0.00     0.031 C 
ATOM     59  C   UNL A   1      42.966  27.911  32.491  1.00  0.00     0.029 A 
ATOM     60  C   UNL A   1      42.356  28.933  33.200  1.00  0.00     0.049 A 
ATOM     61  H   UNL A   1      40.696  30.119  32.659  1.00  0.00     0.167 HD
ATOM     62  C   UNL A   1      42.051  30.458  35.134  1.00  0.00     0.074 A 
ATOM     63  C   UNL A   1      42.398  30.951  36.451  1.00  0.00     0.031 C 
ATOM     64  C   UNL A   1      42.696  29.447  34.503  1.00  0.00     0.037 A 
BRANCH  51  65
ATOM     65  C   UNL A   1      40.363  28.015  28.960  1.00  0.00     0.064 A 
ATOM     66  C   UNL A   1      41.129  28.363  27.836  1.00  0.00     0.173 A 
ATOM     67  C   UNL A   1      39.672  26.795  28.927  1.00  0.00     0.173 A 
ATOM     68  F   UNL A   1      41.800  29.525  27.809  1.00  0.00    -0.203 F 
ATOM     69  C   UNL A   1      41.174  27.539  26.714  1.00  0.00     0.198 A 
ATOM     70  C   UNL A   1      39.748  25.957  27.817  1.00  0.00     0.198 A 
ATOM     71  F   UNL A   1      38.928  26.410  29.975  1.00  0.00    -0.203 F 
ATOM     72  F   UNL A   1      41.869  27.920  25.633  1.00  0.00    -0.200 F 
ATOM     73  C   UNL A   1      40.490  26.333  26.710  1.00  0.00     0.200 A 
ATOM     74  F   UNL A   1      39.098  24.784  27.820  1.00  0.00    -0.200 F 
ATOM     75  F   UNL A   1      40.542  25.536  25.633  1.00  0.00    -0.200 F 
ENDBRANCH  51  65
BRANCH  52  76
ATOM     76  C   UNL A   1      39.537  34.013  36.923  1.00  0.00     0.064 A 
ATOM     77  C   UNL A   1      40.202  35.246  36.980  1.00  0.00     0.173 A 
ATOM     78  C   UNL A   1      38.777  33.632  38.039  1.00  0.00     0.173 A 
ATOM     79  F   UNL A   1      40.958  35.647  35.947  1.00  0.00    -0.203 F 
ATOM     80  C   UNL A   1      40.137  36.049  38.116  1.00  0.00     0.198 A 
ATOM     81  C   UNL A   1      38.686  34.452  39.162  1.00  0.00     0.198 A 
ATOM     82  F   UNL A   1      38.115  32.466  38.035  1.00  0.00    -0.203 F 
ATOM     83  F   UNL A   1      40.829  37.196  38.164  1.00  0.00    -0.200 F 
ATOM     84  C   UNL A   1      39.374  35.654  39.205  1.00  0.00     0.200 A 
ATOM     85  F   UNL A   1      37.934  34.074  40.205  1.00  0.00    -0.200 F 
ATOM     86  F   UNL A   1      39.312  36.427  40.297  1.00  0.00    -0.200 F 
ENDBRANCH  52  76
BRANCH  64  87
ATOM     87  C   UNL A   1      43.874  28.837  35.206  1.00  0.00     0.064 A 
ATOM     88  C   UNL A   1      45.178  29.321  35.024  1.00  0.00     0.173 A 
ATOM     89  C   UNL A   1      43.687  27.777  36.109  1.00  0.00     0.173 A 
ATOM     90  F   UNL A   1      45.411  30.322  34.160  1.00  0.00    -0.203 F 
ATOM     91  C   UNL A   1      46.254  28.751  35.698  1.00  0.00     0.198 A 
ATOM     92  C   UNL A   1      44.761  27.233  36.807  1.00  0.00     0.198 A 
ATOM     93  F   UNL A   1      42.460  27.282  36.325  1.00  0.00    -0.203 F 
ATOM     94  F   UNL A   1      47.497  29.196  35.469  1.00  0.00    -0.200 F 
ATOM     95  C   UNL A   1      46.043  27.714  36.595  1.00  0.00     0.200 A 
ATOM     96  F   UNL A   1      44.553  26.243  37.686  1.00  0.00    -0.200 F 
ATOM     97  F   UNL A   1      47.080  27.174  37.251  1.00  0.00    -0.200 F 
ENDBRANCH  64  87
ENDBRANCH  38  39
ENDBRANCH  30  33
ENDBRANCH  28  29
ENDBRANCH  27  28
ENDBRANCH  26  27
ENDBRANCH   1  26
TORSDOF 17
ENDMDL
MODEL 3
REMARK VINA RESULT:     -11.9      0.709      7.361
REMARK SMILES Cc1nnc(SCC[C@H]2CCC[C@]2([NH2+]C(C)C)C(=O)NCCCCNC(=O)c2ccc(-c3c4nc(c(-c5c(F)c(F)c(F)c(F)c5F)c5ccc([nH]5)c(-c5c(F)c(F)c(F)c(F)c5F)c5nc(c(-c6c(F)c(F)c(F)c(F)c6F)c6ccc3[nH]6)C=C5)C=C4)cc2)o1
REMARK SMILES IDX 21 1 20 2 18 3 19 4 13 6 9 7 10 8 11 9 12 10 8 11 7 12 6 13
REMARK SMILES IDX 5 14 1 15 2 16 3 17 91 18 4 19 14 20 15 23 16 24 17 25 22 26
REMARK SMILES IDX 23 27 24 28 25 29 26 30 27 32 28 33 29 34 90 35 30 36 89 37
REMARK SMILES IDX 31 38 32 39 33 40 83 41 34 42 88 43 82 44 84 45 35 46 87 47
REMARK SMILES IDX 81 48 80 49 36 51 68 52 48 53 67 54 49 55 52 56 66 57 85 58
REMARK SMILES IDX 50 59 51 60 65 62 86 63 53 64 37 65 38 66 46 67 39 68 40 69
REMARK SMILES IDX 44 70 47 71 41 72 42 73 45 74 43 75 69 76 70 77 78 78 71 79
REMARK SMILES IDX 72 80 76 81 79 82 73 83 74 84 77 85 75 86 54 87 55 88 63 89
REMARK SMILES IDX 56 90 57 91 61 92 64 93 58 94 59 95 62 96 60 97
REMARK H PARENT 20 5 14 21 14 22 25 31 84 50 52 61
REMARK Flexibility Score: inf
ROOT
ATOM      1  C   UNL A   1      33.023  30.018  26.443  1.00  0.00     0.116 C 
ENDROOT
BRANCH   1   2
ATOM      2  N   UNL A   1      33.210  29.907  25.024  1.00  0.00    -0.351 N 
ATOM      3  C   UNL A   1      33.051  28.844  24.208  1.00  0.00     0.281 C 
ATOM      4  O   UNL A   1      33.587  28.979  23.100  1.00  0.00    -0.268 OA
ATOM      5  H   UNL A   1      33.499  30.735  24.577  1.00  0.00     0.163 HD
BRANCH   3   6
ATOM      6  C   UNL A   1      32.166  27.586  24.580  1.00  0.00     0.178 C 
ATOM      7  C   UNL A   1      32.516  26.816  25.893  1.00  0.00     0.061 C 
ATOM      8  C   UNL A   1      33.931  26.324  25.613  1.00  0.00     0.011 C 
ATOM      9  C   UNL A   1      33.896  25.930  24.150  1.00  0.00     0.008 C 
ATOM     10  C   UNL A   1      32.605  26.533  23.554  1.00  0.00     0.079 C 
BRANCH   7  11
ATOM     11  C   UNL A   1      31.577  25.631  26.364  1.00  0.00     0.022 C 
BRANCH  11  12
ATOM     12  C   UNL A   1      32.029  24.159  26.607  1.00  0.00     0.080 C 
BRANCH  12  13
ATOM     13  S   UNL A   1      30.988  22.812  25.928  1.00  0.00    -0.065 SA
BRANCH  13  14
ATOM     14  C   UNL A   1      32.120  21.656  25.273  1.00  0.00     0.276 A 
ATOM     15  C   UNL A   1      33.065  18.267  25.141  1.00  0.00     0.113 C 
ATOM     16  C   UNL A   1      33.009  19.734  24.975  1.00  0.00     0.214 A 
ATOM     17  N   UNL A   1      33.978  20.614  24.835  1.00  0.00    -0.112 NA
ATOM     18  O   UNL A   1      31.790  20.327  25.156  1.00  0.00    -0.416 OA
ATOM     19  N   UNL A   1      33.396  21.866  25.007  1.00  0.00    -0.101 NA
ENDBRANCH  13  14
ENDBRANCH  12  13
ENDBRANCH  11  12
ENDBRANCH   7  11
BRANCH   6  20
ATOM     20  N   UNL A   1      30.754  28.009  24.643  1.00  0.00    -0.331 N 
ATOM     21  H   UNL A   1      30.744  28.986  24.936  1.00  0.00     0.347 HD
ATOM     22  H   UNL A   1      30.318  27.350  25.287  1.00  0.00     0.347 HD
BRANCH  20  23
ATOM     23  C   UNL A   1      29.953  27.913  23.420  1.00  0.00     0.176 C 
ATOM     24  C   UNL A   1      28.724  27.028  23.614  1.00  0.00     0.075 C 
ATOM     25  C   UNL A   1      29.508  29.339  23.074  1.00  0.00     0.075 C 
ENDBRANCH  20  23
ENDBRANCH   6  20
ENDBRANCH   3   6
ENDBRANCH   1   2
BRANCH   1  26
ATOM     26  C   UNL A   1      31.628  30.580  26.723  1.00  0.00     0.023 C 
BRANCH  26  27
ATOM     27  C   UNL A   1      31.548  32.112  26.678  1.00  0.00     0.023 C 
BRANCH  27  28
ATOM     28  C   UNL A   1      32.771  32.827  27.237  1.00  0.00     0.116 C 
BRANCH  28  29
ATOM     29  N   UNL A   1      32.470  34.184  27.660  1.00  0.00    -0.352 N 
ATOM     30  C   UNL A   1      33.036  34.916  28.673  1.00  0.00     0.251 C 
ATOM     31  H   UNL A   1      31.762  34.641  27.149  1.00  0.00     0.163 HD
ATOM     32  O   UNL A   1      32.575  35.994  29.004  1.00  0.00    -0.269 OA
BRANCH  30  33
ATOM     33  C   UNL A   1      34.202  34.348  29.376  1.00  0.00     0.039 A 
ATOM     34  C   UNL A   1      33.982  33.548  30.497  1.00  0.00     0.014 A 
ATOM     35  C   UNL A   1      35.493  34.565  28.890  1.00  0.00     0.014 A 
ATOM     36  C   UNL A   1      35.064  32.913  31.103  1.00  0.00     0.010 A 
ATOM     37  C   UNL A   1      36.558  33.868  29.446  1.00  0.00     0.010 A 
ATOM     38  C   UNL A   1      36.353  33.040  30.561  1.00  0.00    -0.014 A 
BRANCH  38  39
ATOM     39  C   UNL A   1      37.506  32.320  31.152  1.00  0.00     0.031 A 
ATOM     40  C   UNL A   1      38.020  32.718  32.506  1.00  0.00     0.074 A 
ATOM     41  C   UNL A   1      38.120  31.352  30.446  1.00  0.00     0.049 A 
ATOM     42  N   UNL A   1      39.051  32.257  33.168  1.00  0.00    -0.248 NA
ATOM     43  C   UNL A   1      37.295  33.795  33.198  1.00  0.00     0.031 C 
ATOM     44  C   UNL A   1      37.735  30.911  29.103  1.00  0.00     0.029 A 
ATOM     45  N   UNL A   1      39.201  30.568  30.756  1.00  0.00    -0.354 N 
ATOM     46  C   UNL A   1      39.100  32.993  34.344  1.00  0.00     0.074 A 
ATOM     47  C   UNL A   1      38.039  33.973  34.278  1.00  0.00     0.031 C 
ATOM     48  C   UNL A   1      38.551  29.915  28.718  1.00  0.00     0.029 A 
ATOM     49  C   UNL A   1      39.539  29.679  29.765  1.00  0.00     0.049 A 
ATOM     50  H   UNL A   1      39.689  30.635  31.609  1.00  0.00     0.167 HD
ATOM     51  C   UNL A   1      39.937  32.843  35.398  1.00  0.00     0.037 A 
ATOM     52  C   UNL A   1      40.542  28.782  29.707  1.00  0.00     0.037 A 
ATOM     53  C   UNL A   1      40.981  31.855  35.463  1.00  0.00     0.049 A 
ATOM     54  C   UNL A   1      41.479  28.659  30.880  1.00  0.00     0.074 A 
ATOM     55  C   UNL A   1      41.857  31.592  36.501  1.00  0.00     0.029 A 
ATOM     56  N   UNL A   1      41.292  30.969  34.440  1.00  0.00    -0.354 N 
ATOM     57  N   UNL A   1      41.474  29.313  32.016  1.00  0.00    -0.248 NA
ATOM     58  C   UNL A   1      42.556  27.667  30.763  1.00  0.00     0.031 C 
ATOM     59  C   UNL A   1      42.731  30.581  36.087  1.00  0.00     0.029 A 
ATOM     60  C   UNL A   1      42.362  30.173  34.815  1.00  0.00     0.049 A 
ATOM     61  H   UNL A   1      40.821  30.914  33.577  1.00  0.00     0.167 HD
ATOM     62  C   UNL A   1      42.523  28.789  32.762  1.00  0.00     0.074 A 
ATOM     63  C   UNL A   1      43.131  27.753  31.954  1.00  0.00     0.031 C 
ATOM     64  C   UNL A   1      42.945  29.135  34.002  1.00  0.00     0.037 A 
BRANCH  51  65
ATOM     65  C   UNL A   1      39.752  33.766  36.568  1.00  0.00     0.064 A 
ATOM     66  C   UNL A   1      40.374  35.023  36.618  1.00  0.00     0.173 A 
ATOM     67  C   UNL A   1      38.916  33.407  37.636  1.00  0.00     0.173 A 
ATOM     68  F   UNL A   1      41.193  35.412  35.629  1.00  0.00    -0.203 F 
ATOM     69  C   UNL A   1      40.194  35.871  37.708  1.00  0.00     0.198 A 
ATOM     70  C   UNL A   1      38.711  34.272  38.708  1.00  0.00     0.198 A 
ATOM     71  F   UNL A   1      38.293  32.219  37.638  1.00  0.00    -0.203 F 
ATOM     72  F   UNL A   1      40.842  37.043  37.757  1.00  0.00    -0.200 F 
ATOM     73  C   UNL A   1      39.356  35.498  38.747  1.00  0.00     0.200 A 
ATOM     74  F   UNL A   1      37.889  33.917  39.706  1.00  0.00    -0.200 F 
ATOM     75  F   UNL A   1      39.175  36.319  39.791  1.00  0.00    -0.200 F 
ENDBRANCH  51  65
BRANCH  52  76
ATOM     76  C   UNL A   1      40.701  27.913  28.511  1.00  0.00     0.064 A 
ATOM     77  C   UNL A   1      41.461  28.335  27.411  1.00  0.00     0.173 A 
ATOM     78  C   UNL A   1      40.083  26.656  28.430  1.00  0.00     0.173 A 
ATOM     79  F   UNL A   1      42.057  29.537  27.431  1.00  0.00    -0.203 F 
ATOM     80  C   UNL A   1      41.573  27.549  26.267  1.00  0.00     0.198 A 
ATOM     81  C   UNL A   1      40.223  25.856  27.298  1.00  0.00     0.198 A 
ATOM     82  F   UNL A   1      39.350  26.201  29.456  1.00  0.00    -0.203 F 
ATOM     83  F   UNL A   1      42.260  28.003  25.209  1.00  0.00    -0.200 F 
ATOM     84  C   UNL A   1      40.958  26.308  26.213  1.00  0.00     0.200 A 
ATOM     85  F   UNL A   1      39.640  24.650  27.256  1.00  0.00    -0.200 F 
ATOM     86  F   UNL A   1      41.066  25.552  25.112  1.00  0.00    -0.200 F 
ENDBRANCH  52  76
BRANCH  64  87
ATOM     87  C   UNL A   1      44.089  28.357  34.584  1.00  0.00     0.064 A 
ATOM     88  C   UNL A   1      43.888  27.164  35.295  1.00  0.00     0.173 A 
ATOM     89  C   UNL A   1      45.411  28.790  34.388  1.00  0.00     0.173 A 
ATOM     90  F   UNL A   1      42.644  26.716  35.522  1.00  0.00    -0.203 F 
ATOM     91  C   UNL A   1      44.965  26.449  35.812  1.00  0.00     0.198 A 
ATOM     92  C   UNL A   1      46.486  28.053  34.875  1.00  0.00     0.198 A 
ATOM     93  F   UNL A   1      45.659  29.919  33.708  1.00  0.00    -0.203 F 
ATOM     94  F   UNL A   1      44.746  25.341  36.532  1.00  0.00    -0.200 F 
ATOM     95  C   UNL A   1      46.262  26.889  35.594  1.00  0.00     0.200 A 
ATOM     96  F   UNL A   1      47.740  28.471  34.650  1.00  0.00    -0.200 F 
ATOM     97  F   UNL A   1      47.297  26.192  36.084  1.00  0.00    -0.200 F 
ENDBRANCH  64  87
ENDBRANCH  38  39
ENDBRANCH  30  33
ENDBRANCH  28  29
ENDBRANCH  27  28
ENDBRANCH  26  27
ENDBRANCH   1  26
TORSDOF 17
ENDMDL
