MODEL 1
REMARK VINA RESULT:     -12.2      0.000      0.000
REMARK SMILES COc1ccc2c(C[NH2+]Cc3cccs3)c(C(=O)NCCCCNC(=O)c3ccc(-c4c5nc(c(-c6c(F)c(F)c(F)c(F)c6F)c6ccc([nH]6)c(-c6c(F)c(F)c(F)c(F)c6F)c6nc(c(-c7c(F)c(F)c(F)c(F)c7F)c7ccc4[nH]7)C=C6)C=C5)cc3)[nH]c2c1
REMARK SMILES IDX 20 1 19 2 17 3 18 4 16 6 3 7 4 8 92 9 5 10 91 11 6 12 90 13
REMARK SMILES IDX 7 14 2 16 1 17 8 18 9 19 10 22 11 23 12 24 15 25 13 26 14 27
REMARK SMILES IDX 21 28 22 29 23 30 24 31 25 32 26 34 27 35 28 36 89 37 29 38
REMARK SMILES IDX 88 39 30 40 31 41 32 42 82 43 33 44 87 45 81 46 83 47 34 48
REMARK SMILES IDX 86 49 80 50 79 51 35 53 67 54 47 55 66 56 48 57 51 58 65 59
REMARK SMILES IDX 84 60 49 61 50 62 64 64 85 65 52 66 36 67 37 68 45 69 38 70
REMARK SMILES IDX 39 71 43 72 46 73 40 74 41 75 44 76 42 77 68 78 69 79 77 80
REMARK SMILES IDX 70 81 71 82 75 83 78 84 72 85 73 86 76 87 74 88 53 89 54 90
REMARK SMILES IDX 62 91 55 92 56 93 60 94 63 95 57 96 58 97 61 98 59 99
REMARK H PARENT 19 5 90 15 9 20 9 21 24 33 83 52 51 63
REMARK Flexibility Score: inf
ROOT
ATOM      1  C   UNL A   1      32.885  29.811  26.036  1.00  0.00     0.116 C 
ENDROOT
BRANCH   1   2
ATOM      2  N   UNL A   1      33.272  29.701  24.650  1.00  0.00    -0.351 N 
ATOM      3  C   UNL A   1      33.406  28.654  23.777  1.00  0.00     0.268 C 
ATOM      4  O   UNL A   1      33.945  28.960  22.711  1.00  0.00    -0.268 OA
ATOM      5  H   UNL A   1      33.488  30.570  24.242  1.00  0.00     0.163 HD
BRANCH   3   6
ATOM      6  C   UNL A   1      32.952  27.304  24.080  1.00  0.00     0.114 A 
ATOM      7  C   UNL A   1      32.215  22.946  25.486  1.00  0.00     0.120 A 
ATOM      8  C   UNL A   1      31.027  23.118  24.777  1.00  0.00     0.047 A 
ATOM      9  C   UNL A   1      33.139  23.989  25.589  1.00  0.00     0.073 A 
ATOM     10  C   UNL A   1      30.753  24.334  24.132  1.00  0.00     0.015 A 
ATOM     11  C   UNL A   1      32.856  25.184  24.917  1.00  0.00     0.050 A 
ATOM     12  C   UNL A   1      31.687  25.389  24.198  1.00  0.00     0.009 A 
ATOM     13  N   UNL A   1      33.607  26.325  24.789  1.00  0.00    -0.350 N 
ATOM     14  C   UNL A   1      31.751  26.717  23.660  1.00  0.00     0.045 A 
ATOM     15  H   UNL A   1      34.512  26.431  25.163  1.00  0.00     0.167 HD
BRANCH   7  16
ATOM     16  O   UNL A   1      32.541  21.802  26.167  1.00  0.00    -0.497 OA
ATOM     17  C   UNL A   1      33.433  20.942  25.464  1.00  0.00     0.278 C 
ENDBRANCH   7  16
BRANCH  14  18
ATOM     18  C   UNL A   1      30.719  27.328  22.760  1.00  0.00     0.300 C 
BRANCH  18  19
ATOM     19  N   UNL A   1      29.913  28.276  23.522  1.00  0.00    -0.338 N 
ATOM     20  H   UNL A   1      30.480  29.096  23.739  1.00  0.00     0.346 HD
ATOM     21  H   UNL A   1      29.597  27.818  24.376  1.00  0.00     0.346 HD
BRANCH  19  22
ATOM     22  C   UNL A   1      28.733  28.701  22.764  1.00  0.00     0.308 C 
BRANCH  22  23
ATOM     23  C   UNL A   1      28.676  30.196  22.608  1.00  0.00     0.059 A 
ATOM     24  C   UNL A   1      28.995  31.158  23.548  1.00  0.00     0.021 A 
ATOM     25  S   UNL A   1      28.180  30.913  21.130  1.00  0.00    -0.143 S 
ATOM     26  C   UNL A   1      28.729  32.478  23.086  1.00  0.00     0.012 A 
ATOM     27  C   UNL A   1      28.239  32.484  21.799  1.00  0.00     0.065 A 
ENDBRANCH  22  23
ENDBRANCH  19  22
ENDBRANCH  18  19
ENDBRANCH  14  18
ENDBRANCH   3   6
ENDBRANCH   1   2
BRANCH   1  28
ATOM     28  C   UNL A   1      31.446  30.318  26.141  1.00  0.00     0.023 C 
BRANCH  28  29
ATOM     29  C   UNL A   1      31.342  31.831  26.390  1.00  0.00     0.023 C 
BRANCH  29  30
ATOM     30  C   UNL A   1      32.549  32.456  27.086  1.00  0.00     0.116 C 
BRANCH  30  31
ATOM     31  N   UNL A   1      32.319  33.832  27.497  1.00  0.00    -0.352 N 
ATOM     32  C   UNL A   1      32.983  34.578  28.436  1.00  0.00     0.251 C 
ATOM     33  H   UNL A   1      31.582  34.293  27.035  1.00  0.00     0.163 HD
ATOM     34  O   UNL A   1      32.572  35.691  28.738  1.00  0.00    -0.269 OA
BRANCH  32  35
ATOM     35  C   UNL A   1      34.172  34.019  29.112  1.00  0.00     0.039 A 
ATOM     36  C   UNL A   1      33.986  32.993  30.040  1.00  0.00     0.014 A 
ATOM     37  C   UNL A   1      35.456  34.499  28.838  1.00  0.00     0.014 A 
ATOM     38  C   UNL A   1      35.096  32.413  30.656  1.00  0.00     0.010 A 
ATOM     39  C   UNL A   1      36.565  33.868  29.395  1.00  0.00     0.010 A 
ATOM     40  C   UNL A   1      36.396  32.824  30.315  1.00  0.00    -0.014 A 
BRANCH  40  41
ATOM     41  C   UNL A   1      37.575  32.155  30.920  1.00  0.00     0.031 A 
ATOM     42  C   UNL A   1      38.022  32.505  32.312  1.00  0.00     0.074 A 
ATOM     43  C   UNL A   1      38.258  31.247  30.196  1.00  0.00     0.049 A 
ATOM     44  N   UNL A   1      39.000  31.995  33.018  1.00  0.00    -0.248 NA
ATOM     45  C   UNL A   1      37.295  33.588  32.996  1.00  0.00     0.031 C 
ATOM     46  C   UNL A   1      37.963  30.876  28.810  1.00  0.00     0.029 A 
ATOM     47  N   UNL A   1      39.335  30.464  30.526  1.00  0.00    -0.354 N 
ATOM     48  C   UNL A   1      39.013  32.699  34.214  1.00  0.00     0.074 A 
ATOM     49  C   UNL A   1      37.982  33.708  34.123  1.00  0.00     0.031 C 
ATOM     50  C   UNL A   1      38.810  29.909  28.423  1.00  0.00     0.029 A 
ATOM     51  C   UNL A   1      39.724  29.611  29.521  1.00  0.00     0.049 A 
ATOM     52  H   UNL A   1      39.786  30.508  31.400  1.00  0.00     0.167 HD
ATOM     53  C   UNL A   1      39.798  32.505  35.301  1.00  0.00     0.037 A 
ATOM     54  C   UNL A   1      40.702  28.687  29.496  1.00  0.00     0.037 A 
ATOM     55  C   UNL A   1      40.800  31.474  35.400  1.00  0.00     0.049 A 
ATOM     56  C   UNL A   1      41.536  28.474  30.731  1.00  0.00     0.074 A 
ATOM     57  C   UNL A   1      41.587  31.138  36.488  1.00  0.00     0.029 A 
ATOM     58  N   UNL A   1      41.153  30.615  34.370  1.00  0.00    -0.354 N 
ATOM     59  N   UNL A   1      41.464  29.073  31.895  1.00  0.00    -0.248 NA
ATOM     60  C   UNL A   1      42.578  27.442  30.651  1.00  0.00     0.031 C 
ATOM     61  C   UNL A   1      42.455  30.111  36.100  1.00  0.00     0.029 A 
ATOM     62  C   UNL A   1      42.167  29.768  34.789  1.00  0.00     0.049 A 
ATOM     63  H   UNL A   1      40.745  30.609  33.474  1.00  0.00     0.167 HD
ATOM     64  C   UNL A   1      42.425  28.468  32.694  1.00  0.00     0.074 A 
ATOM     65  C   UNL A   1      43.047  27.437  31.889  1.00  0.00     0.031 C 
ATOM     66  C   UNL A   1      42.769  28.741  33.978  1.00  0.00     0.037 A 
BRANCH  53  67
ATOM     67  C   UNL A   1      39.608  33.416  36.478  1.00  0.00     0.064 A 
ATOM     68  C   UNL A   1      38.731  33.097  37.525  1.00  0.00     0.173 A 
ATOM     69  C   UNL A   1      40.365  34.592  36.594  1.00  0.00     0.173 A 
ATOM     70  F   UNL A   1      37.975  31.990  37.460  1.00  0.00    -0.203 F 
ATOM     71  C   UNL A   1      38.604  33.929  38.634  1.00  0.00     0.198 A 
ATOM     72  C   UNL A   1      40.258  35.408  37.718  1.00  0.00     0.198 A 
ATOM     73  F   UNL A   1      41.223  34.943  35.624  1.00  0.00    -0.203 F 
ATOM     74  F   UNL A   1      37.731  33.623  39.604  1.00  0.00    -0.200 F 
ATOM     75  C   UNL A   1      39.375  35.078  38.735  1.00  0.00     0.200 A 
ATOM     76  F   UNL A   1      41.014  36.509  37.820  1.00  0.00    -0.200 F 
ATOM     77  F   UNL A   1      39.264  35.870  39.811  1.00  0.00    -0.200 F 
ENDBRANCH  53  67
BRANCH  54  78
ATOM     78  C   UNL A   1      40.930  27.861  28.279  1.00  0.00     0.064 A 
ATOM     79  C   UNL A   1      40.300  26.617  28.125  1.00  0.00     0.173 A 
ATOM     80  C   UNL A   1      41.813  28.274  27.271  1.00  0.00     0.173 A 
ATOM     81  F   UNL A   1      39.461  26.170  29.070  1.00  0.00    -0.203 F 
ATOM     82  C   UNL A   1      40.577  25.800  27.031  1.00  0.00     0.198 A 
ATOM     83  C   UNL A   1      42.062  27.471  26.160  1.00  0.00     0.198 A 
ATOM     84  F   UNL A   1      42.435  29.458  27.365  1.00  0.00    -0.203 F 
ATOM     85  F   UNL A   1      40.014  24.586  26.944  1.00  0.00    -0.200 F 
ATOM     86  C   UNL A   1      41.456  26.229  26.048  1.00  0.00     0.200 A 
ATOM     87  F   UNL A   1      42.900  27.895  25.205  1.00  0.00    -0.200 F 
ATOM     88  F   UNL A   1      41.728  25.440  24.999  1.00  0.00    -0.200 F 
ENDBRANCH  54  78
BRANCH  66  89
ATOM     89  C   UNL A   1      43.836  27.884  34.595  1.00  0.00     0.064 A 
ATOM     90  C   UNL A   1      45.189  28.253  34.565  1.00  0.00     0.173 A 
ATOM     91  C   UNL A   1      43.499  26.674  35.220  1.00  0.00     0.173 A 
ATOM     92  F   UNL A   1      45.565  29.393  33.968  1.00  0.00    -0.203 F 
ATOM     93  C   UNL A   1      46.170  27.419  35.095  1.00  0.00     0.198 A 
ATOM     94  C   UNL A   1      44.479  25.861  35.783  1.00  0.00     0.198 A 
ATOM     95  F   UNL A   1      42.219  26.279  35.286  1.00  0.00    -0.203 F 
ATOM     96  F   UNL A   1      47.463  27.756  34.989  1.00  0.00    -0.200 F 
ATOM     97  C   UNL A   1      45.814  26.226  35.707  1.00  0.00     0.200 A 
ATOM     98  F   UNL A   1      44.132  24.717  36.388  1.00  0.00    -0.200 F 
ATOM     99  F   UNL A   1      46.760  25.422  36.212  1.00  0.00    -0.200 F 
ENDBRANCH  66  89
ENDBRANCH  40  41
ENDBRANCH  32  35
ENDBRANCH  30  31
ENDBRANCH  29  30
ENDBRANCH  28  29
ENDBRANCH   1  28
TORSDOF 16
ENDMDL
MODEL 2
REMARK VINA RESULT:     -12.1      3.117      4.677
REMARK SMILES COc1ccc2c(C[NH2+]Cc3cccs3)c(C(=O)NCCCCNC(=O)c3ccc(-c4c5nc(c(-c6c(F)c(F)c(F)c(F)c6F)c6ccc([nH]6)c(-c6c(F)c(F)c(F)c(F)c6F)c6nc(c(-c7c(F)c(F)c(F)c(F)c7F)c7ccc4[nH]7)C=C6)C=C5)cc3)[nH]c2c1
REMARK SMILES IDX 20 1 19 2 17 3 18 4 16 6 3 7 4 8 92 9 5 10 91 11 6 12 90 13
REMARK SMILES IDX 7 14 2 16 1 17 8 18 9 19 10 22 11 23 12 24 15 25 13 26 14 27
REMARK SMILES IDX 21 28 22 29 23 30 24 31 25 32 26 34 27 35 28 36 89 37 29 38
REMARK SMILES IDX 88 39 30 40 31 41 32 42 82 43 33 44 87 45 81 46 83 47 34 48
REMARK SMILES IDX 86 49 80 50 79 51 35 53 67 54 47 55 66 56 48 57 51 58 65 59
REMARK SMILES IDX 84 60 49 61 50 62 64 64 85 65 52 66 36 67 37 68 45 69 38 70
REMARK SMILES IDX 39 71 43 72 46 73 40 74 41 75 44 76 42 77 68 78 69 79 77 80
REMARK SMILES IDX 70 81 71 82 75 83 78 84 72 85 73 86 76 87 74 88 53 89 54 90
REMARK SMILES IDX 62 91 55 92 56 93 60 94 63 95 57 96 58 97 61 98 59 99
REMARK H PARENT 19 5 90 15 9 20 9 21 24 33 83 52 51 63
REMARK Flexibility Score: inf
ROOT
ATOM      1  C   UNL A   1      31.043  27.066  26.007  1.00  0.00     0.116 C 
ENDROOT
BRANCH   1   2
ATOM      2  N   UNL A   1      30.587  25.819  26.573  1.00  0.00    -0.351 N 
ATOM      3  C   UNL A   1      31.033  24.525  26.517  1.00  0.00     0.268 C 
ATOM      4  O   UNL A   1      30.247  23.705  26.996  1.00  0.00    -0.268 OA
ATOM      5  H   UNL A   1      29.775  25.921  27.120  1.00  0.00     0.163 HD
BRANCH   3   6
ATOM      6  C   UNL A   1      32.320  24.153  25.945  1.00  0.00     0.114 A 
ATOM      7  C   UNL A   1      36.730  23.207  24.864  1.00  0.00     0.120 A 
ATOM      8  C   UNL A   1      36.149  22.781  23.671  1.00  0.00     0.047 A 
ATOM      9  C   UNL A   1      35.938  23.694  25.907  1.00  0.00     0.073 A 
ATOM     10  C   UNL A   1      34.760  22.859  23.488  1.00  0.00     0.015 A 
ATOM     11  C   UNL A   1      34.557  23.785  25.693  1.00  0.00     0.050 A 
ATOM     12  C   UNL A   1      33.945  23.376  24.518  1.00  0.00     0.009 A 
ATOM     13  N   UNL A   1      33.569  24.285  26.504  1.00  0.00    -0.350 N 
ATOM     14  C   UNL A   1      32.539  23.618  24.668  1.00  0.00     0.045 A 
ATOM     15  H   UNL A   1      33.736  24.692  27.385  1.00  0.00     0.167 HD
BRANCH   7  16
ATOM     16  O   UNL A   1      38.072  23.136  25.130  1.00  0.00    -0.497 OA
ATOM     17  C   UNL A   1      38.474  21.930  25.774  1.00  0.00     0.278 C 
ENDBRANCH   7  16
BRANCH  14  18
ATOM     18  C   UNL A   1      31.509  23.380  23.605  1.00  0.00     0.300 C 
BRANCH  18  19
ATOM     19  N   UNL A   1      31.750  24.284  22.486  1.00  0.00    -0.338 N 
ATOM     20  H   UNL A   1      31.402  23.853  21.629  1.00  0.00     0.346 HD
ATOM     21  H   UNL A   1      32.753  24.457  22.421  1.00  0.00     0.346 HD
BRANCH  19  22
ATOM     22  C   UNL A   1      31.073  25.568  22.683  1.00  0.00     0.308 C 
BRANCH  22  23
ATOM     23  C   UNL A   1      32.026  26.726  22.576  1.00  0.00     0.059 A 
ATOM     24  C   UNL A   1      33.398  26.681  22.410  1.00  0.00     0.021 A 
ATOM     25  S   UNL A   1      31.463  28.346  22.645  1.00  0.00    -0.143 S 
ATOM     26  C   UNL A   1      33.993  27.975  22.448  1.00  0.00     0.012 A 
ATOM     27  C   UNL A   1      33.053  28.968  22.617  1.00  0.00     0.065 A 
ENDBRANCH  22  23
ENDBRANCH  19  22
ENDBRANCH  18  19
ENDBRANCH  14  18
ENDBRANCH   3   6
ENDBRANCH   1   2
BRANCH   1  28
ATOM     28  C   UNL A   1      31.830  27.859  27.051  1.00  0.00     0.023 C 
BRANCH  28  29
ATOM     29  C   UNL A   1      33.354  27.742  26.893  1.00  0.00     0.023 C 
BRANCH  29  30
ATOM     30  C   UNL A   1      34.011  28.870  26.100  1.00  0.00     0.116 C 
BRANCH  30  31
ATOM     31  N   UNL A   1      33.801  30.181  26.696  1.00  0.00    -0.352 N 
ATOM     32  C   UNL A   1      34.557  30.837  27.632  1.00  0.00     0.251 C 
ATOM     33  H   UNL A   1      33.003  30.664  26.382  1.00  0.00     0.163 HD
ATOM     34  O   UNL A   1      34.160  31.892  28.111  1.00  0.00    -0.269 OA
BRANCH  32  35
ATOM     35  C   UNL A   1      35.832  30.249  28.091  1.00  0.00     0.039 A 
ATOM     36  C   UNL A   1      36.946  30.349  27.255  1.00  0.00     0.014 A 
ATOM     37  C   UNL A   1      35.933  29.605  29.327  1.00  0.00     0.014 A 
ATOM     38  C   UNL A   1      38.175  29.847  27.684  1.00  0.00     0.010 A 
ATOM     39  C   UNL A   1      37.175  29.173  29.785  1.00  0.00     0.010 A 
ATOM     40  C   UNL A   1      38.307  29.283  28.965  1.00  0.00    -0.014 A 
BRANCH  40  41
ATOM     41  C   UNL A   1      39.632  28.815  29.444  1.00  0.00     0.031 A 
ATOM     42  C   UNL A   1      40.388  29.595  30.483  1.00  0.00     0.074 A 
ATOM     43  C   UNL A   1      40.162  27.694  28.916  1.00  0.00     0.049 A 
ATOM     44  N   UNL A   1      41.535  29.317  31.051  1.00  0.00    -0.248 NA
ATOM     45  C   UNL A   1      39.796  30.867  30.926  1.00  0.00     0.031 C 
ATOM     46  C   UNL A   1      39.556  26.891  27.852  1.00  0.00     0.029 A 
ATOM     47  N   UNL A   1      41.327  27.031  29.208  1.00  0.00    -0.354 N 
ATOM     48  C   UNL A   1      41.805  30.380  31.903  1.00  0.00     0.074 A 
ATOM     49  C   UNL A   1      40.732  31.335  31.742  1.00  0.00     0.031 C 
ATOM     50  C   UNL A   1      40.332  25.823  27.610  1.00  0.00     0.029 A 
ATOM     51  C   UNL A   1      41.501  25.879  28.480  1.00  0.00     0.049 A 
ATOM     52  H   UNL A   1      41.976  27.349  29.877  1.00  0.00     0.167 HD
ATOM     53  C   UNL A   1      42.842  30.533  32.760  1.00  0.00     0.037 A 
ATOM     54  C   UNL A   1      42.490  24.967  28.520  1.00  0.00     0.037 A 
ATOM     55  C   UNL A   1      43.890  29.561  32.943  1.00  0.00     0.049 A 
ATOM     56  C   UNL A   1      43.612  25.150  29.507  1.00  0.00     0.074 A 
ATOM     57  C   UNL A   1      44.936  29.582  33.849  1.00  0.00     0.029 A 
ATOM     58  N   UNL A   1      44.023  28.396  32.203  1.00  0.00    -0.354 N 
ATOM     59  N   UNL A   1      43.798  26.106  30.386  1.00  0.00    -0.248 NA
ATOM     60  C   UNL A   1      44.656  24.116  29.517  1.00  0.00     0.031 C 
ATOM     61  C   UNL A   1      45.735  28.456  33.620  1.00  0.00     0.029 A 
ATOM     62  C   UNL A   1      45.152  27.704  32.613  1.00  0.00     0.049 A 
ATOM     63  H   UNL A   1      43.409  28.105  31.492  1.00  0.00     0.167 HD
ATOM     64  C   UNL A   1      44.956  25.770  31.074  1.00  0.00     0.074 A 
ATOM     65  C   UNL A   1      45.414  24.510  30.529  1.00  0.00     0.031 C 
ATOM     66  C   UNL A   1      45.589  26.446  32.065  1.00  0.00     0.037 A 
BRANCH  53  67
ATOM     67  C   UNL A   1      42.899  31.792  33.577  1.00  0.00     0.064 A 
ATOM     68  C   UNL A   1      43.574  32.936  33.124  1.00  0.00     0.173 A 
ATOM     69  C   UNL A   1      42.212  31.877  34.797  1.00  0.00     0.173 A 
ATOM     70  F   UNL A   1      44.256  32.905  31.969  1.00  0.00    -0.203 F 
ATOM     71  C   UNL A   1      43.575  34.111  33.871  1.00  0.00     0.198 A 
ATOM     72  C   UNL A   1      42.190  33.062  35.527  1.00  0.00     0.198 A 
ATOM     73  F   UNL A   1      41.546  30.814  35.274  1.00  0.00    -0.203 F 
ATOM     74  F   UNL A   1      44.258  35.178  33.436  1.00  0.00    -0.200 F 
ATOM     75  C   UNL A   1      42.874  34.176  35.066  1.00  0.00     0.200 A 
ATOM     76  F   UNL A   1      41.501  33.129  36.675  1.00  0.00    -0.200 F 
ATOM     77  F   UNL A   1      42.861  35.314  35.776  1.00  0.00    -0.200 F 
ENDBRANCH  53  67
BRANCH  54  78
ATOM     78  C   UNL A   1      42.455  23.774  27.631  1.00  0.00     0.064 A 
ATOM     79  C   UNL A   1      41.992  22.537  28.102  1.00  0.00     0.173 A 
ATOM     80  C   UNL A   1      42.924  23.834  26.310  1.00  0.00     0.173 A 
ATOM     81  F   UNL A   1      41.551  22.424  29.363  1.00  0.00    -0.203 F 
ATOM     82  C   UNL A   1      42.039  21.398  27.302  1.00  0.00     0.198 A 
ATOM     83  C   UNL A   1      42.937  22.701  25.499  1.00  0.00     0.198 A 
ATOM     84  F   UNL A   1      43.370  24.994  25.806  1.00  0.00    -0.203 F 
ATOM     85  F   UNL A   1      41.656  20.214  27.802  1.00  0.00    -0.200 F 
ATOM     86  C   UNL A   1      42.510  21.481  26.000  1.00  0.00     0.200 A 
ATOM     87  F   UNL A   1      43.378  22.788  24.238  1.00  0.00    -0.200 F 
ATOM     88  F   UNL A   1      42.562  20.383  25.233  1.00  0.00    -0.200 F 
ENDBRANCH  54  78
BRANCH  66  89
ATOM     89  C   UNL A   1      46.819  25.808  32.646  1.00  0.00     0.064 A 
ATOM     90  C   UNL A   1      48.094  26.034  32.105  1.00  0.00     0.173 A 
ATOM     91  C   UNL A   1      46.719  24.956  33.755  1.00  0.00     0.173 A 
ATOM     92  F   UNL A   1      48.242  26.830  31.036  1.00  0.00    -0.203 F 
ATOM     93  C   UNL A   1      49.215  25.392  32.623  1.00  0.00     0.198 A 
ATOM     94  C   UNL A   1      47.847  24.345  34.295  1.00  0.00     0.198 A 
ATOM     95  F   UNL A   1      45.525  24.713  34.318  1.00  0.00    -0.203 F 
ATOM     96  F   UNL A   1      50.411  25.565  32.044  1.00  0.00    -0.200 F 
ATOM     97  C   UNL A   1      49.092  24.552  33.720  1.00  0.00     0.200 A 
ATOM     98  F   UNL A   1      47.728  23.546  35.364  1.00  0.00    -0.200 F 
ATOM     99  F   UNL A   1      50.171  23.930  34.214  1.00  0.00    -0.200 F 
ENDBRANCH  66  89
ENDBRANCH  40  41
ENDBRANCH  32  35
ENDBRANCH  30  31
ENDBRANCH  29  30
ENDBRANCH  28  29
ENDBRANCH   1  28
TORSDOF 16
ENDMDL
MODEL 3
REMARK VINA RESULT:     -12.1      0.758      7.226
REMARK SMILES COc1ccc2c(C[NH2+]Cc3cccs3)c(C(=O)NCCCCNC(=O)c3ccc(-c4c5nc(c(-c6c(F)c(F)c(F)c(F)c6F)c6ccc([nH]6)c(-c6c(F)c(F)c(F)c(F)c6F)c6nc(c(-c7c(F)c(F)c(F)c(F)c7F)c7ccc4[nH]7)C=C6)C=C5)cc3)[nH]c2c1
REMARK SMILES IDX 20 1 19 2 17 3 18 4 16 6 3 7 4 8 92 9 5 10 91 11 6 12 90 13
REMARK SMILES IDX 7 14 2 16 1 17 8 18 9 19 10 22 11 23 12 24 15 25 13 26 14 27
REMARK SMILES IDX 21 28 22 29 23 30 24 31 25 32 26 34 27 35 28 36 89 37 29 38
REMARK SMILES IDX 88 39 30 40 31 41 32 42 82 43 33 44 87 45 81 46 83 47 34 48
REMARK SMILES IDX 86 49 80 50 79 51 35 53 67 54 47 55 66 56 48 57 51 58 65 59
REMARK SMILES IDX 84 60 49 61 50 62 64 64 85 65 52 66 36 67 37 68 45 69 38 70
REMARK SMILES IDX 39 71 43 72 46 73 40 74 41 75 44 76 42 77 68 78 69 79 77 80
REMARK SMILES IDX 70 81 71 82 75 83 78 84 72 85 73 86 76 87 74 88 53 89 54 90
REMARK SMILES IDX 62 91 55 92 56 93 60 94 63 95 57 96 58 97 61 98 59 99
REMARK H PARENT 19 5 90 15 9 20 9 21 24 33 83 52 51 63
REMARK Flexibility Score: inf
ROOT
ATOM      1  C   UNL A   1      32.989  30.002  26.052  1.00  0.00     0.116 C 
ENDROOT
BRANCH   1   2
ATOM      2  N   UNL A   1      33.346  29.816  24.666  1.00  0.00    -0.351 N 
ATOM      3  C   UNL A   1      33.462  28.724  23.848  1.00  0.00     0.268 C 
ATOM      4  O   UNL A   1      33.978  28.971  22.755  1.00  0.00    -0.268 OA
ATOM      5  H   UNL A   1      33.553  30.662  24.206  1.00  0.00     0.163 HD
BRANCH   3   6
ATOM      6  C   UNL A   1      33.016  27.392  24.234  1.00  0.00     0.114 A 
ATOM      7  C   UNL A   1      32.312  23.119  25.892  1.00  0.00     0.120 A 
ATOM      8  C   UNL A   1      31.111  23.249  25.197  1.00  0.00     0.047 A 
ATOM      9  C   UNL A   1      33.236  24.166  25.920  1.00  0.00     0.073 A 
ATOM     10  C   UNL A   1      30.823  24.427  24.490  1.00  0.00     0.015 A 
ATOM     11  C   UNL A   1      32.938  25.322  25.188  1.00  0.00     0.050 A 
ATOM     12  C   UNL A   1      31.757  25.485  24.480  1.00  0.00     0.009 A 
ATOM     13  N   UNL A   1      33.686  26.454  24.984  1.00  0.00    -0.350 N 
ATOM     14  C   UNL A   1      31.808  26.782  23.868  1.00  0.00     0.045 A 
ATOM     15  H   UNL A   1      34.597  26.582  25.334  1.00  0.00     0.167 HD
BRANCH   7  16
ATOM     16  O   UNL A   1      32.652  22.014  26.629  1.00  0.00    -0.497 OA
ATOM     17  C   UNL A   1      33.568  22.281  27.687  1.00  0.00     0.278 C 
ENDBRANCH   7  16
BRANCH  14  18
ATOM     18  C   UNL A   1      30.759  27.341  22.955  1.00  0.00     0.300 C 
BRANCH  18  19
ATOM     19  N   UNL A   1      29.946  28.307  23.686  1.00  0.00    -0.338 N 
ATOM     20  H   UNL A   1      30.502  29.143  23.864  1.00  0.00     0.346 HD
ATOM     21  H   UNL A   1      29.647  27.880  24.562  1.00  0.00     0.346 HD
BRANCH  19  22
ATOM     22  C   UNL A   1      28.752  28.683  22.925  1.00  0.00     0.308 C 
BRANCH  22  23
ATOM     23  C   UNL A   1      28.672  30.168  22.705  1.00  0.00     0.059 A 
ATOM     24  C   UNL A   1      28.922  31.174  23.620  1.00  0.00     0.021 A 
ATOM     25  S   UNL A   1      28.239  30.815  21.175  1.00  0.00    -0.143 S 
ATOM     26  C   UNL A   1      28.652  32.469  23.091  1.00  0.00     0.012 A 
ATOM     27  C   UNL A   1      28.230  32.412  21.781  1.00  0.00     0.065 A 
ENDBRANCH  22  23
ENDBRANCH  19  22
ENDBRANCH  18  19
ENDBRANCH  14  18
ENDBRANCH   3   6
ENDBRANCH   1   2
BRANCH   1  28
ATOM     28  C   UNL A   1      31.543  30.487  26.161  1.00  0.00     0.023 C 
BRANCH  28  29
ATOM     29  C   UNL A   1      31.419  31.988  26.467  1.00  0.00     0.023 C 
BRANCH  29  30
ATOM     30  C   UNL A   1      32.604  32.596  27.214  1.00  0.00     0.116 C 
BRANCH  30  31
ATOM     31  N   UNL A   1      32.397  33.992  27.568  1.00  0.00    -0.352 N 
ATOM     32  C   UNL A   1      33.049  34.753  28.503  1.00  0.00     0.251 C 
ATOM     33  H   UNL A   1      31.688  34.454  27.066  1.00  0.00     0.163 HD
ATOM     34  O   UNL A   1      32.658  35.887  28.751  1.00  0.00    -0.269 OA
BRANCH  32  35
ATOM     35  C   UNL A   1      34.200  34.190  29.237  1.00  0.00     0.039 A 
ATOM     36  C   UNL A   1      33.948  33.406  30.365  1.00  0.00     0.014 A 
ATOM     37  C   UNL A   1      35.514  34.429  28.824  1.00  0.00     0.014 A 
ATOM     38  C   UNL A   1      35.013  32.820  31.048  1.00  0.00     0.010 A 
ATOM     39  C   UNL A   1      36.570  33.781  29.461  1.00  0.00     0.010 A 
ATOM     40  C   UNL A   1      36.331  32.977  30.584  1.00  0.00    -0.014 A 
BRANCH  40  41
ATOM     41  C   UNL A   1      37.454  32.293  31.273  1.00  0.00     0.031 A 
ATOM     42  C   UNL A   1      38.177  31.154  30.610  1.00  0.00     0.074 A 
ATOM     43  C   UNL A   1      37.801  32.688  32.513  1.00  0.00     0.049 A 
ATOM     44  N   UNL A   1      39.207  30.468  31.040  1.00  0.00    -0.248 NA
ATOM     45  C   UNL A   1      37.666  30.707  29.304  1.00  0.00     0.031 C 
ATOM     46  C   UNL A   1      37.128  33.733  33.288  1.00  0.00     0.029 A 
ATOM     47  N   UNL A   1      38.811  32.263  33.339  1.00  0.00    -0.354 N 
ATOM     48  C   UNL A   1      39.454  29.506  30.069  1.00  0.00     0.074 A 
ATOM     49  C   UNL A   1      38.439  29.659  29.052  1.00  0.00     0.031 C 
ATOM     50  C   UNL A   1      37.768  33.897  34.456  1.00  0.00     0.029 A 
ATOM     51  C   UNL A   1      38.878  32.952  34.526  1.00  0.00     0.049 A 
ATOM     52  H   UNL A   1      39.430  31.535  33.103  1.00  0.00     0.167 HD
ATOM     53  C   UNL A   1      40.454  28.594  30.020  1.00  0.00     0.037 A 
ATOM     54  C   UNL A   1      39.744  32.839  35.549  1.00  0.00     0.037 A 
ATOM     55  C   UNL A   1      41.485  28.470  31.019  1.00  0.00     0.049 A 
ATOM     56  C   UNL A   1      40.864  31.837  35.449  1.00  0.00     0.074 A 
ATOM     57  C   UNL A   1      42.591  27.638  31.018  1.00  0.00     0.029 A 
ATOM     58  N   UNL A   1      41.532  29.198  32.199  1.00  0.00    -0.354 N 
ATOM     59  N   UNL A   1      41.152  31.008  34.474  1.00  0.00    -0.248 NA
ATOM     60  C   UNL A   1      41.789  31.767  36.588  1.00  0.00     0.031 C 
ATOM     61  C   UNL A   1      43.279  27.823  32.223  1.00  0.00     0.029 A 
ATOM     62  C   UNL A   1      42.635  28.813  32.946  1.00  0.00     0.049 A 
ATOM     63  H   UNL A   1      40.880  29.885  32.466  1.00  0.00     0.167 HD
ATOM     64  C   UNL A   1      42.307  30.346  34.867  1.00  0.00     0.074 A 
ATOM     65  C   UNL A   1      42.681  30.890  36.156  1.00  0.00     0.031 C 
ATOM     66  C   UNL A   1      42.997  29.371  34.224  1.00  0.00     0.037 A 
BRANCH  53  67
ATOM     67  C   UNL A   1      40.496  27.658  28.847  1.00  0.00     0.064 A 
ATOM     68  C   UNL A   1      41.298  27.915  27.725  1.00  0.00     0.173 A 
ATOM     69  C   UNL A   1      39.775  26.455  28.875  1.00  0.00     0.173 A 
ATOM     70  F   UNL A   1      41.999  29.056  27.643  1.00  0.00    -0.203 F 
ATOM     71  C   UNL A   1      41.363  27.012  26.668  1.00  0.00     0.198 A 
ATOM     72  C   UNL A   1      39.865  25.539  27.830  1.00  0.00     0.198 A 
ATOM     73  F   UNL A   1      38.996  26.156  29.927  1.00  0.00    -0.203 F 
ATOM     74  F   UNL A   1      42.106  27.296  25.590  1.00  0.00    -0.200 F 
ATOM     75  C   UNL A   1      40.655  25.820  26.726  1.00  0.00     0.200 A 
ATOM     76  F   UNL A   1      39.192  24.382  27.893  1.00  0.00    -0.200 F 
ATOM     77  F   UNL A   1      40.732  24.943  25.714  1.00  0.00    -0.200 F 
ENDBRANCH  53  67
BRANCH  54  78
ATOM     78  C   UNL A   1      39.623  33.717  36.744  1.00  0.00     0.064 A 
ATOM     79  C   UNL A   1      38.860  33.323  37.854  1.00  0.00     0.173 A 
ATOM     80  C   UNL A   1      40.224  34.983  36.784  1.00  0.00     0.173 A 
ATOM     81  F   UNL A   1      38.250  32.129  37.856  1.00  0.00    -0.203 F 
ATOM     82  C   UNL A   1      38.671  34.177  38.938  1.00  0.00     0.198 A 
ATOM     83  C   UNL A   1      40.063  35.823  37.885  1.00  0.00     0.198 A 
ATOM     84  F   UNL A   1      40.971  35.406  35.754  1.00  0.00    -0.203 F 
ATOM     85  F   UNL A   1      37.881  33.801  39.954  1.00  0.00    -0.200 F 
ATOM     86  C   UNL A   1      39.274  35.426  38.954  1.00  0.00     0.200 A 
ATOM     87  F   UNL A   1      40.660  37.022  37.903  1.00  0.00    -0.200 F 
ATOM     88  F   UNL A   1      39.085  36.250  39.993  1.00  0.00    -0.200 F 
ENDBRANCH  54  78
BRANCH  66  89
ATOM     89  C   UNL A   1      44.244  28.866  34.891  1.00  0.00     0.064 A 
ATOM     90  C   UNL A   1      45.495  29.460  34.665  1.00  0.00     0.173 A 
ATOM     91  C   UNL A   1      44.186  27.770  35.764  1.00  0.00     0.173 A 
ATOM     92  F   UNL A   1      45.607  30.502  33.829  1.00  0.00    -0.203 F 
ATOM     93  C   UNL A   1      46.648  28.944  35.250  1.00  0.00     0.198 A 
ATOM     94  C   UNL A   1      45.336  27.280  36.377  1.00  0.00     0.198 A 
ATOM     95  F   UNL A   1      43.014  27.171  36.024  1.00  0.00    -0.203 F 
ATOM     96  F   UNL A   1      47.842  29.481  34.961  1.00  0.00    -0.200 F 
ATOM     97  C   UNL A   1      46.567  27.858  36.109  1.00  0.00     0.200 A 
ATOM     98  F   UNL A   1      45.254  26.241  37.219  1.00  0.00    -0.200 F 
ATOM     99  F   UNL A   1      47.679  27.359  36.667  1.00  0.00    -0.200 F 
ENDBRANCH  66  89
ENDBRANCH  40  41
ENDBRANCH  32  35
ENDBRANCH  30  31
ENDBRANCH  29  30
ENDBRANCH  28  29
ENDBRANCH   1  28
TORSDOF 16
ENDMDL
