MODEL 1
REMARK VINA RESULT:     -13.1      0.000      0.000
REMARK SMILES N#Cc1cccnc1N1CC[NH+]([C@@H](C(=O)NCCCCNC(=O)c2ccc(-c3c4nc(c(-c5c(F)c(F)c(F)c(F)c5F)c5ccc([nH]5)c(-c5c(F)c(F)c(F)c(F)c5F)c5nc(c(-c6c(F)c(F)c(F)c(F)c6F)c6ccc3[nH]6)C=C5)C=C4)cc2)c2c[nH]c3cc(CO)ccc23)CC1
REMARK SMILES IDX 18 1 17 2 16 3 14 4 15 5 13 7 12 8 9 9 10 10 99 11 11 12
REMARK SMILES IDX 98 13 8 15 3 16 4 17 5 18 7 19 6 20 2 21 1 22 87 23 88 24
REMARK SMILES IDX 97 25 89 26 90 27 96 28 91 30 95 31 92 32 93 33 94 34 19 36
REMARK SMILES IDX 20 37 21 38 22 39 23 41 24 42 25 43 86 44 26 45 85 46 27 47
REMARK SMILES IDX 28 48 29 49 79 50 30 51 84 52 78 53 80 54 31 55 83 56 77 57
REMARK SMILES IDX 76 58 32 60 64 61 44 62 63 63 45 64 48 65 62 66 81 67 46 68
REMARK SMILES IDX 47 69 61 71 82 72 49 73 33 74 34 75 42 76 35 77 36 78 40 79
REMARK SMILES IDX 43 80 37 81 38 82 41 83 39 84 65 85 66 86 74 87 67 88 68 89
REMARK SMILES IDX 72 90 75 91 69 92 70 93 73 94 71 95 50 96 51 97 59 98 52 99
REMARK SMILES IDX 53 100 57 101 60 102 54 103 55 104 58 105 56 106
REMARK H PARENT 16 6 12 14 89 29 94 35 21 40 80 59 48 70
REMARK Flexibility Score: inf
ROOT
ATOM      1  C   UNL A   1      36.798  20.217  25.125  1.00  0.00     0.023 C 
ENDROOT
BRANCH   1   2
ATOM      2  C   UNL A   1      36.401  21.721  25.101  1.00  0.00     0.116 C 
BRANCH   2   3
ATOM      3  N   UNL A   1      35.799  22.224  23.866  1.00  0.00    -0.351 N 
ATOM      4  C   UNL A   1      34.635  22.862  23.502  1.00  0.00     0.283 C 
ATOM      5  O   UNL A   1      34.629  23.207  22.315  1.00  0.00    -0.268 OA
ATOM      6  H   UNL A   1      36.381  22.063  23.089  1.00  0.00     0.163 HD
BRANCH   4   7
ATOM      7  C   UNL A   1      33.461  23.166  24.481  1.00  0.00     0.307 C 
BRANCH   7   8
ATOM      8  N   UNL A   1      33.690  24.230  25.548  1.00  0.00    -0.318 N 
ATOM      9  N   UNL A   1      32.348  26.832  25.004  1.00  0.00    -0.344 N 
ATOM     10  C   UNL A   1      33.574  26.436  24.298  1.00  0.00     0.179 C 
ATOM     11  C   UNL A   1      31.607  25.707  25.601  1.00  0.00     0.179 C 
ATOM     12  C   UNL A   1      34.378  25.493  25.202  1.00  0.00     0.284 C 
ATOM     13  C   UNL A   1      32.520  24.664  26.307  1.00  0.00     0.284 C 
ATOM     14  H   UNL A   1      34.323  23.639  26.087  1.00  0.00     0.349 HD
BRANCH   9  15
ATOM     15  C   UNL A   1      31.533  27.737  24.307  1.00  0.00     0.146 A 
ATOM     16  C   UNL A   1      31.309  29.034  24.784  1.00  0.00     0.095 A 
ATOM     17  C   UNL A   1      30.419  29.872  24.103  1.00  0.00     0.025 A 
ATOM     18  C   UNL A   1      29.777  29.410  22.961  1.00  0.00     0.022 A 
ATOM     19  N   UNL A   1      30.925  27.304  23.174  1.00  0.00    -0.238 NA
ATOM     20  C   UNL A   1      30.066  28.129  22.535  1.00  0.00     0.113 A 
BRANCH  16  21
ATOM     21  C   UNL A   1      31.984  29.532  25.951  1.00  0.00     0.103 C 
ATOM     22  N   UNL A   1      32.491  29.918  26.911  1.00  0.00    -0.192 NA
ENDBRANCH  16  21
ENDBRANCH   9  15
ENDBRANCH   7   8
BRANCH   7  23
ATOM     23  C   UNL A   1      32.819  21.930  25.174  1.00  0.00     0.044 A 
ATOM     24  C   UNL A   1      32.864  21.685  26.543  1.00  0.00     0.094 A 
ATOM     25  C   UNL A   1      32.481  20.637  24.629  1.00  0.00     0.009 A 
ATOM     26  N   UNL A   1      33.364  20.401  26.640  1.00  0.00    -0.361 N 
ATOM     27  C   UNL A   1      33.192  19.748  25.441  1.00  0.00     0.046 A 
ATOM     28  C   UNL A   1      31.939  20.134  23.434  1.00  0.00     0.011 A 
ATOM     29  H   UNL A   1      33.781  20.013  27.443  1.00  0.00     0.166 HD
ATOM     30  C   UNL A   1      33.718  18.543  24.941  1.00  0.00     0.032 A 
ATOM     31  C   UNL A   1      32.334  18.871  22.981  1.00  0.00     0.007 A 
ATOM     32  C   UNL A   1      33.346  18.165  23.639  1.00  0.00    -0.021 A 
BRANCH  32  33
ATOM     33  C   UNL A   1      34.060  17.044  22.924  1.00  0.00     0.191 C 
BRANCH  33  34
ATOM     34  O   UNL A   1      34.300  15.934  23.791  1.00  0.00    -0.392 OA
ATOM     35  H   UNL A   1      35.129  15.498  23.538  1.00  0.00     0.211 HD
ENDBRANCH  33  34
ENDBRANCH  32  33
ENDBRANCH   7  23
ENDBRANCH   4   7
ENDBRANCH   2   3
ENDBRANCH   1   2
BRANCH   1  36
ATOM     36  C   UNL A   1      38.255  19.861  24.805  1.00  0.00     0.023 C 
BRANCH  36  37
ATOM     37  C   UNL A   1      39.209  20.058  25.963  1.00  0.00     0.116 C 
BRANCH  37  38
ATOM     38  N   UNL A   1      40.293  19.088  25.974  1.00  0.00    -0.352 N 
ATOM     39  C   UNL A   1      41.646  19.299  26.104  1.00  0.00     0.251 C 
ATOM     40  H   UNL A   1      40.019  18.147  25.874  1.00  0.00     0.163 HD
ATOM     41  O   UNL A   1      42.427  18.363  25.969  1.00  0.00    -0.269 OA
BRANCH  39  42
ATOM     42  C   UNL A   1      42.168  20.661  26.375  1.00  0.00     0.039 A 
ATOM     43  C   UNL A   1      42.354  21.539  25.303  1.00  0.00     0.014 A 
ATOM     44  C   UNL A   1      42.476  21.077  27.672  1.00  0.00     0.014 A 
ATOM     45  C   UNL A   1      42.803  22.840  25.540  1.00  0.00     0.010 A 
ATOM     46  C   UNL A   1      42.813  22.400  27.920  1.00  0.00     0.010 A 
ATOM     47  C   UNL A   1      43.009  23.287  26.855  1.00  0.00    -0.014 A 
BRANCH  47  48
ATOM     48  C   UNL A   1      43.472  24.667  27.139  1.00  0.00     0.031 A 
ATOM     49  C   UNL A   1      42.516  25.673  27.717  1.00  0.00     0.074 A 
ATOM     50  C   UNL A   1      44.730  25.024  26.819  1.00  0.00     0.049 A 
ATOM     51  N   UNL A   1      42.712  26.934  28.006  1.00  0.00    -0.248 NA
ATOM     52  C   UNL A   1      41.141  25.211  27.966  1.00  0.00     0.031 C 
ATOM     53  C   UNL A   1      45.724  24.149  26.194  1.00  0.00     0.029 A 
ATOM     54  N   UNL A   1      45.388  26.216  26.975  1.00  0.00    -0.354 N 
ATOM     55  C   UNL A   1      41.485  27.415  28.447  1.00  0.00     0.074 A 
ATOM     56  C   UNL A   1      40.535  26.333  28.319  1.00  0.00     0.031 C 
ATOM     57  C   UNL A   1      46.878  24.819  26.065  1.00  0.00     0.029 A 
ATOM     58  C   UNL A   1      46.697  26.178  26.563  1.00  0.00     0.049 A 
ATOM     59  H   UNL A   1      44.961  27.023  27.347  1.00  0.00     0.167 HD
ATOM     60  C   UNL A   1      41.185  28.640  28.940  1.00  0.00     0.037 A 
ATOM     61  C   UNL A   1      47.644  27.134  26.598  1.00  0.00     0.037 A 
ATOM     62  C   UNL A   1      42.150  29.696  29.094  1.00  0.00     0.049 A 
ATOM     63  C   UNL A   1      47.294  28.482  27.168  1.00  0.00     0.074 A 
ATOM     64  C   UNL A   1      41.981  30.948  29.659  1.00  0.00     0.029 A 
ATOM     65  N   UNL A   1      43.471  29.620  28.675  1.00  0.00    -0.354 N 
ATOM     66  N   UNL A   1      46.154  28.901  27.662  1.00  0.00    -0.248 NA
ATOM     67  C   UNL A   1      48.366  29.485  27.192  1.00  0.00     0.031 C 
ATOM     68  C   UNL A   1      43.187  31.647  29.533  1.00  0.00     0.029 A 
ATOM     69  C   UNL A   1      44.123  30.814  28.940  1.00  0.00     0.049 A 
ATOM     70  H   UNL A   1      43.885  28.834  28.251  1.00  0.00     0.167 HD
ATOM     71  C   UNL A   1      46.375  30.206  28.077  1.00  0.00     0.074 A 
ATOM     72  C   UNL A   1      47.765  30.502  27.794  1.00  0.00     0.031 C 
ATOM     73  C   UNL A   1      45.507  31.084  28.640  1.00  0.00     0.037 A 
BRANCH  60  74
ATOM     74  C   UNL A   1      39.758  28.893  29.341  1.00  0.00     0.064 A 
ATOM     75  C   UNL A   1      39.303  28.663  30.650  1.00  0.00     0.173 A 
ATOM     76  C   UNL A   1      38.829  29.365  28.402  1.00  0.00     0.173 A 
ATOM     77  F   UNL A   1      40.145  28.198  31.586  1.00  0.00    -0.203 F 
ATOM     78  C   UNL A   1      37.965  28.847  30.990  1.00  0.00     0.198 A 
ATOM     79  C   UNL A   1      37.499  29.584  28.755  1.00  0.00     0.198 A 
ATOM     80  F   UNL A   1      39.207  29.608  27.138  1.00  0.00    -0.203 F 
ATOM     81  F   UNL A   1      37.542  28.549  32.226  1.00  0.00    -0.200 F 
ATOM     82  C   UNL A   1      37.065  29.311  30.043  1.00  0.00     0.200 A 
ATOM     83  F   UNL A   1      36.632  30.044  27.842  1.00  0.00    -0.200 F 
ATOM     84  F   UNL A   1      35.777  29.485  30.369  1.00  0.00    -0.200 F 
ENDBRANCH  60  74
BRANCH  61  85
ATOM     85  C   UNL A   1      49.021  26.825  26.137  1.00  0.00     0.064 A 
ATOM     86  C   UNL A   1      49.952  26.243  27.009  1.00  0.00     0.173 A 
ATOM     87  C   UNL A   1      49.429  27.071  24.818  1.00  0.00     0.173 A 
ATOM     88  F   UNL A   1      49.615  26.002  28.284  1.00  0.00    -0.203 F 
ATOM     89  C   UNL A   1      51.242  25.929  26.583  1.00  0.00     0.198 A 
ATOM     90  C   UNL A   1      50.709  26.732  24.385  1.00  0.00     0.198 A 
ATOM     91  F   UNL A   1      48.573  27.615  23.940  1.00  0.00    -0.203 F 
ATOM     92  F   UNL A   1      52.120  25.402  27.446  1.00  0.00    -0.200 F 
ATOM     93  C   UNL A   1      51.617  26.167  25.269  1.00  0.00     0.200 A 
ATOM     94  F   UNL A   1      51.062  26.945  23.110  1.00  0.00    -0.200 F 
ATOM     95  F   UNL A   1      52.851  25.851  24.855  1.00  0.00    -0.200 F 
ENDBRANCH  61  85
BRANCH  73  96
ATOM     96  C   UNL A   1      46.047  32.437  29.002  1.00  0.00     0.064 A 
ATOM     97  C   UNL A   1      46.637  32.682  30.251  1.00  0.00     0.173 A 
ATOM     98  C   UNL A   1      45.996  33.493  28.080  1.00  0.00     0.173 A 
ATOM     99  F   UNL A   1      46.696  31.709  31.173  1.00  0.00    -0.203 F 
ATOM    100  C   UNL A   1      47.126  33.944  30.575  1.00  0.00     0.198 A 
ATOM    101  C   UNL A   1      46.517  34.744  28.396  1.00  0.00     0.198 A 
ATOM    102  F   UNL A   1      45.450  33.309  26.869  1.00  0.00    -0.203 F 
ATOM    103  F   UNL A   1      47.634  34.171  31.795  1.00  0.00    -0.200 F 
ATOM    104  C   UNL A   1      47.073  34.972  29.645  1.00  0.00     0.200 A 
ATOM    105  F   UNL A   1      46.477  35.733  27.490  1.00  0.00    -0.200 F 
ATOM    106  F   UNL A   1      47.548  36.185  29.958  1.00  0.00    -0.200 F 
ENDBRANCH  73  96
ENDBRANCH  47  48
ENDBRANCH  39  42
ENDBRANCH  37  38
ENDBRANCH  36  37
ENDBRANCH   1  36
TORSDOF 17
ENDMDL
MODEL 2
REMARK VINA RESULT:     -13.1      5.273     11.201
REMARK SMILES N#Cc1cccnc1N1CC[NH+]([C@@H](C(=O)NCCCCNC(=O)c2ccc(-c3c4nc(c(-c5c(F)c(F)c(F)c(F)c5F)c5ccc([nH]5)c(-c5c(F)c(F)c(F)c(F)c5F)c5nc(c(-c6c(F)c(F)c(F)c(F)c6F)c6ccc3[nH]6)C=C5)C=C4)cc2)c2c[nH]c3cc(CO)ccc23)CC1
REMARK SMILES IDX 18 1 17 2 16 3 14 4 15 5 13 7 12 8 9 9 10 10 99 11 11 12
REMARK SMILES IDX 98 13 8 15 3 16 4 17 5 18 7 19 6 20 2 21 1 22 87 23 88 24
REMARK SMILES IDX 97 25 89 26 90 27 96 28 91 30 95 31 92 32 93 33 94 34 19 36
REMARK SMILES IDX 20 37 21 38 22 39 23 41 24 42 25 43 86 44 26 45 85 46 27 47
REMARK SMILES IDX 28 48 29 49 79 50 30 51 84 52 78 53 80 54 31 55 83 56 77 57
REMARK SMILES IDX 76 58 32 60 64 61 44 62 63 63 45 64 48 65 62 66 81 67 46 68
REMARK SMILES IDX 47 69 61 71 82 72 49 73 33 74 34 75 42 76 35 77 36 78 40 79
REMARK SMILES IDX 43 80 37 81 38 82 41 83 39 84 65 85 66 86 74 87 67 88 68 89
REMARK SMILES IDX 72 90 75 91 69 92 70 93 73 94 71 95 50 96 51 97 59 98 52 99
REMARK SMILES IDX 53 100 57 101 60 102 54 103 55 104 58 105 56 106
REMARK H PARENT 16 6 12 14 89 29 94 35 21 40 80 59 48 70
REMARK Flexibility Score: inf
ROOT
ATOM      1  C   UNL A   1      31.376  31.170  25.737  1.00  0.00     0.023 C 
ENDROOT
BRANCH   1   2
ATOM      2  C   UNL A   1      32.152  29.823  25.799  1.00  0.00     0.116 C 
BRANCH   2   3
ATOM      3  N   UNL A   1      31.409  28.657  26.279  1.00  0.00    -0.351 N 
ATOM      4  C   UNL A   1      31.238  27.346  25.895  1.00  0.00     0.283 C 
ATOM      5  O   UNL A   1      30.588  26.688  26.716  1.00  0.00    -0.268 OA
ATOM      6  H   UNL A   1      30.894  28.866  27.091  1.00  0.00     0.163 HD
BRANCH   4   7
ATOM      7  C   UNL A   1      31.833  26.730  24.592  1.00  0.00     0.307 C 
BRANCH   7   8
ATOM      8  N   UNL A   1      33.338  26.497  24.547  1.00  0.00    -0.318 N 
ATOM      9  N   UNL A   1      34.148  23.637  24.713  1.00  0.00    -0.344 N 
ATOM     10  C   UNL A   1      33.707  24.381  25.899  1.00  0.00     0.179 C 
ATOM     11  C   UNL A   1      33.717  24.229  23.434  1.00  0.00     0.179 C 
ATOM     12  C   UNL A   1      34.028  25.867  25.694  1.00  0.00     0.284 C 
ATOM     13  C   UNL A   1      33.859  25.778  23.387  1.00  0.00     0.284 C 
ATOM     14  H   UNL A   1      33.553  27.494  24.532  1.00  0.00     0.349 HD
BRANCH   9  15
ATOM     15  C   UNL A   1      33.957  22.249  24.782  1.00  0.00     0.146 A 
ATOM     16  C   UNL A   1      35.025  21.375  25.023  1.00  0.00     0.095 A 
ATOM     17  C   UNL A   1      34.802  19.994  24.997  1.00  0.00     0.025 A 
ATOM     18  C   UNL A   1      33.526  19.508  24.741  1.00  0.00     0.022 A 
ATOM     19  N   UNL A   1      32.708  21.766  24.563  1.00  0.00    -0.238 NA
ATOM     20  C   UNL A   1      32.517  20.429  24.537  1.00  0.00     0.113 A 
BRANCH  16  21
ATOM     21  C   UNL A   1      36.345  21.865  25.312  1.00  0.00     0.103 C 
ATOM     22  N   UNL A   1      37.394  22.254  25.587  1.00  0.00    -0.192 NA
ENDBRANCH  16  21
ENDBRANCH   9  15
ENDBRANCH   7   8
BRANCH   7  23
ATOM     23  C   UNL A   1      31.421  27.428  23.264  1.00  0.00     0.044 A 
ATOM     24  C   UNL A   1      32.315  28.015  22.375  1.00  0.00     0.094 A 
ATOM     25  C   UNL A   1      30.158  28.012  22.881  1.00  0.00     0.009 A 
ATOM     26  N   UNL A   1      31.821  29.293  22.194  1.00  0.00    -0.361 N 
ATOM     27  C   UNL A   1      30.495  29.330  22.560  1.00  0.00     0.046 A 
ATOM     28  C   UNL A   1      28.794  27.710  23.039  1.00  0.00     0.011 A 
ATOM     29  H   UNL A   1      32.339  30.060  21.858  1.00  0.00     0.166 HD
ATOM     30  C   UNL A   1      29.611  30.400  22.790  1.00  0.00     0.032 A 
ATOM     31  C   UNL A   1      27.867  28.753  23.126  1.00  0.00     0.007 A 
ATOM     32  C   UNL A   1      28.298  30.083  23.178  1.00  0.00    -0.021 A 
BRANCH  32  33
ATOM     33  C   UNL A   1      27.366  31.149  23.702  1.00  0.00     0.191 C 
BRANCH  33  34
ATOM     34  O   UNL A   1      27.650  32.426  23.126  1.00  0.00    -0.392 OA
ATOM     35  H   UNL A   1      27.438  32.408  22.179  1.00  0.00     0.211 HD
ENDBRANCH  33  34
ENDBRANCH  32  33
ENDBRANCH   7  23
ENDBRANCH   4   7
ENDBRANCH   2   3
ENDBRANCH   1   2
BRANCH   1  36
ATOM     36  C   UNL A   1      31.404  32.065  26.983  1.00  0.00     0.023 C 
BRANCH  36  37
ATOM     37  C   UNL A   1      32.679  32.864  27.142  1.00  0.00     0.116 C 
BRANCH  37  38
ATOM     38  N   UNL A   1      32.443  34.215  27.625  1.00  0.00    -0.352 N 
ATOM     39  C   UNL A   1      33.050  34.885  28.662  1.00  0.00     0.251 C 
ATOM     40  H   UNL A   1      31.750  34.722  27.143  1.00  0.00     0.163 HD
ATOM     41  O   UNL A   1      32.634  35.987  29.006  1.00  0.00    -0.269 OA
BRANCH  39  42
ATOM     42  C   UNL A   1      34.186  34.267  29.388  1.00  0.00     0.039 A 
ATOM     43  C   UNL A   1      33.917  33.415  30.464  1.00  0.00     0.014 A 
ATOM     44  C   UNL A   1      35.509  34.522  29.021  1.00  0.00     0.014 A 
ATOM     45  C   UNL A   1      34.971  32.788  31.134  1.00  0.00     0.010 A 
ATOM     46  C   UNL A   1      36.547  33.814  29.611  1.00  0.00     0.010 A 
ATOM     47  C   UNL A   1      36.292  32.962  30.693  1.00  0.00    -0.014 A 
BRANCH  47  48
ATOM     48  C   UNL A   1      37.429  32.300  31.375  1.00  0.00     0.031 A 
ATOM     49  C   UNL A   1      38.154  31.171  30.696  1.00  0.00     0.074 A 
ATOM     50  C   UNL A   1      37.763  32.673  32.625  1.00  0.00     0.049 A 
ATOM     51  N   UNL A   1      39.148  30.440  31.133  1.00  0.00    -0.248 NA
ATOM     52  C   UNL A   1      37.671  30.783  29.362  1.00  0.00     0.031 C 
ATOM     53  C   UNL A   1      37.087  33.712  33.405  1.00  0.00     0.029 A 
ATOM     54  N   UNL A   1      38.754  32.224  33.457  1.00  0.00    -0.354 N 
ATOM     55  C   UNL A   1      39.390  29.500  30.140  1.00  0.00     0.074 A 
ATOM     56  C   UNL A   1      38.395  29.704  29.111  1.00  0.00     0.031 C 
ATOM     57  C   UNL A   1      37.714  33.853  34.583  1.00  0.00     0.029 A 
ATOM     58  C   UNL A   1      38.810  32.893  34.655  1.00  0.00     0.049 A 
ATOM     59  H   UNL A   1      39.368  31.491  33.219  1.00  0.00     0.167 HD
ATOM     60  C   UNL A   1      40.371  28.568  30.078  1.00  0.00     0.037 A 
ATOM     61  C   UNL A   1      39.662  32.751  35.687  1.00  0.00     0.037 A 
ATOM     62  C   UNL A   1      41.376  28.400  31.093  1.00  0.00     0.049 A 
ATOM     63  C   UNL A   1      40.757  31.724  35.590  1.00  0.00     0.074 A 
ATOM     64  C   UNL A   1      42.467  27.549  31.100  1.00  0.00     0.029 A 
ATOM     65  N   UNL A   1      41.409  29.103  32.291  1.00  0.00    -0.354 N 
ATOM     66  N   UNL A   1      41.030  30.897  34.609  1.00  0.00    -0.248 NA
ATOM     67  C   UNL A   1      41.664  31.617  36.739  1.00  0.00     0.031 C 
ATOM     68  C   UNL A   1      43.128  27.700  32.324  1.00  0.00     0.029 A 
ATOM     69  C   UNL A   1      42.483  28.683  33.058  1.00  0.00     0.049 A 
ATOM     70  H   UNL A   1      40.762  29.797  32.556  1.00  0.00     0.167 HD
ATOM     71  C   UNL A   1      42.153  30.188  35.010  1.00  0.00     0.074 A 
ATOM     72  C   UNL A   1      42.520  30.697  36.317  1.00  0.00     0.031 C 
ATOM     73  C   UNL A   1      42.821  29.202  34.360  1.00  0.00     0.037 A 
BRANCH  60  74
ATOM     74  C   UNL A   1      40.394  27.667  28.875  1.00  0.00     0.064 A 
ATOM     75  C   UNL A   1      39.655  26.474  28.828  1.00  0.00     0.173 A 
ATOM     76  C   UNL A   1      41.173  27.994  27.756  1.00  0.00     0.173 A 
ATOM     77  F   UNL A   1      38.902  26.103  29.876  1.00  0.00    -0.203 F 
ATOM     78  C   UNL A   1      39.733  25.621  27.730  1.00  0.00     0.198 A 
ATOM     79  C   UNL A   1      41.221  27.157  26.643  1.00  0.00     0.198 A 
ATOM     80  F   UNL A   1      41.897  29.124  27.741  1.00  0.00    -0.203 F 
ATOM     81  F   UNL A   1      39.076  24.453  27.741  1.00  0.00    -0.200 F 
ATOM     82  C   UNL A   1      40.513  25.965  26.636  1.00  0.00     0.200 A 
ATOM     83  F   UNL A   1      41.966  27.497  25.582  1.00  0.00    -0.200 F 
ATOM     84  F   UNL A   1      40.591  25.142  25.582  1.00  0.00    -0.200 F 
ENDBRANCH  60  74
BRANCH  61  85
ATOM     85  C   UNL A   1      39.547  33.646  36.867  1.00  0.00     0.064 A 
ATOM     86  C   UNL A   1      40.190  34.893  36.883  1.00  0.00     0.173 A 
ATOM     87  C   UNL A   1      38.773  33.299  37.983  1.00  0.00     0.173 A 
ATOM     88  F   UNL A   1      40.954  35.264  35.846  1.00  0.00    -0.203 F 
ATOM     89  C   UNL A   1      40.074  35.751  37.975  1.00  0.00     0.198 A 
ATOM     90  C   UNL A   1      38.634  34.169  39.063  1.00  0.00     0.198 A 
ATOM     91  F   UNL A   1      38.127  32.123  38.013  1.00  0.00    -0.203 F 
ATOM     92  F   UNL A   1      40.725  36.921  37.977  1.00  0.00    -0.200 F 
ATOM     93  C   UNL A   1      39.289  35.391  39.061  1.00  0.00     0.200 A 
ATOM     94  F   UNL A   1      37.860  33.826  40.102  1.00  0.00    -0.200 F 
ATOM     95  F   UNL A   1      39.165  36.222  40.104  1.00  0.00    -0.200 F 
ENDBRANCH  61  85
BRANCH  73  96
ATOM     96  C   UNL A   1      44.026  28.629  35.048  1.00  0.00     0.064 A 
ATOM     97  C   UNL A   1      45.304  29.180  34.871  1.00  0.00     0.173 A 
ATOM     98  C   UNL A   1      43.897  27.531  35.912  1.00  0.00     0.173 A 
ATOM     99  F   UNL A   1      45.482  30.221  34.043  1.00  0.00    -0.203 F 
ATOM    100  C   UNL A   1      46.413  28.633  35.509  1.00  0.00     0.198 A 
ATOM    101  C   UNL A   1      45.003  27.008  36.574  1.00  0.00     0.198 A 
ATOM    102  F   UNL A   1      42.696  26.973  36.122  1.00  0.00    -0.203 F 
ATOM    103  F   UNL A   1      47.633  29.141  35.281  1.00  0.00    -0.200 F 
ATOM    104  C   UNL A   1      46.261  27.552  36.366  1.00  0.00     0.200 A 
ATOM    105  F   UNL A   1      44.852  25.973  37.413  1.00  0.00    -0.200 F 
ATOM    106  F   UNL A   1      47.330  27.029  36.982  1.00  0.00    -0.200 F 
ENDBRANCH  73  96
ENDBRANCH  47  48
ENDBRANCH  39  42
ENDBRANCH  37  38
ENDBRANCH  36  37
ENDBRANCH   1  36
TORSDOF 17
ENDMDL
MODEL 3
REMARK VINA RESULT:     -13.0      5.001      9.855
REMARK SMILES N#Cc1cccnc1N1CC[NH+]([C@@H](C(=O)NCCCCNC(=O)c2ccc(-c3c4nc(c(-c5c(F)c(F)c(F)c(F)c5F)c5ccc([nH]5)c(-c5c(F)c(F)c(F)c(F)c5F)c5nc(c(-c6c(F)c(F)c(F)c(F)c6F)c6ccc3[nH]6)C=C5)C=C4)cc2)c2c[nH]c3cc(CO)ccc23)CC1
REMARK SMILES IDX 18 1 17 2 16 3 14 4 15 5 13 7 12 8 9 9 10 10 99 11 11 12
REMARK SMILES IDX 98 13 8 15 3 16 4 17 5 18 7 19 6 20 2 21 1 22 87 23 88 24
REMARK SMILES IDX 97 25 89 26 90 27 96 28 91 30 95 31 92 32 93 33 94 34 19 36
REMARK SMILES IDX 20 37 21 38 22 39 23 41 24 42 25 43 86 44 26 45 85 46 27 47
REMARK SMILES IDX 28 48 29 49 79 50 30 51 84 52 78 53 80 54 31 55 83 56 77 57
REMARK SMILES IDX 76 58 32 60 64 61 44 62 63 63 45 64 48 65 62 66 81 67 46 68
REMARK SMILES IDX 47 69 61 71 82 72 49 73 33 74 34 75 42 76 35 77 36 78 40 79
REMARK SMILES IDX 43 80 37 81 38 82 41 83 39 84 65 85 66 86 74 87 67 88 68 89
REMARK SMILES IDX 72 90 75 91 69 92 70 93 73 94 71 95 50 96 51 97 59 98 52 99
REMARK SMILES IDX 53 100 57 101 60 102 54 103 55 104 58 105 56 106
REMARK H PARENT 16 6 12 14 89 29 94 35 21 40 80 59 48 70
REMARK Flexibility Score: inf
ROOT
ATOM      1  C   UNL A   1      31.582  30.373  25.920  1.00  0.00     0.023 C 
ENDROOT
BRANCH   1   2
ATOM      2  C   UNL A   1      32.038  29.224  26.865  1.00  0.00     0.116 C 
BRANCH   2   3
ATOM      3  N   UNL A   1      32.723  28.092  26.242  1.00  0.00    -0.351 N 
ATOM      4  C   UNL A   1      32.399  27.074  25.375  1.00  0.00     0.283 C 
ATOM      5  O   UNL A   1      33.382  26.407  25.030  1.00  0.00    -0.268 OA
ATOM      6  H   UNL A   1      33.667  28.046  26.517  1.00  0.00     0.163 HD
BRANCH   4   7
ATOM      7  C   UNL A   1      30.960  26.806  24.838  1.00  0.00     0.307 C 
BRANCH   7   8
ATOM      8  N   UNL A   1      30.427  25.382  24.930  1.00  0.00    -0.318 N 
ATOM      9  N   UNL A   1      32.527  23.272  24.866  1.00  0.00    -0.344 N 
ATOM     10  C   UNL A   1      32.108  23.977  23.648  1.00  0.00     0.179 C 
ATOM     11  C   UNL A   1      32.206  23.984  26.115  1.00  0.00     0.179 C 
ATOM     12  C   UNL A   1      30.653  24.430  23.819  1.00  0.00     0.284 C 
ATOM     13  C   UNL A   1      30.786  24.619  26.123  1.00  0.00     0.284 C 
ATOM     14  H   UNL A   1      29.452  25.681  24.922  1.00  0.00     0.349 HD
BRANCH   9  15
ATOM     15  C   UNL A   1      33.832  22.758  24.831  1.00  0.00     0.146 A 
ATOM     16  C   UNL A   1      34.080  21.384  24.945  1.00  0.00     0.095 A 
ATOM     17  C   UNL A   1      35.401  20.926  24.993  1.00  0.00     0.025 A 
ATOM     18  C   UNL A   1      36.447  21.836  24.919  1.00  0.00     0.022 A 
ATOM     19  N   UNL A   1      34.861  23.637  24.728  1.00  0.00    -0.238 NA
ATOM     20  C   UNL A   1      36.128  23.173  24.782  1.00  0.00     0.113 A 
BRANCH  16  21
ATOM     21  C   UNL A   1      33.006  20.430  25.000  1.00  0.00     0.103 C 
ATOM     22  N   UNL A   1      32.153  19.655  25.001  1.00  0.00    -0.192 NA
ENDBRANCH  16  21
ENDBRANCH   9  15
ENDBRANCH   7   8
BRANCH   7  23
ATOM     23  C   UNL A   1      30.665  27.330  23.403  1.00  0.00     0.044 A 
ATOM     24  C   UNL A   1      31.631  27.508  22.417  1.00  0.00     0.094 A 
ATOM     25  C   UNL A   1      29.563  28.127  22.919  1.00  0.00     0.009 A 
ATOM     26  N   UNL A   1      31.451  28.813  22.001  1.00  0.00    -0.361 N 
ATOM     27  C   UNL A   1      30.192  29.241  22.356  1.00  0.00     0.046 A 
ATOM     28  C   UNL A   1      28.176  28.203  23.134  1.00  0.00     0.011 A 
ATOM     29  H   UNL A   1      32.122  29.355  21.525  1.00  0.00     0.166 HD
ATOM     30  C   UNL A   1      29.605  30.519  22.382  1.00  0.00     0.032 A 
ATOM     31  C   UNL A   1      27.533  29.441  23.025  1.00  0.00     0.007 A 
ATOM     32  C   UNL A   1      28.274  30.611  22.826  1.00  0.00    -0.021 A 
BRANCH  32  33
ATOM     33  C   UNL A   1      27.653  31.949  23.142  1.00  0.00     0.191 C 
BRANCH  33  34
ATOM     34  O   UNL A   1      28.034  32.945  22.189  1.00  0.00    -0.392 OA
ATOM     35  H   UNL A   1      28.914  33.288  22.414  1.00  0.00     0.211 HD
ENDBRANCH  33  34
ENDBRANCH  32  33
ENDBRANCH   7  23
ENDBRANCH   4   7
ENDBRANCH   2   3
ENDBRANCH   1   2
BRANCH   1  36
ATOM     36  C   UNL A   1      31.385  31.764  26.536  1.00  0.00     0.023 C 
BRANCH  36  37
ATOM     37  C   UNL A   1      32.675  32.479  26.876  1.00  0.00     0.116 C 
BRANCH  37  38
ATOM     38  N   UNL A   1      32.459  33.824  27.384  1.00  0.00    -0.352 N 
ATOM     39  C   UNL A   1      33.114  34.485  28.397  1.00  0.00     0.251 C 
ATOM     40  H   UNL A   1      31.743  34.334  26.940  1.00  0.00     0.163 HD
ATOM     41  O   UNL A   1      32.712  35.582  28.772  1.00  0.00    -0.269 OA
BRANCH  39  42
ATOM     42  C   UNL A   1      34.284  33.862  29.063  1.00  0.00     0.039 A 
ATOM     43  C   UNL A   1      34.066  32.889  30.043  1.00  0.00     0.014 A 
ATOM     44  C   UNL A   1      35.590  34.231  28.731  1.00  0.00     0.014 A 
ATOM     45  C   UNL A   1      35.154  32.260  30.651  1.00  0.00     0.010 A 
ATOM     46  C   UNL A   1      36.668  33.527  29.251  1.00  0.00     0.010 A 
ATOM     47  C   UNL A   1      36.463  32.555  30.238  1.00  0.00    -0.014 A 
BRANCH  47  48
ATOM     48  C   UNL A   1      37.637  31.893  30.855  1.00  0.00     0.031 A 
ATOM     49  C   UNL A   1      38.074  32.285  32.239  1.00  0.00     0.074 A 
ATOM     50  C   UNL A   1      38.341  30.992  30.145  1.00  0.00     0.049 A 
ATOM     51  N   UNL A   1      39.090  31.853  32.943  1.00  0.00    -0.248 NA
ATOM     52  C   UNL A   1      37.288  33.332  32.910  1.00  0.00     0.031 C 
ATOM     53  C   UNL A   1      38.047  30.584  28.770  1.00  0.00     0.029 A 
ATOM     54  N   UNL A   1      39.446  30.255  30.481  1.00  0.00    -0.354 N 
ATOM     55  C   UNL A   1      39.074  32.589  34.121  1.00  0.00     0.074 A 
ATOM     56  C   UNL A   1      37.994  33.544  34.008  1.00  0.00     0.031 C 
ATOM     57  C   UNL A   1      38.920  29.636  28.398  1.00  0.00     0.029 A 
ATOM     58  C   UNL A   1      39.854  29.394  29.492  1.00  0.00     0.049 A 
ATOM     59  H   UNL A   1      39.904  30.335  31.350  1.00  0.00     0.167 HD
ATOM     60  C   UNL A   1      39.869  32.462  35.209  1.00  0.00     0.037 A 
ATOM     61  C   UNL A   1      40.863  28.504  29.480  1.00  0.00     0.037 A 
ATOM     62  C   UNL A   1      40.917  31.482  35.320  1.00  0.00     0.049 A 
ATOM     63  C   UNL A   1      41.723  28.365  30.707  1.00  0.00     0.074 A 
ATOM     64  C   UNL A   1      41.731  31.204  36.404  1.00  0.00     0.029 A 
ATOM     65  N   UNL A   1      41.297  30.619  34.301  1.00  0.00    -0.354 N 
ATOM     66  N   UNL A   1      41.646  29.005  31.849  1.00  0.00    -0.248 NA
ATOM     67  C   UNL A   1      42.802  27.372  30.645  1.00  0.00     0.031 C 
ATOM     68  C   UNL A   1      42.637  30.208  36.022  1.00  0.00     0.029 A 
ATOM     69  C   UNL A   1      42.355  29.827  34.719  1.00  0.00     0.049 A 
ATOM     70  H   UNL A   1      40.878  30.576  33.411  1.00  0.00     0.167 HD
ATOM     71  C   UNL A   1      42.649  28.480  32.650  1.00  0.00     0.074 A 
ATOM     72  C   UNL A   1      43.309  27.454  31.868  1.00  0.00     0.031 C 
ATOM     73  C   UNL A   1      42.998  28.817  33.917  1.00  0.00     0.037 A 
BRANCH  60  74
ATOM     74  C   UNL A   1      39.631  33.406  36.354  1.00  0.00     0.064 A 
ATOM     75  C   UNL A   1      38.792  33.073  37.429  1.00  0.00     0.173 A 
ATOM     76  C   UNL A   1      40.244  34.668  36.374  1.00  0.00     0.173 A 
ATOM     77  F   UNL A   1      38.168  31.884  37.456  1.00  0.00    -0.203 F 
ATOM     78  C   UNL A   1      38.536  33.982  38.453  1.00  0.00     0.198 A 
ATOM     79  C   UNL A   1      40.016  35.562  37.418  1.00  0.00     0.198 A 
ATOM     80  F   UNL A   1      41.061  35.040  35.376  1.00  0.00    -0.203 F 
ATOM     81  F   UNL A   1      37.673  33.667  39.428  1.00  0.00    -0.200 F 
ATOM     82  C   UNL A   1      39.152  35.224  38.448  1.00  0.00     0.200 A 
ATOM     83  F   UNL A   1      40.621  36.758  37.419  1.00  0.00    -0.200 F 
ATOM     84  F   UNL A   1      38.903  36.100  39.431  1.00  0.00    -0.200 F 
ENDBRANCH  60  74
BRANCH  61  85
ATOM     85  C   UNL A   1      41.069  27.638  28.291  1.00  0.00     0.064 A 
ATOM     86  C   UNL A   1      41.931  28.037  27.259  1.00  0.00     0.173 A 
ATOM     87  C   UNL A   1      40.444  26.389  28.172  1.00  0.00     0.173 A 
ATOM     88  F   UNL A   1      42.541  29.229  27.320  1.00  0.00    -0.203 F 
ATOM     89  C   UNL A   1      42.149  27.225  26.148  1.00  0.00     0.198 A 
ATOM     90  C   UNL A   1      40.684  25.566  27.073  1.00  0.00     0.198 A 
ATOM     91  F   UNL A   1      39.620  25.955  29.137  1.00  0.00    -0.203 F 
ATOM     92  F   UNL A   1      42.953  27.645  25.162  1.00  0.00    -0.200 F 
ATOM     93  C   UNL A   1      41.531  25.986  26.060  1.00  0.00     0.200 A 
ATOM     94  F   UNL A   1      40.100  24.362  27.001  1.00  0.00    -0.200 F 
ATOM     95  F   UNL A   1      41.753  25.199  24.998  1.00  0.00    -0.200 F 
ENDBRANCH  61  85
BRANCH  73  96
ATOM     96  C   UNL A   1      44.130  28.051  34.537  1.00  0.00     0.064 A 
ATOM     97  C   UNL A   1      43.915  26.840  35.211  1.00  0.00     0.173 A 
ATOM     98  C   UNL A   1      45.448  28.522  34.434  1.00  0.00     0.173 A 
ATOM     99  F   UNL A   1      42.671  26.356  35.350  1.00  0.00    -0.203 F 
ATOM    100  C   UNL A   1      44.974  26.145  35.788  1.00  0.00     0.198 A 
ATOM    101  C   UNL A   1      46.508  27.806  34.983  1.00  0.00     0.198 A 
ATOM    102  F   UNL A   1      45.708  29.670  33.792  1.00  0.00    -0.203 F 
ATOM    103  F   UNL A   1      44.738  25.019  36.476  1.00  0.00    -0.200 F 
ATOM    104  C   UNL A   1      46.270  26.624  35.667  1.00  0.00     0.200 A 
ATOM    105  F   UNL A   1      47.761  28.264  34.853  1.00  0.00    -0.200 F 
ATOM    106  F   UNL A   1      47.288  25.952  36.220  1.00  0.00    -0.200 F 
ENDBRANCH  73  96
ENDBRANCH  47  48
ENDBRANCH  39  42
ENDBRANCH  37  38
ENDBRANCH  36  37
ENDBRANCH   1  36
TORSDOF 17
ENDMDL
