MODEL 1
REMARK VINA RESULT:     -12.3      0.000      0.000
REMARK SMILES Cc1cc(C)n(CC(=O)N[C@H]2C=C[C@@H](C(=O)NCCCCNC(=O)c3ccc(-c4c5nc(c(-c6c(F)c(F)c(F)c(F)c6F)c6ccc([nH]6)c(-c6c(F)c(F)c(F)c(F)c6F)c6nc(c(-c7c(F)c(F)c(F)c(F)c7F)c7ccc4[nH]7)C=C6)C=C5)cc3)C2)n1
REMARK SMILES IDX 19 1 18 2 17 3 15 4 16 5 14 7 11 8 12 9 88 10 13 11 10 12
REMARK SMILES IDX 8 13 9 14 7 16 6 17 1 18 2 19 3 20 89 21 4 22 5 23 20 24
REMARK SMILES IDX 21 25 22 26 23 27 24 29 25 30 26 31 87 32 27 33 86 34 28 35
REMARK SMILES IDX 29 36 30 37 80 38 31 39 85 40 79 41 81 42 32 43 84 44 78 45
REMARK SMILES IDX 77 46 33 48 65 49 45 50 64 51 46 52 49 53 63 54 82 55 47 56
REMARK SMILES IDX 48 57 62 59 83 60 50 61 34 62 35 63 43 64 36 65 37 66 41 67
REMARK SMILES IDX 44 68 38 69 39 70 42 71 40 72 66 73 67 74 75 75 68 76 69 77
REMARK SMILES IDX 73 78 76 79 70 80 71 81 74 82 72 83 51 84 52 85 60 86 53 87
REMARK SMILES IDX 54 88 58 89 61 90 55 91 56 92 59 93 57 94
REMARK H PARENT 17 6 10 15 22 28 81 47 49 58
REMARK Flexibility Score: inf
ROOT
ATOM      1  C   UNL A   1      40.574  21.567  27.218  1.00  0.00     0.023 C 
ENDROOT
BRANCH   1   2
ATOM      2  C   UNL A   1      39.488  22.372  26.477  1.00  0.00     0.116 C 
BRANCH   2   3
ATOM      3  N   UNL A   1      38.520  21.520  25.805  1.00  0.00    -0.356 N 
ATOM      4  C   UNL A   1      37.444  21.783  25.006  1.00  0.00     0.227 C 
ATOM      5  O   UNL A   1      36.841  20.795  24.568  1.00  0.00    -0.274 OA
ATOM      6  H   UNL A   1      38.671  20.558  25.956  1.00  0.00     0.163 HD
BRANCH   4   7
ATOM      7  C   UNL A   1      36.916  23.195  24.661  1.00  0.00     0.103 C 
ATOM      8  C   UNL A   1      34.781  24.049  23.726  1.00  0.00     0.106 C 
ATOM      9  C   UNL A   1      34.953  24.377  25.180  1.00  0.00    -0.006 C 
ATOM     10  C   UNL A   1      36.017  23.206  23.427  1.00  0.00     0.047 C 
ATOM     11  C   UNL A   1      36.098  23.902  25.688  1.00  0.00    -0.016 C 
BRANCH   8  12
ATOM     12  N   UNL A   1      33.424  23.543  23.532  1.00  0.00    -0.348 N 
ATOM     13  C   UNL A   1      32.154  24.026  23.649  1.00  0.00     0.242 C 
ATOM     14  O   UNL A   1      31.245  23.190  23.702  1.00  0.00    -0.273 OA
ATOM     15  H   UNL A   1      33.427  22.604  23.237  1.00  0.00     0.164 HD
BRANCH  13  16
ATOM     16  C   UNL A   1      31.816  25.480  23.533  1.00  0.00     0.244 C 
BRANCH  16  17
ATOM     17  N   UNL A   1      31.960  26.282  24.724  1.00  0.00    -0.260 N 
ATOM     18  C   UNL A   1      34.135  28.424  26.463  1.00  0.00     0.069 C 
ATOM     19  C   UNL A   1      32.985  27.604  26.016  1.00  0.00     0.060 A 
ATOM     20  C   UNL A   1      31.870  27.115  26.733  1.00  0.00     0.048 A 
ATOM     21  N   UNL A   1      32.918  27.225  24.742  1.00  0.00    -0.178 NA
ATOM     22  C   UNL A   1      31.158  26.347  25.827  1.00  0.00     0.036 A 
ATOM     23  C   UNL A   1      29.848  25.666  25.900  1.00  0.00     0.066 C 
ENDBRANCH  16  17
ENDBRANCH  13  16
ENDBRANCH   8  12
ENDBRANCH   4   7
ENDBRANCH   2   3
ENDBRANCH   1   2
BRANCH   1  24
ATOM     24  C   UNL A   1      41.238  20.356  26.573  1.00  0.00     0.023 C 
BRANCH  24  25
ATOM     25  C   UNL A   1      42.664  20.110  27.014  1.00  0.00     0.116 C 
BRANCH  25  26
ATOM     26  N   UNL A   1      43.579  19.660  25.952  1.00  0.00    -0.352 N 
ATOM     27  C   UNL A   1      44.134  20.456  24.957  1.00  0.00     0.251 C 
ATOM     28  H   UNL A   1      43.821  18.705  25.948  1.00  0.00     0.163 HD
ATOM     29  O   UNL A   1      44.606  19.994  23.923  1.00  0.00    -0.269 OA
BRANCH  27  30
ATOM     30  C   UNL A   1      44.169  21.902  25.217  1.00  0.00     0.039 A 
ATOM     31  C   UNL A   1      43.205  22.796  24.742  1.00  0.00     0.014 A 
ATOM     32  C   UNL A   1      45.111  22.278  26.163  1.00  0.00     0.014 A 
ATOM     33  C   UNL A   1      43.138  24.063  25.323  1.00  0.00     0.010 A 
ATOM     34  C   UNL A   1      44.852  23.386  26.906  1.00  0.00     0.010 A 
ATOM     35  C   UNL A   1      43.951  24.332  26.431  1.00  0.00    -0.014 A 
BRANCH  35  36
ATOM     36  C   UNL A   1      43.857  25.549  27.223  1.00  0.00     0.031 A 
ATOM     37  C   UNL A   1      44.798  26.630  26.825  1.00  0.00     0.074 A 
ATOM     38  C   UNL A   1      42.779  25.758  28.015  1.00  0.00     0.049 A 
ATOM     39  N   UNL A   1      45.762  27.129  27.525  1.00  0.00    -0.248 NA
ATOM     40  C   UNL A   1      44.763  27.121  25.436  1.00  0.00     0.031 C 
ATOM     41  C   UNL A   1      41.613  24.882  28.218  1.00  0.00     0.029 A 
ATOM     42  N   UNL A   1      42.425  26.872  28.705  1.00  0.00    -0.354 N 
ATOM     43  C   UNL A   1      46.306  28.153  26.753  1.00  0.00     0.074 A 
ATOM     44  C   UNL A   1      45.813  27.946  25.418  1.00  0.00     0.031 C 
ATOM     45  C   UNL A   1      40.596  25.587  28.756  1.00  0.00     0.029 A 
ATOM     46  C   UNL A   1      41.090  26.902  29.107  1.00  0.00     0.049 A 
ATOM     47  H   UNL A   1      43.058  27.598  28.906  1.00  0.00     0.167 HD
ATOM     48  C   UNL A   1      46.876  29.240  27.349  1.00  0.00     0.037 A 
ATOM     49  C   UNL A   1      40.444  27.963  29.653  1.00  0.00     0.037 A 
ATOM     50  C   UNL A   1      47.148  28.964  28.743  1.00  0.00     0.049 A 
ATOM     51  C   UNL A   1      41.497  28.871  30.183  1.00  0.00     0.074 A 
ATOM     52  C   UNL A   1      47.887  28.007  29.414  1.00  0.00     0.029 A 
ATOM     53  N   UNL A   1      46.287  29.484  29.680  1.00  0.00    -0.354 N 
ATOM     54  N   UNL A   1      42.289  28.552  31.173  1.00  0.00    -0.248 NA
ATOM     55  C   UNL A   1      42.001  29.900  29.287  1.00  0.00     0.031 C 
ATOM     56  C   UNL A   1      47.085  27.650  30.541  1.00  0.00     0.029 A 
ATOM     57  C   UNL A   1      45.960  28.475  30.548  1.00  0.00     0.049 A 
ATOM     58  H   UNL A   1      45.963  30.413  29.719  1.00  0.00     0.167 HD
ATOM     59  C   UNL A   1      43.541  29.002  30.782  1.00  0.00     0.074 A 
ATOM     60  C   UNL A   1      43.290  29.882  29.640  1.00  0.00     0.031 C 
ATOM     61  C   UNL A   1      44.681  28.380  31.210  1.00  0.00     0.037 A 
BRANCH  48  62
ATOM     62  C   UNL A   1      46.805  30.661  26.822  1.00  0.00     0.064 A 
ATOM     63  C   UNL A   1      47.979  31.447  26.856  1.00  0.00     0.173 A 
ATOM     64  C   UNL A   1      45.612  31.380  26.591  1.00  0.00     0.173 A 
ATOM     65  F   UNL A   1      49.178  30.879  27.052  1.00  0.00    -0.203 F 
ATOM     66  C   UNL A   1      47.940  32.843  26.798  1.00  0.00     0.198 A 
ATOM     67  C   UNL A   1      45.585  32.770  26.481  1.00  0.00     0.198 A 
ATOM     68  F   UNL A   1      44.410  30.797  26.564  1.00  0.00    -0.203 F 
ATOM     69  F   UNL A   1      49.064  33.546  26.988  1.00  0.00    -0.200 F 
ATOM     70  C   UNL A   1      46.740  33.504  26.628  1.00  0.00     0.200 A 
ATOM     71  F   UNL A   1      44.407  33.392  26.322  1.00  0.00    -0.200 F 
ATOM     72  F   UNL A   1      46.688  34.842  26.649  1.00  0.00    -0.200 F 
ENDBRANCH  48  62
BRANCH  49  73
ATOM     73  C   UNL A   1      39.042  28.398  29.420  1.00  0.00     0.064 A 
ATOM     74  C   UNL A   1      38.162  28.596  30.497  1.00  0.00     0.173 A 
ATOM     75  C   UNL A   1      38.619  28.897  28.172  1.00  0.00     0.173 A 
ATOM     76  F   UNL A   1      38.501  28.185  31.727  1.00  0.00    -0.203 F 
ATOM     77  C   UNL A   1      36.954  29.286  30.343  1.00  0.00     0.198 A 
ATOM     78  C   UNL A   1      37.410  29.579  28.018  1.00  0.00     0.198 A 
ATOM     79  F   UNL A   1      39.410  28.821  27.092  1.00  0.00    -0.203 F 
ATOM     80  F   UNL A   1      36.173  29.514  31.408  1.00  0.00    -0.200 F 
ATOM     81  C   UNL A   1      36.585  29.789  29.106  1.00  0.00     0.200 A 
ATOM     82  F   UNL A   1      37.081  30.085  26.821  1.00  0.00    -0.200 F 
ATOM     83  F   UNL A   1      35.462  30.506  28.971  1.00  0.00    -0.200 F 
ENDBRANCH  49  73
BRANCH  61  84
ATOM     84  C   UNL A   1      44.563  27.351  32.303  1.00  0.00     0.064 A 
ATOM     85  C   UNL A   1      44.404  27.656  33.667  1.00  0.00     0.173 A 
ATOM     86  C   UNL A   1      44.441  26.006  31.931  1.00  0.00     0.173 A 
ATOM     87  F   UNL A   1      44.403  28.920  34.097  1.00  0.00    -0.203 F 
ATOM     88  C   UNL A   1      44.176  26.657  34.614  1.00  0.00     0.198 A 
ATOM     89  C   UNL A   1      44.178  25.015  32.872  1.00  0.00     0.198 A 
ATOM     90  F   UNL A   1      44.526  25.658  30.637  1.00  0.00    -0.203 F 
ATOM     91  F   UNL A   1      44.033  26.978  35.908  1.00  0.00    -0.200 F 
ATOM     92  C   UNL A   1      44.055  25.338  34.214  1.00  0.00     0.200 A 
ATOM     93  F   UNL A   1      44.010  23.747  32.472  1.00  0.00    -0.200 F 
ATOM     94  F   UNL A   1      43.792  24.382  35.115  1.00  0.00    -0.200 F 
ENDBRANCH  61  84
ENDBRANCH  35  36
ENDBRANCH  27  30
ENDBRANCH  25  26
ENDBRANCH  24  25
ENDBRANCH   1  24
TORSDOF 14
ENDMDL
MODEL 2
REMARK VINA RESULT:     -12.2      2.685      4.120
REMARK SMILES Cc1cc(C)n(CC(=O)N[C@H]2C=C[C@@H](C(=O)NCCCCNC(=O)c3ccc(-c4c5nc(c(-c6c(F)c(F)c(F)c(F)c6F)c6ccc([nH]6)c(-c6c(F)c(F)c(F)c(F)c6F)c6nc(c(-c7c(F)c(F)c(F)c(F)c7F)c7ccc4[nH]7)C=C6)C=C5)cc3)C2)n1
REMARK SMILES IDX 19 1 18 2 17 3 15 4 16 5 14 7 11 8 12 9 88 10 13 11 10 12
REMARK SMILES IDX 8 13 9 14 7 16 6 17 1 18 2 19 3 20 89 21 4 22 5 23 20 24
REMARK SMILES IDX 21 25 22 26 23 27 24 29 25 30 26 31 87 32 27 33 86 34 28 35
REMARK SMILES IDX 29 36 30 37 80 38 31 39 85 40 79 41 81 42 32 43 84 44 78 45
REMARK SMILES IDX 77 46 33 48 65 49 45 50 64 51 46 52 49 53 63 54 82 55 47 56
REMARK SMILES IDX 48 57 62 59 83 60 50 61 34 62 35 63 43 64 36 65 37 66 41 67
REMARK SMILES IDX 44 68 38 69 39 70 42 71 40 72 66 73 67 74 75 75 68 76 69 77
REMARK SMILES IDX 73 78 76 79 70 80 71 81 74 82 72 83 51 84 52 85 60 86 53 87
REMARK SMILES IDX 54 88 58 89 61 90 55 91 56 92 59 93 57 94
REMARK H PARENT 17 6 10 15 22 28 81 47 49 58
REMARK Flexibility Score: inf
ROOT
ATOM      1  C   UNL A   1      36.523  20.748  25.145  1.00  0.00     0.023 C 
ENDROOT
BRANCH   1   2
ATOM      2  C   UNL A   1      35.009  20.458  25.154  1.00  0.00     0.116 C 
BRANCH   2   3
ATOM      3  N   UNL A   1      34.341  21.002  26.326  1.00  0.00    -0.356 N 
ATOM      4  C   UNL A   1      33.682  22.173  26.561  1.00  0.00     0.227 C 
ATOM      5  O   UNL A   1      33.195  22.303  27.692  1.00  0.00    -0.274 OA
ATOM      6  H   UNL A   1      34.370  20.403  27.107  1.00  0.00     0.163 HD
BRANCH   4   7
ATOM      7  C   UNL A   1      33.547  23.338  25.552  1.00  0.00     0.103 C 
ATOM      8  C   UNL A   1      32.253  25.456  25.535  1.00  0.00     0.106 C 
ATOM      9  C   UNL A   1      33.725  25.674  25.720  1.00  0.00    -0.006 C 
ATOM     10  C   UNL A   1      32.142  23.934  25.520  1.00  0.00     0.047 C 
ATOM     11  C   UNL A   1      34.422  24.530  25.745  1.00  0.00    -0.016 C 
BRANCH   8  12
ATOM     12  N   UNL A   1      31.545  26.281  26.513  1.00  0.00    -0.348 N 
ATOM     13  C   UNL A   1      31.565  27.582  26.919  1.00  0.00     0.242 C 
ATOM     14  O   UNL A   1      31.030  27.833  28.005  1.00  0.00    -0.273 OA
ATOM     15  H   UNL A   1      30.875  25.758  27.009  1.00  0.00     0.164 HD
BRANCH  13  16
ATOM     16  C   UNL A   1      32.031  28.706  26.047  1.00  0.00     0.244 C 
BRANCH  16  17
ATOM     17  N   UNL A   1      33.056  29.569  26.582  1.00  0.00    -0.260 N 
ATOM     18  C   UNL A   1      36.384  29.675  27.701  1.00  0.00     0.069 C 
ATOM     19  C   UNL A   1      34.996  30.002  27.300  1.00  0.00     0.060 A 
ATOM     20  C   UNL A   1      34.187  31.118  27.611  1.00  0.00     0.048 A 
ATOM     21  N   UNL A   1      34.332  29.153  26.518  1.00  0.00    -0.178 NA
ATOM     22  C   UNL A   1      32.959  30.856  27.028  1.00  0.00     0.036 A 
ATOM     23  C   UNL A   1      31.728  31.662  26.875  1.00  0.00     0.066 C 
ENDBRANCH  16  17
ENDBRANCH  13  16
ENDBRANCH   8  12
ENDBRANCH   4   7
ENDBRANCH   2   3
ENDBRANCH   1   2
BRANCH   1  24
ATOM     24  C   UNL A   1      37.080  22.023  24.520  1.00  0.00     0.023 C 
BRANCH  24  25
ATOM     25  C   UNL A   1      37.993  22.821  25.423  1.00  0.00     0.116 C 
BRANCH  25  26
ATOM     26  N   UNL A   1      38.738  22.031  26.416  1.00  0.00    -0.352 N 
ATOM     27  C   UNL A   1      39.845  22.458  27.140  1.00  0.00     0.251 C 
ATOM     28  H   UNL A   1      38.420  21.114  26.585  1.00  0.00     0.163 HD
ATOM     29  O   UNL A   1      40.618  21.681  27.691  1.00  0.00    -0.269 OA
BRANCH  27  30
ATOM     30  C   UNL A   1      40.033  23.911  27.253  1.00  0.00     0.039 A 
ATOM     31  C   UNL A   1      38.988  24.836  27.167  1.00  0.00     0.014 A 
ATOM     32  C   UNL A   1      41.301  24.281  27.679  1.00  0.00     0.014 A 
ATOM     33  C   UNL A   1      39.214  26.133  27.625  1.00  0.00     0.010 A 
ATOM     34  C   UNL A   1      41.418  25.440  28.378  1.00  0.00     0.010 A 
ATOM     35  C   UNL A   1      40.431  26.412  28.261  1.00  0.00    -0.014 A 
BRANCH  35  36
ATOM     36  C   UNL A   1      40.722  27.674  28.925  1.00  0.00     0.031 A 
ATOM     37  C   UNL A   1      41.823  28.464  28.314  1.00  0.00     0.074 A 
ATOM     38  C   UNL A   1      39.835  28.194  29.805  1.00  0.00     0.049 A 
ATOM     39  N   UNL A   1      42.959  28.771  28.847  1.00  0.00    -0.248 NA
ATOM     40  C   UNL A   1      41.718  28.841  26.893  1.00  0.00     0.031 C 
ATOM     41  C   UNL A   1      38.537  27.640  30.228  1.00  0.00     0.029 A 
ATOM     42  N   UNL A   1      39.838  29.410  30.409  1.00  0.00    -0.354 N 
ATOM     43  C   UNL A   1      43.616  29.573  27.916  1.00  0.00     0.074 A 
ATOM     44  C   UNL A   1      42.916  29.388  26.673  1.00  0.00     0.031 C 
ATOM     45  C   UNL A   1      37.788  28.607  30.797  1.00  0.00     0.029 A 
ATOM     46  C   UNL A   1      38.610  29.788  30.951  1.00  0.00     0.049 A 
ATOM     47  H   UNL A   1      40.641  29.977  30.462  1.00  0.00     0.167 HD
ATOM     48  C   UNL A   1      44.492  30.534  28.328  1.00  0.00     0.037 A 
ATOM     49  C   UNL A   1      38.301  31.012  31.450  1.00  0.00     0.037 A 
ATOM     50  C   UNL A   1      44.876  30.308  29.704  1.00  0.00     0.049 A 
ATOM     51  C   UNL A   1      39.593  31.679  31.762  1.00  0.00     0.074 A 
ATOM     52  C   UNL A   1      45.459  29.257  30.386  1.00  0.00     0.029 A 
ATOM     53  N   UNL A   1      44.287  31.090  30.670  1.00  0.00    -0.354 N 
ATOM     54  N   UNL A   1      40.415  31.257  32.686  1.00  0.00    -0.248 NA
ATOM     55  C   UNL A   1      40.196  32.487  30.712  1.00  0.00     0.031 C 
ATOM     56  C   UNL A   1      44.754  29.190  31.626  1.00  0.00     0.029 A 
ATOM     57  C   UNL A   1      43.857  30.258  31.671  1.00  0.00     0.049 A 
ATOM     58  H   UNL A   1      44.192  32.069  30.647  1.00  0.00     0.167 HD
ATOM     59  C   UNL A   1      41.674  31.364  32.113  1.00  0.00     0.074 A 
ATOM     60  C   UNL A   1      41.481  32.188  30.920  1.00  0.00     0.031 C 
ATOM     61  C   UNL A   1      42.689  30.522  32.477  1.00  0.00     0.037 A 
BRANCH  48  62
ATOM     62  C   UNL A   1      44.678  31.886  27.665  1.00  0.00     0.064 A 
ATOM     63  C   UNL A   1      45.874  32.124  26.951  1.00  0.00     0.173 A 
ATOM     64  C   UNL A   1      43.914  33.039  27.951  1.00  0.00     0.173 A 
ATOM     65  F   UNL A   1      46.678  31.107  26.605  1.00  0.00    -0.203 F 
ATOM     66  C   UNL A   1      46.327  33.416  26.670  1.00  0.00     0.198 A 
ATOM     67  C   UNL A   1      44.347  34.324  27.622  1.00  0.00     0.198 A 
ATOM     68  F   UNL A   1      42.775  32.998  28.648  1.00  0.00    -0.203 F 
ATOM     69  F   UNL A   1      47.540  33.590  26.129  1.00  0.00    -0.200 F 
ATOM     70  C   UNL A   1      45.571  34.516  27.022  1.00  0.00     0.200 A 
ATOM     71  F   UNL A   1      43.599  35.379  27.978  1.00  0.00    -0.200 F 
ATOM     72  F   UNL A   1      46.036  35.756  26.825  1.00  0.00    -0.200 F 
ENDBRANCH  48  62
BRANCH  49  73
ATOM     73  C   UNL A   1      37.017  31.750  31.329  1.00  0.00     0.064 A 
ATOM     74  C   UNL A   1      36.214  31.987  32.457  1.00  0.00     0.173 A 
ATOM     75  C   UNL A   1      36.687  32.477  30.167  1.00  0.00     0.173 A 
ATOM     76  F   UNL A   1      36.480  31.366  33.615  1.00  0.00    -0.203 F 
ATOM     77  C   UNL A   1      35.174  32.924  32.437  1.00  0.00     0.198 A 
ATOM     78  C   UNL A   1      35.644  33.406  30.146  1.00  0.00     0.198 A 
ATOM     79  F   UNL A   1      37.427  32.376  29.054  1.00  0.00    -0.203 F 
ATOM     80  F   UNL A   1      34.475  33.172  33.553  1.00  0.00    -0.200 F 
ATOM     81  C   UNL A   1      34.898  33.642  31.284  1.00  0.00     0.200 A 
ATOM     82  F   UNL A   1      35.408  34.114  29.032  1.00  0.00    -0.200 F 
ATOM     83  F   UNL A   1      33.947  34.585  31.283  1.00  0.00    -0.200 F 
ENDBRANCH  49  73
BRANCH  61  84
ATOM     84  C   UNL A   1      42.485  29.638  33.678  1.00  0.00     0.064 A 
ATOM     85  C   UNL A   1      41.921  28.350  33.630  1.00  0.00     0.173 A 
ATOM     86  C   UNL A   1      43.034  30.049  34.899  1.00  0.00     0.173 A 
ATOM     87  F   UNL A   1      41.465  27.838  32.484  1.00  0.00    -0.203 F 
ATOM     88  C   UNL A   1      41.874  27.534  34.760  1.00  0.00     0.198 A 
ATOM     89  C   UNL A   1      43.019  29.219  36.017  1.00  0.00     0.198 A 
ATOM     90  F   UNL A   1      43.637  31.245  34.994  1.00  0.00    -0.203 F 
ATOM     91  F   UNL A   1      41.325  26.312  34.684  1.00  0.00    -0.200 F 
ATOM     92  C   UNL A   1      42.431  27.966  35.951  1.00  0.00     0.200 A 
ATOM     93  F   UNL A   1      43.605  29.623  37.152  1.00  0.00    -0.200 F 
ATOM     94  F   UNL A   1      42.426  27.167  37.026  1.00  0.00    -0.200 F 
ENDBRANCH  61  84
ENDBRANCH  35  36
ENDBRANCH  27  30
ENDBRANCH  25  26
ENDBRANCH  24  25
ENDBRANCH   1  24
TORSDOF 14
ENDMDL
MODEL 3
REMARK VINA RESULT:     -12.2      1.215      1.731
REMARK SMILES Cc1cc(C)n(CC(=O)N[C@H]2C=C[C@@H](C(=O)NCCCCNC(=O)c3ccc(-c4c5nc(c(-c6c(F)c(F)c(F)c(F)c6F)c6ccc([nH]6)c(-c6c(F)c(F)c(F)c(F)c6F)c6nc(c(-c7c(F)c(F)c(F)c(F)c7F)c7ccc4[nH]7)C=C6)C=C5)cc3)C2)n1
REMARK SMILES IDX 19 1 18 2 17 3 15 4 16 5 14 7 11 8 12 9 88 10 13 11 10 12
REMARK SMILES IDX 8 13 9 14 7 16 6 17 1 18 2 19 3 20 89 21 4 22 5 23 20 24
REMARK SMILES IDX 21 25 22 26 23 27 24 29 25 30 26 31 87 32 27 33 86 34 28 35
REMARK SMILES IDX 29 36 30 37 80 38 31 39 85 40 79 41 81 42 32 43 84 44 78 45
REMARK SMILES IDX 77 46 33 48 65 49 45 50 64 51 46 52 49 53 63 54 82 55 47 56
REMARK SMILES IDX 48 57 62 59 83 60 50 61 34 62 35 63 43 64 36 65 37 66 41 67
REMARK SMILES IDX 44 68 38 69 39 70 42 71 40 72 66 73 67 74 75 75 68 76 69 77
REMARK SMILES IDX 73 78 76 79 70 80 71 81 74 82 72 83 51 84 52 85 60 86 53 87
REMARK SMILES IDX 54 88 58 89 61 90 55 91 56 92 59 93 57 94
REMARK H PARENT 17 6 10 15 22 28 81 47 49 58
REMARK Flexibility Score: inf
ROOT
ATOM      1  C   UNL A   1      40.597  20.837  26.630  1.00  0.00     0.023 C 
ENDROOT
BRANCH   1   2
ATOM      2  C   UNL A   1      39.264  21.281  25.997  1.00  0.00     0.116 C 
BRANCH   2   3
ATOM      3  N   UNL A   1      38.980  22.690  26.218  1.00  0.00    -0.356 N 
ATOM      4  C   UNL A   1      37.837  23.432  26.139  1.00  0.00     0.227 C 
ATOM      5  O   UNL A   1      37.949  24.631  26.430  1.00  0.00    -0.274 OA
ATOM      6  H   UNL A   1      39.772  23.214  26.477  1.00  0.00     0.163 HD
BRANCH   4   7
ATOM      7  C   UNL A   1      36.459  22.901  25.678  1.00  0.00     0.103 C 
ATOM      8  C   UNL A   1      34.669  23.808  24.219  1.00  0.00     0.106 C 
ATOM      9  C   UNL A   1      35.414  22.671  23.587  1.00  0.00    -0.006 C 
ATOM     10  C   UNL A   1      35.416  24.006  25.535  1.00  0.00     0.047 C 
ATOM     11  C   UNL A   1      36.391  22.191  24.369  1.00  0.00    -0.016 C 
BRANCH   8  12
ATOM     12  N   UNL A   1      34.539  24.874  23.226  1.00  0.00    -0.348 N 
ATOM     13  C   UNL A   1      33.540  25.657  22.730  1.00  0.00     0.242 C 
ATOM     14  O   UNL A   1      33.766  26.233  21.659  1.00  0.00    -0.273 OA
ATOM     15  H   UNL A   1      35.404  25.081  22.804  1.00  0.00     0.164 HD
BRANCH  13  16
ATOM     16  C   UNL A   1      32.295  25.981  23.496  1.00  0.00     0.244 C 
BRANCH  16  17
ATOM     17  N   UNL A   1      32.328  27.158  24.331  1.00  0.00    -0.260 N 
ATOM     18  C   UNL A   1      34.100  28.773  26.898  1.00  0.00     0.069 C 
ATOM     19  C   UNL A   1      33.141  28.405  25.831  1.00  0.00     0.060 A 
ATOM     20  C   UNL A   1      31.849  28.901  25.543  1.00  0.00     0.048 A 
ATOM     21  N   UNL A   1      33.478  27.459  24.957  1.00  0.00    -0.178 NA
ATOM     22  C   UNL A   1      31.391  28.139  24.482  1.00  0.00     0.036 A 
ATOM     23  C   UNL A   1      30.181  28.223  23.635  1.00  0.00     0.066 C 
ENDBRANCH  16  17
ENDBRANCH  13  16
ENDBRANCH   8  12
ENDBRANCH   4   7
ENDBRANCH   2   3
ENDBRANCH   1   2
BRANCH   1  24
ATOM     24  C   UNL A   1      41.356  19.623  26.105  1.00  0.00     0.023 C 
BRANCH  24  25
ATOM     25  C   UNL A   1      42.816  19.575  26.494  1.00  0.00     0.116 C 
BRANCH  25  26
ATOM     26  N   UNL A   1      43.736  19.158  25.424  1.00  0.00    -0.352 N 
ATOM     27  C   UNL A   1      44.321  19.989  24.475  1.00  0.00     0.251 C 
ATOM     28  H   UNL A   1      43.960  18.200  25.377  1.00  0.00     0.163 HD
ATOM     29  O   UNL A   1      44.797  19.567  23.426  1.00  0.00    -0.269 OA
BRANCH  27  30
ATOM     30  C   UNL A   1      44.380  21.420  24.805  1.00  0.00     0.039 A 
ATOM     31  C   UNL A   1      43.391  22.339  24.441  1.00  0.00     0.014 A 
ATOM     32  C   UNL A   1      45.386  21.746  25.702  1.00  0.00     0.014 A 
ATOM     33  C   UNL A   1      43.370  23.575  25.088  1.00  0.00     0.010 A 
ATOM     34  C   UNL A   1      45.183  22.816  26.516  1.00  0.00     0.010 A 
ATOM     35  C   UNL A   1      44.258  23.786  26.151  1.00  0.00    -0.014 A 
BRANCH  35  36
ATOM     36  C   UNL A   1      44.223  24.962  27.007  1.00  0.00     0.031 A 
ATOM     37  C   UNL A   1      45.239  26.000  26.688  1.00  0.00     0.074 A 
ATOM     38  C   UNL A   1      43.143  25.196  27.789  1.00  0.00     0.049 A 
ATOM     39  N   UNL A   1      46.216  26.397  27.432  1.00  0.00    -0.248 NA
ATOM     40  C   UNL A   1      45.266  26.567  25.328  1.00  0.00     0.031 C 
ATOM     41  C   UNL A   1      41.919  24.388  27.921  1.00  0.00     0.029 A 
ATOM     42  N   UNL A   1      42.844  26.292  28.534  1.00  0.00    -0.354 N 
ATOM     43  C   UNL A   1      46.842  27.424  26.729  1.00  0.00     0.074 A 
ATOM     44  C   UNL A   1      46.366  27.322  25.377  1.00  0.00     0.031 C 
ATOM     45  C   UNL A   1      40.937  25.127  28.478  1.00  0.00     0.029 A 
ATOM     46  C   UNL A   1      41.506  26.385  28.911  1.00  0.00     0.049 A 
ATOM     47  H   UNL A   1      43.518  26.964  28.787  1.00  0.00     0.167 HD
ATOM     48  C   UNL A   1      47.466  28.438  27.396  1.00  0.00     0.037 A 
ATOM     49  C   UNL A   1      40.916  27.455  29.503  1.00  0.00     0.037 A 
ATOM     50  C   UNL A   1      47.689  28.069  28.777  1.00  0.00     0.049 A 
ATOM     51  C   UNL A   1      42.012  28.263  30.103  1.00  0.00     0.074 A 
ATOM     52  C   UNL A   1      48.350  27.032  29.407  1.00  0.00     0.029 A 
ATOM     53  N   UNL A   1      46.841  28.593  29.725  1.00  0.00    -0.354 N 
ATOM     54  N   UNL A   1      42.760  27.840  31.088  1.00  0.00    -0.248 NA
ATOM     55  C   UNL A   1      42.601  29.305  29.275  1.00  0.00     0.031 C 
ATOM     56  C   UNL A   1      47.503  26.667  30.497  1.00  0.00     0.029 A 
ATOM     57  C   UNL A   1      46.432  27.561  30.529  1.00  0.00     0.049 A 
ATOM     58  H   UNL A   1      46.576  29.537  29.810  1.00  0.00     0.167 HD
ATOM     59  C   UNL A   1      44.047  28.230  30.746  1.00  0.00     0.074 A 
ATOM     60  C   UNL A   1      43.877  29.184  29.651  1.00  0.00     0.031 C 
ATOM     61  C   UNL A   1      45.135  27.513  31.161  1.00  0.00     0.037 A 
BRANCH  48  62
ATOM     62  C   UNL A   1      47.497  29.887  26.948  1.00  0.00     0.064 A 
ATOM     63  C   UNL A   1      48.706  30.606  27.086  1.00  0.00     0.173 A 
ATOM     64  C   UNL A   1      46.357  30.682  26.697  1.00  0.00     0.173 A 
ATOM     65  F   UNL A   1      49.862  29.963  27.310  1.00  0.00    -0.203 F 
ATOM     66  C   UNL A   1      48.743  32.002  27.105  1.00  0.00     0.198 A 
ATOM     67  C   UNL A   1      46.407  32.075  26.666  1.00  0.00     0.198 A 
ATOM     68  F   UNL A   1      45.130  30.167  26.576  1.00  0.00    -0.203 F 
ATOM     69  F   UNL A   1      49.890  32.632  27.393  1.00  0.00    -0.200 F 
ATOM     70  C   UNL A   1      47.589  32.736  26.912  1.00  0.00     0.200 A 
ATOM     71  F   UNL A   1      45.274  32.768  26.482  1.00  0.00    -0.200 F 
ATOM     72  F   UNL A   1      47.606  34.071  27.007  1.00  0.00    -0.200 F 
ENDBRANCH  48  62
BRANCH  49  73
ATOM     73  C   UNL A   1      39.550  27.991  29.268  1.00  0.00     0.064 A 
ATOM     74  C   UNL A   1      38.637  28.123  30.328  1.00  0.00     0.173 A 
ATOM     75  C   UNL A   1      39.207  28.644  28.067  1.00  0.00     0.173 A 
ATOM     76  F   UNL A   1      38.902  27.565  31.518  1.00  0.00    -0.203 F 
ATOM     77  C   UNL A   1      37.474  28.894  30.207  1.00  0.00     0.198 A 
ATOM     78  C   UNL A   1      38.043  29.406  27.945  1.00  0.00     0.198 A 
ATOM     79  F   UNL A   1      40.037  28.638  27.015  1.00  0.00    -0.203 F 
ATOM     80  F   UNL A   1      36.663  29.051  31.261  1.00  0.00    -0.200 F 
ATOM     81  C   UNL A   1      37.185  29.546  29.019  1.00  0.00     0.200 A 
ATOM     82  F   UNL A   1      37.792  30.055  26.799  1.00  0.00    -0.200 F 
ATOM     83  F   UNL A   1      36.108  30.336  28.923  1.00  0.00    -0.200 F 
ENDBRANCH  49  73
BRANCH  61  84
ATOM     84  C   UNL A   1      44.927  26.436  32.192  1.00  0.00     0.064 A 
ATOM     85  C   UNL A   1      44.701  25.081  31.891  1.00  0.00     0.173 A 
ATOM     86  C   UNL A   1      45.130  26.765  33.539  1.00  0.00     0.173 A 
ATOM     87  F   UNL A   1      44.598  24.662  30.627  1.00  0.00    -0.203 F 
ATOM     88  C   UNL A   1      44.640  24.112  32.894  1.00  0.00     0.198 A 
ATOM     89  C   UNL A   1      45.105  25.792  34.535  1.00  0.00     0.198 A 
ATOM     90  F   UNL A   1      45.406  28.032  33.884  1.00  0.00    -0.203 F 
ATOM     91  F   UNL A   1      44.418  22.828  32.575  1.00  0.00    -0.200 F 
ATOM     92  C   UNL A   1      44.851  24.469  34.214  1.00  0.00     0.200 A 
ATOM     93  F   UNL A   1      45.360  26.135  35.804  1.00  0.00    -0.200 F 
ATOM     94  F   UNL A   1      44.837  23.534  35.174  1.00  0.00    -0.200 F 
ENDBRANCH  61  84
ENDBRANCH  35  36
ENDBRANCH  27  30
ENDBRANCH  25  26
ENDBRANCH  24  25
ENDBRANCH   1  24
TORSDOF 14
ENDMDL
