MODEL 1
REMARK VINA RESULT:     -12.9      0.000      0.000
REMARK SMILES O=C(CNc1nc(-c2ccccc2)c(-c2ccccc2)s1)NCCCCNC(=O)c1ccc(-c2c3nc(c(-c4c(F)c(F)c(F)c(F)c4F)c4ccc([nH]4)c(-c4c(F)c(F)c(F)c(F)c4F)c4nc(c(-c5c(F)c(F)c(F)c(F)c5F)c5ccc2[nH]5)C=C4)C=C3)cc1
REMARK SMILES IDX 24 1 23 2 22 3 1 4 2 5 3 7 4 8 5 10 6 11 21 12 7 13 14 14
REMARK SMILES IDX 8 15 9 16 13 17 10 18 12 19 11 20 15 21 16 22 20 23 17 24
REMARK SMILES IDX 19 25 18 26 25 27 26 28 27 29 28 30 29 32 30 33 31 34 92 35
REMARK SMILES IDX 32 36 91 37 33 38 34 39 35 40 85 41 36 42 90 43 84 44 86 45
REMARK SMILES IDX 37 46 89 47 83 48 82 49 38 51 70 52 50 53 69 54 51 55 54 56
REMARK SMILES IDX 68 57 87 58 52 59 53 60 67 62 88 63 55 64 39 65 40 66 48 67
REMARK SMILES IDX 41 68 42 69 46 70 49 71 43 72 44 73 47 74 45 75 71 76 72 77
REMARK SMILES IDX 80 78 73 79 74 80 78 81 81 82 75 83 76 84 79 85 77 86 56 87
REMARK SMILES IDX 57 88 65 89 58 90 59 91 63 92 66 93 60 94 61 95 64 96 62 97
REMARK H PARENT 22 6 4 9 27 31 86 50 54 61
REMARK Flexibility Score: inf
ROOT
ATOM      1  C   UNL A   1      37.052  20.868  24.619  1.00  0.00     0.023 C 
ENDROOT
BRANCH   1   2
ATOM      2  C   UNL A   1      35.882  21.092  25.577  1.00  0.00     0.116 C 
BRANCH   2   3
ATOM      3  N   UNL A   1      34.676  21.506  24.893  1.00  0.00    -0.355 N 
ATOM      4  O   UNL A   1      33.759  19.409  24.628  1.00  0.00    -0.273 OA
ATOM      5  C   UNL A   1      33.684  20.626  24.493  1.00  0.00     0.239 C 
ATOM      6  H   UNL A   1      34.553  22.464  24.703  1.00  0.00     0.163 HD
BRANCH   5   7
ATOM      7  C   UNL A   1      32.481  21.326  23.837  1.00  0.00     0.215 C 
BRANCH   7   8
ATOM      8  N   UNL A   1      31.763  22.086  24.852  1.00  0.00    -0.352 N 
ATOM      9  H   UNL A   1      31.352  21.604  25.606  1.00  0.00     0.163 HD
BRANCH   8  10
ATOM     10  C   UNL A   1      31.642  23.423  24.792  1.00  0.00     0.184 A 
ATOM     11  N   UNL A   1      32.143  24.279  25.650  1.00  0.00    -0.220 NA
ATOM     12  S   UNL A   1      30.720  24.116  23.518  1.00  0.00    -0.096 S 
ATOM     13  C   UNL A   1      31.771  25.570  25.304  1.00  0.00     0.091 A 
ATOM     14  C   UNL A   1      30.935  25.674  24.202  1.00  0.00     0.064 A 
BRANCH  13  15
ATOM     15  C   UNL A   1      32.260  26.723  26.046  1.00  0.00     0.002 A 
ATOM     16  C   UNL A   1      31.406  27.466  26.871  1.00  0.00     0.010 A 
ATOM     17  C   UNL A   1      33.582  27.146  25.864  1.00  0.00     0.010 A 
ATOM     18  C   UNL A   1      31.861  28.640  27.477  1.00  0.00     0.001 A 
ATOM     19  C   UNL A   1      34.032  28.322  26.467  1.00  0.00     0.001 A 
ATOM     20  C   UNL A   1      33.170  29.072  27.267  1.00  0.00     0.000 A 
ENDBRANCH  13  15
BRANCH  14  21
ATOM     21  C   UNL A   1      30.303  26.834  23.577  1.00  0.00    -0.006 A 
ATOM     22  C   UNL A   1      28.916  27.021  23.673  1.00  0.00     0.009 A 
ATOM     23  C   UNL A   1      31.077  27.802  22.923  1.00  0.00     0.009 A 
ATOM     24  C   UNL A   1      28.315  28.156  23.126  1.00  0.00     0.001 A 
ATOM     25  C   UNL A   1      30.474  28.936  22.376  1.00  0.00     0.001 A 
ATOM     26  C   UNL A   1      29.095  29.114  22.479  1.00  0.00     0.000 A 
ENDBRANCH  14  21
ENDBRANCH   8  10
ENDBRANCH   7   8
ENDBRANCH   5   7
ENDBRANCH   2   3
ENDBRANCH   1   2
BRANCH   1  27
ATOM     27  C   UNL A   1      38.004  19.732  25.005  1.00  0.00     0.023 C 
BRANCH  27  28
ATOM     28  C   UNL A   1      39.209  20.136  25.849  1.00  0.00     0.116 C 
BRANCH  28  29
ATOM     29  N   UNL A   1      40.228  19.100  25.927  1.00  0.00    -0.352 N 
ATOM     30  C   UNL A   1      41.584  19.215  26.128  1.00  0.00     0.251 C 
ATOM     31  H   UNL A   1      39.897  18.180  25.819  1.00  0.00     0.163 HD
ATOM     32  O   UNL A   1      42.302  18.222  26.034  1.00  0.00    -0.269 OA
BRANCH  30  33
ATOM     33  C   UNL A   1      42.195  20.530  26.424  1.00  0.00     0.039 A 
ATOM     34  C   UNL A   1      42.703  21.291  25.366  1.00  0.00     0.014 A 
ATOM     35  C   UNL A   1      42.280  21.018  27.731  1.00  0.00     0.014 A 
ATOM     36  C   UNL A   1      43.222  22.565  25.608  1.00  0.00     0.010 A 
ATOM     37  C   UNL A   1      42.727  22.318  27.962  1.00  0.00     0.010 A 
ATOM     38  C   UNL A   1      43.198  23.109  26.903  1.00  0.00    -0.014 A 
BRANCH  38  39
ATOM     39  C   UNL A   1      43.646  24.504  27.163  1.00  0.00     0.031 A 
ATOM     40  C   UNL A   1      42.667  25.545  27.632  1.00  0.00     0.074 A 
ATOM     41  C   UNL A   1      44.924  24.851  26.912  1.00  0.00     0.049 A 
ATOM     42  N   UNL A   1      42.855  26.824  27.844  1.00  0.00    -0.248 NA
ATOM     43  C   UNL A   1      41.287  25.096  27.869  1.00  0.00     0.031 C 
ATOM     44  C   UNL A   1      45.963  23.948  26.417  1.00  0.00     0.029 A 
ATOM     45  N   UNL A   1      45.566  26.060  27.033  1.00  0.00    -0.354 N 
ATOM     46  C   UNL A   1      41.619  27.331  28.224  1.00  0.00     0.074 A 
ATOM     47  C   UNL A   1      40.677  26.234  28.162  1.00  0.00     0.031 C 
ATOM     48  C   UNL A   1      47.116  24.626  26.300  1.00  0.00     0.029 A 
ATOM     49  C   UNL A   1      46.891  26.019  26.668  1.00  0.00     0.049 A 
ATOM     50  H   UNL A   1      45.119  26.878  27.349  1.00  0.00     0.167 HD
ATOM     51  C   UNL A   1      41.303  28.591  28.611  1.00  0.00     0.037 A 
ATOM     52  C   UNL A   1      47.817  26.997  26.626  1.00  0.00     0.037 A 
ATOM     53  C   UNL A   1      42.248  29.676  28.693  1.00  0.00     0.049 A 
ATOM     54  C   UNL A   1      47.432  28.393  27.039  1.00  0.00     0.074 A 
ATOM     55  C   UNL A   1      42.037  30.971  29.135  1.00  0.00     0.029 A 
ATOM     56  N   UNL A   1      43.582  29.595  28.321  1.00  0.00    -0.354 N 
ATOM     57  N   UNL A   1      46.278  28.844  27.465  1.00  0.00    -0.248 NA
ATOM     58  C   UNL A   1      48.485  29.416  26.969  1.00  0.00     0.031 C 
ATOM     59  C   UNL A   1      43.225  31.688  28.971  1.00  0.00     0.029 A 
ATOM     60  C   UNL A   1      44.196  30.825  28.489  1.00  0.00     0.049 A 
ATOM     61  H   UNL A   1      44.026  28.783  27.984  1.00  0.00     0.167 HD
ATOM     62  C   UNL A   1      46.473  30.190  27.746  1.00  0.00     0.074 A 
ATOM     63  C   UNL A   1      47.861  30.480  27.454  1.00  0.00     0.031 C 
ATOM     64  C   UNL A   1      45.582  31.102  28.205  1.00  0.00     0.037 A 
BRANCH  51  65
ATOM     65  C   UNL A   1      39.871  28.872  28.971  1.00  0.00     0.064 A 
ATOM     66  C   UNL A   1      38.940  29.307  28.014  1.00  0.00     0.173 A 
ATOM     67  C   UNL A   1      39.413  28.663  30.280  1.00  0.00     0.173 A 
ATOM     68  F   UNL A   1      39.326  29.532  26.749  1.00  0.00    -0.203 F 
ATOM     69  C   UNL A   1      37.615  29.553  28.362  1.00  0.00     0.198 A 
ATOM     70  C   UNL A   1      38.079  28.877  30.617  1.00  0.00     0.198 A 
ATOM     71  F   UNL A   1      40.257  28.240  31.233  1.00  0.00    -0.203 F 
ATOM     72  F   UNL A   1      36.758  30.019  27.443  1.00  0.00    -0.200 F 
ATOM     73  C   UNL A   1      37.183  29.330  29.661  1.00  0.00     0.200 A 
ATOM     74  F   UNL A   1      37.660  28.644  31.869  1.00  0.00    -0.200 F 
ATOM     75  F   UNL A   1      35.905  29.558  29.993  1.00  0.00    -0.200 F 
ENDBRANCH  51  65
BRANCH  52  76
ATOM     76  C   UNL A   1      49.207  26.689  26.195  1.00  0.00     0.064 A 
ATOM     77  C   UNL A   1      50.158  26.223  27.114  1.00  0.00     0.173 A 
ATOM     78  C   UNL A   1      49.618  26.868  24.866  1.00  0.00     0.173 A 
ATOM     79  F   UNL A   1      49.820  26.057  28.401  1.00  0.00    -0.203 F 
ATOM     80  C   UNL A   1      51.472  25.972  26.725  1.00  0.00     0.198 A 
ATOM     81  C   UNL A   1      50.924  26.585  24.471  1.00  0.00     0.198 A 
ATOM     82  F   UNL A   1      48.746  27.309  23.946  1.00  0.00    -0.203 F 
ATOM     83  F   UNL A   1      52.374  25.579  27.636  1.00  0.00    -0.200 F 
ATOM     84  C   UNL A   1      51.853  26.147  25.403  1.00  0.00     0.200 A 
ATOM     85  F   UNL A   1      51.284  26.741  23.190  1.00  0.00    -0.200 F 
ATOM     86  F   UNL A   1      53.116  25.902  25.030  1.00  0.00    -0.200 F 
ENDBRANCH  52  76
BRANCH  64  87
ATOM     87  C   UNL A   1      46.087  32.493  28.464  1.00  0.00     0.064 A 
ATOM     88  C   UNL A   1      46.644  32.861  29.698  1.00  0.00     0.173 A 
ATOM     89  C   UNL A   1      46.050  33.460  27.448  1.00  0.00     0.173 A 
ATOM     90  F   UNL A   1      46.691  31.979  30.708  1.00  0.00    -0.203 F 
ATOM     91  C   UNL A   1      47.116  34.154  29.914  1.00  0.00     0.198 A 
ATOM     92  C   UNL A   1      46.554  34.741  27.656  1.00  0.00     0.198 A 
ATOM     93  F   UNL A   1      45.536  33.160  26.246  1.00  0.00    -0.203 F 
ATOM     94  F   UNL A   1      47.594  34.498  31.118  1.00  0.00    -0.200 F 
ATOM     95  C   UNL A   1      47.079  35.089  28.891  1.00  0.00     0.200 A 
ATOM     96  F   UNL A   1      46.533  35.638  26.660  1.00  0.00    -0.200 F 
ATOM     97  F   UNL A   1      47.542  36.329  29.098  1.00  0.00    -0.200 F 
ENDBRANCH  64  87
ENDBRANCH  38  39
ENDBRANCH  30  33
ENDBRANCH  28  29
ENDBRANCH  27  28
ENDBRANCH   1  27
TORSDOF 15
ENDMDL
MODEL 2
REMARK VINA RESULT:     -12.8      5.879     11.274
REMARK SMILES O=C(CNc1nc(-c2ccccc2)c(-c2ccccc2)s1)NCCCCNC(=O)c1ccc(-c2c3nc(c(-c4c(F)c(F)c(F)c(F)c4F)c4ccc([nH]4)c(-c4c(F)c(F)c(F)c(F)c4F)c4nc(c(-c5c(F)c(F)c(F)c(F)c5F)c5ccc2[nH]5)C=C4)C=C3)cc1
REMARK SMILES IDX 24 1 23 2 22 3 1 4 2 5 3 7 4 8 5 10 6 11 21 12 7 13 14 14
REMARK SMILES IDX 8 15 9 16 13 17 10 18 12 19 11 20 15 21 16 22 20 23 17 24
REMARK SMILES IDX 19 25 18 26 25 27 26 28 27 29 28 30 29 32 30 33 31 34 92 35
REMARK SMILES IDX 32 36 91 37 33 38 34 39 35 40 85 41 36 42 90 43 84 44 86 45
REMARK SMILES IDX 37 46 89 47 83 48 82 49 38 51 70 52 50 53 69 54 51 55 54 56
REMARK SMILES IDX 68 57 87 58 52 59 53 60 67 62 88 63 55 64 39 65 40 66 48 67
REMARK SMILES IDX 41 68 42 69 46 70 49 71 43 72 44 73 47 74 45 75 71 76 72 77
REMARK SMILES IDX 80 78 73 79 74 80 78 81 81 82 75 83 76 84 79 85 77 86 56 87
REMARK SMILES IDX 57 88 65 89 58 90 59 91 63 92 66 93 60 94 61 95 64 96 62 97
REMARK H PARENT 22 6 4 9 27 31 86 50 54 61
REMARK Flexibility Score: inf
ROOT
ATOM      1  C   UNL A   1      31.551  30.574  26.638  1.00  0.00     0.023 C 
ENDROOT
BRANCH   1   2
ATOM      2  C   UNL A   1      32.027  30.069  25.277  1.00  0.00     0.116 C 
BRANCH   2   3
ATOM      3  N   UNL A   1      31.373  28.841  24.879  1.00  0.00    -0.355 N 
ATOM      4  O   UNL A   1      30.071  29.736  23.203  1.00  0.00    -0.273 OA
ATOM      5  C   UNL A   1      30.457  28.764  23.844  1.00  0.00     0.239 C 
ATOM      6  H   UNL A   1      31.591  28.016  25.371  1.00  0.00     0.163 HD
BRANCH   5   7
ATOM      7  C   UNL A   1      29.950  27.334  23.588  1.00  0.00     0.215 C 
BRANCH   7   8
ATOM      8  N   UNL A   1      30.820  26.689  22.613  1.00  0.00    -0.352 N 
ATOM      9  H   UNL A   1      30.816  27.014  21.683  1.00  0.00     0.163 HD
BRANCH   8  10
ATOM     10  C   UNL A   1      31.627  25.666  22.941  1.00  0.00     0.184 A 
ATOM     11  N   UNL A   1      31.268  24.409  23.052  1.00  0.00    -0.220 NA
ATOM     12  S   UNL A   1      33.276  25.994  23.300  1.00  0.00    -0.096 S 
ATOM     13  C   UNL A   1      32.350  23.642  23.462  1.00  0.00     0.091 A 
ATOM     14  C   UNL A   1      33.518  24.347  23.713  1.00  0.00     0.064 A 
BRANCH  13  15
ATOM     15  C   UNL A   1      32.248  22.196  23.586  1.00  0.00     0.002 A 
ATOM     16  C   UNL A   1      32.354  21.569  24.834  1.00  0.00     0.010 A 
ATOM     17  C   UNL A   1      32.129  21.414  22.431  1.00  0.00     0.010 A 
ATOM     18  C   UNL A   1      32.379  20.175  24.920  1.00  0.00     0.001 A 
ATOM     19  C   UNL A   1      32.158  20.021  22.519  1.00  0.00     0.001 A 
ATOM     20  C   UNL A   1      32.290  19.402  23.762  1.00  0.00     0.000 A 
ENDBRANCH  13  15
BRANCH  14  21
ATOM     21  C   UNL A   1      34.825  23.906  24.199  1.00  0.00    -0.006 A 
ATOM     22  C   UNL A   1      35.672  23.155  23.372  1.00  0.00     0.009 A 
ATOM     23  C   UNL A   1      35.272  24.275  25.475  1.00  0.00     0.009 A 
ATOM     24  C   UNL A   1      36.942  22.780  23.811  1.00  0.00     0.001 A 
ATOM     25  C   UNL A   1      36.543  23.900  25.913  1.00  0.00     0.001 A 
ATOM     26  C   UNL A   1      37.377  23.155  25.082  1.00  0.00     0.000 A 
ENDBRANCH  14  21
ENDBRANCH   8  10
ENDBRANCH   7   8
ENDBRANCH   5   7
ENDBRANCH   2   3
ENDBRANCH   1   2
BRANCH   1  27
ATOM     27  C   UNL A   1      31.413  32.094  26.760  1.00  0.00     0.023 C 
BRANCH  27  28
ATOM     28  C   UNL A   1      32.653  32.835  27.250  1.00  0.00     0.116 C 
BRANCH  28  29
ATOM     29  N   UNL A   1      32.382  34.208  27.648  1.00  0.00    -0.352 N 
ATOM     30  C   UNL A   1      32.983  34.976  28.617  1.00  0.00     0.251 C 
ATOM     31  H   UNL A   1      31.660  34.653  27.148  1.00  0.00     0.163 HD
ATOM     32  O   UNL A   1      32.522  36.082  28.893  1.00  0.00    -0.269 OA
BRANCH  30  33
ATOM     33  C   UNL A   1      34.160  34.472  29.360  1.00  0.00     0.039 A 
ATOM     34  C   UNL A   1      33.963  33.871  30.607  1.00  0.00     0.014 A 
ATOM     35  C   UNL A   1      35.454  34.592  28.844  1.00  0.00     0.014 A 
ATOM     36  C   UNL A   1      35.048  33.324  31.297  1.00  0.00     0.010 A 
ATOM     37  C   UNL A   1      36.522  33.979  29.497  1.00  0.00     0.010 A 
ATOM     38  C   UNL A   1      36.332  33.333  30.728  1.00  0.00    -0.014 A 
BRANCH  38  39
ATOM     39  C   UNL A   1      37.478  32.661  31.397  1.00  0.00     0.031 A 
ATOM     40  C   UNL A   1      38.155  31.484  30.752  1.00  0.00     0.074 A 
ATOM     41  C   UNL A   1      37.869  33.071  32.620  1.00  0.00     0.049 A 
ATOM     42  N   UNL A   1      39.121  30.728  31.213  1.00  0.00    -0.248 NA
ATOM     43  C   UNL A   1      37.664  31.084  29.425  1.00  0.00     0.031 C 
ATOM     44  C   UNL A   1      37.271  34.175  33.373  1.00  0.00     0.029 A 
ATOM     45  N   UNL A   1      38.858  32.602  33.451  1.00  0.00    -0.354 N 
ATOM     46  C   UNL A   1      39.341  29.760  30.242  1.00  0.00     0.074 A 
ATOM     47  C   UNL A   1      38.374  29.991  29.190  1.00  0.00     0.031 C 
ATOM     48  C   UNL A   1      37.920  34.314  34.540  1.00  0.00     0.029 A 
ATOM     49  C   UNL A   1      38.949  33.285  34.640  1.00  0.00     0.049 A 
ATOM     50  H   UNL A   1      39.446  31.848  33.217  1.00  0.00     0.167 HD
ATOM     51  C   UNL A   1      40.280  28.782  30.217  1.00  0.00     0.037 A 
ATOM     52  C   UNL A   1      39.764  33.097  35.697  1.00  0.00     0.037 A 
ATOM     53  C   UNL A   1      41.256  28.569  31.255  1.00  0.00     0.049 A 
ATOM     54  C   UNL A   1      40.781  31.988  35.653  1.00  0.00     0.074 A 
ATOM     55  C   UNL A   1      42.287  27.646  31.291  1.00  0.00     0.029 A 
ATOM     56  N   UNL A   1      41.320  29.284  32.442  1.00  0.00    -0.354 N 
ATOM     57  N   UNL A   1      41.027  31.125  34.698  1.00  0.00    -0.248 NA
ATOM     58  C   UNL A   1      41.639  31.831  36.837  1.00  0.00     0.031 C 
ATOM     59  C   UNL A   1      42.935  27.761  32.525  1.00  0.00     0.029 A 
ATOM     60  C   UNL A   1      42.350  28.799  33.232  1.00  0.00     0.049 A 
ATOM     61  H   UNL A   1      40.721  30.025  32.687  1.00  0.00     0.167 HD
ATOM     62  C   UNL A   1      42.087  30.347  35.148  1.00  0.00     0.074 A 
ATOM     63  C   UNL A   1      42.445  30.850  36.458  1.00  0.00     0.031 C 
ATOM     64  C   UNL A   1      42.706  29.312  34.531  1.00  0.00     0.037 A 
BRANCH  51  65
ATOM     65  C   UNL A   1      40.294  27.858  29.032  1.00  0.00     0.064 A 
ATOM     66  C   UNL A   1      41.049  28.142  27.883  1.00  0.00     0.173 A 
ATOM     67  C   UNL A   1      39.579  26.652  29.063  1.00  0.00     0.173 A 
ATOM     68  F   UNL A   1      41.745  29.285  27.796  1.00  0.00    -0.203 F 
ATOM     69  C   UNL A   1      41.059  27.269  26.798  1.00  0.00     0.198 A 
ATOM     70  C   UNL A   1      39.619  25.765  27.990  1.00  0.00     0.198 A 
ATOM     71  F   UNL A   1      38.847  26.326  30.139  1.00  0.00    -0.203 F 
ATOM     72  F   UNL A   1      41.744  27.587  25.691  1.00  0.00    -0.200 F 
ATOM     73  C   UNL A   1      40.351  26.078  26.855  1.00  0.00     0.200 A 
ATOM     74  F   UNL A   1      38.948  24.607  28.054  1.00  0.00    -0.200 F 
ATOM     75  F   UNL A   1      40.370  25.235  25.814  1.00  0.00    -0.200 F 
ENDBRANCH  51  65
BRANCH  52  76
ATOM     76  C   UNL A   1      39.667  33.991  36.881  1.00  0.00     0.064 A 
ATOM     77  C   UNL A   1      38.881  33.637  37.987  1.00  0.00     0.173 A 
ATOM     78  C   UNL A   1      40.339  35.221  36.927  1.00  0.00     0.173 A 
ATOM     79  F   UNL A   1      38.200  32.481  37.982  1.00  0.00    -0.203 F 
ATOM     80  C   UNL A   1      38.753  34.489  39.083  1.00  0.00     0.198 A 
ATOM     81  C   UNL A   1      40.237  36.058  38.037  1.00  0.00     0.198 A 
ATOM     82  F   UNL A   1      41.106  35.607  35.896  1.00  0.00    -0.203 F 
ATOM     83  F   UNL A   1      37.953  34.149  40.103  1.00  0.00    -0.200 F 
ATOM     84  C   UNL A   1      39.436  35.696  39.109  1.00  0.00     0.200 A 
ATOM     85  F   UNL A   1      40.910  37.216  38.065  1.00  0.00    -0.200 F 
ATOM     86  F   UNL A   1      39.314  36.513  40.164  1.00  0.00    -0.200 F 
ENDBRANCH  52  76
BRANCH  64  87
ATOM     87  C   UNL A   1      43.866  28.677  35.243  1.00  0.00     0.064 A 
ATOM     88  C   UNL A   1      45.187  29.099  35.030  1.00  0.00     0.173 A 
ATOM     89  C   UNL A   1      43.648  27.656  36.181  1.00  0.00     0.173 A 
ATOM     90  F   UNL A   1      45.453  30.061  34.134  1.00  0.00    -0.203 F 
ATOM     91  C   UNL A   1      46.248  28.503  35.709  1.00  0.00     0.198 A 
ATOM     92  C   UNL A   1      44.707  27.086  36.883  1.00  0.00     0.198 A 
ATOM     93  F   UNL A   1      42.404  27.219  36.429  1.00  0.00    -0.203 F 
ATOM     94  F   UNL A   1      47.506  28.886  35.450  1.00  0.00    -0.200 F 
ATOM     95  C   UNL A   1      46.006  27.504  36.639  1.00  0.00     0.200 A 
ATOM     96  F   UNL A   1      44.470  26.133  37.794  1.00  0.00    -0.200 F 
ATOM     97  F   UNL A   1      47.027  26.939  37.298  1.00  0.00    -0.200 F 
ENDBRANCH  64  87
ENDBRANCH  38  39
ENDBRANCH  30  33
ENDBRANCH  28  29
ENDBRANCH  27  28
ENDBRANCH   1  27
TORSDOF 15
ENDMDL
MODEL 3
REMARK VINA RESULT:     -12.6      5.883     11.290
REMARK SMILES O=C(CNc1nc(-c2ccccc2)c(-c2ccccc2)s1)NCCCCNC(=O)c1ccc(-c2c3nc(c(-c4c(F)c(F)c(F)c(F)c4F)c4ccc([nH]4)c(-c4c(F)c(F)c(F)c(F)c4F)c4nc(c(-c5c(F)c(F)c(F)c(F)c5F)c5ccc2[nH]5)C=C4)C=C3)cc1
REMARK SMILES IDX 24 1 23 2 22 3 1 4 2 5 3 7 4 8 5 10 6 11 21 12 7 13 14 14
REMARK SMILES IDX 8 15 9 16 13 17 10 18 12 19 11 20 15 21 16 22 20 23 17 24
REMARK SMILES IDX 19 25 18 26 25 27 26 28 27 29 28 30 29 32 30 33 31 34 92 35
REMARK SMILES IDX 32 36 91 37 33 38 34 39 35 40 85 41 36 42 90 43 84 44 86 45
REMARK SMILES IDX 37 46 89 47 83 48 82 49 38 51 70 52 50 53 69 54 51 55 54 56
REMARK SMILES IDX 68 57 87 58 52 59 53 60 67 62 88 63 55 64 39 65 40 66 48 67
REMARK SMILES IDX 41 68 42 69 46 70 49 71 43 72 44 73 47 74 45 75 71 76 72 77
REMARK SMILES IDX 80 78 73 79 74 80 78 81 81 82 75 83 76 84 79 85 77 86 56 87
REMARK SMILES IDX 57 88 65 89 58 90 59 91 63 92 66 93 60 94 61 95 64 96 62 97
REMARK H PARENT 22 6 4 9 27 31 86 50 54 61
REMARK Flexibility Score: inf
ROOT
ATOM      1  C   UNL A   1      31.487  30.573  26.711  1.00  0.00     0.023 C 
ENDROOT
BRANCH   1   2
ATOM      2  C   UNL A   1      32.009  29.931  25.426  1.00  0.00     0.116 C 
BRANCH   2   3
ATOM      3  N   UNL A   1      31.343  28.684  25.118  1.00  0.00    -0.355 N 
ATOM      4  O   UNL A   1      30.866  29.147  22.912  1.00  0.00    -0.273 OA
ATOM      5  C   UNL A   1      30.843  28.374  23.864  1.00  0.00     0.239 C 
ATOM      6  H   UNL A   1      31.240  28.020  25.838  1.00  0.00     0.163 HD
BRANCH   5   7
ATOM      7  C   UNL A   1      30.232  26.964  23.786  1.00  0.00     0.215 C 
BRANCH   7   8
ATOM      8  N   UNL A   1      31.014  26.157  22.859  1.00  0.00    -0.352 N 
ATOM      9  H   UNL A   1      31.023  26.401  21.905  1.00  0.00     0.163 HD
BRANCH   8  10
ATOM     10  C   UNL A   1      31.726  25.092  23.264  1.00  0.00     0.184 A 
ATOM     11  N   UNL A   1      32.997  25.093  23.586  1.00  0.00    -0.220 NA
ATOM     12  S   UNL A   1      30.952  23.558  23.338  1.00  0.00    -0.096 S 
ATOM     13  C   UNL A   1      33.409  23.806  23.899  1.00  0.00     0.091 A 
ATOM     14  C   UNL A   1      32.443  22.820  23.756  1.00  0.00     0.064 A 
BRANCH  13  15
ATOM     15  C   UNL A   1      34.759  23.537  24.370  1.00  0.00     0.002 A 
ATOM     16  C   UNL A   1      35.160  23.901  25.662  1.00  0.00     0.010 A 
ATOM     17  C   UNL A   1      35.696  22.984  23.489  1.00  0.00     0.010 A 
ATOM     18  C   UNL A   1      36.491  23.748  26.054  1.00  0.00     0.001 A 
ATOM     19  C   UNL A   1      37.028  22.836  23.883  1.00  0.00     0.001 A 
ATOM     20  C   UNL A   1      37.426  23.225  25.161  1.00  0.00     0.000 A 
ENDBRANCH  13  15
BRANCH  14  21
ATOM     21  C   UNL A   1      32.509  21.371  23.937  1.00  0.00    -0.006 A 
ATOM     22  C   UNL A   1      32.874  20.829  25.178  1.00  0.00     0.009 A 
ATOM     23  C   UNL A   1      32.154  20.505  22.894  1.00  0.00     0.009 A 
ATOM     24  C   UNL A   1      32.884  19.447  25.372  1.00  0.00     0.001 A 
ATOM     25  C   UNL A   1      32.164  19.123  23.090  1.00  0.00     0.001 A 
ATOM     26  C   UNL A   1      32.528  18.595  24.328  1.00  0.00     0.000 A 
ENDBRANCH  14  21
ENDBRANCH   8  10
ENDBRANCH   7   8
ENDBRANCH   5   7
ENDBRANCH   2   3
ENDBRANCH   1   2
BRANCH   1  27
ATOM     27  C   UNL A   1      31.423  32.102  26.699  1.00  0.00     0.023 C 
BRANCH  27  28
ATOM     28  C   UNL A   1      32.649  32.822  27.251  1.00  0.00     0.116 C 
BRANCH  28  29
ATOM     29  N   UNL A   1      32.384  34.203  27.626  1.00  0.00    -0.352 N 
ATOM     30  C   UNL A   1      32.983  34.983  28.587  1.00  0.00     0.251 C 
ATOM     31  H   UNL A   1      31.670  34.645  27.113  1.00  0.00     0.163 HD
ATOM     32  O   UNL A   1      32.528  36.096  28.842  1.00  0.00    -0.269 OA
BRANCH  30  33
ATOM     33  C   UNL A   1      34.150  34.483  29.347  1.00  0.00     0.039 A 
ATOM     34  C   UNL A   1      33.941  33.914  30.607  1.00  0.00     0.014 A 
ATOM     35  C   UNL A   1      35.448  34.574  28.835  1.00  0.00     0.014 A 
ATOM     36  C   UNL A   1      35.016  33.370  31.315  1.00  0.00     0.010 A 
ATOM     37  C   UNL A   1      36.506  33.965  29.507  1.00  0.00     0.010 A 
ATOM     38  C   UNL A   1      36.302  33.351  30.752  1.00  0.00    -0.014 A 
BRANCH  38  39
ATOM     39  C   UNL A   1      37.438  32.682  31.443  1.00  0.00     0.031 A 
ATOM     40  C   UNL A   1      38.139  31.515  30.803  1.00  0.00     0.074 A 
ATOM     41  C   UNL A   1      37.796  33.083  32.679  1.00  0.00     0.049 A 
ATOM     42  N   UNL A   1      39.099  30.762  31.281  1.00  0.00    -0.248 NA
ATOM     43  C   UNL A   1      37.683  31.124  29.461  1.00  0.00     0.031 C 
ATOM     44  C   UNL A   1      37.172  34.174  33.427  1.00  0.00     0.029 A 
ATOM     45  N   UNL A   1      38.768  32.614  33.529  1.00  0.00    -0.354 N 
ATOM     46  C   UNL A   1      39.351  29.805  30.306  1.00  0.00     0.074 A 
ATOM     47  C   UNL A   1      38.407  30.039  29.233  1.00  0.00     0.031 C 
ATOM     48  C   UNL A   1      37.791  34.308  34.611  1.00  0.00     0.029 A 
ATOM     49  C   UNL A   1      38.826  33.286  34.726  1.00  0.00     0.049 A 
ATOM     50  H   UNL A   1      39.367  31.866  33.301  1.00  0.00     0.167 HD
ATOM     51  C   UNL A   1      40.297  28.835  30.295  1.00  0.00     0.037 A 
ATOM     52  C   UNL A   1      39.616  33.094  35.800  1.00  0.00     0.037 A 
ATOM     53  C   UNL A   1      41.250  28.620  31.354  1.00  0.00     0.049 A 
ATOM     54  C   UNL A   1      40.643  31.993  35.771  1.00  0.00     0.074 A 
ATOM     55  C   UNL A   1      42.287  27.704  31.406  1.00  0.00     0.029 A 
ATOM     56  N   UNL A   1      41.280  29.324  32.548  1.00  0.00    -0.354 N 
ATOM     57  N   UNL A   1      40.919  31.141  34.814  1.00  0.00    -0.248 NA
ATOM     58  C   UNL A   1      41.473  31.832  36.973  1.00  0.00     0.031 C 
ATOM     59  C   UNL A   1      42.904  27.812  32.656  1.00  0.00     0.029 A 
ATOM     60  C   UNL A   1      42.295  28.840  33.358  1.00  0.00     0.049 A 
ATOM     61  H   UNL A   1      40.669  30.058  32.787  1.00  0.00     0.167 HD
ATOM     62  C   UNL A   1      41.973  30.368  35.282  1.00  0.00     0.074 A 
ATOM     63  C   UNL A   1      42.296  30.861  36.604  1.00  0.00     0.031 C 
ATOM     64  C   UNL A   1      42.615  29.343  34.670  1.00  0.00     0.037 A 
BRANCH  51  65
ATOM     65  C   UNL A   1      40.348  27.923  29.102  1.00  0.00     0.064 A 
ATOM     66  C   UNL A   1      39.626  26.719  29.060  1.00  0.00     0.173 A 
ATOM     67  C   UNL A   1      41.094  28.276  27.968  1.00  0.00     0.173 A 
ATOM     68  F   UNL A   1      38.903  26.328  30.121  1.00  0.00    -0.203 F 
ATOM     69  C   UNL A   1      39.675  25.891  27.943  1.00  0.00     0.198 A 
ATOM     70  C   UNL A   1      41.114  27.462  26.838  1.00  0.00     0.198 A 
ATOM     71  F   UNL A   1      41.797  29.418  27.949  1.00  0.00    -0.203 F 
ATOM     72  F   UNL A   1      39.020  24.722  27.947  1.00  0.00    -0.200 F 
ATOM     73  C   UNL A   1      40.413  26.266  26.829  1.00  0.00     0.200 A 
ATOM     74  F   UNL A   1      41.813  27.835  25.758  1.00  0.00    -0.200 F 
ATOM     75  F   UNL A   1      40.452  25.472  25.751  1.00  0.00    -0.200 F 
ENDBRANCH  51  65
BRANCH  52  76
ATOM     76  C   UNL A   1      39.483  33.977  36.990  1.00  0.00     0.064 A 
ATOM     77  C   UNL A   1      40.127  35.222  37.037  1.00  0.00     0.173 A 
ATOM     78  C   UNL A   1      38.729  33.591  38.108  1.00  0.00     0.173 A 
ATOM     79  F   UNL A   1      40.878  35.626  36.002  1.00  0.00    -0.203 F 
ATOM     80  C   UNL A   1      40.040  36.035  38.165  1.00  0.00     0.198 A 
ATOM     81  C   UNL A   1      38.616  34.419  39.222  1.00  0.00     0.198 A 
ATOM     82  F   UNL A   1      38.092  32.411  38.113  1.00  0.00    -0.203 F 
ATOM     83  F   UNL A   1      40.709  37.196  38.204  1.00  0.00    -0.200 F 
ATOM     84  C   UNL A   1      39.280  35.637  39.254  1.00  0.00     0.200 A 
ATOM     85  F   UNL A   1      37.869  34.037  40.267  1.00  0.00    -0.200 F 
ATOM     86  F   UNL A   1      39.196  36.420  40.337  1.00  0.00    -0.200 F 
ENDBRANCH  52  76
BRANCH  64  87
ATOM     87  C   UNL A   1      43.763  28.710  35.404  1.00  0.00     0.064 A 
ATOM     88  C   UNL A   1      43.576  27.631  36.282  1.00  0.00     0.173 A 
ATOM     89  C   UNL A   1      45.074  29.164  35.195  1.00  0.00     0.173 A 
ATOM     90  F   UNL A   1      42.342  27.167  36.529  1.00  0.00    -0.203 F 
ATOM     91  C   UNL A   1      44.655  27.051  36.945  1.00  0.00     0.198 A 
ATOM     92  C   UNL A   1      46.154  28.560  35.833  1.00  0.00     0.198 A 
ATOM     93  F   UNL A   1      45.311  30.187  34.361  1.00  0.00    -0.203 F 
ATOM     94  F   UNL A   1      44.447  26.058  37.819  1.00  0.00    -0.200 F 
ATOM     95  C   UNL A   1      45.943  27.511  36.713  1.00  0.00     0.200 A 
ATOM     96  F   UNL A   1      47.399  28.994  35.594  1.00  0.00    -0.200 F 
ATOM     97  F   UNL A   1      46.981  26.945  37.344  1.00  0.00    -0.200 F 
ENDBRANCH  64  87
ENDBRANCH  38  39
ENDBRANCH  30  33
ENDBRANCH  28  29
ENDBRANCH  27  28
ENDBRANCH   1  27
TORSDOF 15
ENDMDL
