MODEL 1
REMARK VINA RESULT:     -12.3      0.000      0.000
REMARK SMILES CCn1cccc1C(=O)N1CC[C@H](C(=O)NCCCCNC(=O)c2ccc(-c3c4nc(c(-c5c(F)c(F)c(F)c(F)c5F)c5ccc([nH]5)c(-c5c(F)c(F)c(F)c(F)c5F)c5nc(c(-c6c(F)c(F)c(F)c(F)c6F)c6ccc3[nH]6)C=C5)C=C4)cc2)[C@H]1C
REMARK SMILES IDX 18 1 17 2 16 3 14 4 15 5 13 7 10 8 11 9 87 10 12 11 88 12
REMARK SMILES IDX 8 13 9 14 7 15 3 16 4 17 5 18 6 19 2 20 1 21 19 22 20 23
REMARK SMILES IDX 21 24 22 25 23 27 24 28 25 29 86 30 26 31 85 32 27 33 28 34
REMARK SMILES IDX 29 35 79 36 30 37 84 38 78 39 80 40 31 41 83 42 77 43 76 44
REMARK SMILES IDX 32 46 64 47 44 48 63 49 45 50 48 51 62 52 81 53 46 54 47 55
REMARK SMILES IDX 61 57 82 58 49 59 33 60 34 61 42 62 35 63 36 64 40 65 43 66
REMARK SMILES IDX 37 67 38 68 41 69 39 70 65 71 66 72 74 73 67 74 68 75 72 76
REMARK SMILES IDX 75 77 69 78 70 79 73 80 71 81 50 82 51 83 59 84 52 85 53 86
REMARK SMILES IDX 57 87 60 88 54 89 55 90 58 91 56 92
REMARK H PARENT 16 6 21 26 80 45 48 56
REMARK Flexibility Score: inf
ROOT
ATOM      1  C   UNL A   1      32.546  30.104  26.297  1.00  0.00     0.023 C 
ENDROOT
BRANCH   1   2
ATOM      2  C   UNL A   1      31.545  29.682  25.224  1.00  0.00     0.116 C 
BRANCH   2   3
ATOM      3  N   UNL A   1      32.209  29.277  23.999  1.00  0.00    -0.356 N 
ATOM      4  C   UNL A   1      32.482  28.041  23.502  1.00  0.00     0.225 C 
ATOM      5  O   UNL A   1      33.029  27.973  22.403  1.00  0.00    -0.275 OA
ATOM      6  H   UNL A   1      32.513  30.023  23.433  1.00  0.00     0.163 HD
BRANCH   4   7
ATOM      7  C   UNL A   1      32.135  26.806  24.308  1.00  0.00     0.102 C 
ATOM      8  N   UNL A   1      32.734  24.577  23.652  1.00  0.00    -0.334 N 
ATOM      9  C   UNL A   1      31.575  24.983  22.871  1.00  0.00     0.121 C 
ATOM     10  C   UNL A   1      33.302  25.795  24.250  1.00  0.00     0.094 C 
ATOM     11  C   UNL A   1      30.937  26.067  23.703  1.00  0.00     0.037 C 
ATOM     12  C   UNL A   1      33.909  25.598  25.636  1.00  0.00     0.032 C 
BRANCH   8  13
ATOM     13  C   UNL A   1      33.592  23.699  22.987  1.00  0.00     0.270 C 
ATOM     14  O   UNL A   1      33.828  23.866  21.790  1.00  0.00    -0.267 OA
BRANCH  13  15
ATOM     15  C   UNL A   1      34.158  22.580  23.732  1.00  0.00     0.107 A 
ATOM     16  N   UNL A   1      35.446  22.329  24.178  1.00  0.00    -0.344 N 
ATOM     17  C   UNL A   1      35.494  21.096  24.794  1.00  0.00     0.086 A 
ATOM     18  C   UNL A   1      34.226  20.575  24.831  1.00  0.00     0.020 A 
ATOM     19  C   UNL A   1      33.391  21.507  24.185  1.00  0.00     0.033 A 
BRANCH  16  20
ATOM     20  C   UNL A   1      36.634  23.146  24.021  1.00  0.00     0.119 C 
ATOM     21  C   UNL A   1      37.180  23.727  25.311  1.00  0.00     0.027 C 
ENDBRANCH  16  20
ENDBRANCH  13  15
ENDBRANCH   8  13
ENDBRANCH   4   7
ENDBRANCH   2   3
ENDBRANCH   1   2
BRANCH   1  22
ATOM     22  C   UNL A   1      33.212  28.944  27.052  1.00  0.00     0.023 C 
BRANCH  22  23
ATOM     23  C   UNL A   1      34.740  28.992  27.068  1.00  0.00     0.116 C 
BRANCH  23  24
ATOM     24  N   UNL A   1      35.212  30.348  27.290  1.00  0.00    -0.352 N 
ATOM     25  C   UNL A   1      36.279  30.801  28.020  1.00  0.00     0.251 C 
ATOM     26  H   UNL A   1      34.684  31.049  26.845  1.00  0.00     0.163 HD
ATOM     27  O   UNL A   1      36.279  31.964  28.407  1.00  0.00    -0.269 OA
BRANCH  25  28
ATOM     28  C   UNL A   1      37.427  29.932  28.353  1.00  0.00     0.039 A 
ATOM     29  C   UNL A   1      38.479  29.865  27.427  1.00  0.00     0.014 A 
ATOM     30  C   UNL A   1      37.431  29.105  29.481  1.00  0.00     0.014 A 
ATOM     31  C   UNL A   1      39.554  29.013  27.653  1.00  0.00     0.010 A 
ATOM     32  C   UNL A   1      38.511  28.259  29.721  1.00  0.00     0.010 A 
ATOM     33  C   UNL A   1      39.580  28.232  28.816  1.00  0.00    -0.014 A 
BRANCH  33  34
ATOM     34  C   UNL A   1      40.853  27.574  29.191  1.00  0.00     0.031 A 
ATOM     35  C   UNL A   1      41.012  26.221  28.439  1.00  0.00     0.074 A 
ATOM     36  C   UNL A   1      41.642  28.230  30.099  1.00  0.00     0.049 A 
ATOM     37  N   UNL A   1      41.770  25.199  28.694  1.00  0.00    -0.248 NA
ATOM     38  C   UNL A   1      40.177  25.956  27.228  1.00  0.00     0.031 C 
ATOM     39  C   UNL A   1      41.339  29.562  30.674  1.00  0.00     0.029 A 
ATOM     40  N   UNL A   1      42.841  27.941  30.730  1.00  0.00    -0.354 N 
ATOM     41  C   UNL A   1      41.678  24.303  27.596  1.00  0.00     0.074 A 
ATOM     42  C   UNL A   1      40.601  24.770  26.785  1.00  0.00     0.031 C 
ATOM     43  C   UNL A   1      42.252  29.916  31.607  1.00  0.00     0.029 A 
ATOM     44  C   UNL A   1      43.255  28.876  31.726  1.00  0.00     0.049 A 
ATOM     45  H   UNL A   1      43.372  27.144  30.505  1.00  0.00     0.167 HD
ATOM     46  C   UNL A   1      42.600  23.321  27.357  1.00  0.00     0.037 A 
ATOM     47  C   UNL A   1      44.309  28.794  32.605  1.00  0.00     0.037 A 
ATOM     48  C   UNL A   1      43.545  23.294  28.417  1.00  0.00     0.049 A 
ATOM     49  C   UNL A   1      45.085  27.644  32.133  1.00  0.00     0.074 A 
ATOM     50  C   UNL A   1      43.440  22.885  29.719  1.00  0.00     0.029 A 
ATOM     51  N   UNL A   1      44.657  24.084  28.272  1.00  0.00    -0.354 N 
ATOM     52  N   UNL A   1      45.824  27.657  31.066  1.00  0.00    -0.248 NA
ATOM     53  C   UNL A   1      44.971  26.367  32.844  1.00  0.00     0.031 C 
ATOM     54  C   UNL A   1      44.189  23.856  30.409  1.00  0.00     0.029 A 
ATOM     55  C   UNL A   1      44.925  24.627  29.500  1.00  0.00     0.049 A 
ATOM     56  H   UNL A   1      45.166  24.233  27.442  1.00  0.00     0.167 HD
ATOM     57  C   UNL A   1      45.959  26.319  30.802  1.00  0.00     0.074 A 
ATOM     58  C   UNL A   1      45.737  25.623  32.052  1.00  0.00     0.031 C 
ATOM     59  C   UNL A   1      45.666  25.862  29.558  1.00  0.00     0.037 A 
BRANCH  46  60
ATOM     60  C   UNL A   1      42.943  22.493  26.145  1.00  0.00     0.064 A 
ATOM     61  C   UNL A   1      42.919  21.079  26.282  1.00  0.00     0.173 A 
ATOM     62  C   UNL A   1      43.657  22.993  25.051  1.00  0.00     0.173 A 
ATOM     63  F   UNL A   1      42.208  20.493  27.259  1.00  0.00    -0.203 F 
ATOM     64  C   UNL A   1      43.706  20.244  25.491  1.00  0.00     0.198 A 
ATOM     65  C   UNL A   1      44.402  22.143  24.224  1.00  0.00     0.198 A 
ATOM     66  F   UNL A   1      43.739  24.308  24.820  1.00  0.00    -0.203 F 
ATOM     67  F   UNL A   1      43.784  18.935  25.771  1.00  0.00    -0.200 F 
ATOM     68  C   UNL A   1      44.468  20.781  24.475  1.00  0.00     0.200 A 
ATOM     69  F   UNL A   1      45.131  22.664  23.226  1.00  0.00    -0.200 F 
ATOM     70  F   UNL A   1      45.290  19.998  23.764  1.00  0.00    -0.200 F 
ENDBRANCH  46  60
BRANCH  47  71
ATOM     71  C   UNL A   1      44.846  29.468  33.857  1.00  0.00     0.064 A 
ATOM     72  C   UNL A   1      45.867  30.421  33.916  1.00  0.00     0.173 A 
ATOM     73  C   UNL A   1      44.222  29.218  35.120  1.00  0.00     0.173 A 
ATOM     74  F   UNL A   1      46.637  30.672  32.851  1.00  0.00    -0.203 F 
ATOM     75  C   UNL A   1      46.144  31.150  35.094  1.00  0.00     0.198 A 
ATOM     76  C   UNL A   1      44.451  29.978  36.267  1.00  0.00     0.198 A 
ATOM     77  F   UNL A   1      43.350  28.217  35.295  1.00  0.00    -0.203 F 
ATOM     78  F   UNL A   1      47.129  32.059  35.098  1.00  0.00    -0.200 F 
ATOM     79  C   UNL A   1      45.403  30.963  36.250  1.00  0.00     0.200 A 
ATOM     80  F   UNL A   1      43.721  29.753  37.370  1.00  0.00    -0.200 F 
ATOM     81  F   UNL A   1      45.614  31.714  37.339  1.00  0.00    -0.200 F 
ENDBRANCH  47  71
BRANCH  59  82
ATOM     82  C   UNL A   1      45.791  26.911  28.462  1.00  0.00     0.064 A 
ATOM     83  C   UNL A   1      47.044  27.482  28.183  1.00  0.00     0.173 A 
ATOM     84  C   UNL A   1      44.703  27.467  27.768  1.00  0.00     0.173 A 
ATOM     85  F   UNL A   1      48.146  26.992  28.771  1.00  0.00    -0.203 F 
ATOM     86  C   UNL A   1      47.187  28.561  27.304  1.00  0.00     0.198 A 
ATOM     87  C   UNL A   1      44.841  28.544  26.887  1.00  0.00     0.198 A 
ATOM     88  F   UNL A   1      43.477  26.974  27.916  1.00  0.00    -0.203 F 
ATOM     89  F   UNL A   1      48.402  29.078  27.077  1.00  0.00    -0.200 F 
ATOM     90  C   UNL A   1      46.084  29.097  26.662  1.00  0.00     0.200 A 
ATOM     91  F   UNL A   1      43.763  29.038  26.257  1.00  0.00    -0.200 F 
ATOM     92  F   UNL A   1      46.222  30.127  25.814  1.00  0.00    -0.200 F 
ENDBRANCH  59  82
ENDBRANCH  33  34
ENDBRANCH  25  28
ENDBRANCH  23  24
ENDBRANCH  22  23
ENDBRANCH   1  22
TORSDOF 14
ENDMDL
MODEL 2
REMARK VINA RESULT:     -12.2      4.390      9.287
REMARK SMILES CCn1cccc1C(=O)N1CC[C@H](C(=O)NCCCCNC(=O)c2ccc(-c3c4nc(c(-c5c(F)c(F)c(F)c(F)c5F)c5ccc([nH]5)c(-c5c(F)c(F)c(F)c(F)c5F)c5nc(c(-c6c(F)c(F)c(F)c(F)c6F)c6ccc3[nH]6)C=C5)C=C4)cc2)[C@H]1C
REMARK SMILES IDX 18 1 17 2 16 3 14 4 15 5 13 7 10 8 11 9 87 10 12 11 88 12
REMARK SMILES IDX 8 13 9 14 7 15 3 16 4 17 5 18 6 19 2 20 1 21 19 22 20 23
REMARK SMILES IDX 21 24 22 25 23 27 24 28 25 29 86 30 26 31 85 32 27 33 28 34
REMARK SMILES IDX 29 35 79 36 30 37 84 38 78 39 80 40 31 41 83 42 77 43 76 44
REMARK SMILES IDX 32 46 64 47 44 48 63 49 45 50 48 51 62 52 81 53 46 54 47 55
REMARK SMILES IDX 61 57 82 58 49 59 33 60 34 61 42 62 35 63 36 64 40 65 43 66
REMARK SMILES IDX 37 67 38 68 41 69 39 70 65 71 66 72 74 73 67 74 68 75 72 76
REMARK SMILES IDX 75 77 69 78 70 79 73 80 71 81 50 82 51 83 59 84 52 85 53 86
REMARK SMILES IDX 57 87 60 88 54 89 55 90 58 91 56 92
REMARK H PARENT 16 6 21 26 80 45 48 56
REMARK Flexibility Score: inf
ROOT
ATOM      1  C   UNL A   1      37.311  21.631  25.070  1.00  0.00     0.023 C 
ENDROOT
BRANCH   1   2
ATOM      2  C   UNL A   1      36.058  20.795  25.320  1.00  0.00     0.116 C 
BRANCH   2   3
ATOM      3  N   UNL A   1      35.316  21.269  26.474  1.00  0.00    -0.356 N 
ATOM      4  C   UNL A   1      34.124  21.917  26.559  1.00  0.00     0.225 C 
ATOM      5  O   UNL A   1      33.691  22.175  27.680  1.00  0.00    -0.275 OA
ATOM      6  H   UNL A   1      35.750  21.091  27.339  1.00  0.00     0.163 HD
BRANCH   4   7
ATOM      7  C   UNL A   1      33.386  22.317  25.297  1.00  0.00     0.102 C 
ATOM      8  N   UNL A   1      31.434  23.713  25.283  1.00  0.00    -0.334 N 
ATOM      9  C   UNL A   1      31.029  22.371  25.673  1.00  0.00     0.121 C 
ATOM     10  C   UNL A   1      32.898  23.779  25.415  1.00  0.00     0.094 C 
ATOM     11  C   UNL A   1      32.113  21.485  25.112  1.00  0.00     0.037 C 
ATOM     12  C   UNL A   1      33.589  24.659  24.378  1.00  0.00     0.032 C 
BRANCH   8  13
ATOM     13  C   UNL A   1      30.668  24.729  25.856  1.00  0.00     0.270 C 
ATOM     14  O   UNL A   1      30.089  24.530  26.924  1.00  0.00    -0.267 OA
BRANCH  13  15
ATOM     15  C   UNL A   1      30.549  25.997  25.143  1.00  0.00     0.107 A 
ATOM     16  N   UNL A   1      31.175  27.220  25.329  1.00  0.00    -0.344 N 
ATOM     17  C   UNL A   1      30.681  28.138  24.426  1.00  0.00     0.086 A 
ATOM     18  C   UNL A   1      29.797  27.502  23.593  1.00  0.00     0.020 A 
ATOM     19  C   UNL A   1      29.728  26.165  24.028  1.00  0.00     0.033 A 
BRANCH  16  20
ATOM     20  C   UNL A   1      32.164  27.588  26.323  1.00  0.00     0.119 C 
ATOM     21  C   UNL A   1      31.727  28.684  27.277  1.00  0.00     0.027 C 
ENDBRANCH  16  20
ENDBRANCH  13  15
ENDBRANCH   8  13
ENDBRANCH   4   7
ENDBRANCH   2   3
ENDBRANCH   1   2
BRANCH   1  22
ATOM     22  C   UNL A   1      37.060  23.138  24.911  1.00  0.00     0.023 C 
BRANCH  22  23
ATOM     23  C   UNL A   1      37.593  23.994  26.061  1.00  0.00     0.116 C 
BRANCH  23  24
ATOM     24  N   UNL A   1      38.744  23.364  26.684  1.00  0.00    -0.352 N 
ATOM     25  C   UNL A   1      39.886  23.923  27.194  1.00  0.00     0.251 C 
ATOM     26  H   UNL A   1      38.694  22.383  26.752  1.00  0.00     0.163 HD
ATOM     27  O   UNL A   1      40.886  23.225  27.307  1.00  0.00    -0.269 OA
BRANCH  25  28
ATOM     28  C   UNL A   1      39.947  25.340  27.610  1.00  0.00     0.039 A 
ATOM     29  C   UNL A   1      39.515  25.652  28.908  1.00  0.00     0.014 A 
ATOM     30  C   UNL A   1      40.299  26.362  26.722  1.00  0.00     0.014 A 
ATOM     31  C   UNL A   1      39.486  26.976  29.333  1.00  0.00     0.010 A 
ATOM     32  C   UNL A   1      40.284  27.688  27.145  1.00  0.00     0.010 A 
ATOM     33  C   UNL A   1      39.898  27.989  28.458  1.00  0.00    -0.014 A 
BRANCH  33  34
ATOM     34  C   UNL A   1      40.152  29.338  29.015  1.00  0.00     0.031 A 
ATOM     35  C   UNL A   1      38.830  30.154  29.099  1.00  0.00     0.074 A 
ATOM     36  C   UNL A   1      41.449  29.634  29.347  1.00  0.00     0.049 A 
ATOM     37  N   UNL A   1      38.634  31.433  29.204  1.00  0.00    -0.248 NA
ATOM     38  C   UNL A   1      37.522  29.435  29.027  1.00  0.00     0.031 C 
ATOM     39  C   UNL A   1      42.584  28.686  29.243  1.00  0.00     0.029 A 
ATOM     40  N   UNL A   1      42.093  30.760  29.831  1.00  0.00    -0.354 N 
ATOM     41  C   UNL A   1      37.249  31.644  29.434  1.00  0.00     0.074 A 
ATOM     42  C   UNL A   1      36.606  30.391  29.200  1.00  0.00     0.031 C 
ATOM     43  C   UNL A   1      43.755  29.285  29.556  1.00  0.00     0.029 A 
ATOM     44  C   UNL A   1      43.515  30.668  29.918  1.00  0.00     0.049 A 
ATOM     45  H   UNL A   1      41.602  31.570  30.098  1.00  0.00     0.167 HD
ATOM     46  C   UNL A   1      36.748  32.808  29.948  1.00  0.00     0.037 A 
ATOM     47  C   UNL A   1      44.428  31.649  30.224  1.00  0.00     0.037 A 
ATOM     48  C   UNL A   1      37.801  33.752  30.090  1.00  0.00     0.049 A 
ATOM     49  C   UNL A   1      43.611  32.770  30.697  1.00  0.00     0.074 A 
ATOM     50  C   UNL A   1      38.516  34.462  29.164  1.00  0.00     0.029 A 
ATOM     51  N   UNL A   1      38.469  33.754  31.287  1.00  0.00    -0.354 N 
ATOM     52  N   UNL A   1      43.019  32.798  31.852  1.00  0.00    -0.248 NA
ATOM     53  C   UNL A   1      43.365  33.901  29.798  1.00  0.00     0.031 C 
ATOM     54  C   UNL A   1      39.821  34.425  29.687  1.00  0.00     0.029 A 
ATOM     55  C   UNL A   1      39.794  33.950  31.005  1.00  0.00     0.049 A 
ATOM     56  H   UNL A   1      38.072  33.636  32.181  1.00  0.00     0.167 HD
ATOM     57  C   UNL A   1      42.068  33.766  31.655  1.00  0.00     0.074 A 
ATOM     58  C   UNL A   1      42.542  34.602  30.572  1.00  0.00     0.031 C 
ATOM     59  C   UNL A   1      40.775  33.486  31.954  1.00  0.00     0.037 A 
BRANCH  46  60
ATOM     60  C   UNL A   1      35.438  33.178  30.597  1.00  0.00     0.064 A 
ATOM     61  C   UNL A   1      34.713  34.269  30.048  1.00  0.00     0.173 A 
ATOM     62  C   UNL A   1      35.096  32.806  31.901  1.00  0.00     0.173 A 
ATOM     63  F   UNL A   1      34.916  34.665  28.781  1.00  0.00    -0.203 F 
ATOM     64  C   UNL A   1      33.846  35.044  30.817  1.00  0.00     0.198 A 
ATOM     65  C   UNL A   1      34.181  33.555  32.651  1.00  0.00     0.198 A 
ATOM     66  F   UNL A   1      35.709  31.786  32.514  1.00  0.00    -0.203 F 
ATOM     67  F   UNL A   1      33.320  36.166  30.304  1.00  0.00    -0.200 F 
ATOM     68  C   UNL A   1      33.599  34.699  32.128  1.00  0.00     0.200 A 
ATOM     69  F   UNL A   1      33.929  33.210  33.922  1.00  0.00    -0.200 F 
ATOM     70  F   UNL A   1      32.833  35.484  32.898  1.00  0.00    -0.200 F 
ENDBRANCH  46  60
BRANCH  47  71
ATOM     71  C   UNL A   1      45.924  31.911  30.180  1.00  0.00     0.064 A 
ATOM     72  C   UNL A   1      46.707  32.074  29.032  1.00  0.00     0.173 A 
ATOM     73  C   UNL A   1      46.646  32.120  31.398  1.00  0.00     0.173 A 
ATOM     74  F   UNL A   1      46.220  31.786  27.821  1.00  0.00    -0.203 F 
ATOM     75  C   UNL A   1      48.042  32.532  29.095  1.00  0.00     0.198 A 
ATOM     76  C   UNL A   1      47.941  32.631  31.461  1.00  0.00     0.198 A 
ATOM     77  F   UNL A   1      46.113  31.837  32.593  1.00  0.00    -0.203 F 
ATOM     78  F   UNL A   1      48.749  32.680  27.966  1.00  0.00    -0.200 F 
ATOM     79  C   UNL A   1      48.638  32.858  30.303  1.00  0.00     0.200 A 
ATOM     80  F   UNL A   1      48.486  32.917  32.653  1.00  0.00    -0.200 F 
ATOM     81  F   UNL A   1      49.875  33.371  30.352  1.00  0.00    -0.200 F 
ENDBRANCH  47  71
BRANCH  59  82
ATOM     82  C   UNL A   1      40.598  32.390  32.996  1.00  0.00     0.064 A 
ATOM     83  C   UNL A   1      41.097  32.577  34.296  1.00  0.00     0.173 A 
ATOM     84  C   UNL A   1      40.073  31.115  32.725  1.00  0.00     0.173 A 
ATOM     85  F   UNL A   1      41.585  33.773  34.658  1.00  0.00    -0.203 F 
ATOM     86  C   UNL A   1      41.107  31.545  35.241  1.00  0.00     0.198 A 
ATOM     87  C   UNL A   1      40.079  30.081  33.667  1.00  0.00     0.198 A 
ATOM     88  F   UNL A   1      39.529  30.840  31.544  1.00  0.00    -0.203 F 
ATOM     89  F   UNL A   1      41.602  31.768  36.466  1.00  0.00    -0.200 F 
ATOM     90  C   UNL A   1      40.605  30.294  34.923  1.00  0.00     0.200 A 
ATOM     91  F   UNL A   1      39.568  28.880  33.348  1.00  0.00    -0.200 F 
ATOM     92  F   UNL A   1      40.609  29.307  35.830  1.00  0.00    -0.200 F 
ENDBRANCH  59  82
ENDBRANCH  33  34
ENDBRANCH  25  28
ENDBRANCH  23  24
ENDBRANCH  22  23
ENDBRANCH   1  22
TORSDOF 14
ENDMDL
MODEL 3
REMARK VINA RESULT:     -12.0      1.116      2.197
REMARK SMILES CCn1cccc1C(=O)N1CC[C@H](C(=O)NCCCCNC(=O)c2ccc(-c3c4nc(c(-c5c(F)c(F)c(F)c(F)c5F)c5ccc([nH]5)c(-c5c(F)c(F)c(F)c(F)c5F)c5nc(c(-c6c(F)c(F)c(F)c(F)c6F)c6ccc3[nH]6)C=C5)C=C4)cc2)[C@H]1C
REMARK SMILES IDX 18 1 17 2 16 3 14 4 15 5 13 7 10 8 11 9 87 10 12 11 88 12
REMARK SMILES IDX 8 13 9 14 7 15 3 16 4 17 5 18 6 19 2 20 1 21 19 22 20 23
REMARK SMILES IDX 21 24 22 25 23 27 24 28 25 29 86 30 26 31 85 32 27 33 28 34
REMARK SMILES IDX 29 35 79 36 30 37 84 38 78 39 80 40 31 41 83 42 77 43 76 44
REMARK SMILES IDX 32 46 64 47 44 48 63 49 45 50 48 51 62 52 81 53 46 54 47 55
REMARK SMILES IDX 61 57 82 58 49 59 33 60 34 61 42 62 35 63 36 64 40 65 43 66
REMARK SMILES IDX 37 67 38 68 41 69 39 70 65 71 66 72 74 73 67 74 68 75 72 76
REMARK SMILES IDX 75 77 69 78 70 79 73 80 71 81 50 82 51 83 59 84 52 85 53 86
REMARK SMILES IDX 57 87 60 88 54 89 55 90 58 91 56 92
REMARK H PARENT 16 6 21 26 80 45 48 56
REMARK Flexibility Score: inf
ROOT
ATOM      1  C   UNL A   1      32.998  29.287  25.277  1.00  0.00     0.023 C 
ENDROOT
BRANCH   1   2
ATOM      2  C   UNL A   1      31.537  29.020  24.925  1.00  0.00     0.116 C 
BRANCH   2   3
ATOM      3  N   UNL A   1      31.403  28.404  23.618  1.00  0.00    -0.356 N 
ATOM      4  C   UNL A   1      31.456  27.099  23.241  1.00  0.00     0.225 C 
ATOM      5  O   UNL A   1      31.267  26.837  22.054  1.00  0.00    -0.275 OA
ATOM      6  H   UNL A   1      31.248  29.038  22.881  1.00  0.00     0.163 HD
BRANCH   4   7
ATOM      7  C   UNL A   1      31.761  26.025  24.265  1.00  0.00     0.102 C 
ATOM      8  N   UNL A   1      32.958  24.007  23.761  1.00  0.00    -0.334 N 
ATOM      9  C   UNL A   1      31.588  23.850  23.294  1.00  0.00     0.121 C 
ATOM     10  C   UNL A   1      33.169  25.441  24.010  1.00  0.00     0.094 C 
ATOM     11  C   UNL A   1      30.805  24.836  24.125  1.00  0.00     0.037 C 
ATOM     12  C   UNL A   1      34.097  25.751  25.181  1.00  0.00     0.032 C 
BRANCH   8  13
ATOM     13  C   UNL A   1      33.903  23.317  23.000  1.00  0.00     0.270 C 
ATOM     14  O   UNL A   1      33.843  23.355  21.771  1.00  0.00    -0.267 OA
BRANCH  13  15
ATOM     15  C   UNL A   1      34.921  22.536  23.694  1.00  0.00     0.107 A 
ATOM     16  N   UNL A   1      34.824  21.452  24.553  1.00  0.00    -0.344 N 
ATOM     17  C   UNL A   1      36.079  21.096  24.999  1.00  0.00     0.086 A 
ATOM     18  C   UNL A   1      37.008  21.886  24.370  1.00  0.00     0.020 A 
ATOM     19  C   UNL A   1      36.288  22.771  23.545  1.00  0.00     0.033 A 
BRANCH  16  20
ATOM     20  C   UNL A   1      33.631  20.767  25.013  1.00  0.00     0.119 C 
ATOM     21  C   UNL A   1      33.393  19.411  24.377  1.00  0.00     0.027 C 
ENDBRANCH  16  20
ENDBRANCH  13  15
ENDBRANCH   8  13
ENDBRANCH   4   7
ENDBRANCH   2   3
ENDBRANCH   1   2
BRANCH   1  22
ATOM     22  C   UNL A   1      33.400  28.896  26.707  1.00  0.00     0.023 C 
BRANCH  22  23
ATOM     23  C   UNL A   1      34.908  28.887  26.962  1.00  0.00     0.116 C 
BRANCH  23  24
ATOM     24  N   UNL A   1      35.414  30.239  27.120  1.00  0.00    -0.352 N 
ATOM     25  C   UNL A   1      36.517  30.694  27.794  1.00  0.00     0.251 C 
ATOM     26  H   UNL A   1      34.882  30.936  26.673  1.00  0.00     0.163 HD
ATOM     27  O   UNL A   1      36.554  31.869  28.142  1.00  0.00    -0.269 OA
BRANCH  25  28
ATOM     28  C   UNL A   1      37.660  29.813  28.112  1.00  0.00     0.039 A 
ATOM     29  C   UNL A   1      38.696  29.732  27.170  1.00  0.00     0.014 A 
ATOM     30  C   UNL A   1      37.672  28.989  29.243  1.00  0.00     0.014 A 
ATOM     31  C   UNL A   1      39.765  28.869  27.382  1.00  0.00     0.010 A 
ATOM     32  C   UNL A   1      38.746  28.132  29.468  1.00  0.00     0.010 A 
ATOM     33  C   UNL A   1      39.801  28.090  28.546  1.00  0.00    -0.014 A 
BRANCH  33  34
ATOM     34  C   UNL A   1      41.072  27.419  28.904  1.00  0.00     0.031 A 
ATOM     35  C   UNL A   1      41.079  25.951  28.389  1.00  0.00     0.074 A 
ATOM     36  C   UNL A   1      41.989  28.164  29.599  1.00  0.00     0.049 A 
ATOM     37  N   UNL A   1      41.808  24.937  28.744  1.00  0.00    -0.248 NA
ATOM     38  C   UNL A   1      40.104  25.542  27.333  1.00  0.00     0.031 C 
ATOM     39  C   UNL A   1      41.818  29.592  29.958  1.00  0.00     0.029 A 
ATOM     40  N   UNL A   1      43.233  27.904  30.149  1.00  0.00    -0.354 N 
ATOM     41  C   UNL A   1      41.550  23.876  27.836  1.00  0.00     0.074 A 
ATOM     42  C   UNL A   1      40.415  24.272  27.066  1.00  0.00     0.031 C 
ATOM     43  C   UNL A   1      42.845  30.035  30.719  1.00  0.00     0.029 A 
ATOM     44  C   UNL A   1      43.801  28.963  30.919  1.00  0.00     0.049 A 
ATOM     45  H   UNL A   1      43.694  27.045  30.016  1.00  0.00     0.167 HD
ATOM     46  C   UNL A   1      42.389  22.807  27.683  1.00  0.00     0.037 A 
ATOM     47  C   UNL A   1      44.939  28.959  31.690  1.00  0.00     0.037 A 
ATOM     48  C   UNL A   1      43.442  22.895  28.632  1.00  0.00     0.049 A 
ATOM     49  C   UNL A   1      45.599  27.694  31.353  1.00  0.00     0.074 A 
ATOM     50  C   UNL A   1      43.459  22.721  29.990  1.00  0.00     0.029 A 
ATOM     51  N   UNL A   1      44.570  23.570  28.240  1.00  0.00    -0.354 N 
ATOM     52  N   UNL A   1      46.216  27.476  30.232  1.00  0.00    -0.248 NA
ATOM     53  C   UNL A   1      45.499  26.568  32.286  1.00  0.00     0.031 C 
ATOM     54  C   UNL A   1      44.328  23.740  30.421  1.00  0.00     0.029 A 
ATOM     55  C   UNL A   1      44.998  24.293  29.321  1.00  0.00     0.049 A 
ATOM     56  H   UNL A   1      44.992  23.540  27.351  1.00  0.00     0.167 HD
ATOM     57  C   UNL A   1      46.254  26.106  30.196  1.00  0.00     0.074 A 
ATOM     58  C   UNL A   1      46.135  25.649  31.565  1.00  0.00     0.031 C 
ATOM     59  C   UNL A   1      45.803  25.466  29.087  1.00  0.00     0.037 A 
BRANCH  46  60
ATOM     60  C   UNL A   1      42.555  21.763  26.607  1.00  0.00     0.064 A 
ATOM     61  C   UNL A   1      42.115  20.442  26.894  1.00  0.00     0.173 A 
ATOM     62  C   UNL A   1      43.450  21.895  25.541  1.00  0.00     0.173 A 
ATOM     63  F   UNL A   1      41.205  20.212  27.854  1.00  0.00    -0.203 F 
ATOM     64  C   UNL A   1      42.676  19.324  26.279  1.00  0.00     0.198 A 
ATOM     65  C   UNL A   1      43.969  20.770  24.888  1.00  0.00     0.198 A 
ATOM     66  F   UNL A   1      43.923  23.093  25.178  1.00  0.00    -0.203 F 
ATOM     67  F   UNL A   1      42.355  18.094  26.707  1.00  0.00    -0.200 F 
ATOM     68  C   UNL A   1      43.623  19.489  25.291  1.00  0.00     0.200 A 
ATOM     69  F   UNL A   1      44.879  20.931  23.917  1.00  0.00    -0.200 F 
ATOM     70  F   UNL A   1      44.228  18.421  24.753  1.00  0.00    -0.200 F 
ENDBRANCH  46  60
BRANCH  47  71
ATOM     71  C   UNL A   1      45.643  29.796  32.744  1.00  0.00     0.064 A 
ATOM     72  C   UNL A   1      45.207  30.025  34.053  1.00  0.00     0.173 A 
ATOM     73  C   UNL A   1      46.932  30.353  32.465  1.00  0.00     0.173 A 
ATOM     74  F   UNL A   1      43.972  29.686  34.436  1.00  0.00    -0.203 F 
ATOM     75  C   UNL A   1      46.037  30.632  35.023  1.00  0.00     0.198 A 
ATOM     76  C   UNL A   1      47.775  30.896  33.434  1.00  0.00     0.198 A 
ATOM     77  F   UNL A   1      47.434  30.389  31.224  1.00  0.00    -0.203 F 
ATOM     78  F   UNL A   1      45.575  30.822  36.267  1.00  0.00    -0.200 F 
ATOM     79  C   UNL A   1      47.333  31.018  34.726  1.00  0.00     0.200 A 
ATOM     80  F   UNL A   1      49.018  31.273  33.098  1.00  0.00    -0.200 F 
ATOM     81  F   UNL A   1      48.144  31.517  35.669  1.00  0.00    -0.200 F 
ENDBRANCH  47  71
BRANCH  59  82
ATOM     82  C   UNL A   1      45.861  26.302  27.817  1.00  0.00     0.064 A 
ATOM     83  C   UNL A   1      44.681  26.568  27.102  1.00  0.00     0.173 A 
ATOM     84  C   UNL A   1      47.050  26.740  27.210  1.00  0.00     0.173 A 
ATOM     85  F   UNL A   1      43.494  26.219  27.621  1.00  0.00    -0.203 F 
ATOM     86  C   UNL A   1      44.699  27.189  25.848  1.00  0.00     0.198 A 
ATOM     87  C   UNL A   1      47.073  27.363  25.957  1.00  0.00     0.198 A 
ATOM     88  F   UNL A   1      48.222  26.587  27.818  1.00  0.00    -0.203 F 
ATOM     89  F   UNL A   1      43.548  27.412  25.200  1.00  0.00    -0.200 F 
ATOM     90  C   UNL A   1      45.896  27.579  25.273  1.00  0.00     0.200 A 
ATOM     91  F   UNL A   1      48.241  27.755  25.424  1.00  0.00    -0.200 F 
ATOM     92  F   UNL A   1      45.912  28.180  24.074  1.00  0.00    -0.200 F 
ENDBRANCH  59  82
ENDBRANCH  33  34
ENDBRANCH  25  28
ENDBRANCH  23  24
ENDBRANCH  22  23
ENDBRANCH   1  22
TORSDOF 14
ENDMDL
