MODEL 1
REMARK VINA RESULT:     -11.5      0.000      0.000
REMARK SMILES C#CCN(CC(=O)NCCCCNC(=O)c1ccc(-c2c3nc(c(-c4c(F)c(F)c(F)c(F)c4F)c4ccc([nH]4)c(-c4c(F)c(F)c(F)c(F)c4F)c4nc(c(-c5c(F)c(F)c(F)c(F)c5F)c5ccc2[nH]5)C=C4)C=C3)cc1)C(=O)Nc1cccc(C#N)c1
REMARK SMILES IDX 9 1 8 2 6 3 7 4 5 6 4 7 3 8 2 9 1 10 79 11 80 12 81 13 82 15
REMARK SMILES IDX 83 16 89 17 84 18 86 19 85 20 87 21 88 22 10 23 11 24 12 25
REMARK SMILES IDX 13 26 14 27 15 29 16 30 17 31 78 32 18 33 77 34 19 35 20 36
REMARK SMILES IDX 21 37 71 38 22 39 76 40 70 41 72 42 23 43 75 44 69 45 68 46
REMARK SMILES IDX 24 48 56 49 36 50 55 51 37 52 40 53 54 54 73 55 38 56 39 57
REMARK SMILES IDX 53 59 74 60 41 61 25 62 26 63 34 64 27 65 28 66 32 67 35 68
REMARK SMILES IDX 29 69 30 70 33 71 31 72 57 73 58 74 66 75 59 76 60 77 64 78
REMARK SMILES IDX 67 79 61 80 62 81 65 82 63 83 42 84 43 85 51 86 44 87 45 88
REMARK SMILES IDX 49 89 52 90 46 91 47 92 50 93 48 94
REMARK H PARENT 8 5 81 14 13 28 72 47 40 58
REMARK Flexibility Score: inf
ROOT
ATOM      1  C   UNL A   1      32.933  30.068  26.004  1.00  0.00     0.116 C 
ENDROOT
BRANCH   1   2
ATOM      2  N   UNL A   1      33.396  29.692  24.695  1.00  0.00    -0.355 N 
ATOM      3  C   UNL A   1      33.829  28.533  24.155  1.00  0.00     0.239 C 
ATOM      4  O   UNL A   1      34.333  28.670  23.034  1.00  0.00    -0.273 OA
ATOM      5  H   UNL A   1      33.397  30.441  24.056  1.00  0.00     0.163 HD
BRANCH   3   6
ATOM      6  C   UNL A   1      33.566  27.118  24.721  1.00  0.00     0.222 C 
BRANCH   6   7
ATOM      7  N   UNL A   1      33.035  26.072  23.848  1.00  0.00    -0.304 N 
BRANCH   7   8
ATOM      8  C   UNL A   1      31.600  25.844  23.989  1.00  0.00     0.211 C 
BRANCH   8   9
ATOM      9  C   UNL A   1      31.173  24.749  24.954  1.00  0.00    -0.085 C 
ATOM     10  C   UNL A   1      30.807  23.811  25.782  1.00  0.00     0.006 C 
ENDBRANCH   8   9
ENDBRANCH   7   8
BRANCH   7  11
ATOM     11  C   UNL A   1      33.708  25.259  22.965  1.00  0.00     0.323 C 
ATOM     12  O   UNL A   1      33.888  25.617  21.793  1.00  0.00    -0.248 OA
ATOM     13  N   UNL A   1      34.390  24.139  23.318  1.00  0.00    -0.308 N 
ATOM     14  H   UNL A   1      35.117  23.951  22.682  1.00  0.00     0.171 HD
BRANCH  13  15
ATOM     15  C   UNL A   1      34.349  23.177  24.335  1.00  0.00     0.044 A 
ATOM     16  C   UNL A   1      34.999  23.467  25.541  1.00  0.00     0.026 A 
ATOM     17  C   UNL A   1      33.759  21.929  24.181  1.00  0.00     0.045 A 
ATOM     18  C   UNL A   1      34.901  22.595  26.629  1.00  0.00     0.004 A 
ATOM     19  C   UNL A   1      33.590  21.081  25.285  1.00  0.00     0.054 A 
ATOM     20  C   UNL A   1      34.155  21.425  26.515  1.00  0.00     0.019 A 
BRANCH  19  21
ATOM     21  C   UNL A   1      32.790  19.888  25.190  1.00  0.00     0.099 C 
ATOM     22  N   UNL A   1      32.191  18.900  25.149  1.00  0.00    -0.192 NA
ENDBRANCH  19  21
ENDBRANCH  13  15
ENDBRANCH   7  11
ENDBRANCH   6   7
ENDBRANCH   3   6
ENDBRANCH   1   2
BRANCH   1  23
ATOM     23  C   UNL A   1      31.582  30.781  25.934  1.00  0.00     0.023 C 
BRANCH  23  24
ATOM     24  C   UNL A   1      31.400  31.946  26.908  1.00  0.00     0.023 C 
BRANCH  24  25
ATOM     25  C   UNL A   1      32.635  32.790  27.174  1.00  0.00     0.116 C 
BRANCH  25  26
ATOM     26  N   UNL A   1      32.330  34.140  27.615  1.00  0.00    -0.352 N 
ATOM     27  C   UNL A   1      32.998  34.923  28.517  1.00  0.00     0.251 C 
ATOM     28  H   UNL A   1      31.532  34.549  27.208  1.00  0.00     0.163 HD
ATOM     29  O   UNL A   1      32.585  36.046  28.789  1.00  0.00    -0.269 OA
BRANCH  27  30
ATOM     30  C   UNL A   1      34.175  34.374  29.210  1.00  0.00     0.039 A 
ATOM     31  C   UNL A   1      33.954  33.563  30.325  1.00  0.00     0.014 A 
ATOM     32  C   UNL A   1      35.469  34.599  28.733  1.00  0.00     0.014 A 
ATOM     33  C   UNL A   1      35.033  32.929  30.933  1.00  0.00     0.010 A 
ATOM     34  C   UNL A   1      36.532  33.898  29.286  1.00  0.00     0.010 A 
ATOM     35  C   UNL A   1      36.324  33.064  30.397  1.00  0.00    -0.014 A 
BRANCH  35  36
ATOM     36  C   UNL A   1      37.471  32.347  30.998  1.00  0.00     0.031 A 
ATOM     37  C   UNL A   1      37.945  32.715  32.373  1.00  0.00     0.074 A 
ATOM     38  C   UNL A   1      38.105  31.395  30.289  1.00  0.00     0.049 A 
ATOM     39  N   UNL A   1      38.944  32.228  33.064  1.00  0.00    -0.248 NA
ATOM     40  C   UNL A   1      37.212  33.794  33.053  1.00  0.00     0.031 C 
ATOM     41  C   UNL A   1      37.754  30.978  28.931  1.00  0.00     0.029 A 
ATOM     42  N   UNL A   1      39.179  30.606  30.613  1.00  0.00    -0.354 N 
ATOM     43  C   UNL A   1      38.964  32.947  34.250  1.00  0.00     0.074 A 
ATOM     44  C   UNL A   1      37.926  33.951  34.156  1.00  0.00     0.031 C 
ATOM     45  C   UNL A   1      38.570  29.983  28.553  1.00  0.00     0.029 A 
ATOM     46  C   UNL A   1      39.530  29.723  29.623  1.00  0.00     0.049 A 
ATOM     47  H   UNL A   1      39.654  30.667  31.474  1.00  0.00     0.167 HD
ATOM     48  C   UNL A   1      39.757  32.767  35.334  1.00  0.00     0.037 A 
ATOM     49  C   UNL A   1      40.517  28.809  29.584  1.00  0.00     0.037 A 
ATOM     50  C   UNL A   1      40.788  31.766  35.415  1.00  0.00     0.049 A 
ATOM     51  C   UNL A   1      41.420  28.661  30.779  1.00  0.00     0.074 A 
ATOM     52  C   UNL A   1      41.624  31.470  36.475  1.00  0.00     0.029 A 
ATOM     53  N   UNL A   1      41.131  30.903  34.382  1.00  0.00    -0.354 N 
ATOM     54  N   UNL A   1      41.390  29.298  31.924  1.00  0.00    -0.248 NA
ATOM     55  C   UNL A   1      42.493  27.665  30.673  1.00  0.00     0.031 C 
ATOM     56  C   UNL A   1      42.516  30.474  36.064  1.00  0.00     0.029 A 
ATOM     57  C   UNL A   1      42.190  30.096  34.771  1.00  0.00     0.049 A 
ATOM     58  H   UNL A   1      40.688  30.869  33.503  1.00  0.00     0.167 HD
ATOM     59  C   UNL A   1      42.414  28.757  32.690  1.00  0.00     0.074 A 
ATOM     60  C   UNL A   1      43.040  27.731  31.879  1.00  0.00     0.031 C 
ATOM     61  C   UNL A   1      42.798  29.077  33.951  1.00  0.00     0.037 A 
BRANCH  48  62
ATOM     62  C   UNL A   1      39.540  33.688  36.502  1.00  0.00     0.064 A 
ATOM     63  C   UNL A   1      40.144  34.955  36.567  1.00  0.00     0.173 A 
ATOM     64  C   UNL A   1      38.732  33.296  37.580  1.00  0.00     0.173 A 
ATOM     65  F   UNL A   1      40.936  35.378  35.571  1.00  0.00    -0.203 F 
ATOM     66  C   UNL A   1      39.993  35.766  37.689  1.00  0.00     0.198 A 
ATOM     67  C   UNL A   1      38.549  34.128  38.681  1.00  0.00     0.198 A 
ATOM     68  F   UNL A   1      38.123  32.100  37.569  1.00  0.00    -0.203 F 
ATOM     69  F   UNL A   1      40.645  36.936  37.761  1.00  0.00    -0.200 F 
ATOM     70  C   UNL A   1      39.192  35.355  38.743  1.00  0.00     0.200 A 
ATOM     71  F   UNL A   1      37.761  33.736  39.692  1.00  0.00    -0.200 F 
ATOM     72  F   UNL A   1      39.050  36.135  39.823  1.00  0.00    -0.200 F 
ENDBRANCH  48  62
BRANCH  49  73
ATOM     73  C   UNL A   1      40.671  27.936  28.392  1.00  0.00     0.064 A 
ATOM     74  C   UNL A   1      40.045  26.682  28.337  1.00  0.00     0.173 A 
ATOM     75  C   UNL A   1      41.425  28.336  27.279  1.00  0.00     0.173 A 
ATOM     76  F   UNL A   1      39.327  26.248  29.384  1.00  0.00    -0.203 F 
ATOM     77  C   UNL A   1      40.179  25.858  27.223  1.00  0.00     0.198 A 
ATOM     78  C   UNL A   1      41.534  27.523  26.154  1.00  0.00     0.198 A 
ATOM     79  F   UNL A   1      42.039  29.529  27.277  1.00  0.00    -0.203 F 
ATOM     80  F   UNL A   1      39.602  24.648  27.215  1.00  0.00    -0.200 F 
ATOM     81  C   UNL A   1      40.917  26.281  26.130  1.00  0.00     0.200 A 
ATOM     82  F   UNL A   1      42.235  27.944  25.091  1.00  0.00    -0.200 F 
ATOM     83  F   UNL A   1      41.039  25.492  25.054  1.00  0.00    -0.200 F 
ENDBRANCH  49  73
BRANCH  61  84
ATOM     84  C   UNL A   1      43.922  28.281  34.551  1.00  0.00     0.064 A 
ATOM     85  C   UNL A   1      45.255  28.714  34.492  1.00  0.00     0.173 A 
ATOM     86  C   UNL A   1      43.654  27.083  35.235  1.00  0.00     0.173 A 
ATOM     87  F   UNL A   1      45.569  29.843  33.838  1.00  0.00    -0.203 F 
ATOM     88  C   UNL A   1      46.279  27.966  35.068  1.00  0.00     0.198 A 
ATOM     89  C   UNL A   1      44.675  26.358  35.841  1.00  0.00     0.198 A 
ATOM     90  F   UNL A   1      42.396  26.625  35.328  1.00  0.00    -0.203 F 
ATOM     91  F   UNL A   1      47.550  28.373  34.952  1.00  0.00    -0.200 F 
ATOM     92  C   UNL A   1      45.987  26.795  35.751  1.00  0.00     0.200 A 
ATOM     93  F   UNL A   1      44.387  25.235  36.515  1.00  0.00    -0.200 F 
ATOM     94  F   UNL A   1      46.972  26.082  36.314  1.00  0.00    -0.200 F 
ENDBRANCH  61  84
ENDBRANCH  35  36
ENDBRANCH  27  30
ENDBRANCH  25  26
ENDBRANCH  24  25
ENDBRANCH  23  24
ENDBRANCH   1  23
TORSDOF 17
ENDMDL
MODEL 2
REMARK VINA RESULT:     -11.4      1.260      7.503
REMARK SMILES C#CCN(CC(=O)NCCCCNC(=O)c1ccc(-c2c3nc(c(-c4c(F)c(F)c(F)c(F)c4F)c4ccc([nH]4)c(-c4c(F)c(F)c(F)c(F)c4F)c4nc(c(-c5c(F)c(F)c(F)c(F)c5F)c5ccc2[nH]5)C=C4)C=C3)cc1)C(=O)Nc1cccc(C#N)c1
REMARK SMILES IDX 9 1 8 2 6 3 7 4 5 6 4 7 3 8 2 9 1 10 79 11 80 12 81 13 82 15
REMARK SMILES IDX 83 16 89 17 84 18 86 19 85 20 87 21 88 22 10 23 11 24 12 25
REMARK SMILES IDX 13 26 14 27 15 29 16 30 17 31 78 32 18 33 77 34 19 35 20 36
REMARK SMILES IDX 21 37 71 38 22 39 76 40 70 41 72 42 23 43 75 44 69 45 68 46
REMARK SMILES IDX 24 48 56 49 36 50 55 51 37 52 40 53 54 54 73 55 38 56 39 57
REMARK SMILES IDX 53 59 74 60 41 61 25 62 26 63 34 64 27 65 28 66 32 67 35 68
REMARK SMILES IDX 29 69 30 70 33 71 31 72 57 73 58 74 66 75 59 76 60 77 64 78
REMARK SMILES IDX 67 79 61 80 62 81 65 82 63 83 42 84 43 85 51 86 44 87 45 88
REMARK SMILES IDX 49 89 52 90 46 91 47 92 50 93 48 94
REMARK H PARENT 8 5 81 14 13 28 72 47 40 58
REMARK Flexibility Score: inf
ROOT
ATOM      1  C   UNL A   1      32.884  29.960  25.670  1.00  0.00     0.116 C 
ENDROOT
BRANCH   1   2
ATOM      2  N   UNL A   1      33.343  28.638  26.004  1.00  0.00    -0.355 N 
ATOM      3  C   UNL A   1      33.325  27.452  25.359  1.00  0.00     0.239 C 
ATOM      4  O   UNL A   1      33.645  26.497  26.075  1.00  0.00    -0.273 OA
ATOM      5  H   UNL A   1      33.761  28.587  26.894  1.00  0.00     0.163 HD
BRANCH   3   6
ATOM      6  C   UNL A   1      33.145  27.255  23.835  1.00  0.00     0.222 C 
BRANCH   6   7
ATOM      7  N   UNL A   1      31.849  26.830  23.305  1.00  0.00    -0.304 N 
BRANCH   7   8
ATOM      8  C   UNL A   1      30.700  27.370  24.026  1.00  0.00     0.211 C 
BRANCH   8   9
ATOM      9  C   UNL A   1      30.107  28.665  23.496  1.00  0.00    -0.085 C 
ATOM     10  C   UNL A   1      29.598  29.776  23.041  1.00  0.00     0.006 C 
ENDBRANCH   8   9
ENDBRANCH   7   8
BRANCH   7  11
ATOM     11  C   UNL A   1      31.581  25.967  22.267  1.00  0.00     0.323 C 
ATOM     12  O   UNL A   1      31.357  26.402  21.130  1.00  0.00    -0.248 OA
ATOM     13  N   UNL A   1      31.735  24.619  22.331  1.00  0.00    -0.308 N 
ATOM     14  H   UNL A   1      31.911  24.240  21.440  1.00  0.00     0.171 HD
BRANCH  13  15
ATOM     15  C   UNL A   1      31.712  23.617  23.308  1.00  0.00     0.044 A 
ATOM     16  C   UNL A   1      32.554  22.511  23.136  1.00  0.00     0.026 A 
ATOM     17  C   UNL A   1      30.850  23.632  24.397  1.00  0.00     0.045 A 
ATOM     18  C   UNL A   1      32.656  21.533  24.130  1.00  0.00     0.004 A 
ATOM     19  C   UNL A   1      30.996  22.701  25.435  1.00  0.00     0.054 A 
ATOM     20  C   UNL A   1      31.912  21.655  25.300  1.00  0.00     0.019 A 
BRANCH  19  21
ATOM     21  C   UNL A   1      30.261  22.836  26.664  1.00  0.00     0.099 C 
ATOM     22  N   UNL A   1      29.631  22.981  27.622  1.00  0.00    -0.192 NA
ENDBRANCH  19  21
ENDBRANCH  13  15
ENDBRANCH   7  11
ENDBRANCH   6   7
ENDBRANCH   3   6
ENDBRANCH   1   2
BRANCH   1  23
ATOM     23  C   UNL A   1      31.770  30.418  26.611  1.00  0.00     0.023 C 
BRANCH  23  24
ATOM     24  C   UNL A   1      31.563  31.931  26.701  1.00  0.00     0.023 C 
BRANCH  24  25
ATOM     25  C   UNL A   1      32.720  32.726  27.283  1.00  0.00     0.116 C 
BRANCH  25  26
ATOM     26  N   UNL A   1      32.357  34.081  27.662  1.00  0.00    -0.352 N 
ATOM     27  C   UNL A   1      32.970  34.919  28.554  1.00  0.00     0.251 C 
ATOM     28  H   UNL A   1      31.561  34.449  27.214  1.00  0.00     0.163 HD
ATOM     29  O   UNL A   1      32.513  36.037  28.769  1.00  0.00    -0.269 OA
BRANCH  27  30
ATOM     30  C   UNL A   1      34.139  34.435  29.305  1.00  0.00     0.039 A 
ATOM     31  C   UNL A   1      33.910  33.777  30.515  1.00  0.00     0.014 A 
ATOM     32  C   UNL A   1      35.434  34.567  28.797  1.00  0.00     0.014 A 
ATOM     33  C   UNL A   1      34.979  33.200  31.193  1.00  0.00     0.010 A 
ATOM     34  C   UNL A   1      36.486  33.916  29.429  1.00  0.00     0.010 A 
ATOM     35  C   UNL A   1      36.268  33.235  30.638  1.00  0.00    -0.014 A 
BRANCH  35  36
ATOM     36  C   UNL A   1      37.403  32.574  31.319  1.00  0.00     0.031 A 
ATOM     37  C   UNL A   1      38.129  31.449  30.641  1.00  0.00     0.074 A 
ATOM     38  C   UNL A   1      37.751  32.962  32.560  1.00  0.00     0.049 A 
ATOM     39  N   UNL A   1      39.127  30.724  31.078  1.00  0.00    -0.248 NA
ATOM     40  C   UNL A   1      37.651  31.071  29.303  1.00  0.00     0.031 C 
ATOM     41  C   UNL A   1      37.094  34.020  33.329  1.00  0.00     0.029 A 
ATOM     42  N   UNL A   1      38.742  32.510  33.393  1.00  0.00    -0.354 N 
ATOM     43  C   UNL A   1      39.388  29.803  30.074  1.00  0.00     0.074 A 
ATOM     44  C   UNL A   1      38.398  30.010  29.040  1.00  0.00     0.031 C 
ATOM     45  C   UNL A   1      37.726  34.164  34.504  1.00  0.00     0.029 A 
ATOM     46  C   UNL A   1      38.801  33.178  34.589  1.00  0.00     0.049 A 
ATOM     47  H   UNL A   1      39.354  31.775  33.155  1.00  0.00     0.167 HD
ATOM     48  C   UNL A   1      40.382  28.885  30.007  1.00  0.00     0.037 A 
ATOM     49  C   UNL A   1      39.629  33.012  35.638  1.00  0.00     0.037 A 
ATOM     50  C   UNL A   1      41.360  28.686  31.043  1.00  0.00     0.049 A 
ATOM     51  C   UNL A   1      40.693  31.951  35.563  1.00  0.00     0.074 A 
ATOM     52  C   UNL A   1      42.432  27.812  31.065  1.00  0.00     0.029 A 
ATOM     53  N   UNL A   1      41.375  29.366  32.254  1.00  0.00    -0.354 N 
ATOM     54  N   UNL A   1      40.977  31.128  34.583  1.00  0.00    -0.248 NA
ATOM     55  C   UNL A   1      41.553  31.798  36.743  1.00  0.00     0.031 C 
ATOM     56  C   UNL A   1      43.056  27.917  32.313  1.00  0.00     0.029 A 
ATOM     57  C   UNL A   1      42.419  28.908  33.043  1.00  0.00     0.049 A 
ATOM     58  H   UNL A   1      40.737  30.070  32.515  1.00  0.00     0.167 HD
ATOM     59  C   UNL A   1      42.069  30.385  35.011  1.00  0.00     0.074 A 
ATOM     60  C   UNL A   1      42.402  30.863  36.338  1.00  0.00     0.031 C 
ATOM     61  C   UNL A   1      42.738  29.399  34.362  1.00  0.00     0.037 A 
BRANCH  48  62
ATOM     62  C   UNL A   1      40.438  28.024  28.775  1.00  0.00     0.064 A 
ATOM     63  C   UNL A   1      39.775  26.787  28.706  1.00  0.00     0.173 A 
ATOM     64  C   UNL A   1      41.175  28.431  27.654  1.00  0.00     0.173 A 
ATOM     65  F   UNL A   1      39.065  26.342  29.753  1.00  0.00    -0.203 F 
ATOM     66  C   UNL A   1      39.897  25.968  27.587  1.00  0.00     0.198 A 
ATOM     67  C   UNL A   1      41.260  27.628  26.519  1.00  0.00     0.198 A 
ATOM     68  F   UNL A   1      41.821  29.607  27.658  1.00  0.00    -0.203 F 
ATOM     69  F   UNL A   1      39.322  24.757  27.579  1.00  0.00    -0.200 F 
ATOM     70  C   UNL A   1      40.634  26.391  26.492  1.00  0.00     0.200 A 
ATOM     71  F   UNL A   1      41.959  28.046  25.454  1.00  0.00    -0.200 F 
ATOM     72  F   UNL A   1      40.754  25.601  25.417  1.00  0.00    -0.200 F 
ENDBRANCH  48  62
BRANCH  49  73
ATOM     73  C   UNL A   1      39.510  33.900  36.823  1.00  0.00     0.064 A 
ATOM     74  C   UNL A   1      38.764  33.504  37.942  1.00  0.00     0.173 A 
ATOM     75  C   UNL A   1      40.149  35.147  36.873  1.00  0.00     0.173 A 
ATOM     76  F   UNL A   1      38.120  32.327  37.934  1.00  0.00    -0.203 F 
ATOM     77  C   UNL A   1      38.650  34.328  39.059  1.00  0.00     0.198 A 
ATOM     78  C   UNL A   1      40.058  35.957  38.003  1.00  0.00     0.198 A 
ATOM     79  F   UNL A   1      40.880  35.571  35.832  1.00  0.00    -0.203 F 
ATOM     80  F   UNL A   1      37.898  33.941  40.099  1.00  0.00    -0.200 F 
ATOM     81  C   UNL A   1      39.302  35.550  39.093  1.00  0.00     0.200 A 
ATOM     82  F   UNL A   1      40.705  37.131  38.038  1.00  0.00    -0.200 F 
ATOM     83  F   UNL A   1      39.200  36.338  40.171  1.00  0.00    -0.200 F 
ENDBRANCH  49  73
BRANCH  61  84
ATOM     84  C   UNL A   1      43.926  28.799  35.058  1.00  0.00     0.064 A 
ATOM     85  C   UNL A   1      45.218  29.325  34.912  1.00  0.00     0.173 A 
ATOM     86  C   UNL A   1      43.760  27.703  35.921  1.00  0.00     0.173 A 
ATOM     87  F   UNL A   1      45.435  30.362  34.089  1.00  0.00    -0.203 F 
ATOM     88  C   UNL A   1      46.302  28.760  35.580  1.00  0.00     0.198 A 
ATOM     89  C   UNL A   1      44.839  27.164  36.615  1.00  0.00     0.198 A 
ATOM     90  F   UNL A   1      42.545  27.164  36.103  1.00  0.00    -0.203 F 
ATOM     91  F   UNL A   1      47.535  29.246  35.382  1.00  0.00    -0.200 F 
ATOM     92  C   UNL A   1      46.110  27.688  36.438  1.00  0.00     0.200 A 
ATOM     93  F   UNL A   1      44.648  26.139  37.457  1.00  0.00    -0.200 F 
ATOM     94  F   UNL A   1      47.153  27.153  37.087  1.00  0.00    -0.200 F 
ENDBRANCH  61  84
ENDBRANCH  35  36
ENDBRANCH  27  30
ENDBRANCH  25  26
ENDBRANCH  24  25
ENDBRANCH  23  24
ENDBRANCH   1  23
TORSDOF 17
ENDMDL
MODEL 3
REMARK VINA RESULT:     -11.3      5.322     10.966
REMARK SMILES C#CCN(CC(=O)NCCCCNC(=O)c1ccc(-c2c3nc(c(-c4c(F)c(F)c(F)c(F)c4F)c4ccc([nH]4)c(-c4c(F)c(F)c(F)c(F)c4F)c4nc(c(-c5c(F)c(F)c(F)c(F)c5F)c5ccc2[nH]5)C=C4)C=C3)cc1)C(=O)Nc1cccc(C#N)c1
REMARK SMILES IDX 9 1 8 2 6 3 7 4 5 6 4 7 3 8 2 9 1 10 79 11 80 12 81 13 82 15
REMARK SMILES IDX 83 16 89 17 84 18 86 19 85 20 87 21 88 22 10 23 11 24 12 25
REMARK SMILES IDX 13 26 14 27 15 29 16 30 17 31 78 32 18 33 77 34 19 35 20 36
REMARK SMILES IDX 21 37 71 38 22 39 76 40 70 41 72 42 23 43 75 44 69 45 68 46
REMARK SMILES IDX 24 48 56 49 36 50 55 51 37 52 40 53 54 54 73 55 38 56 39 57
REMARK SMILES IDX 53 59 74 60 41 61 25 62 26 63 34 64 27 65 28 66 32 67 35 68
REMARK SMILES IDX 29 69 30 70 33 71 31 72 57 73 58 74 66 75 59 76 60 77 64 78
REMARK SMILES IDX 67 79 61 80 62 81 65 82 63 83 42 84 43 85 51 86 44 87 45 88
REMARK SMILES IDX 49 89 52 90 46 91 47 92 50 93 48 94
REMARK H PARENT 8 5 81 14 13 28 72 47 40 58
REMARK Flexibility Score: inf
ROOT
ATOM      1  C   UNL A   1      36.716  21.988  25.771  1.00  0.00     0.116 C 
ENDROOT
BRANCH   1   2
ATOM      2  N   UNL A   1      35.540  21.534  26.464  1.00  0.00    -0.355 N 
ATOM      3  C   UNL A   1      34.420  22.146  26.904  1.00  0.00     0.239 C 
ATOM      4  O   UNL A   1      33.725  21.435  27.638  1.00  0.00    -0.273 OA
ATOM      5  H   UNL A   1      35.555  20.569  26.659  1.00  0.00     0.163 HD
BRANCH   3   6
ATOM      6  C   UNL A   1      33.886  23.513  26.414  1.00  0.00     0.222 C 
BRANCH   6   7
ATOM      7  N   UNL A   1      32.509  23.625  25.932  1.00  0.00    -0.304 N 
BRANCH   7   8
ATOM      8  C   UNL A   1      32.326  23.220  24.541  1.00  0.00     0.211 C 
BRANCH   8   9
ATOM      9  C   UNL A   1      32.435  21.734  24.241  1.00  0.00    -0.085 C 
ATOM     10  C   UNL A   1      32.529  20.459  23.984  1.00  0.00     0.006 C 
ENDBRANCH   8   9
ENDBRANCH   7   8
BRANCH   7  11
ATOM     11  C   UNL A   1      31.398  24.100  26.591  1.00  0.00     0.323 C 
ATOM     12  O   UNL A   1      30.684  23.333  27.251  1.00  0.00    -0.248 OA
ATOM     13  N   UNL A   1      31.105  25.416  26.752  1.00  0.00    -0.308 N 
ATOM     14  H   UNL A   1      30.563  25.562  27.560  1.00  0.00     0.171 HD
BRANCH  13  15
ATOM     15  C   UNL A   1      31.357  26.624  26.090  1.00  0.00     0.044 A 
ATOM     16  C   UNL A   1      32.343  27.468  26.616  1.00  0.00     0.026 A 
ATOM     17  C   UNL A   1      30.633  27.054  24.986  1.00  0.00     0.045 A 
ATOM     18  C   UNL A   1      32.716  28.633  25.939  1.00  0.00     0.004 A 
ATOM     19  C   UNL A   1      31.046  28.180  24.258  1.00  0.00     0.054 A 
ATOM     20  C   UNL A   1      32.100  28.963  24.735  1.00  0.00     0.019 A 
BRANCH  19  21
ATOM     21  C   UNL A   1      30.444  28.510  22.994  1.00  0.00     0.099 C 
ATOM     22  N   UNL A   1      29.905  28.756  22.001  1.00  0.00    -0.192 NA
ENDBRANCH  19  21
ENDBRANCH  13  15
ENDBRANCH   7  11
ENDBRANCH   6   7
ENDBRANCH   3   6
ENDBRANCH   1   2
BRANCH   1  23
ATOM     23  C   UNL A   1      37.087  21.047  24.626  1.00  0.00     0.023 C 
BRANCH  23  24
ATOM     24  C   UNL A   1      37.994  19.874  25.003  1.00  0.00     0.023 C 
BRANCH  24  25
ATOM     25  C   UNL A   1      39.180  20.210  25.891  1.00  0.00     0.116 C 
BRANCH  25  26
ATOM     26  N   UNL A   1      40.225  19.200  25.868  1.00  0.00    -0.352 N 
ATOM     27  C   UNL A   1      41.562  19.338  26.127  1.00  0.00     0.251 C 
ATOM     28  H   UNL A   1      39.931  18.290  25.634  1.00  0.00     0.163 HD
ATOM     29  O   UNL A   1      42.313  18.372  26.042  1.00  0.00    -0.269 OA
BRANCH  27  30
ATOM     30  C   UNL A   1      42.098  20.673  26.439  1.00  0.00     0.039 A 
ATOM     31  C   UNL A   1      42.314  21.552  25.376  1.00  0.00     0.014 A 
ATOM     32  C   UNL A   1      42.321  21.075  27.758  1.00  0.00     0.014 A 
ATOM     33  C   UNL A   1      42.704  22.861  25.640  1.00  0.00     0.010 A 
ATOM     34  C   UNL A   1      42.626  22.404  28.024  1.00  0.00     0.010 A 
ATOM     35  C   UNL A   1      42.829  23.306  26.967  1.00  0.00    -0.014 A 
BRANCH  35  36
ATOM     36  C   UNL A   1      43.185  24.712  27.262  1.00  0.00     0.031 A 
ATOM     37  C   UNL A   1      44.581  25.199  27.005  1.00  0.00     0.074 A 
ATOM     38  C   UNL A   1      42.263  25.533  27.797  1.00  0.00     0.049 A 
ATOM     39  N   UNL A   1      45.100  26.381  27.220  1.00  0.00    -0.248 NA
ATOM     40  C   UNL A   1      45.529  24.217  26.456  1.00  0.00     0.031 C 
ATOM     41  C   UNL A   1      40.886  25.158  28.122  1.00  0.00     0.029 A 
ATOM     42  N   UNL A   1      42.346  26.851  28.163  1.00  0.00    -0.354 N 
ATOM     43  C   UNL A   1      46.431  26.280  26.842  1.00  0.00     0.074 A 
ATOM     44  C   UNL A   1      46.659  24.905  26.455  1.00  0.00     0.031 C 
ATOM     45  C   UNL A   1      40.241  26.234  28.600  1.00  0.00     0.029 A 
ATOM     46  C   UNL A   1      41.171  27.358  28.659  1.00  0.00     0.049 A 
ATOM     47  H   UNL A   1      43.169  27.385  28.078  1.00  0.00     0.167 HD
ATOM     48  C   UNL A   1      47.371  27.253  26.794  1.00  0.00     0.037 A 
ATOM     49  C   UNL A   1      40.880  28.592  29.111  1.00  0.00     0.037 A 
ATOM     50  C   UNL A   1      47.133  28.618  27.185  1.00  0.00     0.049 A 
ATOM     51  C   UNL A   1      41.954  29.645  29.098  1.00  0.00     0.074 A 
ATOM     52  C   UNL A   1      48.001  29.694  27.142  1.00  0.00     0.029 A 
ATOM     53  N   UNL A   1      45.935  29.091  27.705  1.00  0.00    -0.354 N 
ATOM     54  N   UNL A   1      43.192  29.561  28.676  1.00  0.00    -0.248 NA
ATOM     55  C   UNL A   1      41.587  30.966  29.623  1.00  0.00     0.031 C 
ATOM     56  C   UNL A   1      47.350  30.802  27.696  1.00  0.00     0.029 A 
ATOM     57  C   UNL A   1      46.053  30.436  28.018  1.00  0.00     0.049 A 
ATOM     58  H   UNL A   1      45.122  28.550  27.834  1.00  0.00     0.167 HD
ATOM     59  C   UNL A   1      43.743  30.823  28.850  1.00  0.00     0.074 A 
ATOM     60  C   UNL A   1      42.698  31.658  29.408  1.00  0.00     0.031 C 
ATOM     61  C   UNL A   1      44.999  31.254  28.569  1.00  0.00     0.037 A 
BRANCH  48  62
ATOM     62  C   UNL A   1      48.741  26.859  26.317  1.00  0.00     0.064 A 
ATOM     63  C   UNL A   1      49.726  26.388  27.202  1.00  0.00     0.173 A 
ATOM     64  C   UNL A   1      49.084  26.968  24.961  1.00  0.00     0.173 A 
ATOM     65  F   UNL A   1      49.459  26.274  28.511  1.00  0.00    -0.203 F 
ATOM     66  C   UNL A   1      51.013  26.097  26.757  1.00  0.00     0.198 A 
ATOM     67  C   UNL A   1      50.360  26.636  24.513  1.00  0.00     0.198 A 
ATOM     68  F   UNL A   1      48.182  27.405  24.068  1.00  0.00    -0.203 F 
ATOM     69  F   UNL A   1      51.956  25.726  27.634  1.00  0.00    -0.200 F 
ATOM     70  C   UNL A   1      51.327  26.216  25.412  1.00  0.00     0.200 A 
ATOM     71  F   UNL A   1      50.658  26.736  23.210  1.00  0.00    -0.200 F 
ATOM     72  F   UNL A   1      52.567  25.939  24.985  1.00  0.00    -0.200 F 
ENDBRANCH  48  62
BRANCH  49  73
ATOM     73  C   UNL A   1      39.502  28.906  29.570  1.00  0.00     0.064 A 
ATOM     74  C   UNL A   1      38.553  29.428  28.680  1.00  0.00     0.173 A 
ATOM     75  C   UNL A   1      39.097  28.676  30.893  1.00  0.00     0.173 A 
ATOM     76  F   UNL A   1      38.897  29.681  27.409  1.00  0.00    -0.203 F 
ATOM     77  C   UNL A   1      37.258  29.722  29.099  1.00  0.00     0.198 A 
ATOM     78  C   UNL A   1      37.793  28.943  31.303  1.00  0.00     0.198 A 
ATOM     79  F   UNL A   1      39.964  28.171  31.783  1.00  0.00    -0.203 F 
ATOM     80  F   UNL A   1      36.383  30.258  28.236  1.00  0.00    -0.200 F 
ATOM     81  C   UNL A   1      36.876  29.473  30.408  1.00  0.00     0.200 A 
ATOM     82  F   UNL A   1      37.424  28.684  32.566  1.00  0.00    -0.200 F 
ATOM     83  F   UNL A   1      35.627  29.746  30.808  1.00  0.00    -0.200 F 
ENDBRANCH  49  73
BRANCH  61  84
ATOM     84  C   UNL A   1      45.302  32.703  28.820  1.00  0.00     0.064 A 
ATOM     85  C   UNL A   1      45.037  33.695  27.864  1.00  0.00     0.173 A 
ATOM     86  C   UNL A   1      45.830  33.111  30.056  1.00  0.00     0.173 A 
ATOM     87  F   UNL A   1      44.548  33.358  26.661  1.00  0.00    -0.203 F 
ATOM     88  C   UNL A   1      45.314  35.035  28.125  1.00  0.00     0.198 A 
ATOM     89  C   UNL A   1      46.070  34.455  30.327  1.00  0.00     0.198 A 
ATOM     90  F   UNL A   1      46.097  32.206  31.010  1.00  0.00    -0.203 F 
ATOM     91  F   UNL A   1      45.102  35.957  27.176  1.00  0.00    -0.200 F 
ATOM     92  C   UNL A   1      45.820  35.415  29.358  1.00  0.00     0.200 A 
ATOM     93  F   UNL A   1      46.543  34.821  31.526  1.00  0.00    -0.200 F 
ATOM     94  F   UNL A   1      46.075  36.705  29.611  1.00  0.00    -0.200 F 
ENDBRANCH  61  84
ENDBRANCH  35  36
ENDBRANCH  27  30
ENDBRANCH  25  26
ENDBRANCH  24  25
ENDBRANCH  23  24
ENDBRANCH   1  23
TORSDOF 17
ENDMDL
