MODEL 1
REMARK VINA RESULT:     -12.6      0.000      0.000
REMARK SMILES C[C@@H](C(=O)NCCCCNC(=O)c1ccc(-c2c3nc(c(-c4c(F)c(F)c(F)c(F)c4F)c4ccc([nH]4)c(-c4c(F)c(F)c(F)c(F)c4F)c4nc(c(-c5c(F)c(F)c(F)c(F)c5F)c5ccc2[nH]5)C=C4)C=C3)cc1)c1cccc(C(=O)c2ccccc2)c1
REMARK SMILES IDX 7 1 6 2 5 3 3 4 4 5 2 7 1 8 76 9 77 10 89 11 78 12 80 13
REMARK SMILES IDX 79 14 81 15 82 16 83 17 84 18 88 19 85 20 87 21 86 22 8 23
REMARK SMILES IDX 9 24 10 25 11 26 12 28 13 29 14 30 75 31 15 32 74 33 16 34
REMARK SMILES IDX 17 35 18 36 68 37 19 38 73 39 67 40 69 41 20 42 72 43 66 44
REMARK SMILES IDX 65 45 21 47 53 48 33 49 52 50 34 51 37 52 51 53 70 54 35 55
REMARK SMILES IDX 36 56 50 58 71 59 38 60 22 61 23 62 31 63 24 64 25 65 29 66
REMARK SMILES IDX 32 67 26 68 27 69 30 70 28 71 54 72 55 73 63 74 56 75 57 76
REMARK SMILES IDX 61 77 64 78 58 79 59 80 62 81 60 82 39 83 40 84 48 85 41 86
REMARK SMILES IDX 42 87 46 88 49 89 43 90 44 91 47 92 45 93
REMARK H PARENT 5 6 10 27 69 46 37 57
REMARK Flexibility Score: inf
ROOT
ATOM      1  C   UNL A   1      31.278  30.991  26.590  1.00  0.00     0.023 C 
ENDROOT
BRANCH   1   2
ATOM      2  C   UNL A   1      32.268  30.263  25.676  1.00  0.00     0.116 C 
BRANCH   2   3
ATOM      3  N   UNL A   1      31.594  29.723  24.514  1.00  0.00    -0.356 N 
ATOM      4  C   UNL A   1      32.076  28.985  23.473  1.00  0.00     0.227 C 
ATOM      5  O   UNL A   1      31.287  28.770  22.549  1.00  0.00    -0.274 OA
ATOM      6  H   UNL A   1      30.630  29.919  24.468  1.00  0.00     0.163 HD
BRANCH   4   7
ATOM      7  C   UNL A   1      33.511  28.408  23.507  1.00  0.00     0.105 C 
ATOM      8  C   UNL A   1      34.131  28.384  22.106  1.00  0.00     0.023 C 
BRANCH   7   9
ATOM      9  C   UNL A   1      33.537  27.040  24.203  1.00  0.00    -0.035 A 
ATOM     10  C   UNL A   1      33.291  26.872  25.576  1.00  0.00     0.004 A 
ATOM     11  C   UNL A   1      33.868  25.899  23.445  1.00  0.00     0.016 A 
ATOM     12  C   UNL A   1      33.383  25.615  26.174  1.00  0.00     0.001 A 
ATOM     13  C   UNL A   1      34.019  24.642  24.051  1.00  0.00     0.023 A 
ATOM     14  C   UNL A   1      33.756  24.508  25.418  1.00  0.00     0.012 A 
BRANCH  13  15
ATOM     15  C   UNL A   1      34.422  23.424  23.294  1.00  0.00     0.193 C 
ATOM     16  O   UNL A   1      34.111  23.313  22.110  1.00  0.00    -0.289 OA
BRANCH  15  17
ATOM     17  C   UNL A   1      35.227  22.342  23.907  1.00  0.00     0.022 A 
ATOM     18  C   UNL A   1      36.619  22.482  23.902  1.00  0.00     0.012 A 
ATOM     19  C   UNL A   1      34.639  21.192  24.444  1.00  0.00     0.012 A 
ATOM     20  C   UNL A   1      37.422  21.497  24.476  1.00  0.00     0.001 A 
ATOM     21  C   UNL A   1      35.447  20.208  25.019  1.00  0.00     0.001 A 
ATOM     22  C   UNL A   1      36.835  20.364  25.040  1.00  0.00     0.000 A 
ENDBRANCH  15  17
ENDBRANCH  13  15
ENDBRANCH   7   9
ENDBRANCH   4   7
ENDBRANCH   2   3
ENDBRANCH   1   2
BRANCH   1  23
ATOM     23  C   UNL A   1      31.384  32.519  26.570  1.00  0.00     0.023 C 
BRANCH  23  24
ATOM     24  C   UNL A   1      32.613  33.102  27.257  1.00  0.00     0.116 C 
BRANCH  24  25
ATOM     25  N   UNL A   1      32.400  34.454  27.749  1.00  0.00    -0.352 N 
ATOM     26  C   UNL A   1      33.032  35.126  28.761  1.00  0.00     0.251 C 
ATOM     27  H   UNL A   1      31.695  34.961  27.286  1.00  0.00     0.163 HD
ATOM     28  O   UNL A   1      32.618  36.236  29.102  1.00  0.00    -0.269 OA
BRANCH  26  29
ATOM     29  C   UNL A   1      34.183  34.527  29.470  1.00  0.00     0.039 A 
ATOM     30  C   UNL A   1      33.945  33.868  30.680  1.00  0.00     0.014 A 
ATOM     31  C   UNL A   1      35.488  34.626  28.975  1.00  0.00     0.014 A 
ATOM     32  C   UNL A   1      35.003  33.267  31.365  1.00  0.00     0.010 A 
ATOM     33  C   UNL A   1      36.532  33.966  29.624  1.00  0.00     0.010 A 
ATOM     34  C   UNL A   1      36.301  33.284  30.827  1.00  0.00    -0.014 A 
BRANCH  34  35
ATOM     35  C   UNL A   1      37.411  32.584  31.520  1.00  0.00     0.031 A 
ATOM     36  C   UNL A   1      38.117  31.430  30.865  1.00  0.00     0.074 A 
ATOM     37  C   UNL A   1      37.768  32.977  32.757  1.00  0.00     0.049 A 
ATOM     38  N   UNL A   1      39.118  30.712  31.311  1.00  0.00    -0.248 NA
ATOM     39  C   UNL A   1      37.620  31.010  29.546  1.00  0.00     0.031 C 
ATOM     40  C   UNL A   1      37.116  34.039  33.526  1.00  0.00     0.029 A 
ATOM     41  N   UNL A   1      38.764  32.528  33.588  1.00  0.00    -0.354 N 
ATOM     42  C   UNL A   1      39.371  29.763  30.329  1.00  0.00     0.074 A 
ATOM     43  C   UNL A   1      38.378  29.953  29.294  1.00  0.00     0.031 C 
ATOM     44  C   UNL A   1      37.745  34.177  34.704  1.00  0.00     0.029 A 
ATOM     45  C   UNL A   1      38.829  33.203  34.783  1.00  0.00     0.049 A 
ATOM     46  H   UNL A   1      39.375  31.794  33.350  1.00  0.00     0.167 HD
ATOM     47  C   UNL A   1      40.359  28.837  30.282  1.00  0.00     0.037 A 
ATOM     48  C   UNL A   1      39.671  33.055  35.822  1.00  0.00     0.037 A 
ATOM     49  C   UNL A   1      41.352  28.655  31.308  1.00  0.00     0.049 A 
ATOM     50  C   UNL A   1      40.773  32.035  35.734  1.00  0.00     0.074 A 
ATOM     51  C   UNL A   1      42.413  27.767  31.338  1.00  0.00     0.029 A 
ATOM     52  N   UNL A   1      41.406  29.380  32.490  1.00  0.00    -0.354 N 
ATOM     53  N   UNL A   1      41.045  31.191  34.769  1.00  0.00    -0.248 NA
ATOM     54  C   UNL A   1      41.698  31.961  36.874  1.00  0.00     0.031 C 
ATOM     55  C   UNL A   1      43.090  27.931  32.552  1.00  0.00     0.029 A 
ATOM     56  C   UNL A   1      42.477  28.952  33.259  1.00  0.00     0.049 A 
ATOM     57  H   UNL A   1      40.777  30.093  32.744  1.00  0.00     0.167 HD
ATOM     58  C   UNL A   1      42.179  30.501  35.173  1.00  0.00     0.074 A 
ATOM     59  C   UNL A   1      42.561  31.044  36.460  1.00  0.00     0.031 C 
ATOM     60  C   UNL A   1      42.842  29.503  34.539  1.00  0.00     0.037 A 
BRANCH  47  61
ATOM     61  C   UNL A   1      40.425  27.959  29.066  1.00  0.00     0.064 A 
ATOM     62  C   UNL A   1      39.693  26.763  28.989  1.00  0.00     0.173 A 
ATOM     63  C   UNL A   1      41.190  28.331  27.951  1.00  0.00     0.173 A 
ATOM     64  F   UNL A   1      38.954  26.355  30.032  1.00  0.00    -0.203 F 
ATOM     65  C   UNL A   1      39.747  25.961  27.853  1.00  0.00     0.198 A 
ATOM     66  C   UNL A   1      41.219  27.541  26.805  1.00  0.00     0.198 A 
ATOM     67  F   UNL A   1      41.905  29.466  27.970  1.00  0.00    -0.203 F 
ATOM     68  F   UNL A   1      39.076  24.801  27.821  1.00  0.00    -0.200 F 
ATOM     69  C   UNL A   1      40.504  26.354  26.758  1.00  0.00     0.200 A 
ATOM     70  F   UNL A   1      41.942  27.927  25.745  1.00  0.00    -0.200 F 
ATOM     71  F   UNL A   1      40.548  25.584  25.662  1.00  0.00    -0.200 F 
ENDBRANCH  47  61
BRANCH  48  72
ATOM     72  C   UNL A   1      39.526  33.918  37.023  1.00  0.00     0.064 A 
ATOM     73  C   UNL A   1      38.803  33.483  38.142  1.00  0.00     0.173 A 
ATOM     74  C   UNL A   1      40.099  35.197  37.073  1.00  0.00     0.173 A 
ATOM     75  F   UNL A   1      38.221  32.275  38.134  1.00  0.00    -0.203 F 
ATOM     76  C   UNL A   1      38.636  34.304  39.255  1.00  0.00     0.198 A 
ATOM     77  C   UNL A   1      39.957  36.006  38.198  1.00  0.00     0.198 A 
ATOM     78  F   UNL A   1      40.807  35.657  36.031  1.00  0.00    -0.203 F 
ATOM     79  F   UNL A   1      37.898  33.883  40.291  1.00  0.00    -0.200 F 
ATOM     80  C   UNL A   1      39.217  35.564  39.283  1.00  0.00     0.200 A 
ATOM     81  F   UNL A   1      40.531  37.216  38.227  1.00  0.00    -0.200 F 
ATOM     82  F   UNL A   1      39.058  36.352  40.356  1.00  0.00    -0.200 F 
ENDBRANCH  48  72
BRANCH  60  83
ATOM     83  C   UNL A   1      44.060  28.952  35.222  1.00  0.00     0.064 A 
ATOM     84  C   UNL A   1      43.979  27.863  36.102  1.00  0.00     0.173 A 
ATOM     85  C   UNL A   1      45.324  29.514  34.984  1.00  0.00     0.173 A 
ATOM     86  F   UNL A   1      42.791  27.302  36.374  1.00  0.00    -0.203 F 
ATOM     87  C   UNL A   1      45.114  27.377  36.745  1.00  0.00     0.198 A 
ATOM     88  C   UNL A   1      46.461  29.005  35.607  1.00  0.00     0.198 A 
ATOM     89  F   UNL A   1      45.457  30.553  34.146  1.00  0.00    -0.203 F 
ATOM     90  F   UNL A   1      45.004  26.373  37.626  1.00  0.00    -0.200 F 
ATOM     91  C   UNL A   1      46.354  27.946  36.494  1.00  0.00     0.200 A 
ATOM     92  F   UNL A   1      47.660  29.548  35.354  1.00  0.00    -0.200 F 
ATOM     93  F   UNL A   1      47.445  27.478  37.116  1.00  0.00    -0.200 F 
ENDBRANCH  60  83
ENDBRANCH  34  35
ENDBRANCH  26  29
ENDBRANCH  24  25
ENDBRANCH  23  24
ENDBRANCH   1  23
TORSDOF 14
ENDMDL
MODEL 2
REMARK VINA RESULT:     -12.5      4.855     10.019
REMARK SMILES C[C@@H](C(=O)NCCCCNC(=O)c1ccc(-c2c3nc(c(-c4c(F)c(F)c(F)c(F)c4F)c4ccc([nH]4)c(-c4c(F)c(F)c(F)c(F)c4F)c4nc(c(-c5c(F)c(F)c(F)c(F)c5F)c5ccc2[nH]5)C=C4)C=C3)cc1)c1cccc(C(=O)c2ccccc2)c1
REMARK SMILES IDX 7 1 6 2 5 3 3 4 4 5 2 7 1 8 76 9 77 10 89 11 78 12 80 13
REMARK SMILES IDX 79 14 81 15 82 16 83 17 84 18 88 19 85 20 87 21 86 22 8 23
REMARK SMILES IDX 9 24 10 25 11 26 12 28 13 29 14 30 75 31 15 32 74 33 16 34
REMARK SMILES IDX 17 35 18 36 68 37 19 38 73 39 67 40 69 41 20 42 72 43 66 44
REMARK SMILES IDX 65 45 21 47 53 48 33 49 52 50 34 51 37 52 51 53 70 54 35 55
REMARK SMILES IDX 36 56 50 58 71 59 38 60 22 61 23 62 31 63 24 64 25 65 29 66
REMARK SMILES IDX 32 67 26 68 27 69 30 70 28 71 54 72 55 73 63 74 56 75 57 76
REMARK SMILES IDX 61 77 64 78 58 79 59 80 62 81 60 82 39 83 40 84 48 85 41 86
REMARK SMILES IDX 42 87 46 88 49 89 43 90 44 91 47 92 45 93
REMARK H PARENT 5 6 10 27 69 46 37 57
REMARK Flexibility Score: inf
ROOT
ATOM      1  C   UNL A   1      42.182  23.173  28.543  1.00  0.00     0.023 C 
ENDROOT
BRANCH   1   2
ATOM      2  C   UNL A   1      43.613  22.921  29.027  1.00  0.00     0.116 C 
BRANCH   2   3
ATOM      3  N   UNL A   1      44.464  22.514  27.929  1.00  0.00    -0.356 N 
ATOM      4  C   UNL A   1      44.719  23.120  26.734  1.00  0.00     0.227 C 
ATOM      5  O   UNL A   1      45.396  22.471  25.931  1.00  0.00    -0.274 OA
ATOM      6  H   UNL A   1      44.936  21.661  28.068  1.00  0.00     0.163 HD
BRANCH   4   7
ATOM      7  C   UNL A   1      44.234  24.561  26.455  1.00  0.00     0.105 C 
ATOM      8  C   UNL A   1      43.605  24.675  25.063  1.00  0.00     0.023 C 
BRANCH   7   9
ATOM      9  C   UNL A   1      45.361  25.577  26.694  1.00  0.00    -0.035 A 
ATOM     10  C   UNL A   1      46.475  25.311  27.506  1.00  0.00     0.004 A 
ATOM     11  C   UNL A   1      45.258  26.855  26.108  1.00  0.00     0.016 A 
ATOM     12  C   UNL A   1      47.445  26.287  27.739  1.00  0.00     0.001 A 
ATOM     13  C   UNL A   1      46.199  27.858  26.384  1.00  0.00     0.023 A 
ATOM     14  C   UNL A   1      47.302  27.558  27.189  1.00  0.00     0.012 A 
BRANCH  13  15
ATOM     15  C   UNL A   1      46.094  29.237  25.829  1.00  0.00     0.193 C 
ATOM     16  O   UNL A   1      46.400  29.446  24.657  1.00  0.00    -0.289 OA
BRANCH  15  17
ATOM     17  C   UNL A   1      45.594  30.377  26.632  1.00  0.00     0.022 A 
ATOM     18  C   UNL A   1      44.332  30.255  27.223  1.00  0.00     0.012 A 
ATOM     19  C   UNL A   1      46.325  31.561  26.778  1.00  0.00     0.012 A 
ATOM     20  C   UNL A   1      43.819  31.295  27.997  1.00  0.00     0.001 A 
ATOM     21  C   UNL A   1      45.808  32.600  27.556  1.00  0.00     0.001 A 
ATOM     22  C   UNL A   1      44.561  32.464  28.169  1.00  0.00     0.000 A 
ENDBRANCH  15  17
ENDBRANCH  13  15
ENDBRANCH   7   9
ENDBRANCH   4   7
ENDBRANCH   2   3
ENDBRANCH   1   2
BRANCH   1  23
ATOM     23  C   UNL A   1      41.501  21.967  27.886  1.00  0.00     0.023 C 
BRANCH  23  24
ATOM     24  C   UNL A   1      41.375  22.029  26.368  1.00  0.00     0.116 C 
BRANCH  24  25
ATOM     25  N   UNL A   1      39.995  22.099  25.917  1.00  0.00    -0.352 N 
ATOM     26  C   UNL A   1      39.056  23.074  26.122  1.00  0.00     0.251 C 
ATOM     27  H   UNL A   1      39.690  21.329  25.384  1.00  0.00     0.163 HD
ATOM     28  O   UNL A   1      37.896  22.885  25.751  1.00  0.00    -0.269 OA
BRANCH  26  29
ATOM     29  C   UNL A   1      39.406  24.335  26.811  1.00  0.00     0.039 A 
ATOM     30  C   UNL A   1      38.925  24.536  28.108  1.00  0.00     0.014 A 
ATOM     31  C   UNL A   1      40.176  25.325  26.191  1.00  0.00     0.014 A 
ATOM     32  C   UNL A   1      39.257  25.702  28.800  1.00  0.00     0.010 A 
ATOM     33  C   UNL A   1      40.564  26.457  26.908  1.00  0.00     0.010 A 
ATOM     34  C   UNL A   1      40.105  26.659  28.217  1.00  0.00    -0.014 A 
BRANCH  34  35
ATOM     35  C   UNL A   1      40.514  27.865  28.980  1.00  0.00     0.031 A 
ATOM     36  C   UNL A   1      41.905  27.984  29.537  1.00  0.00     0.074 A 
ATOM     37  C   UNL A   1      39.618  28.847  29.192  1.00  0.00     0.049 A 
ATOM     38  N   UNL A   1      42.445  28.968  30.212  1.00  0.00    -0.248 NA
ATOM     39  C   UNL A   1      42.803  26.837  29.331  1.00  0.00     0.031 C 
ATOM     40  C   UNL A   1      38.219  28.820  28.762  1.00  0.00     0.029 A 
ATOM     41  N   UNL A   1      39.748  30.058  29.826  1.00  0.00    -0.354 N 
ATOM     42  C   UNL A   1      43.740  28.563  30.505  1.00  0.00     0.074 A 
ATOM     43  C   UNL A   1      43.886  27.217  29.993  1.00  0.00     0.031 C 
ATOM     44  C   UNL A   1      37.627  29.971  29.120  1.00  0.00     0.029 A 
ATOM     45  C   UNL A   1      38.596  30.807  29.822  1.00  0.00     0.049 A 
ATOM     46  H   UNL A   1      40.587  30.362  30.241  1.00  0.00     0.167 HD
ATOM     47  C   UNL A   1      44.727  29.259  31.119  1.00  0.00     0.037 A 
ATOM     48  C   UNL A   1      38.352  32.031  30.323  1.00  0.00     0.037 A 
ATOM     49  C   UNL A   1      44.584  30.601  31.619  1.00  0.00     0.049 A 
ATOM     50  C   UNL A   1      39.471  32.792  30.979  1.00  0.00     0.074 A 
ATOM     51  C   UNL A   1      45.533  31.405  32.226  1.00  0.00     0.029 A 
ATOM     52  N   UNL A   1      43.411  31.341  31.568  1.00  0.00    -0.354 N 
ATOM     53  N   UNL A   1      40.712  32.424  31.187  1.00  0.00    -0.248 NA
ATOM     54  C   UNL A   1      39.159  34.148  31.454  1.00  0.00     0.031 C 
ATOM     55  C   UNL A   1      44.926  32.618  32.572  1.00  0.00     0.029 A 
ATOM     56  C   UNL A   1      43.611  32.587  32.141  1.00  0.00     0.049 A 
ATOM     57  H   UNL A   1      42.562  31.027  31.180  1.00  0.00     0.167 HD
ATOM     58  C   UNL A   1      41.333  33.505  31.796  1.00  0.00     0.074 A 
ATOM     59  C   UNL A   1      40.339  34.554  31.900  1.00  0.00     0.031 C 
ATOM     60  C   UNL A   1      42.611  33.618  32.236  1.00  0.00     0.037 A 
BRANCH  47  61
ATOM     61  C   UNL A   1      46.060  28.585  31.266  1.00  0.00     0.064 A 
ATOM     62  C   UNL A   1      47.147  28.931  30.447  1.00  0.00     0.173 A 
ATOM     63  C   UNL A   1      46.269  27.614  32.257  1.00  0.00     0.173 A 
ATOM     64  F   UNL A   1      46.997  29.845  29.477  1.00  0.00    -0.203 F 
ATOM     65  C   UNL A   1      48.384  28.312  30.599  1.00  0.00     0.198 A 
ATOM     66  C   UNL A   1      47.516  27.017  32.424  1.00  0.00     0.198 A 
ATOM     67  F   UNL A   1      45.266  27.249  33.069  1.00  0.00    -0.203 F 
ATOM     68  F   UNL A   1      49.394  28.626  29.775  1.00  0.00    -0.200 F 
ATOM     69  C   UNL A   1      48.571  27.361  31.591  1.00  0.00     0.200 A 
ATOM     70  F   UNL A   1      47.698  26.107  33.390  1.00  0.00    -0.200 F 
ATOM     71  F   UNL A   1      49.765  26.771  31.740  1.00  0.00    -0.200 F 
ENDBRANCH  47  61
BRANCH  48  72
ATOM     72  C   UNL A   1      36.997  32.629  30.194  1.00  0.00     0.064 A 
ATOM     73  C   UNL A   1      36.052  32.503  31.221  1.00  0.00     0.173 A 
ATOM     74  C   UNL A   1      36.618  33.328  29.039  1.00  0.00     0.173 A 
ATOM     75  F   UNL A   1      36.361  31.827  32.336  1.00  0.00    -0.203 F 
ATOM     76  C   UNL A   1      34.770  33.032  31.087  1.00  0.00     0.198 A 
ATOM     77  C   UNL A   1      35.346  33.883  28.918  1.00  0.00     0.198 A 
ATOM     78  F   UNL A   1      37.490  33.482  28.031  1.00  0.00    -0.203 F 
ATOM     79  F   UNL A   1      33.870  32.855  32.063  1.00  0.00    -0.200 F 
ATOM     80  C   UNL A   1      34.420  33.725  29.937  1.00  0.00     0.200 A 
ATOM     81  F   UNL A   1      35.017  34.564  27.813  1.00  0.00    -0.200 F 
ATOM     82  F   UNL A   1      33.187  34.236  29.811  1.00  0.00    -0.200 F 
ENDBRANCH  48  72
BRANCH  60  83
ATOM     83  C   UNL A   1      43.006  34.931  32.849  1.00  0.00     0.064 A 
ATOM     84  C   UNL A   1      42.917  35.152  34.231  1.00  0.00     0.173 A 
ATOM     85  C   UNL A   1      43.492  35.973  32.046  1.00  0.00     0.173 A 
ATOM     86  F   UNL A   1      42.444  34.192  35.040  1.00  0.00    -0.203 F 
ATOM     87  C   UNL A   1      43.267  36.382  34.783  1.00  0.00     0.198 A 
ATOM     88  C   UNL A   1      43.869  37.191  32.605  1.00  0.00     0.198 A 
ATOM     89  F   UNL A   1      43.604  35.810  30.719  1.00  0.00    -0.203 F 
ATOM     90  F   UNL A   1      43.118  36.590  36.099  1.00  0.00    -0.200 F 
ATOM     91  C   UNL A   1      43.746  37.399  33.970  1.00  0.00     0.200 A 
ATOM     92  F   UNL A   1      44.344  38.169  31.820  1.00  0.00    -0.200 F 
ATOM     93  F   UNL A   1      44.080  38.582  34.503  1.00  0.00    -0.200 F 
ENDBRANCH  60  83
ENDBRANCH  34  35
ENDBRANCH  26  29
ENDBRANCH  24  25
ENDBRANCH  23  24
ENDBRANCH   1  23
TORSDOF 14
ENDMDL
MODEL 3
REMARK VINA RESULT:     -12.4      5.345     10.004
REMARK SMILES C[C@@H](C(=O)NCCCCNC(=O)c1ccc(-c2c3nc(c(-c4c(F)c(F)c(F)c(F)c4F)c4ccc([nH]4)c(-c4c(F)c(F)c(F)c(F)c4F)c4nc(c(-c5c(F)c(F)c(F)c(F)c5F)c5ccc2[nH]5)C=C4)C=C3)cc1)c1cccc(C(=O)c2ccccc2)c1
REMARK SMILES IDX 7 1 6 2 5 3 3 4 4 5 2 7 1 8 76 9 77 10 89 11 78 12 80 13
REMARK SMILES IDX 79 14 81 15 82 16 83 17 84 18 88 19 85 20 87 21 86 22 8 23
REMARK SMILES IDX 9 24 10 25 11 26 12 28 13 29 14 30 75 31 15 32 74 33 16 34
REMARK SMILES IDX 17 35 18 36 68 37 19 38 73 39 67 40 69 41 20 42 72 43 66 44
REMARK SMILES IDX 65 45 21 47 53 48 33 49 52 50 34 51 37 52 51 53 70 54 35 55
REMARK SMILES IDX 36 56 50 58 71 59 38 60 22 61 23 62 31 63 24 64 25 65 29 66
REMARK SMILES IDX 32 67 26 68 27 69 30 70 28 71 54 72 55 73 63 74 56 75 57 76
REMARK SMILES IDX 61 77 64 78 58 79 59 80 62 81 60 82 39 83 40 84 48 85 41 86
REMARK SMILES IDX 42 87 46 88 49 89 43 90 44 91 47 92 45 93
REMARK H PARENT 5 6 10 27 69 46 37 57
REMARK Flexibility Score: inf
ROOT
ATOM      1  C   UNL A   1      39.302  22.390  26.182  1.00  0.00     0.023 C 
ENDROOT
BRANCH   1   2
ATOM      2  C   UNL A   1      38.015  23.206  26.033  1.00  0.00     0.116 C 
BRANCH   2   3
ATOM      3  N   UNL A   1      37.618  23.291  24.644  1.00  0.00    -0.356 N 
ATOM      4  C   UNL A   1      36.502  22.826  24.011  1.00  0.00     0.227 C 
ATOM      5  O   UNL A   1      36.492  22.934  22.782  1.00  0.00    -0.274 OA
ATOM      6  H   UNL A   1      38.256  23.762  24.060  1.00  0.00     0.163 HD
BRANCH   4   7
ATOM      7  C   UNL A   1      35.309  22.264  24.818  1.00  0.00     0.105 C 
ATOM      8  C   UNL A   1      35.368  20.736  24.903  1.00  0.00     0.023 C 
BRANCH   7   9
ATOM      9  C   UNL A   1      33.975  22.787  24.264  1.00  0.00    -0.035 A 
ATOM     10  C   UNL A   1      33.065  21.979  23.564  1.00  0.00     0.004 A 
ATOM     11  C   UNL A   1      33.663  24.152  24.424  1.00  0.00     0.016 A 
ATOM     12  C   UNL A   1      31.892  22.514  23.029  1.00  0.00     0.001 A 
ATOM     13  C   UNL A   1      32.514  24.708  23.840  1.00  0.00     0.023 A 
ATOM     14  C   UNL A   1      31.623  23.874  23.158  1.00  0.00     0.012 A 
BRANCH  13  15
ATOM     15  C   UNL A   1      32.179  26.157  23.938  1.00  0.00     0.193 C 
ATOM     16  O   UNL A   1      31.627  26.719  22.994  1.00  0.00    -0.289 OA
BRANCH  15  17
ATOM     17  C   UNL A   1      32.453  26.951  25.158  1.00  0.00     0.022 A 
ATOM     18  C   UNL A   1      33.694  27.588  25.257  1.00  0.00     0.012 A 
ATOM     19  C   UNL A   1      31.531  27.044  26.207  1.00  0.00     0.012 A 
ATOM     20  C   UNL A   1      33.997  28.357  26.380  1.00  0.00     0.001 A 
ATOM     21  C   UNL A   1      31.838  27.816  27.329  1.00  0.00     0.001 A 
ATOM     22  C   UNL A   1      33.066  28.476  27.412  1.00  0.00     0.000 A 
ENDBRANCH  15  17
ENDBRANCH  13  15
ENDBRANCH   7   9
ENDBRANCH   4   7
ENDBRANCH   2   3
ENDBRANCH   1   2
BRANCH   1  23
ATOM     23  C   UNL A   1      39.264  21.001  25.536  1.00  0.00     0.023 C 
BRANCH  23  24
ATOM     24  C   UNL A   1      39.690  19.845  26.434  1.00  0.00     0.116 C 
BRANCH  24  25
ATOM     25  N   UNL A   1      40.871  19.153  25.944  1.00  0.00    -0.352 N 
ATOM     26  C   UNL A   1      42.164  19.592  25.843  1.00  0.00     0.251 C 
ATOM     27  H   UNL A   1      40.718  18.229  25.639  1.00  0.00     0.163 HD
ATOM     28  O   UNL A   1      43.003  18.883  25.285  1.00  0.00    -0.269 OA
BRANCH  26  29
ATOM     29  C   UNL A   1      42.559  20.918  26.364  1.00  0.00     0.039 A 
ATOM     30  C   UNL A   1      42.931  21.906  25.448  1.00  0.00     0.014 A 
ATOM     31  C   UNL A   1      42.594  21.192  27.736  1.00  0.00     0.014 A 
ATOM     32  C   UNL A   1      43.285  23.178  25.901  1.00  0.00     0.010 A 
ATOM     33  C   UNL A   1      42.881  22.481  28.183  1.00  0.00     0.010 A 
ATOM     34  C   UNL A   1      43.234  23.486  27.270  1.00  0.00    -0.014 A 
BRANCH  34  35
ATOM     35  C   UNL A   1      43.542  24.859  27.745  1.00  0.00     0.031 A 
ATOM     36  C   UNL A   1      44.965  25.310  27.914  1.00  0.00     0.074 A 
ATOM     37  C   UNL A   1      42.530  25.694  28.047  1.00  0.00     0.049 A 
ATOM     38  N   UNL A   1      45.424  26.475  28.300  1.00  0.00    -0.248 NA
ATOM     39  C   UNL A   1      46.014  24.316  27.638  1.00  0.00     0.031 C 
ATOM     40  C   UNL A   1      41.108  25.353  27.989  1.00  0.00     0.029 A 
ATOM     41  N   UNL A   1      42.541  27.001  28.466  1.00  0.00    -0.354 N 
ATOM     42  C   UNL A   1      46.807  26.355  28.307  1.00  0.00     0.074 A 
ATOM     43  C   UNL A   1      47.113  24.986  27.952  1.00  0.00     0.031 C 
ATOM     44  C   UNL A   1      40.383  26.429  28.333  1.00  0.00     0.029 A 
ATOM     45  C   UNL A   1      41.287  27.529  28.656  1.00  0.00     0.049 A 
ATOM     46  H   UNL A   1      43.369  27.513  28.615  1.00  0.00     0.167 HD
ATOM     47  C   UNL A   1      47.738  27.307  28.559  1.00  0.00     0.037 A 
ATOM     48  C   UNL A   1      40.911  28.762  29.041  1.00  0.00     0.037 A 
ATOM     49  C   UNL A   1      47.432  28.671  28.902  1.00  0.00     0.049 A 
ATOM     50  C   UNL A   1      41.964  29.806  29.291  1.00  0.00     0.074 A 
ATOM     51  C   UNL A   1      48.304  29.719  29.143  1.00  0.00     0.029 A 
ATOM     52  N   UNL A   1      46.149  29.179  29.052  1.00  0.00    -0.354 N 
ATOM     53  N   UNL A   1      43.268  29.699  29.226  1.00  0.00    -0.248 NA
ATOM     54  C   UNL A   1      41.489  31.150  29.651  1.00  0.00     0.031 C 
ATOM     55  C   UNL A   1      47.549  30.852  29.471  1.00  0.00     0.029 A 
ATOM     56  C   UNL A   1      46.207  30.521  29.392  1.00  0.00     0.049 A 
ATOM     57  H   UNL A   1      45.320  28.660  28.934  1.00  0.00     0.167 HD
ATOM     58  C   UNL A   1      43.769  30.960  29.516  1.00  0.00     0.074 A 
ATOM     59  C   UNL A   1      42.627  31.824  29.730  1.00  0.00     0.031 C 
ATOM     60  C   UNL A   1      45.060  31.366  29.602  1.00  0.00     0.037 A 
BRANCH  47  61
ATOM     61  C   UNL A   1      49.181  26.908  28.451  1.00  0.00     0.064 A 
ATOM     62  C   UNL A   1      49.866  26.970  27.227  1.00  0.00     0.173 A 
ATOM     63  C   UNL A   1      49.899  26.498  29.584  1.00  0.00     0.173 A 
ATOM     64  F   UNL A   1      49.222  27.344  26.112  1.00  0.00    -0.203 F 
ATOM     65  C   UNL A   1      51.208  26.612  27.138  1.00  0.00     0.198 A 
ATOM     66  C   UNL A   1      51.249  26.167  29.496  1.00  0.00     0.198 A 
ATOM     67  F   UNL A   1      49.294  26.424  30.779  1.00  0.00    -0.203 F 
ATOM     68  F   UNL A   1      51.828  26.635  25.950  1.00  0.00    -0.200 F 
ATOM     69  C   UNL A   1      51.901  26.218  28.273  1.00  0.00     0.200 A 
ATOM     70  F   UNL A   1      51.920  25.798  30.595  1.00  0.00    -0.200 F 
ATOM     71  F   UNL A   1      53.195  25.880  28.186  1.00  0.00    -0.200 F 
ENDBRANCH  47  61
BRANCH  48  72
ATOM     72  C   UNL A   1      39.467  29.086  29.180  1.00  0.00     0.064 A 
ATOM     73  C   UNL A   1      38.697  29.447  28.065  1.00  0.00     0.173 A 
ATOM     74  C   UNL A   1      38.831  29.050  30.429  1.00  0.00     0.173 A 
ATOM     75  F   UNL A   1      39.265  29.513  26.853  1.00  0.00    -0.203 F 
ATOM     76  C   UNL A   1      37.352  29.784  28.199  1.00  0.00     0.198 A 
ATOM     77  C   UNL A   1      37.479  29.359  30.557  1.00  0.00     0.198 A 
ATOM     78  F   UNL A   1      39.522  28.704  31.525  1.00  0.00    -0.203 F 
ATOM     79  F   UNL A   1      36.652  30.173  27.125  1.00  0.00    -0.200 F 
ATOM     80  C   UNL A   1      36.743  29.736  29.444  1.00  0.00     0.200 A 
ATOM     81  F   UNL A   1      36.891  29.297  31.759  1.00  0.00    -0.200 F 
ATOM     82  F   UNL A   1      35.448  30.059  29.572  1.00  0.00    -0.200 F 
ENDBRANCH  48  72
BRANCH  60  83
ATOM     83  C   UNL A   1      45.299  32.813  29.922  1.00  0.00     0.064 A 
ATOM     84  C   UNL A   1      45.383  33.784  28.914  1.00  0.00     0.173 A 
ATOM     85  C   UNL A   1      45.432  33.234  31.254  1.00  0.00     0.173 A 
ATOM     86  F   UNL A   1      45.278  33.429  27.625  1.00  0.00    -0.203 F 
ATOM     87  C   UNL A   1      45.626  35.119  29.225  1.00  0.00     0.198 A 
ATOM     88  C   UNL A   1      45.645  34.575  31.563  1.00  0.00     0.198 A 
ATOM     89  F   UNL A   1      45.351  32.346  32.257  1.00  0.00    -0.203 F 
ATOM     90  F   UNL A   1      45.761  36.021  28.242  1.00  0.00    -0.200 F 
ATOM     91  C   UNL A   1      45.753  35.514  30.549  1.00  0.00     0.200 A 
ATOM     92  F   UNL A   1      45.754  34.957  32.843  1.00  0.00    -0.200 F 
ATOM     93  F   UNL A   1      45.989  36.799  30.846  1.00  0.00    -0.200 F 
ENDBRANCH  60  83
ENDBRANCH  34  35
ENDBRANCH  26  29
ENDBRANCH  24  25
ENDBRANCH  23  24
ENDBRANCH   1  23
TORSDOF 14
ENDMDL
