MODEL 1
REMARK VINA RESULT:     -12.7      0.000      0.000
REMARK SMILES O=C(NCCCCNC(=O)[C@H]1C=C[C@H](N2C(=O)[C@H]3C[C@H]3C2=O)C1)c1ccc(-c2c3nc(c(-c4c(F)c(F)c(F)c(F)c4F)c4ccc([nH]4)c(-c4c(F)c(F)c(F)c(F)c4F)c4nc(c(-c5c(F)c(F)c(F)c(F)c5F)c5ccc2[nH]5)C=C4)C=C3)cc1
REMARK SMILES IDX 5 1 4 2 3 3 1 4 2 5 24 7 25 8 86 9 26 10 85 11 27 12 28 13
REMARK SMILES IDX 29 14 79 15 30 16 84 17 78 18 80 19 31 20 83 21 77 22 76 23
REMARK SMILES IDX 32 25 64 26 44 27 63 28 45 29 48 30 62 31 81 32 46 33 47 34
REMARK SMILES IDX 61 36 82 37 49 38 33 39 34 40 42 41 35 42 36 43 40 44 43 45
REMARK SMILES IDX 37 46 38 47 41 48 39 49 65 50 66 51 74 52 67 53 68 54 72 55
REMARK SMILES IDX 75 56 69 57 70 58 73 59 71 60 50 61 51 62 59 63 52 64 53 65
REMARK SMILES IDX 57 66 60 67 54 68 55 69 58 70 56 71 6 72 7 73 8 74 9 75
REMARK SMILES IDX 10 77 11 78 12 79 23 80 13 81 14 82 15 83 16 84 21 85 17 86
REMARK SMILES IDX 18 87 20 88 22 89 19 90
REMARK H PARENT 3 6 80 24 48 35 8 76
REMARK Flexibility Score: inf
ROOT
ATOM      1  C   UNL A   1      31.604  31.990  26.806  1.00  0.00     0.023 C 
ENDROOT
BRANCH   1   2
ATOM      2  C   UNL A   1      32.738  32.829  27.372  1.00  0.00     0.116 C 
BRANCH   2   3
ATOM      3  N   UNL A   1      32.365  34.207  27.666  1.00  0.00    -0.352 N 
ATOM      4  O   UNL A   1      32.465  36.157  28.823  1.00  0.00    -0.269 OA
ATOM      5  C   UNL A   1      32.931  35.047  28.600  1.00  0.00     0.251 C 
ATOM      6  H   UNL A   1      31.624  34.580  27.137  1.00  0.00     0.163 HD
BRANCH   5   7
ATOM      7  C   UNL A   1      34.098  34.555  29.359  1.00  0.00     0.039 A 
ATOM      8  C   UNL A   1      35.366  34.623  28.782  1.00  0.00     0.014 A 
ATOM      9  C   UNL A   1      33.912  33.933  30.596  1.00  0.00     0.014 A 
ATOM     10  C   UNL A   1      36.406  33.904  29.343  1.00  0.00     0.010 A 
ATOM     11  C   UNL A   1      34.998  33.318  31.226  1.00  0.00     0.010 A 
ATOM     12  C   UNL A   1      36.247  33.267  30.586  1.00  0.00    -0.014 A 
BRANCH  12  13
ATOM     13  C   UNL A   1      37.440  32.636  31.207  1.00  0.00     0.031 A 
ATOM     14  C   UNL A   1      37.915  33.012  32.582  1.00  0.00     0.074 A 
ATOM     15  C   UNL A   1      38.052  31.649  30.522  1.00  0.00     0.049 A 
ATOM     16  N   UNL A   1      38.901  32.500  33.278  1.00  0.00    -0.248 NA
ATOM     17  C   UNL A   1      37.206  34.104  33.265  1.00  0.00     0.031 C 
ATOM     18  C   UNL A   1      37.688  31.219  29.169  1.00  0.00     0.029 A 
ATOM     19  N   UNL A   1      39.076  30.809  30.871  1.00  0.00    -0.354 N 
ATOM     20  C   UNL A   1      38.935  33.207  34.472  1.00  0.00     0.074 A 
ATOM     21  C   UNL A   1      37.896  34.212  34.394  1.00  0.00     0.031 C 
ATOM     22  C   UNL A   1      38.425  30.153  28.831  1.00  0.00     0.029 A 
ATOM     23  C   UNL A   1      39.372  29.881  29.903  1.00  0.00     0.049 A 
ATOM     24  H   UNL A   1      39.552  30.864  31.732  1.00  0.00     0.167 HD
ATOM     25  C   UNL A   1      39.752  33.023  35.538  1.00  0.00     0.037 A 
ATOM     26  C   UNL A   1      40.322  28.930  29.865  1.00  0.00     0.037 A 
ATOM     27  C   UNL A   1      40.787  32.019  35.603  1.00  0.00     0.049 A 
ATOM     28  C   UNL A   1      41.227  28.770  31.051  1.00  0.00     0.074 A 
ATOM     29  C   UNL A   1      41.666  31.749  36.638  1.00  0.00     0.029 A 
ATOM     30  N   UNL A   1      41.083  31.119  34.588  1.00  0.00    -0.354 N 
ATOM     31  N   UNL A   1      41.233  29.432  32.182  1.00  0.00    -0.248 NA
ATOM     32  C   UNL A   1      42.258  27.732  30.954  1.00  0.00     0.031 C 
ATOM     33  C   UNL A   1      42.524  30.720  36.232  1.00  0.00     0.029 A 
ATOM     34  C   UNL A   1      42.143  30.305  34.967  1.00  0.00     0.049 A 
ATOM     35  H   UNL A   1      40.611  31.064  33.726  1.00  0.00     0.167 HD
ATOM     36  C   UNL A   1      42.258  28.884  32.937  1.00  0.00     0.074 A 
ATOM     37  C   UNL A   1      42.825  27.809  32.148  1.00  0.00     0.031 C 
ATOM     38  C   UNL A   1      42.699  29.244  34.167  1.00  0.00     0.037 A 
BRANCH  25  39
ATOM     39  C   UNL A   1      39.575  33.928  36.726  1.00  0.00     0.064 A 
ATOM     40  C   UNL A   1      38.808  33.543  37.836  1.00  0.00     0.173 A 
ATOM     41  C   UNL A   1      40.233  35.166  36.786  1.00  0.00     0.173 A 
ATOM     42  F   UNL A   1      38.150  32.373  37.828  1.00  0.00    -0.203 F 
ATOM     43  C   UNL A   1      38.691  34.369  38.951  1.00  0.00     0.198 A 
ATOM     44  C   UNL A   1      40.139  35.978  37.915  1.00  0.00     0.198 A 
ATOM     45  F   UNL A   1      40.987  35.583  35.758  1.00  0.00    -0.203 F 
ATOM     46  F   UNL A   1      37.922  33.996  39.983  1.00  0.00    -0.200 F 
ATOM     47  C   UNL A   1      39.364  35.581  38.994  1.00  0.00     0.200 A 
ATOM     48  F   UNL A   1      40.803  37.141  37.961  1.00  0.00    -0.200 F 
ATOM     49  F   UNL A   1      39.263  36.368  40.074  1.00  0.00    -0.200 F 
ENDBRANCH  25  39
BRANCH  26  50
ATOM     50  C   UNL A   1      40.475  28.086  28.651  1.00  0.00     0.064 A 
ATOM     51  C   UNL A   1      39.845  26.839  28.544  1.00  0.00     0.173 A 
ATOM     52  C   UNL A   1      41.264  28.513  27.571  1.00  0.00     0.173 A 
ATOM     53  F   UNL A   1      39.093  26.380  29.554  1.00  0.00    -0.203 F 
ATOM     54  C   UNL A   1      40.022  26.041  27.416  1.00  0.00     0.198 A 
ATOM     55  C   UNL A   1      41.406  27.733  26.428  1.00  0.00     0.198 A 
ATOM     56  F   UNL A   1      41.880  29.704  27.618  1.00  0.00    -0.203 F 
ATOM     57  F   UNL A   1      39.456  24.827  27.364  1.00  0.00    -0.200 F 
ATOM     58  C   UNL A   1      40.796  26.490  26.357  1.00  0.00     0.200 A 
ATOM     59  F   UNL A   1      42.133  28.184  25.397  1.00  0.00    -0.200 F 
ATOM     60  F   UNL A   1      40.960  25.724  25.271  1.00  0.00    -0.200 F 
ENDBRANCH  26  50
BRANCH  38  61
ATOM     61  C   UNL A   1      43.837  28.445  34.736  1.00  0.00     0.064 A 
ATOM     62  C   UNL A   1      45.173  28.827  34.546  1.00  0.00     0.173 A 
ATOM     63  C   UNL A   1      43.586  27.278  35.473  1.00  0.00     0.173 A 
ATOM     64  F   UNL A   1      45.468  29.925  33.834  1.00  0.00    -0.203 F 
ATOM     65  C   UNL A   1      46.218  28.046  35.034  1.00  0.00     0.198 A 
ATOM     66  C   UNL A   1      44.631  26.519  35.991  1.00  0.00     0.198 A 
ATOM     67  F   UNL A   1      42.326  26.870  35.689  1.00  0.00    -0.203 F 
ATOM     68  F   UNL A   1      47.486  28.391  34.777  1.00  0.00    -0.200 F 
ATOM     69  C   UNL A   1      45.946  26.896  35.759  1.00  0.00     0.200 A 
ATOM     70  F   UNL A   1      44.367  25.416  36.704  1.00  0.00    -0.200 F 
ATOM     71  F   UNL A   1      46.952  26.143  36.225  1.00  0.00    -0.200 F 
ENDBRANCH  38  61
ENDBRANCH  12  13
ENDBRANCH   5   7
ENDBRANCH   2   3
ENDBRANCH   1   2
BRANCH   1  72
ATOM     72  C   UNL A   1      31.843  30.483  26.859  1.00  0.00     0.023 C 
BRANCH  72  73
ATOM     73  C   UNL A   1      32.524  29.917  25.608  1.00  0.00     0.116 C 
BRANCH  73  74
ATOM     74  N   UNL A   1      31.626  29.925  24.468  1.00  0.00    -0.356 N 
ATOM     75  C   UNL A   1      31.347  28.982  23.524  1.00  0.00     0.227 C 
ATOM     76  H   UNL A   1      31.127  30.767  24.355  1.00  0.00     0.163 HD
ATOM     77  O   UNL A   1      30.581  29.322  22.617  1.00  0.00    -0.274 OA
BRANCH  75  78
ATOM     78  C   UNL A   1      31.853  27.532  23.598  1.00  0.00     0.103 C 
ATOM     79  C   UNL A   1      31.051  26.521  22.842  1.00  0.00    -0.016 C 
ATOM     80  C   UNL A   1      33.257  27.405  22.969  1.00  0.00     0.047 C 
ATOM     81  C   UNL A   1      31.816  25.807  22.011  1.00  0.00    -0.005 C 
ATOM     82  C   UNL A   1      33.287  26.054  22.233  1.00  0.00     0.117 C 
BRANCH  82  83
ATOM     83  N   UNL A   1      33.739  24.871  22.945  1.00  0.00    -0.275 N 
ATOM     84  C   UNL A   1      33.610  23.635  22.352  1.00  0.00     0.233 C 
ATOM     85  C   UNL A   1      34.046  24.778  24.273  1.00  0.00     0.233 C 
ATOM     86  O   UNL A   1      33.411  23.370  21.182  1.00  0.00    -0.274 OA
ATOM     87  C   UNL A   1      33.619  22.599  23.413  1.00  0.00     0.092 C 
ATOM     88  C   UNL A   1      33.941  23.356  24.694  1.00  0.00     0.092 C 
ATOM     89  O   UNL A   1      34.322  25.659  25.072  1.00  0.00    -0.274 OA
ATOM     90  C   UNL A   1      34.841  22.255  24.206  1.00  0.00     0.028 C 
ENDBRANCH  82  83
ENDBRANCH  75  78
ENDBRANCH  73  74
ENDBRANCH  72  73
ENDBRANCH   1  72
TORSDOF 12
ENDMDL
MODEL 2
REMARK VINA RESULT:     -12.7      1.156      2.113
REMARK SMILES O=C(NCCCCNC(=O)[C@H]1C=C[C@H](N2C(=O)[C@H]3C[C@H]3C2=O)C1)c1ccc(-c2c3nc(c(-c4c(F)c(F)c(F)c(F)c4F)c4ccc([nH]4)c(-c4c(F)c(F)c(F)c(F)c4F)c4nc(c(-c5c(F)c(F)c(F)c(F)c5F)c5ccc2[nH]5)C=C4)C=C3)cc1
REMARK SMILES IDX 5 1 4 2 3 3 1 4 2 5 24 7 25 8 86 9 26 10 85 11 27 12 28 13
REMARK SMILES IDX 29 14 79 15 30 16 84 17 78 18 80 19 31 20 83 21 77 22 76 23
REMARK SMILES IDX 32 25 64 26 44 27 63 28 45 29 48 30 62 31 81 32 46 33 47 34
REMARK SMILES IDX 61 36 82 37 49 38 33 39 34 40 42 41 35 42 36 43 40 44 43 45
REMARK SMILES IDX 37 46 38 47 41 48 39 49 65 50 66 51 74 52 67 53 68 54 72 55
REMARK SMILES IDX 75 56 69 57 70 58 73 59 71 60 50 61 51 62 59 63 52 64 53 65
REMARK SMILES IDX 57 66 60 67 54 68 55 69 58 70 56 71 6 72 7 73 8 74 9 75
REMARK SMILES IDX 10 77 11 78 12 79 23 80 13 81 14 82 15 83 16 84 21 85 17 86
REMARK SMILES IDX 18 87 20 88 22 89 19 90
REMARK H PARENT 3 6 80 24 48 35 8 76
REMARK Flexibility Score: inf
ROOT
ATOM      1  C   UNL A   1      31.612  31.926  26.856  1.00  0.00     0.023 C 
ENDROOT
BRANCH   1   2
ATOM      2  C   UNL A   1      32.761  32.787  27.353  1.00  0.00     0.116 C 
BRANCH   2   3
ATOM      3  N   UNL A   1      32.387  34.166  27.642  1.00  0.00    -0.352 N 
ATOM      4  O   UNL A   1      32.480  36.119  28.795  1.00  0.00    -0.269 OA
ATOM      5  C   UNL A   1      32.947  35.008  28.578  1.00  0.00     0.251 C 
ATOM      6  H   UNL A   1      31.650  34.538  27.107  1.00  0.00     0.163 HD
BRANCH   5   7
ATOM      7  C   UNL A   1      34.109  34.517  29.346  1.00  0.00     0.039 A 
ATOM      8  C   UNL A   1      35.385  34.616  28.792  1.00  0.00     0.014 A 
ATOM      9  C   UNL A   1      33.912  33.865  30.566  1.00  0.00     0.014 A 
ATOM     10  C   UNL A   1      36.426  33.901  29.356  1.00  0.00     0.010 A 
ATOM     11  C   UNL A   1      34.996  33.253  31.201  1.00  0.00     0.010 A 
ATOM     12  C   UNL A   1      36.256  33.235  30.582  1.00  0.00    -0.014 A 
BRANCH  12  13
ATOM     13  C   UNL A   1      37.448  32.609  31.209  1.00  0.00     0.031 A 
ATOM     14  C   UNL A   1      37.912  32.984  32.588  1.00  0.00     0.074 A 
ATOM     15  C   UNL A   1      38.070  31.626  30.526  1.00  0.00     0.049 A 
ATOM     16  N   UNL A   1      38.896  32.475  33.289  1.00  0.00    -0.248 NA
ATOM     17  C   UNL A   1      37.194  34.071  33.269  1.00  0.00     0.031 C 
ATOM     18  C   UNL A   1      37.717  31.197  29.169  1.00  0.00     0.029 A 
ATOM     19  N   UNL A   1      39.095  30.790  30.881  1.00  0.00    -0.354 N 
ATOM     20  C   UNL A   1      38.919  33.180  34.485  1.00  0.00     0.074 A 
ATOM     21  C   UNL A   1      37.875  34.180  34.402  1.00  0.00     0.031 C 
ATOM     22  C   UNL A   1      38.461  30.136  28.834  1.00  0.00     0.029 A 
ATOM     23  C   UNL A   1      39.403  29.866  29.912  1.00  0.00     0.049 A 
ATOM     24  H   UNL A   1      39.565  30.846  31.744  1.00  0.00     0.167 HD
ATOM     25  C   UNL A   1      39.730  32.998  35.556  1.00  0.00     0.037 A 
ATOM     26  C   UNL A   1      40.357  28.920  29.878  1.00  0.00     0.037 A 
ATOM     27  C   UNL A   1      40.769  31.999  35.625  1.00  0.00     0.049 A 
ATOM     28  C   UNL A   1      41.256  28.762  31.070  1.00  0.00     0.074 A 
ATOM     29  C   UNL A   1      41.643  31.731  36.666  1.00  0.00     0.029 A 
ATOM     30  N   UNL A   1      41.077  31.102  34.611  1.00  0.00    -0.354 N 
ATOM     31  N   UNL A   1      41.250  29.421  32.202  1.00  0.00    -0.248 NA
ATOM     32  C   UNL A   1      42.292  27.729  30.978  1.00  0.00     0.031 C 
ATOM     33  C   UNL A   1      42.509  30.708  36.263  1.00  0.00     0.029 A 
ATOM     34  C   UNL A   1      42.138  30.293  34.995  1.00  0.00     0.049 A 
ATOM     35  H   UNL A   1      40.610  31.047  33.746  1.00  0.00     0.167 HD
ATOM     36  C   UNL A   1      42.274  28.877  32.963  1.00  0.00     0.074 A 
ATOM     37  C   UNL A   1      42.851  27.806  32.176  1.00  0.00     0.031 C 
ATOM     38  C   UNL A   1      42.705  29.237  34.197  1.00  0.00     0.037 A 
BRANCH  25  39
ATOM     39  C   UNL A   1      39.540  33.899  36.745  1.00  0.00     0.064 A 
ATOM     40  C   UNL A   1      38.774  33.505  37.852  1.00  0.00     0.173 A 
ATOM     41  C   UNL A   1      40.186  35.144  36.808  1.00  0.00     0.173 A 
ATOM     42  F   UNL A   1      38.127  32.330  37.840  1.00  0.00    -0.203 F 
ATOM     43  C   UNL A   1      38.645  34.329  38.968  1.00  0.00     0.198 A 
ATOM     44  C   UNL A   1      40.082  35.953  37.938  1.00  0.00     0.198 A 
ATOM     45  F   UNL A   1      40.940  35.569  35.783  1.00  0.00    -0.203 F 
ATOM     46  F   UNL A   1      37.877  33.947  39.997  1.00  0.00    -0.200 F 
ATOM     47  C   UNL A   1      39.307  35.547  39.014  1.00  0.00     0.200 A 
ATOM     48  F   UNL A   1      40.734  37.122  37.988  1.00  0.00    -0.200 F 
ATOM     49  F   UNL A   1      39.195  36.332  40.095  1.00  0.00    -0.200 F 
ENDBRANCH  25  39
BRANCH  26  50
ATOM     50  C   UNL A   1      40.523  28.079  28.664  1.00  0.00     0.064 A 
ATOM     51  C   UNL A   1      41.312  28.502  27.585  1.00  0.00     0.173 A 
ATOM     52  C   UNL A   1      39.886  26.833  28.557  1.00  0.00     0.173 A 
ATOM     53  F   UNL A   1      41.929  29.691  27.632  1.00  0.00    -0.203 F 
ATOM     54  C   UNL A   1      41.434  27.722  26.438  1.00  0.00     0.198 A 
ATOM     55  C   UNL A   1      40.043  26.037  27.427  1.00  0.00     0.198 A 
ATOM     56  F   UNL A   1      39.128  26.377  29.565  1.00  0.00    -0.203 F 
ATOM     57  F   UNL A   1      42.147  28.176  25.397  1.00  0.00    -0.200 F 
ATOM     58  C   UNL A   1      40.806  26.488  26.361  1.00  0.00     0.200 A 
ATOM     59  F   UNL A   1      39.455  24.834  27.370  1.00  0.00    -0.200 F 
ATOM     60  F   UNL A   1      40.930  25.737  25.259  1.00  0.00    -0.200 F 
ENDBRANCH  26  50
BRANCH  38  61
ATOM     61  C   UNL A   1      43.842  28.442  34.771  1.00  0.00     0.064 A 
ATOM     62  C   UNL A   1      43.622  27.274  35.517  1.00  0.00     0.173 A 
ATOM     63  C   UNL A   1      45.168  28.860  34.582  1.00  0.00     0.173 A 
ATOM     64  F   UNL A   1      42.373  26.841  35.743  1.00  0.00    -0.203 F 
ATOM     65  C   UNL A   1      44.685  26.579  36.089  1.00  0.00     0.198 A 
ATOM     66  C   UNL A   1      46.230  28.142  35.123  1.00  0.00     0.198 A 
ATOM     67  F   UNL A   1      45.435  29.968  33.872  1.00  0.00    -0.203 F 
ATOM     68  F   UNL A   1      44.446  25.508  36.858  1.00  0.00    -0.200 F 
ATOM     69  C   UNL A   1      45.987  27.011  35.888  1.00  0.00     0.200 A 
ATOM     70  F   UNL A   1      47.489  28.552  34.917  1.00  0.00    -0.200 F 
ATOM     71  F   UNL A   1      47.009  26.343  36.442  1.00  0.00    -0.200 F 
ENDBRANCH  38  61
ENDBRANCH  12  13
ENDBRANCH   5   7
ENDBRANCH   2   3
ENDBRANCH   1   2
BRANCH   1  72
ATOM     72  C   UNL A   1      31.888  30.425  26.880  1.00  0.00     0.023 C 
BRANCH  72  73
ATOM     73  C   UNL A   1      33.334  30.054  26.534  1.00  0.00     0.116 C 
BRANCH  73  74
ATOM     74  N   UNL A   1      33.474  29.723  25.128  1.00  0.00    -0.356 N 
ATOM     75  C   UNL A   1      33.646  28.531  24.488  1.00  0.00     0.227 C 
ATOM     76  H   UNL A   1      33.440  30.501  24.526  1.00  0.00     0.163 HD
ATOM     77  O   UNL A   1      33.814  28.584  23.266  1.00  0.00    -0.274 OA
BRANCH  75  78
ATOM     78  C   UNL A   1      33.541  27.168  25.190  1.00  0.00     0.103 C 
ATOM     79  C   UNL A   1      32.246  26.887  25.885  1.00  0.00    -0.016 C 
ATOM     80  C   UNL A   1      33.648  26.013  24.172  1.00  0.00     0.047 C 
ATOM     81  C   UNL A   1      31.717  25.726  25.489  1.00  0.00    -0.005 C 
ATOM     82  C   UNL A   1      32.671  24.922  24.641  1.00  0.00     0.117 C 
BRANCH  82  83
ATOM     83  N   UNL A   1      33.147  23.883  25.539  1.00  0.00    -0.275 N 
ATOM     84  C   UNL A   1      32.238  23.059  26.162  1.00  0.00     0.233 C 
ATOM     85  C   UNL A   1      34.399  23.771  26.073  1.00  0.00     0.233 C 
ATOM     86  O   UNL A   1      31.068  22.870  25.886  1.00  0.00    -0.274 OA
ATOM     87  C   UNL A   1      32.873  22.485  27.372  1.00  0.00     0.092 C 
ATOM     88  C   UNL A   1      34.326  22.933  27.300  1.00  0.00     0.092 C 
ATOM     89  O   UNL A   1      35.450  24.274  25.709  1.00  0.00    -0.274 OA
ATOM     90  C   UNL A   1      33.973  21.472  27.313  1.00  0.00     0.028 C 
ENDBRANCH  82  83
ENDBRANCH  75  78
ENDBRANCH  73  74
ENDBRANCH  72  73
ENDBRANCH   1  72
TORSDOF 12
ENDMDL
MODEL 3
REMARK VINA RESULT:     -12.7      2.188      8.135
REMARK SMILES O=C(NCCCCNC(=O)[C@H]1C=C[C@H](N2C(=O)[C@H]3C[C@H]3C2=O)C1)c1ccc(-c2c3nc(c(-c4c(F)c(F)c(F)c(F)c4F)c4ccc([nH]4)c(-c4c(F)c(F)c(F)c(F)c4F)c4nc(c(-c5c(F)c(F)c(F)c(F)c5F)c5ccc2[nH]5)C=C4)C=C3)cc1
REMARK SMILES IDX 5 1 4 2 3 3 1 4 2 5 24 7 25 8 86 9 26 10 85 11 27 12 28 13
REMARK SMILES IDX 29 14 79 15 30 16 84 17 78 18 80 19 31 20 83 21 77 22 76 23
REMARK SMILES IDX 32 25 64 26 44 27 63 28 45 29 48 30 62 31 81 32 46 33 47 34
REMARK SMILES IDX 61 36 82 37 49 38 33 39 34 40 42 41 35 42 36 43 40 44 43 45
REMARK SMILES IDX 37 46 38 47 41 48 39 49 65 50 66 51 74 52 67 53 68 54 72 55
REMARK SMILES IDX 75 56 69 57 70 58 73 59 71 60 50 61 51 62 59 63 52 64 53 65
REMARK SMILES IDX 57 66 60 67 54 68 55 69 58 70 56 71 6 72 7 73 8 74 9 75
REMARK SMILES IDX 10 77 11 78 12 79 23 80 13 81 14 82 15 83 16 84 21 85 17 86
REMARK SMILES IDX 18 87 20 88 22 89 19 90
REMARK H PARENT 3 6 80 24 48 35 8 76
REMARK Flexibility Score: inf
ROOT
ATOM      1  C   UNL A   1      33.276  34.625  28.767  1.00  0.00     0.023 C 
ENDROOT
BRANCH   1   2
ATOM      2  C   UNL A   1      33.615  35.848  29.603  1.00  0.00     0.116 C 
BRANCH   2   3
ATOM      3  N   UNL A   1      32.582  36.214  30.565  1.00  0.00    -0.352 N 
ATOM      4  O   UNL A   1      31.552  36.168  32.587  1.00  0.00    -0.269 OA
ATOM      5  C   UNL A   1      32.524  35.881  31.901  1.00  0.00     0.251 C 
ATOM      6  H   UNL A   1      31.841  36.763  30.220  1.00  0.00     0.163 HD
BRANCH   5   7
ATOM      7  C   UNL A   1      33.656  35.129  32.477  1.00  0.00     0.039 A 
ATOM      8  C   UNL A   1      34.916  35.724  32.529  1.00  0.00     0.014 A 
ATOM      9  C   UNL A   1      33.481  33.799  32.867  1.00  0.00     0.014 A 
ATOM     10  C   UNL A   1      36.027  34.939  32.782  1.00  0.00     0.010 A 
ATOM     11  C   UNL A   1      34.593  33.043  33.249  1.00  0.00     0.010 A 
ATOM     12  C   UNL A   1      35.881  33.597  33.174  1.00  0.00    -0.014 A 
BRANCH  12  13
ATOM     13  C   UNL A   1      37.100  32.849  33.575  1.00  0.00     0.031 A 
ATOM     14  C   UNL A   1      37.765  31.860  32.660  1.00  0.00     0.074 A 
ATOM     15  C   UNL A   1      37.645  33.140  34.773  1.00  0.00     0.049 A 
ATOM     16  N   UNL A   1      38.870  31.182  32.849  1.00  0.00    -0.248 NA
ATOM     17  C   UNL A   1      37.108  31.584  31.373  1.00  0.00     0.031 C 
ATOM     18  C   UNL A   1      37.071  34.068  35.752  1.00  0.00     0.029 A 
ATOM     19  N   UNL A   1      38.811  32.722  35.360  1.00  0.00    -0.354 N 
ATOM     20  C   UNL A   1      39.039  30.398  31.714  1.00  0.00     0.074 A 
ATOM     21  C   UNL A   1      37.902  30.655  30.856  1.00  0.00     0.031 C 
ATOM     22  C   UNL A   1      37.916  34.204  36.781  1.00  0.00     0.029 A 
ATOM     23  C   UNL A   1      39.046  33.307  36.580  1.00  0.00     0.049 A 
ATOM     24  H   UNL A   1      39.420  32.067  34.947  1.00  0.00     0.167 HD
ATOM     25  C   UNL A   1      40.057  29.555  31.416  1.00  0.00     0.037 A 
ATOM     26  C   UNL A   1      40.047  33.125  37.459  1.00  0.00     0.037 A 
ATOM     27  C   UNL A   1      41.185  29.306  32.282  1.00  0.00     0.049 A 
ATOM     28  C   UNL A   1      41.144  32.164  37.109  1.00  0.00     0.074 A 
ATOM     29  C   UNL A   1      42.270  28.472  32.070  1.00  0.00     0.029 A 
ATOM     30  N   UNL A   1      41.372  29.890  33.527  1.00  0.00    -0.354 N 
ATOM     31  N   UNL A   1      41.301  31.447  36.023  1.00  0.00    -0.248 NA
ATOM     32  C   UNL A   1      42.204  31.986  38.107  1.00  0.00     0.031 C 
ATOM     33  C   UNL A   1      43.087  28.514  33.206  1.00  0.00     0.029 A 
ATOM     34  C   UNL A   1      42.546  29.421  34.101  1.00  0.00     0.049 A 
ATOM     35  H   UNL A   1      40.763  30.542  33.942  1.00  0.00     0.167 HD
ATOM     36  C   UNL A   1      42.481  30.742  36.201  1.00  0.00     0.074 A 
ATOM     37  C   UNL A   1      43.018  31.149  37.483  1.00  0.00     0.031 C 
ATOM     38  C   UNL A   1      43.063  29.831  35.382  1.00  0.00     0.037 A 
BRANCH  25  39
ATOM     39  C   UNL A   1      40.004  28.825  30.102  1.00  0.00     0.064 A 
ATOM     40  C   UNL A   1      40.604  29.347  28.945  1.00  0.00     0.173 A 
ATOM     41  C   UNL A   1      39.407  27.558  30.012  1.00  0.00     0.173 A 
ATOM     42  F   UNL A   1      41.180  30.559  28.973  1.00  0.00    -0.203 F 
ATOM     43  C   UNL A   1      40.590  28.639  27.746  1.00  0.00     0.198 A 
ATOM     44  C   UNL A   1      39.422  26.838  28.818  1.00  0.00     0.198 A 
ATOM     45  F   UNL A   1      38.826  27.004  31.087  1.00  0.00    -0.203 F 
ATOM     46  F   UNL A   1      41.136  29.176  26.646  1.00  0.00    -0.200 F 
ATOM     47  C   UNL A   1      40.009  27.382  27.686  1.00  0.00     0.200 A 
ATOM     48  F   UNL A   1      38.874  25.616  28.766  1.00  0.00    -0.200 F 
ATOM     49  F   UNL A   1      40.010  26.695  26.535  1.00  0.00    -0.200 F 
ENDBRANCH  25  39
BRANCH  26  50
ATOM     50  C   UNL A   1      40.031  33.847  38.758  1.00  0.00     0.064 A 
ATOM     51  C   UNL A   1      40.741  35.041  38.939  1.00  0.00     0.173 A 
ATOM     52  C   UNL A   1      39.304  33.349  39.850  1.00  0.00     0.173 A 
ATOM     53  F   UNL A   1      41.463  35.551  37.930  1.00  0.00    -0.203 F 
ATOM     54  C   UNL A   1      40.747  35.692  40.169  1.00  0.00     0.198 A 
ATOM     55  C   UNL A   1      39.277  34.022  41.067  1.00  0.00     0.198 A 
ATOM     56  F   UNL A   1      38.598  32.215  39.728  1.00  0.00    -0.203 F 
ATOM     57  F   UNL A   1      41.482  36.801  40.333  1.00  0.00    -0.200 F 
ATOM     58  C   UNL A   1      40.010  35.187  41.231  1.00  0.00     0.200 A 
ATOM     59  F   UNL A   1      38.543  33.544  42.080  1.00  0.00    -0.200 F 
ATOM     60  F   UNL A   1      40.013  35.818  42.413  1.00  0.00    -0.200 F 
ENDBRANCH  26  50
BRANCH  38  61
ATOM     61  C   UNL A   1      44.360  29.236  35.850  1.00  0.00     0.064 A 
ATOM     62  C   UNL A   1      45.596  29.815  35.523  1.00  0.00     0.173 A 
ATOM     63  C   UNL A   1      44.368  28.068  36.626  1.00  0.00     0.173 A 
ATOM     64  F   UNL A   1      45.645  30.922  34.768  1.00  0.00    -0.203 F 
ATOM     65  C   UNL A   1      46.792  29.221  35.919  1.00  0.00     0.198 A 
ATOM     66  C   UNL A   1      45.564  27.498  37.052  1.00  0.00     0.198 A 
ATOM     67  F   UNL A   1      43.214  27.476  36.972  1.00  0.00    -0.203 F 
ATOM     68  F   UNL A   1      47.960  29.751  35.532  1.00  0.00    -0.200 F 
ATOM     69  C   UNL A   1      46.774  28.066  36.686  1.00  0.00     0.200 A 
ATOM     70  F   UNL A   1      45.545  26.390  37.805  1.00  0.00    -0.200 F 
ATOM     71  F   UNL A   1      47.926  27.494  37.063  1.00  0.00    -0.200 F 
ENDBRANCH  38  61
ENDBRANCH  12  13
ENDBRANCH   5   7
ENDBRANCH   2   3
ENDBRANCH   1   2
BRANCH   1  72
ATOM     72  C   UNL A   1      34.211  33.437  28.975  1.00  0.00     0.023 C 
BRANCH  72  73
ATOM     73  C   UNL A   1      33.972  32.281  27.998  1.00  0.00     0.116 C 
BRANCH  73  74
ATOM     74  N   UNL A   1      34.918  31.202  28.213  1.00  0.00    -0.356 N 
ATOM     75  C   UNL A   1      34.928  29.904  27.795  1.00  0.00     0.227 C 
ATOM     76  H   UNL A   1      35.696  31.453  28.762  1.00  0.00     0.163 HD
ATOM     77  O   UNL A   1      35.850  29.198  28.215  1.00  0.00    -0.274 OA
BRANCH  75  78
ATOM     78  C   UNL A   1      33.927  29.333  26.777  1.00  0.00     0.103 C 
ATOM     79  C   UNL A   1      34.344  28.074  26.086  1.00  0.00    -0.016 C 
ATOM     80  C   UNL A   1      32.607  28.931  27.468  1.00  0.00     0.047 C 
ATOM     81  C   UNL A   1      33.416  27.120  26.197  1.00  0.00    -0.005 C 
ATOM     82  C   UNL A   1      32.125  27.643  26.778  1.00  0.00     0.117 C 
BRANCH  82  83
ATOM     83  N   UNL A   1      31.239  27.744  25.630  1.00  0.00    -0.275 N 
ATOM     84  C   UNL A   1      30.653  26.604  25.128  1.00  0.00     0.233 C 
ATOM     85  C   UNL A   1      31.105  28.810  24.788  1.00  0.00     0.233 C 
ATOM     86  O   UNL A   1      30.536  25.514  25.653  1.00  0.00    -0.274 OA
ATOM     87  C   UNL A   1      30.265  26.856  23.719  1.00  0.00     0.092 C 
ATOM     88  C   UNL A   1      30.537  28.337  23.498  1.00  0.00     0.092 C 
ATOM     89  O   UNL A   1      31.415  29.979  24.955  1.00  0.00    -0.274 OA
ATOM     90  C   UNL A   1      29.152  27.778  23.332  1.00  0.00     0.028 C 
ENDBRANCH  82  83
ENDBRANCH  75  78
ENDBRANCH  73  74
ENDBRANCH  72  73
ENDBRANCH   1  72
TORSDOF 12
ENDMDL
