MODEL 1
REMARK VINA RESULT:     -12.3      0.000      0.000
REMARK SMILES CCN(C(=O)N1[C@@H](C(=O)NCCCCNC(=O)c2ccc(-c3c4nc(c(-c5c(F)c(F)c(F)c(F)c5F)c5ccc([nH]5)c(-c5c(F)c(F)c(F)c(F)c5F)c5nc(c(-c6c(F)c(F)c(F)c(F)c6F)c6ccc3[nH]6)C=C5)C=C4)cc2)CC[C@H]2CCCC[C@@H]21)C(C)C
REMARK SMILES IDX 12 1 11 2 10 3 8 4 9 5 7 7 6 8 88 9 81 10 83 11 87 12 82 13
REMARK SMILES IDX 84 14 86 15 85 16 4 17 5 18 3 19 2 20 1 21 89 22 90 23 91 24
REMARK SMILES IDX 13 25 14 26 15 27 16 28 17 30 18 31 19 32 80 33 20 34 79 35
REMARK SMILES IDX 21 36 22 37 23 38 73 39 24 40 78 41 72 42 74 43 25 44 77 45
REMARK SMILES IDX 71 46 70 47 26 49 58 50 38 51 57 52 39 53 42 54 56 55 75 56
REMARK SMILES IDX 40 57 41 58 55 60 76 61 43 62 27 63 28 64 36 65 29 66 30 67
REMARK SMILES IDX 34 68 37 69 31 70 32 71 35 72 33 73 59 74 60 75 68 76 61 77
REMARK SMILES IDX 62 78 66 79 69 80 63 81 64 82 67 83 65 84 44 85 45 86 53 87
REMARK SMILES IDX 46 88 47 89 51 90 54 91 48 92 49 93 52 94 50 95
REMARK H PARENT 10 6 15 29 74 48 42 59
REMARK Flexibility Score: inf
ROOT
ATOM      1  C   UNL A   1      32.022  30.051  26.892  1.00  0.00     0.023 C 
ENDROOT
BRANCH   1   2
ATOM      2  C   UNL A   1      31.932  29.317  25.565  1.00  0.00     0.116 C 
BRANCH   2   3
ATOM      3  N   UNL A   1      32.918  29.619  24.571  1.00  0.00    -0.354 N 
ATOM      4  C   UNL A   1      33.458  28.740  23.672  1.00  0.00     0.242 C 
ATOM      5  O   UNL A   1      34.209  29.239  22.820  1.00  0.00    -0.273 OA
ATOM      6  H   UNL A   1      33.238  30.549  24.531  1.00  0.00     0.163 HD
BRANCH   4   7
ATOM      7  C   UNL A   1      33.416  27.174  23.829  1.00  0.00     0.176 C 
ATOM      8  N   UNL A   1      32.258  26.286  23.574  1.00  0.00    -0.309 N 
ATOM      9  C   UNL A   1      32.562  24.848  23.612  1.00  0.00     0.091 C 
ATOM     10  C   UNL A   1      33.862  26.908  25.301  1.00  0.00     0.036 C 
ATOM     11  C   UNL A   1      33.677  24.507  24.612  1.00  0.00     0.012 C 
ATOM     12  C   UNL A   1      32.894  24.166  22.279  1.00  0.00     0.025 C 
ATOM     13  C   UNL A   1      33.615  25.468  25.793  1.00  0.00     0.008 C 
ATOM     14  C   UNL A   1      33.540  23.026  24.966  1.00  0.00     0.006 C 
ATOM     15  C   UNL A   1      32.830  22.645  22.507  1.00  0.00     0.002 C 
ATOM     16  C   UNL A   1      33.681  22.167  23.696  1.00  0.00     0.000 C 
BRANCH   8  17
ATOM     17  C   UNL A   1      31.207  26.688  22.782  1.00  0.00     0.321 C 
ATOM     18  O   UNL A   1      31.387  26.953  21.594  1.00  0.00    -0.248 OA
BRANCH  17  19
ATOM     19  N   UNL A   1      29.978  26.921  23.449  1.00  0.00    -0.322 N 
BRANCH  19  20
ATOM     20  C   UNL A   1      29.435  26.101  24.562  1.00  0.00     0.118 C 
ATOM     21  C   UNL A   1      30.106  26.177  25.931  1.00  0.00     0.027 C 
ENDBRANCH  19  20
BRANCH  19  22
ATOM     22  C   UNL A   1      29.163  28.035  22.914  1.00  0.00     0.080 C 
ATOM     23  C   UNL A   1      27.720  27.991  23.403  1.00  0.00     0.031 C 
ATOM     24  C   UNL A   1      29.738  29.429  23.149  1.00  0.00     0.031 C 
ENDBRANCH  19  22
ENDBRANCH  17  19
ENDBRANCH   8  17
ENDBRANCH   4   7
ENDBRANCH   2   3
ENDBRANCH   1   2
BRANCH   1  25
ATOM     25  C   UNL A   1      31.833  31.570  26.866  1.00  0.00     0.023 C 
BRANCH  25  26
ATOM     26  C   UNL A   1      33.017  32.446  27.269  1.00  0.00     0.116 C 
BRANCH  26  27
ATOM     27  N   UNL A   1      32.653  33.816  27.610  1.00  0.00    -0.352 N 
ATOM     28  C   UNL A   1      33.122  34.687  28.564  1.00  0.00     0.251 C 
ATOM     29  H   UNL A   1      31.935  34.188  27.050  1.00  0.00     0.163 HD
ATOM     30  O   UNL A   1      32.595  35.772  28.759  1.00  0.00    -0.269 OA
BRANCH  28  31
ATOM     31  C   UNL A   1      34.275  34.308  29.382  1.00  0.00     0.039 A 
ATOM     32  C   UNL A   1      34.067  33.676  30.610  1.00  0.00     0.014 A 
ATOM     33  C   UNL A   1      35.559  34.578  28.916  1.00  0.00     0.014 A 
ATOM     34  C   UNL A   1      35.166  33.210  31.324  1.00  0.00     0.010 A 
ATOM     35  C   UNL A   1      36.638  34.015  29.564  1.00  0.00     0.010 A 
ATOM     36  C   UNL A   1      36.449  33.326  30.770  1.00  0.00    -0.014 A 
BRANCH  36  37
ATOM     37  C   UNL A   1      37.631  32.718  31.410  1.00  0.00     0.031 A 
ATOM     38  C   UNL A   1      38.322  31.576  30.731  1.00  0.00     0.074 A 
ATOM     39  C   UNL A   1      37.971  33.118  32.649  1.00  0.00     0.049 A 
ATOM     40  N   UNL A   1      39.268  30.796  31.182  1.00  0.00    -0.248 NA
ATOM     41  C   UNL A   1      37.851  31.229  29.379  1.00  0.00     0.031 C 
ATOM     42  C   UNL A   1      37.301  34.175  33.411  1.00  0.00     0.029 A 
ATOM     43  N   UNL A   1      38.947  32.666  33.496  1.00  0.00    -0.354 N 
ATOM     44  C   UNL A   1      39.486  29.859  30.183  1.00  0.00     0.074 A 
ATOM     45  C   UNL A   1      38.530  30.120  29.132  1.00  0.00     0.031 C 
ATOM     46  C   UNL A   1      37.902  34.307  34.604  1.00  0.00     0.029 A 
ATOM     47  C   UNL A   1      38.962  33.313  34.707  1.00  0.00     0.049 A 
ATOM     48  H   UNL A   1      39.575  31.947  33.260  1.00  0.00     0.167 HD
ATOM     49  C   UNL A   1      40.423  28.884  30.143  1.00  0.00     0.037 A 
ATOM     50  C   UNL A   1      39.744  33.108  35.782  1.00  0.00     0.037 A 
ATOM     51  C   UNL A   1      41.374  28.662  31.198  1.00  0.00     0.049 A 
ATOM     52  C   UNL A   1      40.783  32.025  35.707  1.00  0.00     0.074 A 
ATOM     53  C   UNL A   1      42.413  27.753  31.249  1.00  0.00     0.029 A 
ATOM     54  N   UNL A   1      41.394  29.365  32.397  1.00  0.00    -0.354 N 
ATOM     55  N   UNL A   1      41.040  31.192  34.727  1.00  0.00    -0.248 NA
ATOM     56  C   UNL A   1      41.646  31.856  36.882  1.00  0.00     0.031 C 
ATOM     57  C   UNL A   1      43.029  27.870  32.501  1.00  0.00     0.029 A 
ATOM     58  C   UNL A   1      42.413  28.894  33.205  1.00  0.00     0.049 A 
ATOM     59  H   UNL A   1      40.775  30.093  32.636  1.00  0.00     0.167 HD
ATOM     60  C   UNL A   1      42.108  30.417  35.153  1.00  0.00     0.074 A 
ATOM     61  C   UNL A   1      42.464  30.897  36.474  1.00  0.00     0.031 C 
ATOM     62  C   UNL A   1      42.739  29.399  34.516  1.00  0.00     0.037 A 
BRANCH  49  63
ATOM     63  C   UNL A   1      40.460  28.002  28.927  1.00  0.00     0.064 A 
ATOM     64  C   UNL A   1      39.740  26.798  28.865  1.00  0.00     0.173 A 
ATOM     65  C   UNL A   1      41.211  28.371  27.802  1.00  0.00     0.173 A 
ATOM     66  F   UNL A   1      39.016  26.388  29.918  1.00  0.00    -0.203 F 
ATOM     67  C   UNL A   1      39.797  25.982  27.738  1.00  0.00     0.198 A 
ATOM     68  C   UNL A   1      41.238  27.570  26.662  1.00  0.00     0.198 A 
ATOM     69  F   UNL A   1      41.920  29.510  27.803  1.00  0.00    -0.203 F 
ATOM     70  F   UNL A   1      39.148  24.810  27.728  1.00  0.00    -0.200 F 
ATOM     71  C   UNL A   1      40.540  26.373  26.634  1.00  0.00     0.200 A 
ATOM     72  F   UNL A   1      41.945  27.956  25.590  1.00  0.00    -0.200 F 
ATOM     73  F   UNL A   1      40.587  25.591  25.546  1.00  0.00    -0.200 F 
ENDBRANCH  49  63
BRANCH  50  74
ATOM     74  C   UNL A   1      39.593  33.965  36.987  1.00  0.00     0.064 A 
ATOM     75  C   UNL A   1      40.221  35.216  37.061  1.00  0.00     0.173 A 
ATOM     76  C   UNL A   1      38.809  33.566  38.081  1.00  0.00     0.173 A 
ATOM     77  F   UNL A   1      40.989  35.639  36.046  1.00  0.00    -0.203 F 
ATOM     78  C   UNL A   1      40.091  36.023  38.189  1.00  0.00     0.198 A 
ATOM     79  C   UNL A   1      38.654  34.389  39.195  1.00  0.00     0.198 A 
ATOM     80  F   UNL A   1      38.174  32.384  38.057  1.00  0.00    -0.203 F 
ATOM     81  F   UNL A   1      40.738  37.195  38.248  1.00  0.00    -0.200 F 
ATOM     82  C   UNL A   1      39.303  35.612  39.253  1.00  0.00     0.200 A 
ATOM     83  F   UNL A   1      37.874  33.996  40.212  1.00  0.00    -0.200 F 
ATOM     84  F   UNL A   1      39.172  36.393  40.334  1.00  0.00    -0.200 F 
ENDBRANCH  50  74
BRANCH  62  85
ATOM     85  C   UNL A   1      43.894  28.764  35.233  1.00  0.00     0.064 A 
ATOM     86  C   UNL A   1      45.210  29.211  35.048  1.00  0.00     0.173 A 
ATOM     87  C   UNL A   1      43.672  27.721  36.145  1.00  0.00     0.173 A 
ATOM     88  F   UNL A   1      45.473  30.195  34.175  1.00  0.00    -0.203 F 
ATOM     89  C   UNL A   1      46.268  28.613  35.727  1.00  0.00     0.198 A 
ATOM     90  C   UNL A   1      44.727  27.152  36.850  1.00  0.00     0.198 A 
ATOM     91  F   UNL A   1      42.429  27.264  36.364  1.00  0.00    -0.203 F 
ATOM     92  F   UNL A   1      47.523  29.016  35.493  1.00  0.00    -0.200 F 
ATOM     93  C   UNL A   1      46.024  27.592  36.633  1.00  0.00     0.200 A 
ATOM     94  F   UNL A   1      44.489  26.178  37.738  1.00  0.00    -0.200 F 
ATOM     95  F   UNL A   1      47.043  27.025  37.293  1.00  0.00    -0.200 F 
ENDBRANCH  62  85
ENDBRANCH  36  37
ENDBRANCH  28  31
ENDBRANCH  26  27
ENDBRANCH  25  26
ENDBRANCH   1  25
TORSDOF 15
ENDMDL
MODEL 2
REMARK VINA RESULT:     -12.3      0.971      2.080
REMARK SMILES CCN(C(=O)N1[C@@H](C(=O)NCCCCNC(=O)c2ccc(-c3c4nc(c(-c5c(F)c(F)c(F)c(F)c5F)c5ccc([nH]5)c(-c5c(F)c(F)c(F)c(F)c5F)c5nc(c(-c6c(F)c(F)c(F)c(F)c6F)c6ccc3[nH]6)C=C5)C=C4)cc2)CC[C@H]2CCCC[C@@H]21)C(C)C
REMARK SMILES IDX 12 1 11 2 10 3 8 4 9 5 7 7 6 8 88 9 81 10 83 11 87 12 82 13
REMARK SMILES IDX 84 14 86 15 85 16 4 17 5 18 3 19 2 20 1 21 89 22 90 23 91 24
REMARK SMILES IDX 13 25 14 26 15 27 16 28 17 30 18 31 19 32 80 33 20 34 79 35
REMARK SMILES IDX 21 36 22 37 23 38 73 39 24 40 78 41 72 42 74 43 25 44 77 45
REMARK SMILES IDX 71 46 70 47 26 49 58 50 38 51 57 52 39 53 42 54 56 55 75 56
REMARK SMILES IDX 40 57 41 58 55 60 76 61 43 62 27 63 28 64 36 65 29 66 30 67
REMARK SMILES IDX 34 68 37 69 31 70 32 71 35 72 33 73 59 74 60 75 68 76 61 77
REMARK SMILES IDX 62 78 66 79 69 80 63 81 64 82 67 83 65 84 44 85 45 86 53 87
REMARK SMILES IDX 46 88 47 89 51 90 54 91 48 92 49 93 52 94 50 95
REMARK H PARENT 10 6 15 29 74 48 42 59
REMARK Flexibility Score: inf
ROOT
ATOM      1  C   UNL A   1      31.877  30.111  27.058  1.00  0.00     0.023 C 
ENDROOT
BRANCH   1   2
ATOM      2  C   UNL A   1      32.476  29.283  25.934  1.00  0.00     0.116 C 
BRANCH   2   3
ATOM      3  N   UNL A   1      31.627  28.949  24.831  1.00  0.00    -0.354 N 
ATOM      4  C   UNL A   1      31.033  27.738  24.602  1.00  0.00     0.242 C 
ATOM      5  O   UNL A   1      30.240  27.701  23.649  1.00  0.00    -0.273 OA
ATOM      6  H   UNL A   1      31.453  29.661  24.173  1.00  0.00     0.163 HD
BRANCH   4   7
ATOM      7  C   UNL A   1      31.497  26.385  25.261  1.00  0.00     0.176 C 
ATOM      8  N   UNL A   1      32.343  25.339  24.642  1.00  0.00    -0.309 N 
ATOM      9  C   UNL A   1      32.781  24.276  25.558  1.00  0.00     0.091 C 
ATOM     10  C   UNL A   1      30.175  25.683  25.703  1.00  0.00     0.036 C 
ATOM     11  C   UNL A   1      31.747  23.979  26.654  1.00  0.00     0.012 C 
ATOM     12  C   UNL A   1      34.149  24.448  26.230  1.00  0.00     0.025 C 
ATOM     13  C   UNL A   1      30.343  24.204  26.106  1.00  0.00     0.008 C 
ATOM     14  C   UNL A   1      32.025  22.571  27.181  1.00  0.00     0.006 C 
ATOM     15  C   UNL A   1      34.538  23.092  26.846  1.00  0.00     0.002 C 
ATOM     16  C   UNL A   1      33.450  22.499  27.758  1.00  0.00     0.000 C 
BRANCH   8  17
ATOM     17  C   UNL A   1      33.153  25.617  23.565  1.00  0.00     0.321 C 
ATOM     18  O   UNL A   1      34.036  26.469  23.652  1.00  0.00    -0.248 OA
BRANCH  17  19
ATOM     19  N   UNL A   1      32.802  24.988  22.344  1.00  0.00    -0.322 N 
BRANCH  19  20
ATOM     20  C   UNL A   1      31.992  25.603  21.261  1.00  0.00     0.118 C 
ATOM     21  C   UNL A   1      32.528  25.578  19.833  1.00  0.00     0.027 C 
ENDBRANCH  19  20
BRANCH  19  22
ATOM     22  C   UNL A   1      33.233  23.578  22.207  1.00  0.00     0.080 C 
ATOM     23  C   UNL A   1      34.615  23.328  22.802  1.00  0.00     0.031 C 
ATOM     24  C   UNL A   1      32.250  22.545  22.751  1.00  0.00     0.031 C 
ENDBRANCH  19  22
ENDBRANCH  17  19
ENDBRANCH   8  17
ENDBRANCH   4   7
ENDBRANCH   2   3
ENDBRANCH   1   2
BRANCH   1  25
ATOM     25  C   UNL A   1      31.770  31.621  26.834  1.00  0.00     0.023 C 
BRANCH  25  26
ATOM     26  C   UNL A   1      32.953  32.493  27.251  1.00  0.00     0.116 C 
BRANCH  26  27
ATOM     27  N   UNL A   1      32.589  33.861  27.598  1.00  0.00    -0.352 N 
ATOM     28  C   UNL A   1      33.059  34.727  28.557  1.00  0.00     0.251 C 
ATOM     29  H   UNL A   1      31.872  34.236  27.040  1.00  0.00     0.163 HD
ATOM     30  O   UNL A   1      32.531  35.812  28.757  1.00  0.00    -0.269 OA
BRANCH  28  31
ATOM     31  C   UNL A   1      34.211  34.344  29.373  1.00  0.00     0.039 A 
ATOM     32  C   UNL A   1      34.001  33.766  30.627  1.00  0.00     0.014 A 
ATOM     33  C   UNL A   1      35.495  34.556  28.881  1.00  0.00     0.014 A 
ATOM     34  C   UNL A   1      35.095  33.294  31.344  1.00  0.00     0.010 A 
ATOM     35  C   UNL A   1      36.566  33.985  29.536  1.00  0.00     0.010 A 
ATOM     36  C   UNL A   1      36.373  33.349  30.770  1.00  0.00    -0.014 A 
BRANCH  36  37
ATOM     37  C   UNL A   1      37.545  32.729  31.417  1.00  0.00     0.031 A 
ATOM     38  C   UNL A   1      38.230  31.580  30.742  1.00  0.00     0.074 A 
ATOM     39  C   UNL A   1      37.881  33.125  32.659  1.00  0.00     0.049 A 
ATOM     40  N   UNL A   1      39.165  30.792  31.199  1.00  0.00    -0.248 NA
ATOM     41  C   UNL A   1      37.764  31.239  29.386  1.00  0.00     0.031 C 
ATOM     42  C   UNL A   1      37.216  34.189  33.417  1.00  0.00     0.029 A 
ATOM     43  N   UNL A   1      38.846  32.663  33.512  1.00  0.00    -0.354 N 
ATOM     44  C   UNL A   1      39.380  29.852  30.201  1.00  0.00     0.074 A 
ATOM     45  C   UNL A   1      38.434  30.124  29.143  1.00  0.00     0.031 C 
ATOM     46  C   UNL A   1      37.811  34.314  34.613  1.00  0.00     0.029 A 
ATOM     47  C   UNL A   1      38.861  33.310  34.723  1.00  0.00     0.049 A 
ATOM     48  H   UNL A   1      39.470  31.938  33.280  1.00  0.00     0.167 HD
ATOM     49  C   UNL A   1      40.308  28.868  30.166  1.00  0.00     0.037 A 
ATOM     50  C   UNL A   1      39.633  33.097  35.803  1.00  0.00     0.037 A 
ATOM     51  C   UNL A   1      41.250  28.637  31.228  1.00  0.00     0.049 A 
ATOM     52  C   UNL A   1      40.662  32.004  35.735  1.00  0.00     0.074 A 
ATOM     53  C   UNL A   1      42.280  27.718  31.285  1.00  0.00     0.029 A 
ATOM     54  N   UNL A   1      41.269  29.339  32.427  1.00  0.00    -0.354 N 
ATOM     55  N   UNL A   1      40.918  31.168  34.755  1.00  0.00    -0.248 NA
ATOM     56  C   UNL A   1      41.516  31.826  36.915  1.00  0.00     0.031 C 
ATOM     57  C   UNL A   1      42.888  27.828  32.540  1.00  0.00     0.029 A 
ATOM     58  C   UNL A   1      42.279  28.858  33.241  1.00  0.00     0.049 A 
ATOM     59  H   UNL A   1      40.655  30.073  32.662  1.00  0.00     0.167 HD
ATOM     60  C   UNL A   1      41.975  30.383  35.188  1.00  0.00     0.074 A 
ATOM     61  C   UNL A   1      42.327  30.859  36.512  1.00  0.00     0.031 C 
ATOM     62  C   UNL A   1      42.600  29.359  34.555  1.00  0.00     0.037 A 
BRANCH  49  63
ATOM     63  C   UNL A   1      40.345  27.987  28.950  1.00  0.00     0.064 A 
ATOM     64  C   UNL A   1      39.626  26.782  28.889  1.00  0.00     0.173 A 
ATOM     65  C   UNL A   1      41.093  28.357  27.824  1.00  0.00     0.173 A 
ATOM     66  F   UNL A   1      38.905  26.371  29.943  1.00  0.00    -0.203 F 
ATOM     67  C   UNL A   1      39.683  25.966  27.762  1.00  0.00     0.198 A 
ATOM     68  C   UNL A   1      41.120  27.557  26.684  1.00  0.00     0.198 A 
ATOM     69  F   UNL A   1      41.801  29.498  27.824  1.00  0.00    -0.203 F 
ATOM     70  F   UNL A   1      39.035  24.794  27.753  1.00  0.00    -0.200 F 
ATOM     71  C   UNL A   1      40.423  26.359  26.657  1.00  0.00     0.200 A 
ATOM     72  F   UNL A   1      41.825  27.944  25.611  1.00  0.00    -0.200 F 
ATOM     73  F   UNL A   1      40.470  25.577  25.569  1.00  0.00    -0.200 F 
ENDBRANCH  49  63
BRANCH  50  74
ATOM     74  C   UNL A   1      39.482  33.954  37.008  1.00  0.00     0.064 A 
ATOM     75  C   UNL A   1      40.094  35.214  37.072  1.00  0.00     0.173 A 
ATOM     76  C   UNL A   1      38.715  33.548  38.110  1.00  0.00     0.173 A 
ATOM     77  F   UNL A   1      40.846  35.645  36.048  1.00  0.00    -0.203 F 
ATOM     78  C   UNL A   1      39.965  36.023  38.199  1.00  0.00     0.198 A 
ATOM     79  C   UNL A   1      38.560  34.371  39.224  1.00  0.00     0.198 A 
ATOM     80  F   UNL A   1      38.096  32.358  38.096  1.00  0.00    -0.203 F 
ATOM     81  F   UNL A   1      40.597  37.203  38.249  1.00  0.00    -0.200 F 
ATOM     82  C   UNL A   1      39.193  35.603  39.272  1.00  0.00     0.200 A 
ATOM     83  F   UNL A   1      37.795  33.971  40.249  1.00  0.00    -0.200 F 
ATOM     84  F   UNL A   1      39.062  36.385  40.352  1.00  0.00    -0.200 F 
ENDBRANCH  50  74
BRANCH  62  85
ATOM     85  C   UNL A   1      43.744  28.714  35.279  1.00  0.00     0.064 A 
ATOM     86  C   UNL A   1      45.068  29.138  35.091  1.00  0.00     0.173 A 
ATOM     87  C   UNL A   1      43.505  27.682  36.200  1.00  0.00     0.173 A 
ATOM     88  F   UNL A   1      45.347  30.109  34.209  1.00  0.00    -0.203 F 
ATOM     89  C   UNL A   1      46.115  28.530  35.777  1.00  0.00     0.198 A 
ATOM     90  C   UNL A   1      44.551  27.103  36.911  1.00  0.00     0.198 A 
ATOM     91  F   UNL A   1      42.255  27.247  36.421  1.00  0.00    -0.203 F 
ATOM     92  F   UNL A   1      47.377  28.911  35.541  1.00  0.00    -0.200 F 
ATOM     93  C   UNL A   1      45.854  27.521  36.692  1.00  0.00     0.200 A 
ATOM     94  F   UNL A   1      44.297  26.141  37.808  1.00  0.00    -0.200 F 
ATOM     95  F   UNL A   1      46.864  26.944  37.358  1.00  0.00    -0.200 F 
ENDBRANCH  62  85
ENDBRANCH  36  37
ENDBRANCH  28  31
ENDBRANCH  26  27
ENDBRANCH  25  26
ENDBRANCH   1  25
TORSDOF 15
ENDMDL
MODEL 3
REMARK VINA RESULT:     -12.2      3.597      7.620
REMARK SMILES CCN(C(=O)N1[C@@H](C(=O)NCCCCNC(=O)c2ccc(-c3c4nc(c(-c5c(F)c(F)c(F)c(F)c5F)c5ccc([nH]5)c(-c5c(F)c(F)c(F)c(F)c5F)c5nc(c(-c6c(F)c(F)c(F)c(F)c6F)c6ccc3[nH]6)C=C5)C=C4)cc2)CC[C@H]2CCCC[C@@H]21)C(C)C
REMARK SMILES IDX 12 1 11 2 10 3 8 4 9 5 7 7 6 8 88 9 81 10 83 11 87 12 82 13
REMARK SMILES IDX 84 14 86 15 85 16 4 17 5 18 3 19 2 20 1 21 89 22 90 23 91 24
REMARK SMILES IDX 13 25 14 26 15 27 16 28 17 30 18 31 19 32 80 33 20 34 79 35
REMARK SMILES IDX 21 36 22 37 23 38 73 39 24 40 78 41 72 42 74 43 25 44 77 45
REMARK SMILES IDX 71 46 70 47 26 49 58 50 38 51 57 52 39 53 42 54 56 55 75 56
REMARK SMILES IDX 40 57 41 58 55 60 76 61 43 62 27 63 28 64 36 65 29 66 30 67
REMARK SMILES IDX 34 68 37 69 31 70 32 71 35 72 33 73 59 74 60 75 68 76 61 77
REMARK SMILES IDX 62 78 66 79 69 80 63 81 64 82 67 83 65 84 44 85 45 86 53 87
REMARK SMILES IDX 46 88 47 89 51 90 54 91 48 92 49 93 52 94 50 95
REMARK H PARENT 10 6 15 29 74 48 42 59
REMARK Flexibility Score: inf
ROOT
ATOM      1  C   UNL A   1      34.562  23.801  25.649  1.00  0.00     0.023 C 
ENDROOT
BRANCH   1   2
ATOM      2  C   UNL A   1      33.864  24.944  24.931  1.00  0.00     0.116 C 
BRANCH   2   3
ATOM      3  N   UNL A   1      34.171  25.143  23.546  1.00  0.00    -0.354 N 
ATOM      4  C   UNL A   1      33.524  25.990  22.687  1.00  0.00     0.242 C 
ATOM      5  O   UNL A   1      34.030  26.097  21.559  1.00  0.00    -0.273 OA
ATOM      6  H   UNL A   1      34.919  24.621  23.177  1.00  0.00     0.163 HD
BRANCH   4   7
ATOM      7  C   UNL A   1      32.085  26.578  22.938  1.00  0.00     0.176 C 
ATOM      8  N   UNL A   1      31.729  27.704  23.832  1.00  0.00    -0.309 N 
ATOM      9  C   UNL A   1      30.338  28.167  23.719  1.00  0.00     0.091 C 
ATOM     10  C   UNL A   1      31.230  25.357  23.400  1.00  0.00     0.036 C 
ATOM     11  C   UNL A   1      29.365  27.029  23.372  1.00  0.00     0.012 C 
ATOM     12  C   UNL A   1      30.062  29.336  22.765  1.00  0.00     0.025 C 
ATOM     13  C   UNL A   1      29.857  25.729  23.995  1.00  0.00     0.008 C 
ATOM     14  C   UNL A   1      27.966  27.473  23.802  1.00  0.00     0.006 C 
ATOM     15  C   UNL A   1      28.647  29.859  23.069  1.00  0.00     0.002 C 
ATOM     16  C   UNL A   1      27.571  28.760  23.057  1.00  0.00     0.000 C 
BRANCH   8  17
ATOM     17  C   UNL A   1      32.668  28.625  24.235  1.00  0.00     0.321 C 
ATOM     18  O   UNL A   1      33.451  29.114  23.422  1.00  0.00    -0.248 OA
BRANCH  17  19
ATOM     19  N   UNL A   1      32.770  28.839  25.633  1.00  0.00    -0.322 N 
BRANCH  19  20
ATOM     20  C   UNL A   1      32.598  27.797  26.677  1.00  0.00     0.118 C 
ATOM     21  C   UNL A   1      31.365  27.849  27.575  1.00  0.00     0.027 C 
ENDBRANCH  19  20
BRANCH  19  22
ATOM     22  C   UNL A   1      32.991  30.243  26.048  1.00  0.00     0.080 C 
ATOM     23  C   UNL A   1      31.686  30.981  26.329  1.00  0.00     0.031 C 
ATOM     24  C   UNL A   1      33.944  30.428  27.225  1.00  0.00     0.031 C 
ENDBRANCH  19  22
ENDBRANCH  17  19
ENDBRANCH   8  17
ENDBRANCH   4   7
ENDBRANCH   2   3
ENDBRANCH   1   2
BRANCH   1  25
ATOM     25  C   UNL A   1      36.043  23.986  25.984  1.00  0.00     0.023 C 
BRANCH  25  26
ATOM     26  C   UNL A   1      37.073  23.556  24.940  1.00  0.00     0.116 C 
BRANCH  26  27
ATOM     27  N   UNL A   1      38.119  22.685  25.461  1.00  0.00    -0.352 N 
ATOM     28  C   UNL A   1      39.210  22.927  26.262  1.00  0.00     0.251 C 
ATOM     29  H   UNL A   1      38.026  21.744  25.188  1.00  0.00     0.163 HD
ATOM     30  O   UNL A   1      40.040  22.061  26.495  1.00  0.00    -0.269 OA
BRANCH  28  31
ATOM     31  C   UNL A   1      39.397  24.257  26.843  1.00  0.00     0.039 A 
ATOM     32  C   UNL A   1      38.935  24.511  28.137  1.00  0.00     0.014 A 
ATOM     33  C   UNL A   1      40.039  25.242  26.098  1.00  0.00     0.014 A 
ATOM     34  C   UNL A   1      39.223  25.736  28.728  1.00  0.00     0.010 A 
ATOM     35  C   UNL A   1      40.426  26.409  26.724  1.00  0.00     0.010 A 
ATOM     36  C   UNL A   1      40.022  26.663  28.042  1.00  0.00    -0.014 A 
BRANCH  36  37
ATOM     37  C   UNL A   1      40.484  27.912  28.676  1.00  0.00     0.031 A 
ATOM     38  C   UNL A   1      41.889  27.992  29.192  1.00  0.00     0.074 A 
ATOM     39  C   UNL A   1      39.590  28.893  28.896  1.00  0.00     0.049 A 
ATOM     40  N   UNL A   1      42.450  28.921  29.918  1.00  0.00    -0.248 NA
ATOM     41  C   UNL A   1      42.768  26.848  28.894  1.00  0.00     0.031 C 
ATOM     42  C   UNL A   1      38.182  28.862  28.490  1.00  0.00     0.029 A 
ATOM     43  N   UNL A   1      39.725  30.096  29.536  1.00  0.00    -0.354 N 
ATOM     44  C   UNL A   1      43.733  28.464  30.181  1.00  0.00     0.074 A 
ATOM     45  C   UNL A   1      43.848  27.147  29.598  1.00  0.00     0.031 C 
ATOM     46  C   UNL A   1      37.590  30.004  28.869  1.00  0.00     0.029 A 
ATOM     47  C   UNL A   1      38.560  30.822  29.586  1.00  0.00     0.049 A 
ATOM     48  H   UNL A   1      40.573  30.409  29.922  1.00  0.00     0.167 HD
ATOM     49  C   UNL A   1      44.732  29.105  30.831  1.00  0.00     0.037 A 
ATOM     50  C   UNL A   1      38.312  32.011  30.161  1.00  0.00     0.037 A 
ATOM     51  C   UNL A   1      44.591  30.426  31.382  1.00  0.00     0.049 A 
ATOM     52  C   UNL A   1      39.441  32.706  30.869  1.00  0.00     0.074 A 
ATOM     53  C   UNL A   1      45.544  31.209  32.005  1.00  0.00     0.029 A 
ATOM     54  N   UNL A   1      43.409  31.156  31.378  1.00  0.00    -0.354 N 
ATOM     55  N   UNL A   1      40.678  32.306  31.045  1.00  0.00    -0.248 NA
ATOM     56  C   UNL A   1      39.146  34.020  31.450  1.00  0.00     0.031 C 
ATOM     57  C   UNL A   1      44.925  32.392  32.423  1.00  0.00     0.029 A 
ATOM     58  C   UNL A   1      43.602  32.373  32.008  1.00  0.00     0.049 A 
ATOM     59  H   UNL A   1      42.559  30.853  30.984  1.00  0.00     0.167 HD
ATOM     60  C   UNL A   1      41.316  33.325  31.735  1.00  0.00     0.074 A 
ATOM     61  C   UNL A   1      40.332  34.373  31.923  1.00  0.00     0.031 C 
ATOM     62  C   UNL A   1      42.597  33.393  32.176  1.00  0.00     0.037 A 
BRANCH  49  63
ATOM     63  C   UNL A   1      46.046  28.390  30.969  1.00  0.00     0.064 A 
ATOM     64  C   UNL A   1      46.311  27.535  32.050  1.00  0.00     0.173 A 
ATOM     65  C   UNL A   1      47.048  28.547  30.000  1.00  0.00     0.173 A 
ATOM     66  F   UNL A   1      45.395  27.359  33.014  1.00  0.00    -0.203 F 
ATOM     67  C   UNL A   1      47.540  26.892  32.175  1.00  0.00     0.198 A 
ATOM     68  C   UNL A   1      48.263  27.875  30.109  1.00  0.00     0.198 A 
ATOM     69  F   UNL A   1      46.851  29.352  28.945  1.00  0.00    -0.203 F 
ATOM     70  F   UNL A   1      47.790  26.128  33.247  1.00  0.00    -0.200 F 
ATOM     71  C   UNL A   1      48.512  27.056  31.199  1.00  0.00     0.200 A 
ATOM     72  F   UNL A   1      49.196  28.023  29.158  1.00  0.00    -0.200 F 
ATOM     73  F   UNL A   1      49.692  26.430  31.315  1.00  0.00    -0.200 F 
ENDBRANCH  49  63
BRANCH  50  74
ATOM     74  C   UNL A   1      36.960  32.621  30.059  1.00  0.00     0.064 A 
ATOM     75  C   UNL A   1      36.040  32.504  31.111  1.00  0.00     0.173 A 
ATOM     76  C   UNL A   1      36.562  33.344  28.926  1.00  0.00     0.173 A 
ATOM     77  F   UNL A   1      36.369  31.814  32.213  1.00  0.00    -0.203 F 
ATOM     78  C   UNL A   1      34.768  33.066  31.023  1.00  0.00     0.198 A 
ATOM     79  C   UNL A   1      35.301  33.934  28.852  1.00  0.00     0.198 A 
ATOM     80  F   UNL A   1      37.408  33.499  27.896  1.00  0.00    -0.203 F 
ATOM     81  F   UNL A   1      33.895  32.901  32.026  1.00  0.00    -0.200 F 
ATOM     82  C   UNL A   1      34.401  33.785  29.895  1.00  0.00     0.200 A 
ATOM     83  F   UNL A   1      34.959  34.647  27.769  1.00  0.00    -0.200 F 
ATOM     84  F   UNL A   1      33.181  34.333  29.815  1.00  0.00    -0.200 F 
ENDBRANCH  50  74
BRANCH  62  85
ATOM     85  C   UNL A   1      43.005  34.656  32.875  1.00  0.00     0.064 A 
ATOM     86  C   UNL A   1      43.435  35.785  32.165  1.00  0.00     0.173 A 
ATOM     87  C   UNL A   1      42.928  34.745  34.274  1.00  0.00     0.173 A 
ATOM     88  F   UNL A   1      43.541  35.743  30.828  1.00  0.00    -0.203 F 
ATOM     89  C   UNL A   1      43.804  36.950  32.832  1.00  0.00     0.198 A 
ATOM     90  C   UNL A   1      43.262  35.922  34.934  1.00  0.00     0.198 A 
ATOM     91  F   UNL A   1      42.514  33.694  34.998  1.00  0.00    -0.203 F 
ATOM     92  F   UNL A   1      44.267  37.997  32.138  1.00  0.00    -0.200 F 
ATOM     93  C   UNL A   1      43.708  37.020  34.214  1.00  0.00     0.200 A 
ATOM     94  F   UNL A   1      43.152  35.996  36.267  1.00  0.00    -0.200 F 
ATOM     95  F   UNL A   1      44.055  38.146  34.853  1.00  0.00    -0.200 F 
ENDBRANCH  62  85
ENDBRANCH  36  37
ENDBRANCH  28  31
ENDBRANCH  26  27
ENDBRANCH  25  26
ENDBRANCH   1  25
TORSDOF 15
ENDMDL
