MODEL 1
REMARK VINA RESULT:     -12.3      0.000      0.000
REMARK SMILES O=C(NCCCCNC(=O)[C@H]1C[NH2+]CCN1c1ncc(C(F)(F)F)cc1Cl)c1ccc(-c2c3nc(c(-c4c(F)c(F)c(F)c(F)c4F)c4ccc([nH]4)c(-c4c(F)c(F)c(F)c(F)c4F)c4nc(c(-c5c(F)c(F)c(F)c(F)c5F)c5ccc2[nH]5)C=C4)C=C3)cc1
REMARK SMILES IDX 5 1 4 2 3 3 1 4 2 5 28 7 29 8 90 9 30 10 89 11 31 12 32 13
REMARK SMILES IDX 33 14 83 15 34 16 88 17 82 18 84 19 35 20 87 21 81 22 80 23
REMARK SMILES IDX 36 25 68 26 48 27 67 28 49 29 52 30 66 31 85 32 50 33 51 34
REMARK SMILES IDX 65 36 86 37 53 38 37 39 38 40 46 41 39 42 40 43 44 44 47 45
REMARK SMILES IDX 41 46 42 47 45 48 43 49 69 50 70 51 78 52 71 53 72 54 76 55
REMARK SMILES IDX 79 56 73 57 74 58 77 59 75 60 54 61 55 62 63 63 56 64 57 65
REMARK SMILES IDX 61 66 64 67 58 68 59 69 62 70 60 71 6 72 7 73 8 74 9 75
REMARK SMILES IDX 10 77 11 78 12 79 16 80 13 81 15 82 14 83 17 86 18 87 26 88
REMARK SMILES IDX 19 89 25 90 27 91 20 92 21 93 22 94 23 95 24 96
REMARK H PARENT 3 6 84 24 52 35 8 76 13 84 13 85
REMARK Flexibility Score: inf
ROOT
ATOM      1  C   UNL A   1      31.328  31.933  26.501  1.00  0.00     0.023 C 
ENDROOT
BRANCH   1   2
ATOM      2  C   UNL A   1      32.623  32.539  27.029  1.00  0.00     0.116 C 
BRANCH   2   3
ATOM      3  N   UNL A   1      32.461  33.907  27.494  1.00  0.00    -0.352 N 
ATOM      4  O   UNL A   1      32.783  35.696  28.829  1.00  0.00    -0.269 OA
ATOM      5  C   UNL A   1      33.146  34.577  28.479  1.00  0.00     0.251 C 
ATOM      6  H   UNL A   1      31.762  34.428  27.037  1.00  0.00     0.163 HD
BRANCH   5   7
ATOM      7  C   UNL A   1      34.307  33.941  29.137  1.00  0.00     0.039 A 
ATOM      8  C   UNL A   1      35.612  34.288  28.781  1.00  0.00     0.014 A 
ATOM      9  C   UNL A   1      34.083  32.992  30.139  1.00  0.00     0.014 A 
ATOM     10  C   UNL A   1      36.686  33.595  29.330  1.00  0.00     0.010 A 
ATOM     11  C   UNL A   1      35.166  32.351  30.746  1.00  0.00     0.010 A 
ATOM     12  C   UNL A   1      36.476  32.629  30.328  1.00  0.00    -0.014 A 
BRANCH  12  13
ATOM     13  C   UNL A   1      37.644  31.973  30.968  1.00  0.00     0.031 A 
ATOM     14  C   UNL A   1      38.086  32.348  32.353  1.00  0.00     0.074 A 
ATOM     15  C   UNL A   1      38.297  31.014  30.285  1.00  0.00     0.049 A 
ATOM     16  N   UNL A   1      39.083  31.874  33.057  1.00  0.00    -0.248 NA
ATOM     17  C   UNL A   1      37.313  33.395  33.038  1.00  0.00     0.031 C 
ATOM     18  C   UNL A   1      37.965  30.574  28.929  1.00  0.00     0.029 A 
ATOM     19  N   UNL A   1      39.366  30.229  30.636  1.00  0.00    -0.354 N 
ATOM     20  C   UNL A   1      39.067  32.572  34.259  1.00  0.00     0.074 A 
ATOM     21  C   UNL A   1      37.978  33.520  34.179  1.00  0.00     0.031 C 
ATOM     22  C   UNL A   1      38.784  29.573  28.577  1.00  0.00     0.029 A 
ATOM     23  C   UNL A   1      39.738  29.343  29.656  1.00  0.00     0.049 A 
ATOM     24  H   UNL A   1      39.822  30.295  31.506  1.00  0.00     0.167 HD
ATOM     25  C   UNL A   1      39.884  32.422  35.330  1.00  0.00     0.037 A 
ATOM     26  C   UNL A   1      40.748  28.454  29.621  1.00  0.00     0.037 A 
ATOM     27  C   UNL A   1      40.960  31.466  35.405  1.00  0.00     0.049 A 
ATOM     28  C   UNL A   1      41.657  28.335  30.810  1.00  0.00     0.074 A 
ATOM     29  C   UNL A   1      41.821  31.216  36.460  1.00  0.00     0.029 A 
ATOM     30  N   UNL A   1      41.327  30.606  34.379  1.00  0.00    -0.354 N 
ATOM     31  N   UNL A   1      41.612  28.977  31.951  1.00  0.00    -0.248 NA
ATOM     32  C   UNL A   1      42.762  27.373  30.702  1.00  0.00     0.031 C 
ATOM     33  C   UNL A   1      42.737  30.238  36.057  1.00  0.00     0.029 A 
ATOM     34  C   UNL A   1      42.417  29.843  34.768  1.00  0.00     0.049 A 
ATOM     35  H   UNL A   1      40.879  30.546  33.504  1.00  0.00     0.167 HD
ATOM     36  C   UNL A   1      42.668  28.488  32.704  1.00  0.00     0.074 A 
ATOM     37  C   UNL A   1      43.325  27.480  31.897  1.00  0.00     0.031 C 
ATOM     38  C   UNL A   1      43.060  28.845  33.951  1.00  0.00     0.037 A 
BRANCH  25  39
ATOM     39  C   UNL A   1      39.661  33.324  36.510  1.00  0.00     0.064 A 
ATOM     40  C   UNL A   1      40.293  34.571  36.615  1.00  0.00     0.173 A 
ATOM     41  C   UNL A   1      38.759  32.960  37.523  1.00  0.00     0.173 A 
ATOM     42  F   UNL A   1      41.171  34.964  35.680  1.00  0.00    -0.203 F 
ATOM     43  C   UNL A   1      40.047  35.411  37.700  1.00  0.00     0.198 A 
ATOM     44  C   UNL A   1      38.496  33.813  38.591  1.00  0.00     0.198 A 
ATOM     45  F   UNL A   1      38.121  31.781  37.468  1.00  0.00    -0.203 F 
ATOM     46  F   UNL A   1      40.692  36.582  37.798  1.00  0.00    -0.200 F 
ATOM     47  C   UNL A   1      39.144  35.035  38.682  1.00  0.00     0.200 A 
ATOM     48  F   UNL A   1      37.612  33.453  39.533  1.00  0.00    -0.200 F 
ATOM     49  F   UNL A   1      38.902  35.849  39.720  1.00  0.00    -0.200 F 
ENDBRANCH  25  39
BRANCH  26  50
ATOM     50  C   UNL A   1      40.946  27.615  28.411  1.00  0.00     0.064 A 
ATOM     51  C   UNL A   1      40.273  26.396  28.262  1.00  0.00     0.173 A 
ATOM     52  C   UNL A   1      41.795  28.026  27.373  1.00  0.00     0.173 A 
ATOM     53  F   UNL A   1      39.465  25.953  29.236  1.00  0.00    -0.203 F 
ATOM     54  C   UNL A   1      40.450  25.612  27.123  1.00  0.00     0.198 A 
ATOM     55  C   UNL A   1      41.948  27.257  26.223  1.00  0.00     0.198 A 
ATOM     56  F   UNL A   1      42.457  29.189  27.467  1.00  0.00    -0.203 F 
ATOM     57  F   UNL A   1      39.823  24.433  27.021  1.00  0.00    -0.200 F 
ATOM     58  C   UNL A   1      41.281  26.048  26.101  1.00  0.00     0.200 A 
ATOM     59  F   UNL A   1      42.738  27.690  25.230  1.00  0.00    -0.200 F 
ATOM     60  F   UNL A   1      41.442  25.299  25.001  1.00  0.00    -0.200 F 
ENDBRANCH  26  50
BRANCH  38  61
ATOM     61  C   UNL A   1      44.243  28.122  34.526  1.00  0.00     0.064 A 
ATOM     62  C   UNL A   1      45.544  28.630  34.401  1.00  0.00     0.173 A 
ATOM     63  C   UNL A   1      44.068  26.923  35.233  1.00  0.00     0.173 A 
ATOM     64  F   UNL A   1      45.764  29.763  33.719  1.00  0.00    -0.203 F 
ATOM     65  C   UNL A   1      46.632  27.950  34.943  1.00  0.00     0.198 A 
ATOM     66  C   UNL A   1      45.154  26.261  35.798  1.00  0.00     0.198 A 
ATOM     67  F   UNL A   1      42.843  26.399  35.384  1.00  0.00    -0.203 F 
ATOM     68  F   UNL A   1      47.872  28.427  34.771  1.00  0.00    -0.200 F 
ATOM     69  C   UNL A   1      46.435  26.770  35.646  1.00  0.00     0.200 A 
ATOM     70  F   UNL A   1      44.962  25.127  36.486  1.00  0.00    -0.200 F 
ATOM     71  F   UNL A   1      47.482  26.118  36.171  1.00  0.00    -0.200 F 
ENDBRANCH  38  61
ENDBRANCH  12  13
ENDBRANCH   5   7
ENDBRANCH   2   3
ENDBRANCH   1   2
BRANCH   1  72
ATOM     72  C   UNL A   1      31.408  30.469  26.061  1.00  0.00     0.023 C 
BRANCH  72  73
ATOM     73  C   UNL A   1      32.504  29.641  26.730  1.00  0.00     0.116 C 
BRANCH  73  74
ATOM     74  N   UNL A   1      32.016  28.356  27.183  1.00  0.00    -0.354 N 
ATOM     75  C   UNL A   1      31.828  27.190  26.501  1.00  0.00     0.248 C 
ATOM     76  H   UNL A   1      31.782  28.317  28.139  1.00  0.00     0.163 HD
ATOM     77  O   UNL A   1      31.403  26.232  27.158  1.00  0.00    -0.272 OA
BRANCH  75  78
ATOM     78  C   UNL A   1      32.137  27.085  24.988  1.00  0.00     0.228 C 
ATOM     79  C   UNL A   1      33.032  25.834  24.751  1.00  0.00     0.296 C 
ATOM     80  N   UNL A   1      30.897  26.943  24.203  1.00  0.00    -0.333 N 
ATOM     81  N   UNL A   1      32.353  24.525  24.920  1.00  0.00    -0.343 N 
ATOM     82  C   UNL A   1      30.161  25.687  24.343  1.00  0.00     0.180 C 
ATOM     83  C   UNL A   1      31.127  24.501  24.091  1.00  0.00     0.282 C 
ATOM     84  H   UNL A   1      32.104  24.394  25.900  1.00  0.00     0.346 HD
ATOM     85  H   UNL A   1      32.979  23.774  24.628  1.00  0.00     0.346 HD
BRANCH  80  86
ATOM     86  C   UNL A   1      30.326  27.975  23.501  1.00  0.00     0.148 A 
ATOM     87  N   UNL A   1      28.971  28.036  23.501  1.00  0.00    -0.237 NA
ATOM     88  C   UNL A   1      31.075  28.893  22.746  1.00  0.00     0.084 A 
ATOM     89  C   UNL A   1      28.358  29.005  22.777  1.00  0.00     0.126 A 
ATOM     90  C   UNL A   1      30.419  29.877  22.002  1.00  0.00     0.039 A 
ATOM     91  Cl  UNL A   1      32.796  28.809  22.594  1.00  0.00    -0.080 Cl
ATOM     92  C   UNL A   1      29.027  29.945  22.014  1.00  0.00     0.075 A 
BRANCH  92  93
ATOM     93  C   UNL A   1      28.263  30.971  21.239  1.00  0.00     0.417 C 
ATOM     94  F   UNL A   1      27.653  30.453  20.139  1.00  0.00    -0.166 F 
ATOM     95  F   UNL A   1      27.278  31.549  21.979  1.00  0.00    -0.166 F 
ATOM     96  F   UNL A   1      29.039  31.995  20.788  1.00  0.00    -0.166 F 
ENDBRANCH  92  93
ENDBRANCH  80  86
ENDBRANCH  75  78
ENDBRANCH  73  74
ENDBRANCH  72  73
ENDBRANCH   1  72
TORSDOF 13
ENDMDL
MODEL 2
REMARK VINA RESULT:     -12.3      2.676      8.062
REMARK SMILES O=C(NCCCCNC(=O)[C@H]1C[NH2+]CCN1c1ncc(C(F)(F)F)cc1Cl)c1ccc(-c2c3nc(c(-c4c(F)c(F)c(F)c(F)c4F)c4ccc([nH]4)c(-c4c(F)c(F)c(F)c(F)c4F)c4nc(c(-c5c(F)c(F)c(F)c(F)c5F)c5ccc2[nH]5)C=C4)C=C3)cc1
REMARK SMILES IDX 5 1 4 2 3 3 1 4 2 5 28 7 29 8 90 9 30 10 89 11 31 12 32 13
REMARK SMILES IDX 33 14 83 15 34 16 88 17 82 18 84 19 35 20 87 21 81 22 80 23
REMARK SMILES IDX 36 25 68 26 48 27 67 28 49 29 52 30 66 31 85 32 50 33 51 34
REMARK SMILES IDX 65 36 86 37 53 38 37 39 38 40 46 41 39 42 40 43 44 44 47 45
REMARK SMILES IDX 41 46 42 47 45 48 43 49 69 50 70 51 78 52 71 53 72 54 76 55
REMARK SMILES IDX 79 56 73 57 74 58 77 59 75 60 54 61 55 62 63 63 56 64 57 65
REMARK SMILES IDX 61 66 64 67 58 68 59 69 62 70 60 71 6 72 7 73 8 74 9 75
REMARK SMILES IDX 10 77 11 78 12 79 16 80 13 81 15 82 14 83 17 86 18 87 26 88
REMARK SMILES IDX 19 89 25 90 27 91 20 92 21 93 22 94 23 95 24 96
REMARK H PARENT 3 6 84 24 52 35 8 76 13 84 13 85
REMARK Flexibility Score: inf
ROOT
ATOM      1  C   UNL A   1      31.363  32.224  26.663  1.00  0.00     0.023 C 
ENDROOT
BRANCH   1   2
ATOM      2  C   UNL A   1      32.674  32.870  27.095  1.00  0.00     0.116 C 
BRANCH   2   3
ATOM      3  N   UNL A   1      32.496  34.206  27.640  1.00  0.00    -0.352 N 
ATOM      4  O   UNL A   1      32.769  35.906  29.098  1.00  0.00    -0.269 OA
ATOM      5  C   UNL A   1      33.145  34.811  28.689  1.00  0.00     0.251 C 
ATOM      6  H   UNL A   1      31.812  34.757  27.194  1.00  0.00     0.163 HD
BRANCH   5   7
ATOM      7  C   UNL A   1      34.282  34.132  29.346  1.00  0.00     0.039 A 
ATOM      8  C   UNL A   1      35.599  34.444  29.002  1.00  0.00     0.014 A 
ATOM      9  C   UNL A   1      34.024  33.178  30.335  1.00  0.00     0.014 A 
ATOM     10  C   UNL A   1      36.649  33.712  29.548  1.00  0.00     0.010 A 
ATOM     11  C   UNL A   1      35.084  32.497  30.940  1.00  0.00     0.010 A 
ATOM     12  C   UNL A   1      36.404  32.740  30.532  1.00  0.00    -0.014 A 
BRANCH  12  13
ATOM     13  C   UNL A   1      37.548  32.042  31.170  1.00  0.00     0.031 A 
ATOM     14  C   UNL A   1      38.335  30.998  30.431  1.00  0.00     0.074 A 
ATOM     15  C   UNL A   1      37.883  32.375  32.431  1.00  0.00     0.049 A 
ATOM     16  N   UNL A   1      39.361  30.294  30.840  1.00  0.00    -0.248 NA
ATOM     17  C   UNL A   1      37.915  30.699  29.053  1.00  0.00     0.031 C 
ATOM     18  C   UNL A   1      37.185  33.367  33.251  1.00  0.00     0.029 A 
ATOM     19  N   UNL A   1      38.897  31.929  33.241  1.00  0.00    -0.354 N 
ATOM     20  C   UNL A   1      39.700  29.462  29.781  1.00  0.00     0.074 A 
ATOM     21  C   UNL A   1      38.755  29.729  28.718  1.00  0.00     0.031 C 
ATOM     22  C   UNL A   1      37.812  33.484  34.430  1.00  0.00     0.029 A 
ATOM     23  C   UNL A   1      38.917  32.533  34.473  1.00  0.00     0.049 A 
ATOM     24  H   UNL A   1      39.547  31.243  32.964  1.00  0.00     0.167 HD
ATOM     25  C   UNL A   1      40.714  28.566  29.705  1.00  0.00     0.037 A 
ATOM     26  C   UNL A   1      39.724  32.330  35.531  1.00  0.00     0.037 A 
ATOM     27  C   UNL A   1      41.658  28.315  30.765  1.00  0.00     0.049 A 
ATOM     28  C   UNL A   1      40.818  31.307  35.428  1.00  0.00     0.074 A 
ATOM     29  C   UNL A   1      42.740  27.452  30.771  1.00  0.00     0.029 A 
ATOM     30  N   UNL A   1      41.627  28.923  32.013  1.00  0.00    -0.354 N 
ATOM     31  N   UNL A   1      41.148  30.550  34.411  1.00  0.00    -0.248 NA
ATOM     32  C   UNL A   1      41.646  31.105  36.625  1.00  0.00     0.031 C 
ATOM     33  C   UNL A   1      43.337  27.504  32.036  1.00  0.00     0.029 A 
ATOM     34  C   UNL A   1      42.657  28.435  32.803  1.00  0.00     0.049 A 
ATOM     35  H   UNL A   1      40.972  29.602  32.294  1.00  0.00     0.167 HD
ATOM     36  C   UNL A   1      42.230  29.795  34.835  1.00  0.00     0.074 A 
ATOM     37  C   UNL A   1      42.514  30.200  36.197  1.00  0.00     0.031 C 
ATOM     38  C   UNL A   1      42.924  28.848  34.157  1.00  0.00     0.037 A 
BRANCH  25  39
ATOM     39  C   UNL A   1      40.852  27.772  28.437  1.00  0.00     0.064 A 
ATOM     40  C   UNL A   1      41.667  28.206  27.382  1.00  0.00     0.173 A 
ATOM     41  C   UNL A   1      40.205  26.535  28.299  1.00  0.00     0.173 A 
ATOM     42  F   UNL A   1      42.301  29.386  27.459  1.00  0.00    -0.203 F 
ATOM     43  C   UNL A   1      41.813  27.440  26.227  1.00  0.00     0.198 A 
ATOM     44  C   UNL A   1      40.373  25.760  27.154  1.00  0.00     0.198 A 
ATOM     45  F   UNL A   1      39.419  26.069  29.282  1.00  0.00    -0.203 F 
ATOM     46  F   UNL A   1      42.567  27.893  25.215  1.00  0.00    -0.200 F 
ATOM     47  C   UNL A   1      41.172  26.215  26.117  1.00  0.00     0.200 A 
ATOM     48  F   UNL A   1      39.763  24.571  27.056  1.00  0.00    -0.200 F 
ATOM     49  F   UNL A   1      41.320  25.476  25.008  1.00  0.00    -0.200 F 
ENDBRANCH  25  39
BRANCH  26  50
ATOM     50  C   UNL A   1      39.517  33.116  36.774  1.00  0.00     0.064 A 
ATOM     51  C   UNL A   1      40.219  34.307  37.000  1.00  0.00     0.173 A 
ATOM     52  C   UNL A   1      38.596  32.704  37.749  1.00  0.00     0.173 A 
ATOM     53  F   UNL A   1      41.123  34.731  36.105  1.00  0.00    -0.203 F 
ATOM     54  C   UNL A   1      40.018  35.049  38.162  1.00  0.00     0.198 A 
ATOM     55  C   UNL A   1      38.375  33.462  38.895  1.00  0.00     0.198 A 
ATOM     56  F   UNL A   1      37.895  31.573  37.576  1.00  0.00    -0.203 F 
ATOM     57  F   UNL A   1      40.730  36.165  38.371  1.00  0.00    -0.200 F 
ATOM     58  C   UNL A   1      39.090  34.631  39.103  1.00  0.00     0.200 A 
ATOM     59  F   UNL A   1      37.464  33.064  39.794  1.00  0.00    -0.200 F 
ATOM     60  F   UNL A   1      38.889  35.353  40.215  1.00  0.00    -0.200 F 
ENDBRANCH  26  50
BRANCH  38  61
ATOM     61  C   UNL A   1      44.073  28.202  34.875  1.00  0.00     0.064 A 
ATOM     62  C   UNL A   1      45.356  28.767  34.862  1.00  0.00     0.173 A 
ATOM     63  C   UNL A   1      43.881  27.021  35.606  1.00  0.00     0.173 A 
ATOM     64  F   UNL A   1      45.593  29.887  34.162  1.00  0.00    -0.203 F 
ATOM     65  C   UNL A   1      46.413  28.159  35.535  1.00  0.00     0.198 A 
ATOM     66  C   UNL A   1      44.932  26.430  36.301  1.00  0.00     0.198 A 
ATOM     67  F   UNL A   1      42.671  26.443  35.653  1.00  0.00    -0.203 F 
ATOM     68  F   UNL A   1      47.641  28.690  35.469  1.00  0.00    -0.200 F 
ATOM     69  C   UNL A   1      46.198  26.995  36.259  1.00  0.00     0.200 A 
ATOM     70  F   UNL A   1      44.722  25.313  37.009  1.00  0.00    -0.200 F 
ATOM     71  F   UNL A   1      47.214  26.413  36.910  1.00  0.00    -0.200 F 
ENDBRANCH  38  61
ENDBRANCH  12  13
ENDBRANCH   5   7
ENDBRANCH   2   3
ENDBRANCH   1   2
BRANCH   1  72
ATOM     72  C   UNL A   1      31.480  30.825  26.053  1.00  0.00     0.023 C 
BRANCH  72  73
ATOM     73  C   UNL A   1      32.786  30.088  26.343  1.00  0.00     0.116 C 
BRANCH  73  74
ATOM     74  N   UNL A   1      33.479  29.708  25.130  1.00  0.00    -0.354 N 
ATOM     75  C   UNL A   1      33.197  28.737  24.217  1.00  0.00     0.248 C 
ATOM     76  H   UNL A   1      34.286  30.238  24.933  1.00  0.00     0.163 HD
ATOM     77  O   UNL A   1      33.970  28.645  23.255  1.00  0.00    -0.272 OA
BRANCH  75  78
ATOM     78  C   UNL A   1      31.970  27.808  24.384  1.00  0.00     0.228 C 
ATOM     79  C   UNL A   1      30.831  28.318  23.453  1.00  0.00     0.296 C 
ATOM     80  N   UNL A   1      32.303  26.419  24.018  1.00  0.00    -0.333 N 
ATOM     81  N   UNL A   1      31.057  28.110  22.000  1.00  0.00    -0.343 N 
ATOM     82  C   UNL A   1      32.566  26.149  22.604  1.00  0.00     0.180 C 
ATOM     83  C   UNL A   1      31.385  26.688  21.756  1.00  0.00     0.282 C 
ATOM     84  H   UNL A   1      31.832  28.697  21.689  1.00  0.00     0.346 HD
ATOM     85  H   UNL A   1      30.215  28.362  21.483  1.00  0.00     0.346 HD
BRANCH  80  86
ATOM     86  C   UNL A   1      32.543  25.432  24.941  1.00  0.00     0.148 A 
ATOM     87  N   UNL A   1      33.789  24.897  24.952  1.00  0.00    -0.237 NA
ATOM     88  C   UNL A   1      31.548  24.924  25.792  1.00  0.00     0.084 A 
ATOM     89  C   UNL A   1      34.060  23.882  25.808  1.00  0.00     0.126 A 
ATOM     90  C   UNL A   1      31.850  23.870  26.660  1.00  0.00     0.039 A 
ATOM     91  Cl  UNL A   1      29.905  25.463  25.754  1.00  0.00    -0.080 Cl
ATOM     92  C   UNL A   1      33.135  23.332  26.678  1.00  0.00     0.075 A 
BRANCH  92  93
ATOM     93  C   UNL A   1      33.525  22.203  27.580  1.00  0.00     0.417 C 
ATOM     94  F   UNL A   1      34.778  22.344  28.087  1.00  0.00    -0.166 F 
ATOM     95  F   UNL A   1      32.695  22.089  28.652  1.00  0.00    -0.166 F 
ATOM     96  F   UNL A   1      33.506  20.989  26.963  1.00  0.00    -0.166 F 
ENDBRANCH  92  93
ENDBRANCH  80  86
ENDBRANCH  75  78
ENDBRANCH  73  74
ENDBRANCH  72  73
ENDBRANCH   1  72
TORSDOF 13
ENDMDL
MODEL 3
REMARK VINA RESULT:     -12.3      1.650      2.755
REMARK SMILES O=C(NCCCCNC(=O)[C@H]1C[NH2+]CCN1c1ncc(C(F)(F)F)cc1Cl)c1ccc(-c2c3nc(c(-c4c(F)c(F)c(F)c(F)c4F)c4ccc([nH]4)c(-c4c(F)c(F)c(F)c(F)c4F)c4nc(c(-c5c(F)c(F)c(F)c(F)c5F)c5ccc2[nH]5)C=C4)C=C3)cc1
REMARK SMILES IDX 5 1 4 2 3 3 1 4 2 5 28 7 29 8 90 9 30 10 89 11 31 12 32 13
REMARK SMILES IDX 33 14 83 15 34 16 88 17 82 18 84 19 35 20 87 21 81 22 80 23
REMARK SMILES IDX 36 25 68 26 48 27 67 28 49 29 52 30 66 31 85 32 50 33 51 34
REMARK SMILES IDX 65 36 86 37 53 38 37 39 38 40 46 41 39 42 40 43 44 44 47 45
REMARK SMILES IDX 41 46 42 47 45 48 43 49 69 50 70 51 78 52 71 53 72 54 76 55
REMARK SMILES IDX 79 56 73 57 74 58 77 59 75 60 54 61 55 62 63 63 56 64 57 65
REMARK SMILES IDX 61 66 64 67 58 68 59 69 62 70 60 71 6 72 7 73 8 74 9 75
REMARK SMILES IDX 10 77 11 78 12 79 16 80 13 81 15 82 14 83 17 86 18 87 26 88
REMARK SMILES IDX 19 89 25 90 27 91 20 92 21 93 22 94 23 95 24 96
REMARK H PARENT 3 6 84 24 52 35 8 76 13 84 13 85
REMARK Flexibility Score: inf
ROOT
ATOM      1  C   UNL A   1      31.785  28.608  26.125  1.00  0.00     0.023 C 
ENDROOT
BRANCH   1   2
ATOM      2  C   UNL A   1      32.883  29.606  25.776  1.00  0.00     0.116 C 
BRANCH   2   3
ATOM      3  N   UNL A   1      32.533  30.976  26.117  1.00  0.00    -0.352 N 
ATOM      4  O   UNL A   1      32.593  32.903  27.287  1.00  0.00    -0.269 OA
ATOM      5  C   UNL A   1      33.108  31.817  27.039  1.00  0.00     0.251 C 
ATOM      6  H   UNL A   1      31.776  31.356  25.615  1.00  0.00     0.163 HD
BRANCH   5   7
ATOM      7  C   UNL A   1      34.335  31.404  27.753  1.00  0.00     0.039 A 
ATOM      8  C   UNL A   1      34.489  30.095  28.214  1.00  0.00     0.014 A 
ATOM      9  C   UNL A   1      35.353  32.341  27.952  1.00  0.00     0.014 A 
ATOM     10  C   UNL A   1      35.598  29.759  28.984  1.00  0.00     0.010 A 
ATOM     11  C   UNL A   1      36.503  31.981  28.659  1.00  0.00     0.010 A 
ATOM     12  C   UNL A   1      36.623  30.694  29.204  1.00  0.00    -0.014 A 
BRANCH  12  13
ATOM     13  C   UNL A   1      37.841  30.283  29.945  1.00  0.00     0.031 A 
ATOM     14  C   UNL A   1      38.085  30.735  31.356  1.00  0.00     0.074 A 
ATOM     15  C   UNL A   1      38.726  29.474  29.331  1.00  0.00     0.049 A 
ATOM     16  N   UNL A   1      39.096  30.468  32.145  1.00  0.00    -0.248 NA
ATOM     17  C   UNL A   1      37.066  31.606  31.962  1.00  0.00     0.031 C 
ATOM     18  C   UNL A   1      38.599  28.979  27.959  1.00  0.00     0.029 A 
ATOM     19  N   UNL A   1      39.897  28.916  29.778  1.00  0.00    -0.354 N 
ATOM     20  C   UNL A   1      38.843  31.146  33.331  1.00  0.00     0.074 A 
ATOM     21  C   UNL A   1      37.597  31.859  33.151  1.00  0.00     0.031 C 
ATOM     22  C   UNL A   1      39.627  28.162  27.689  1.00  0.00     0.029 A 
ATOM     23  C   UNL A   1      40.516  28.124  28.845  1.00  0.00     0.049 A 
ATOM     24  H   UNL A   1      40.257  29.070  30.682  1.00  0.00     0.167 HD
ATOM     25  C   UNL A   1      39.583  31.160  34.467  1.00  0.00     0.037 A 
ATOM     26  C   UNL A   1      41.682  27.454  28.903  1.00  0.00     0.037 A 
ATOM     27  C   UNL A   1      40.818  30.437  34.643  1.00  0.00     0.049 A 
ATOM     28  C   UNL A   1      42.496  27.516  30.163  1.00  0.00     0.074 A 
ATOM     29  C   UNL A   1      41.622  30.361  35.766  1.00  0.00     0.029 A 
ATOM     30  N   UNL A   1      41.431  29.669  33.662  1.00  0.00    -0.354 N 
ATOM     31  N   UNL A   1      42.231  28.134  31.288  1.00  0.00    -0.248 NA
ATOM     32  C   UNL A   1      43.775  26.794  30.159  1.00  0.00     0.031 C 
ATOM     33  C   UNL A   1      42.744  29.586  35.453  1.00  0.00     0.029 A 
ATOM     34  C   UNL A   1      42.615  29.137  34.149  1.00  0.00     0.049 A 
ATOM     35  H   UNL A   1      41.077  29.523  32.755  1.00  0.00     0.167 HD
ATOM     36  C   UNL A   1      43.298  27.863  32.131  1.00  0.00     0.074 A 
ATOM     37  C   UNL A   1      44.205  27.007  31.394  1.00  0.00     0.031 C 
ATOM     38  C   UNL A   1      43.508  28.289  33.400  1.00  0.00     0.037 A 
BRANCH  25  39
ATOM     39  C   UNL A   1      39.089  31.997  35.613  1.00  0.00     0.064 A 
ATOM     40  C   UNL A   1      38.284  31.458  36.626  1.00  0.00     0.173 A 
ATOM     41  C   UNL A   1      39.474  33.343  35.727  1.00  0.00     0.173 A 
ATOM     42  F   UNL A   1      37.881  30.180  36.560  1.00  0.00    -0.203 F 
ATOM     43  C   UNL A   1      37.864  32.240  37.700  1.00  0.00     0.198 A 
ATOM     44  C   UNL A   1      39.074  34.114  36.815  1.00  0.00     0.198 A 
ATOM     45  F   UNL A   1      40.250  33.906  34.789  1.00  0.00    -0.203 F 
ATOM     46  F   UNL A   1      37.063  31.714  38.637  1.00  0.00    -0.200 F 
ATOM     47  C   UNL A   1      38.265  33.564  37.798  1.00  0.00     0.200 A 
ATOM     48  F   UNL A   1      39.473  35.389  36.914  1.00  0.00    -0.200 F 
ATOM     49  F   UNL A   1      37.867  34.312  38.837  1.00  0.00    -0.200 F 
ENDBRANCH  25  39
BRANCH  26  50
ATOM     50  C   UNL A   1      42.141  26.674  27.726  1.00  0.00     0.064 A 
ATOM     51  C   UNL A   1      43.068  27.210  26.823  1.00  0.00     0.173 A 
ATOM     52  C   UNL A   1      41.678  25.370  27.494  1.00  0.00     0.173 A 
ATOM     53  F   UNL A   1      43.524  28.459  26.994  1.00  0.00    -0.203 F 
ATOM     54  C   UNL A   1      43.506  26.475  25.723  1.00  0.00     0.198 A 
ATOM     55  C   UNL A   1      42.139  24.626  26.411  1.00  0.00     0.198 A 
ATOM     56  F   UNL A   1      40.794  24.811  28.333  1.00  0.00    -0.203 F 
ATOM     57  F   UNL A   1      44.365  27.024  24.854  1.00  0.00    -0.200 F 
ATOM     58  C   UNL A   1      43.048  25.181  25.523  1.00  0.00     0.200 A 
ATOM     59  F   UNL A   1      41.708  23.370  26.232  1.00  0.00    -0.200 F 
ATOM     60  F   UNL A   1      43.479  24.470  24.472  1.00  0.00    -0.200 F 
ENDBRANCH  26  50
BRANCH  38  61
ATOM     61  C   UNL A   1      44.760  27.814  34.079  1.00  0.00     0.064 A 
ATOM     62  C   UNL A   1      45.946  28.563  34.036  1.00  0.00     0.173 A 
ATOM     63  C   UNL A   1      44.764  26.614  34.803  1.00  0.00     0.173 A 
ATOM     64  F   UNL A   1      45.995  29.709  33.342  1.00  0.00    -0.203 F 
ATOM     65  C   UNL A   1      47.098  28.112  34.673  1.00  0.00     0.198 A 
ATOM     66  C   UNL A   1      45.910  26.180  35.463  1.00  0.00     0.198 A 
ATOM     67  F   UNL A   1      43.654  25.865  34.878  1.00  0.00    -0.203 F 
ATOM     68  F   UNL A   1      48.233  28.817  34.579  1.00  0.00    -0.200 F 
ATOM     69  C   UNL A   1      47.078  26.925  35.392  1.00  0.00     0.200 A 
ATOM     70  F   UNL A   1      45.886  25.039  36.165  1.00  0.00    -0.200 F 
ATOM     71  F   UNL A   1      48.187  26.494  36.008  1.00  0.00    -0.200 F 
ENDBRANCH  38  61
ENDBRANCH  12  13
ENDBRANCH   5   7
ENDBRANCH   2   3
ENDBRANCH   1   2
BRANCH   1  72
ATOM     72  C   UNL A   1      32.261  27.212  26.535  1.00  0.00     0.023 C 
BRANCH  72  73
ATOM     73  C   UNL A   1      33.587  26.764  25.923  1.00  0.00     0.116 C 
BRANCH  73  74
ATOM     74  N   UNL A   1      33.832  25.352  26.127  1.00  0.00    -0.354 N 
ATOM     75  C   UNL A   1      33.782  24.309  25.251  1.00  0.00     0.248 C 
ATOM     76  H   UNL A   1      34.074  25.105  27.049  1.00  0.00     0.163 HD
ATOM     77  O   UNL A   1      34.055  23.192  25.709  1.00  0.00    -0.272 OA
BRANCH  75  78
ATOM     78  C   UNL A   1      33.406  24.525  23.765  1.00  0.00     0.228 C 
ATOM     79  C   UNL A   1      34.013  23.362  22.926  1.00  0.00     0.296 C 
ATOM     80  N   UNL A   1      31.943  24.533  23.584  1.00  0.00    -0.333 N 
ATOM     81  N   UNL A   1      33.370  22.037  23.116  1.00  0.00    -0.343 N 
ATOM     82  C   UNL A   1      31.241  23.265  23.785  1.00  0.00     0.180 C 
ATOM     83  C   UNL A   1      31.910  22.170  22.915  1.00  0.00     0.282 C 
ATOM     84  H   UNL A   1      33.555  21.703  24.063  1.00  0.00     0.346 HD
ATOM     85  H   UNL A   1      33.750  21.372  22.444  1.00  0.00     0.346 HD
BRANCH  80  86
ATOM     86  C   UNL A   1      31.210  25.680  23.414  1.00  0.00     0.148 A 
ATOM     87  N   UNL A   1      29.977  25.706  23.978  1.00  0.00    -0.237 NA
ATOM     88  C   UNL A   1      31.653  26.761  22.634  1.00  0.00     0.084 A 
ATOM     89  C   UNL A   1      29.193  26.797  23.792  1.00  0.00     0.126 A 
ATOM     90  C   UNL A   1      30.822  27.870  22.449  1.00  0.00     0.039 A 
ATOM     91  Cl  UNL A   1      33.157  26.756  21.779  1.00  0.00    -0.080 Cl
ATOM     92  C   UNL A   1      29.561  27.900  23.042  1.00  0.00     0.075 A 
BRANCH  92  93
ATOM     93  C   UNL A   1      28.622  29.053  22.884  1.00  0.00     0.417 C 
ATOM     94  F   UNL A   1      28.950  30.111  23.673  1.00  0.00    -0.166 F 
ATOM     95  F   UNL A   1      28.597  29.528  21.609  1.00  0.00    -0.166 F 
ATOM     96  F   UNL A   1      27.332  28.744  23.191  1.00  0.00    -0.166 F 
ENDBRANCH  92  93
ENDBRANCH  80  86
ENDBRANCH  75  78
ENDBRANCH  73  74
ENDBRANCH  72  73
ENDBRANCH   1  72
TORSDOF 13
ENDMDL
