MODEL 1
REMARK VINA RESULT:     -12.3      0.000      0.000
REMARK SMILES CC[C@@H](C(=O)NCCCCNC(=O)c1ccc(-c2c3nc(c(-c4c(F)c(F)c(F)c(F)c4F)c4ccc([nH]4)c(-c4c(F)c(F)c(F)c(F)c4F)c4nc(c(-c5c(F)c(F)c(F)c(F)c5F)c5ccc2[nH]5)C=C4)C=C3)cc1)N1C(=O)/C(=C/c2ccccc2[N+](=O)[O-])SC1=S
REMARK SMILES IDX 8 1 7 2 6 3 4 4 5 5 3 7 2 8 1 9 77 10 78 11 92 12 79 13
REMARK SMILES IDX 80 14 91 15 93 16 81 17 82 18 83 19 87 20 84 21 86 22 85 23
REMARK SMILES IDX 88 24 89 25 90 26 9 27 10 28 11 29 12 30 13 32 14 33 15 34
REMARK SMILES IDX 76 35 16 36 75 37 17 38 18 39 19 40 69 41 20 42 74 43 68 44
REMARK SMILES IDX 70 45 21 46 73 47 67 48 66 49 22 51 54 52 34 53 53 54 35 55
REMARK SMILES IDX 38 56 52 57 71 58 36 59 37 60 51 62 72 63 39 64 23 65 24 66
REMARK SMILES IDX 32 67 25 68 26 69 30 70 33 71 27 72 28 73 31 74 29 75 55 76
REMARK SMILES IDX 56 77 64 78 57 79 58 80 62 81 65 82 59 83 60 84 63 85 61 86
REMARK SMILES IDX 40 87 41 88 49 89 42 90 43 91 47 92 50 93 44 94 45 95 48 96
REMARK SMILES IDX 46 97
REMARK H PARENT 6 6 11 31 70 50 38 61
REMARK Flexibility Score: inf
ROOT
ATOM      1  C   UNL A   1      31.594  30.958  26.149  1.00  0.00     0.023 C 
ENDROOT
BRANCH   1   2
ATOM      2  C   UNL A   1      32.659  30.078  26.817  1.00  0.00     0.116 C 
BRANCH   2   3
ATOM      3  N   UNL A   1      32.078  28.799  27.181  1.00  0.00    -0.354 N 
ATOM      4  C   UNL A   1      31.496  27.843  26.394  1.00  0.00     0.243 C 
ATOM      5  O   UNL A   1      30.719  27.057  26.945  1.00  0.00    -0.273 OA
ATOM      6  H   UNL A   1      32.107  28.587  28.141  1.00  0.00     0.163 HD
BRANCH   4   7
ATOM      7  C   UNL A   1      31.799  27.754  24.870  1.00  0.00     0.181 C 
BRANCH   7   8
ATOM      8  C   UNL A   1      30.441  27.702  24.122  1.00  0.00     0.032 C 
ATOM      9  C   UNL A   1      29.957  28.932  23.387  1.00  0.00     0.006 C 
ENDBRANCH   7   8
BRANCH   7  10
ATOM     10  N   UNL A   1      32.583  26.489  24.632  1.00  0.00    -0.280 N 
ATOM     11  C   UNL A   1      33.632  26.149  25.485  1.00  0.00     0.266 C 
ATOM     12  C   UNL A   1      32.611  25.741  23.474  1.00  0.00     0.149 C 
ATOM     13  O   UNL A   1      34.169  26.880  26.306  1.00  0.00    -0.268 OA
ATOM     14  C   UNL A   1      34.128  24.774  25.169  1.00  0.00     0.081 C 
ATOM     15  S   UNL A   1      33.238  24.146  23.841  1.00  0.00    -0.054 SA
ATOM     16  S   UNL A   1      32.281  26.155  21.893  1.00  0.00    -0.052 S 
ATOM     17  C   UNL A   1      35.165  24.168  25.768  1.00  0.00     0.036 C 
BRANCH  17  18
ATOM     18  C   UNL A   1      35.696  22.864  25.323  1.00  0.00     0.054 A 
ATOM     19  C   UNL A   1      36.866  22.873  24.547  1.00  0.00     0.015 A 
ATOM     20  C   UNL A   1      35.175  21.611  25.715  1.00  0.00     0.276 A 
ATOM     21  C   UNL A   1      37.506  21.676  24.199  1.00  0.00     0.001 A 
ATOM     22  C   UNL A   1      35.823  20.412  25.376  1.00  0.00     0.086 A 
ATOM     23  C   UNL A   1      36.992  20.451  24.620  1.00  0.00     0.007 A 
BRANCH  20  24
ATOM     24  N   UNL A   1      33.956  21.509  26.520  1.00  0.00     0.063 N 
ATOM     25  O   UNL A   1      32.904  21.229  25.927  1.00  0.00    -0.258 OA
ATOM     26  O   UNL A   1      34.042  21.727  27.736  1.00  0.00    -0.258 OA
ENDBRANCH  20  24
ENDBRANCH  17  18
ENDBRANCH   7  10
ENDBRANCH   4   7
ENDBRANCH   2   3
ENDBRANCH   1   2
BRANCH   1  27
ATOM     27  C   UNL A   1      31.354  32.306  26.814  1.00  0.00     0.023 C 
BRANCH  27  28
ATOM     28  C   UNL A   1      32.616  32.991  27.298  1.00  0.00     0.116 C 
BRANCH  28  29
ATOM     29  N   UNL A   1      32.401  34.379  27.685  1.00  0.00    -0.352 N 
ATOM     30  C   UNL A   1      33.024  35.112  28.664  1.00  0.00     0.251 C 
ATOM     31  H   UNL A   1      31.711  34.859  27.170  1.00  0.00     0.163 HD
ATOM     32  O   UNL A   1      32.632  36.242  28.936  1.00  0.00    -0.269 OA
BRANCH  30  33
ATOM     33  C   UNL A   1      34.150  34.517  29.411  1.00  0.00     0.039 A 
ATOM     34  C   UNL A   1      33.893  33.844  30.608  1.00  0.00     0.014 A 
ATOM     35  C   UNL A   1      35.454  34.599  28.916  1.00  0.00     0.014 A 
ATOM     36  C   UNL A   1      34.939  33.212  31.280  1.00  0.00     0.010 A 
ATOM     37  C   UNL A   1      36.470  33.874  29.521  1.00  0.00     0.010 A 
ATOM     38  C   UNL A   1      36.230  33.201  30.727  1.00  0.00    -0.014 A 
BRANCH  38  39
ATOM     39  C   UNL A   1      37.366  32.555  31.428  1.00  0.00     0.031 A 
ATOM     40  C   UNL A   1      38.093  31.417  30.764  1.00  0.00     0.074 A 
ATOM     41  C   UNL A   1      37.704  32.950  32.670  1.00  0.00     0.049 A 
ATOM     42  N   UNL A   1      39.068  30.674  31.222  1.00  0.00    -0.248 NA
ATOM     43  C   UNL A   1      37.632  31.032  29.419  1.00  0.00     0.031 C 
ATOM     44  C   UNL A   1      37.032  33.996  33.441  1.00  0.00     0.029 A 
ATOM     45  N   UNL A   1      38.701  32.510  33.503  1.00  0.00    -0.354 N 
ATOM     46  C   UNL A   1      39.314  29.728  30.235  1.00  0.00     0.074 A 
ATOM     47  C   UNL A   1      38.341  29.939  29.188  1.00  0.00     0.031 C 
ATOM     48  C   UNL A   1      37.657  34.142  34.621  1.00  0.00     0.029 A 
ATOM     49  C   UNL A   1      38.753  33.183  34.700  1.00  0.00     0.049 A 
ATOM     50  H   UNL A   1      39.320  31.783  33.266  1.00  0.00     0.167 HD
ATOM     51  C   UNL A   1      40.290  28.791  30.185  1.00  0.00     0.037 A 
ATOM     52  C   UNL A   1      39.601  33.040  35.736  1.00  0.00     0.037 A 
ATOM     53  C   UNL A   1      41.286  28.619  31.207  1.00  0.00     0.049 A 
ATOM     54  C   UNL A   1      40.701  32.016  35.641  1.00  0.00     0.074 A 
ATOM     55  C   UNL A   1      42.358  27.746  31.232  1.00  0.00     0.029 A 
ATOM     56  N   UNL A   1      41.334  29.347  32.387  1.00  0.00    -0.354 N 
ATOM     57  N   UNL A   1      40.970  31.175  34.672  1.00  0.00    -0.248 NA
ATOM     58  C   UNL A   1      41.625  31.935  36.780  1.00  0.00     0.031 C 
ATOM     59  C   UNL A   1      43.035  27.921  32.444  1.00  0.00     0.029 A 
ATOM     60  C   UNL A   1      42.413  28.936  33.153  1.00  0.00     0.049 A 
ATOM     61  H   UNL A   1      40.696  30.052  32.643  1.00  0.00     0.167 HD
ATOM     62  C   UNL A   1      42.107  30.486  35.070  1.00  0.00     0.074 A 
ATOM     63  C   UNL A   1      42.489  31.023  36.360  1.00  0.00     0.031 C 
ATOM     64  C   UNL A   1      42.777  29.494  34.430  1.00  0.00     0.037 A 
BRANCH  51  65
ATOM     65  C   UNL A   1      40.331  27.900  28.978  1.00  0.00     0.064 A 
ATOM     66  C   UNL A   1      41.074  28.240  27.837  1.00  0.00     0.173 A 
ATOM     67  C   UNL A   1      39.627  26.687  28.962  1.00  0.00     0.173 A 
ATOM     68  F   UNL A   1      41.752  29.397  27.793  1.00  0.00    -0.203 F 
ATOM     69  C   UNL A   1      41.080  27.419  26.712  1.00  0.00     0.198 A 
ATOM     70  C   UNL A   1      39.663  25.851  27.848  1.00  0.00     0.198 A 
ATOM     71  F   UNL A   1      38.902  26.311  30.026  1.00  0.00    -0.203 F 
ATOM     72  F   UNL A   1      41.747  27.797  25.613  1.00  0.00    -0.200 F 
ATOM     73  C   UNL A   1      40.381  26.223  26.721  1.00  0.00     0.200 A 
ATOM     74  F   UNL A   1      38.995  24.689  27.862  1.00  0.00    -0.200 F 
ATOM     75  F   UNL A   1      40.390  25.431  25.640  1.00  0.00    -0.200 F 
ENDBRANCH  51  65
BRANCH  52  76
ATOM     76  C   UNL A   1      39.477  33.918  36.929  1.00  0.00     0.064 A 
ATOM     77  C   UNL A   1      38.761  33.497  38.058  1.00  0.00     0.173 A 
ATOM     78  C   UNL A   1      40.056  35.195  36.963  1.00  0.00     0.173 A 
ATOM     79  F   UNL A   1      38.173  32.291  38.066  1.00  0.00    -0.203 F 
ATOM     80  C   UNL A   1      38.606  34.329  39.165  1.00  0.00     0.198 A 
ATOM     81  C   UNL A   1      39.924  36.014  38.082  1.00  0.00     0.198 A 
ATOM     82  F   UNL A   1      40.758  35.642  35.912  1.00  0.00    -0.203 F 
ATOM     83  F   UNL A   1      37.872  33.919  40.210  1.00  0.00    -0.200 F 
ATOM     84  C   UNL A   1      39.191  35.585  39.178  1.00  0.00     0.200 A 
ATOM     85  F   UNL A   1      40.503  37.223  38.097  1.00  0.00    -0.200 F 
ATOM     86  F   UNL A   1      39.041  36.385  40.243  1.00  0.00    -0.200 F 
ENDBRANCH  52  76
BRANCH  64  87
ATOM     87  C   UNL A   1      44.007  28.958  35.101  1.00  0.00     0.064 A 
ATOM     88  C   UNL A   1      45.275  29.505  34.862  1.00  0.00     0.173 A 
ATOM     89  C   UNL A   1      43.909  27.897  36.014  1.00  0.00     0.173 A 
ATOM     90  F   UNL A   1      45.422  30.512  33.986  1.00  0.00    -0.203 F 
ATOM     91  C   UNL A   1      46.406  28.986  35.483  1.00  0.00     0.198 A 
ATOM     92  C   UNL A   1      45.038  27.402  36.660  1.00  0.00     0.198 A 
ATOM     93  F   UNL A   1      42.716  27.346  36.287  1.00  0.00    -0.203 F 
ATOM     94  F   UNL A   1      47.616  29.485  35.194  1.00  0.00    -0.200 F 
ATOM     95  C   UNL A   1      46.286  27.940  36.386  1.00  0.00     0.200 A 
ATOM     96  F   UNL A   1      44.918  26.401  37.542  1.00  0.00    -0.200 F 
ATOM     97  F   UNL A   1      47.377  27.441  36.985  1.00  0.00    -0.200 F 
ENDBRANCH  64  87
ENDBRANCH  38  39
ENDBRANCH  30  33
ENDBRANCH  28  29
ENDBRANCH  27  28
ENDBRANCH   1  27
TORSDOF 15
ENDMDL
MODEL 2
REMARK VINA RESULT:     -12.3      0.757      7.280
REMARK SMILES CC[C@@H](C(=O)NCCCCNC(=O)c1ccc(-c2c3nc(c(-c4c(F)c(F)c(F)c(F)c4F)c4ccc([nH]4)c(-c4c(F)c(F)c(F)c(F)c4F)c4nc(c(-c5c(F)c(F)c(F)c(F)c5F)c5ccc2[nH]5)C=C4)C=C3)cc1)N1C(=O)/C(=C/c2ccccc2[N+](=O)[O-])SC1=S
REMARK SMILES IDX 8 1 7 2 6 3 4 4 5 5 3 7 2 8 1 9 77 10 78 11 92 12 79 13
REMARK SMILES IDX 80 14 91 15 93 16 81 17 82 18 83 19 87 20 84 21 86 22 85 23
REMARK SMILES IDX 88 24 89 25 90 26 9 27 10 28 11 29 12 30 13 32 14 33 15 34
REMARK SMILES IDX 76 35 16 36 75 37 17 38 18 39 19 40 69 41 20 42 74 43 68 44
REMARK SMILES IDX 70 45 21 46 73 47 67 48 66 49 22 51 54 52 34 53 53 54 35 55
REMARK SMILES IDX 38 56 52 57 71 58 36 59 37 60 51 62 72 63 39 64 23 65 24 66
REMARK SMILES IDX 32 67 25 68 26 69 30 70 33 71 27 72 28 73 31 74 29 75 55 76
REMARK SMILES IDX 56 77 64 78 57 79 58 80 62 81 65 82 59 83 60 84 63 85 61 86
REMARK SMILES IDX 40 87 41 88 49 89 42 90 43 91 47 92 50 93 44 94 45 95 48 96
REMARK SMILES IDX 46 97
REMARK H PARENT 6 6 11 31 70 50 38 61
REMARK Flexibility Score: inf
ROOT
ATOM      1  C   UNL A   1      31.398  30.907  25.919  1.00  0.00     0.023 C 
ENDROOT
BRANCH   1   2
ATOM      2  C   UNL A   1      32.522  30.064  26.533  1.00  0.00     0.116 C 
BRANCH   2   3
ATOM      3  N   UNL A   1      31.995  28.782  26.962  1.00  0.00    -0.354 N 
ATOM      4  C   UNL A   1      31.427  27.776  26.228  1.00  0.00     0.243 C 
ATOM      5  O   UNL A   1      30.689  26.988  26.828  1.00  0.00    -0.273 OA
ATOM      6  H   UNL A   1      32.053  28.609  27.929  1.00  0.00     0.163 HD
BRANCH   4   7
ATOM      7  C   UNL A   1      31.696  27.636  24.701  1.00  0.00     0.181 C 
BRANCH   7   8
ATOM      8  C   UNL A   1      30.323  27.525  23.988  1.00  0.00     0.032 C 
ATOM      9  C   UNL A   1      29.823  28.693  23.167  1.00  0.00     0.006 C 
ENDBRANCH   7   8
BRANCH   7  10
ATOM     10  N   UNL A   1      32.504  26.381  24.493  1.00  0.00    -0.280 N 
ATOM     11  C   UNL A   1      33.548  26.073  25.363  1.00  0.00     0.266 C 
ATOM     12  C   UNL A   1      32.559  25.616  23.346  1.00  0.00     0.149 C 
ATOM     13  O   UNL A   1      34.063  26.825  26.179  1.00  0.00    -0.268 OA
ATOM     14  C   UNL A   1      34.071  24.701  25.074  1.00  0.00     0.081 C 
ATOM     15  S   UNL A   1      33.207  24.038  23.746  1.00  0.00    -0.054 SA
ATOM     16  S   UNL A   1      32.240  26.000  21.755  1.00  0.00    -0.052 S 
ATOM     17  C   UNL A   1      35.111  24.122  25.695  1.00  0.00     0.036 C 
BRANCH  17  18
ATOM     18  C   UNL A   1      35.668  22.820  25.276  1.00  0.00     0.054 A 
ATOM     19  C   UNL A   1      36.856  22.836  24.529  1.00  0.00     0.015 A 
ATOM     20  C   UNL A   1      35.153  21.565  25.669  1.00  0.00     0.276 A 
ATOM     21  C   UNL A   1      37.520  21.644  24.210  1.00  0.00     0.001 A 
ATOM     22  C   UNL A   1      35.825  20.370  25.358  1.00  0.00     0.086 A 
ATOM     23  C   UNL A   1      37.011  20.416  24.631  1.00  0.00     0.007 A 
BRANCH  20  24
ATOM     24  N   UNL A   1      33.916  21.455  26.445  1.00  0.00     0.063 N 
ATOM     25  O   UNL A   1      32.872  21.224  25.820  1.00  0.00    -0.258 OA
ATOM     26  O   UNL A   1      33.982  21.621  27.671  1.00  0.00    -0.258 OA
ENDBRANCH  20  24
ENDBRANCH  17  18
ENDBRANCH   7  10
ENDBRANCH   4   7
ENDBRANCH   2   3
ENDBRANCH   1   2
BRANCH   1  27
ATOM     27  C   UNL A   1      31.227  32.297  26.515  1.00  0.00     0.023 C 
BRANCH  27  28
ATOM     28  C   UNL A   1      32.470  32.838  27.193  1.00  0.00     0.116 C 
BRANCH  28  29
ATOM     29  N   UNL A   1      32.316  34.209  27.659  1.00  0.00    -0.352 N 
ATOM     30  C   UNL A   1      33.025  34.880  28.624  1.00  0.00     0.251 C 
ATOM     31  H   UNL A   1      31.603  34.727  27.219  1.00  0.00     0.163 HD
ATOM     32  O   UNL A   1      32.680  36.005  28.976  1.00  0.00    -0.269 OA
BRANCH  30  33
ATOM     33  C   UNL A   1      34.186  34.227  29.259  1.00  0.00     0.039 A 
ATOM     34  C   UNL A   1      33.969  33.277  30.259  1.00  0.00     0.014 A 
ATOM     35  C   UNL A   1      35.486  34.532  28.848  1.00  0.00     0.014 A 
ATOM     36  C   UNL A   1      35.056  32.597  30.810  1.00  0.00     0.010 A 
ATOM     37  C   UNL A   1      36.552  33.776  29.311  1.00  0.00     0.010 A 
ATOM     38  C   UNL A   1      36.353  32.824  30.321  1.00  0.00    -0.014 A 
BRANCH  38  39
ATOM     39  C   UNL A   1      37.529  32.133  30.900  1.00  0.00     0.031 A 
ATOM     40  C   UNL A   1      38.000  32.506  32.280  1.00  0.00     0.074 A 
ATOM     41  C   UNL A   1      38.201  31.220  30.172  1.00  0.00     0.049 A 
ATOM     42  N   UNL A   1      39.040  32.074  32.948  1.00  0.00    -0.248 NA
ATOM     43  C   UNL A   1      37.224  33.538  32.988  1.00  0.00     0.031 C 
ATOM     44  C   UNL A   1      37.879  30.824  28.801  1.00  0.00     0.029 A 
ATOM     45  N   UNL A   1      39.300  30.462  30.489  1.00  0.00    -0.354 N 
ATOM     46  C   UNL A   1      39.050  32.797  34.134  1.00  0.00     0.074 A 
ATOM     47  C   UNL A   1      37.964  33.746  34.065  1.00  0.00     0.031 C 
ATOM     48  C   UNL A   1      38.739  29.871  28.406  1.00  0.00     0.029 A 
ATOM     49  C   UNL A   1      39.687  29.611  29.484  1.00  0.00     0.049 A 
ATOM     50  H   UNL A   1      39.765  30.523  31.353  1.00  0.00     0.167 HD
ATOM     51  C   UNL A   1      39.868  32.655  35.204  1.00  0.00     0.037 A 
ATOM     52  C   UNL A   1      40.692  28.716  29.447  1.00  0.00     0.037 A 
ATOM     53  C   UNL A   1      40.916  31.675  35.286  1.00  0.00     0.049 A 
ATOM     54  C   UNL A   1      41.565  28.552  30.664  1.00  0.00     0.074 A 
ATOM     55  C   UNL A   1      41.762  31.400  36.344  1.00  0.00     0.029 A 
ATOM     56  N   UNL A   1      41.252  30.799  34.264  1.00  0.00    -0.354 N 
ATOM     57  N   UNL A   1      41.521  29.189  31.808  1.00  0.00    -0.248 NA
ATOM     58  C   UNL A   1      42.616  27.529  30.587  1.00  0.00     0.031 C 
ATOM     59  C   UNL A   1      42.636  30.381  35.950  1.00  0.00     0.029 A 
ATOM     60  C   UNL A   1      42.302  29.988  34.664  1.00  0.00     0.049 A 
ATOM     61  H   UNL A   1      40.811  30.759  33.385  1.00  0.00     0.167 HD
ATOM     62  C   UNL A   1      42.517  28.629  32.596  1.00  0.00     0.074 A 
ATOM     63  C   UNL A   1      43.133  27.583  31.805  1.00  0.00     0.031 C 
ATOM     64  C   UNL A   1      42.892  28.949  33.860  1.00  0.00     0.037 A 
BRANCH  51  65
ATOM     65  C   UNL A   1      39.642  33.572  36.371  1.00  0.00     0.064 A 
ATOM     66  C   UNL A   1      38.822  33.203  37.449  1.00  0.00     0.173 A 
ATOM     67  C   UNL A   1      40.258  34.831  36.420  1.00  0.00     0.173 A 
ATOM     68  F   UNL A   1      38.195  32.017  37.445  1.00  0.00    -0.203 F 
ATOM     69  C   UNL A   1      38.597  34.074  38.512  1.00  0.00     0.198 A 
ATOM     70  C   UNL A   1      40.058  35.687  37.501  1.00  0.00     0.198 A 
ATOM     71  F   UNL A   1      41.053  35.235  35.417  1.00  0.00    -0.203 F 
ATOM     72  F   UNL A   1      37.760  33.723  39.498  1.00  0.00    -0.200 F 
ATOM     73  C   UNL A   1      39.220  35.311  38.540  1.00  0.00     0.200 A 
ATOM     74  F   UNL A   1      40.670  36.878  37.532  1.00  0.00    -0.200 F 
ATOM     75  F   UNL A   1      39.006  36.148  39.565  1.00  0.00    -0.200 F 
ENDBRANCH  51  65
BRANCH  52  76
ATOM     76  C   UNL A   1      40.899  27.873  28.241  1.00  0.00     0.064 A 
ATOM     77  C   UNL A   1      40.295  26.612  28.136  1.00  0.00     0.173 A 
ATOM     78  C   UNL A   1      41.708  28.299  27.178  1.00  0.00     0.173 A 
ATOM     79  F   UNL A   1      39.526  26.152  29.135  1.00  0.00    -0.203 F 
ATOM     80  C   UNL A   1      40.514  25.797  27.026  1.00  0.00     0.198 A 
ATOM     81  C   UNL A   1      41.904  27.495  26.057  1.00  0.00     0.198 A 
ATOM     82  F   UNL A   1      42.302  29.500  27.225  1.00  0.00    -0.203 F 
ATOM     83  F   UNL A   1      39.966  24.576  26.976  1.00  0.00    -0.200 F 
ATOM     84  C   UNL A   1      41.315  26.242  25.986  1.00  0.00     0.200 A 
ATOM     85  F   UNL A   1      42.667  27.933  25.046  1.00  0.00    -0.200 F 
ATOM     86  F   UNL A   1      41.527  25.458  24.919  1.00  0.00    -0.200 F 
ENDBRANCH  52  76
BRANCH  64  87
ATOM     87  C   UNL A   1      43.995  28.135  34.471  1.00  0.00     0.064 A 
ATOM     88  C   UNL A   1      43.736  26.934  35.148  1.00  0.00     0.173 A 
ATOM     89  C   UNL A   1      45.330  28.552  34.355  1.00  0.00     0.173 A 
ATOM     90  F   UNL A   1      42.475  26.501  35.297  1.00  0.00    -0.203 F 
ATOM     91  C   UNL A   1      44.770  26.200  35.720  1.00  0.00     0.198 A 
ATOM     92  C   UNL A   1      46.365  27.797  34.899  1.00  0.00     0.198 A 
ATOM     93  F   UNL A   1      45.630  29.687  33.707  1.00  0.00    -0.203 F 
ATOM     94  F   UNL A   1      44.495  25.087  36.414  1.00  0.00    -0.200 F 
ATOM     95  C   UNL A   1      46.083  26.628  35.589  1.00  0.00     0.200 A 
ATOM     96  F   UNL A   1      47.633  28.205  34.760  1.00  0.00    -0.200 F 
ATOM     97  F   UNL A   1      47.078  25.919  36.140  1.00  0.00    -0.200 F 
ENDBRANCH  64  87
ENDBRANCH  38  39
ENDBRANCH  30  33
ENDBRANCH  28  29
ENDBRANCH  27  28
ENDBRANCH   1  27
TORSDOF 15
ENDMDL
MODEL 3
REMARK VINA RESULT:     -12.1      1.578      7.383
REMARK SMILES CC[C@@H](C(=O)NCCCCNC(=O)c1ccc(-c2c3nc(c(-c4c(F)c(F)c(F)c(F)c4F)c4ccc([nH]4)c(-c4c(F)c(F)c(F)c(F)c4F)c4nc(c(-c5c(F)c(F)c(F)c(F)c5F)c5ccc2[nH]5)C=C4)C=C3)cc1)N1C(=O)/C(=C/c2ccccc2[N+](=O)[O-])SC1=S
REMARK SMILES IDX 8 1 7 2 6 3 4 4 5 5 3 7 2 8 1 9 77 10 78 11 92 12 79 13
REMARK SMILES IDX 80 14 91 15 93 16 81 17 82 18 83 19 87 20 84 21 86 22 85 23
REMARK SMILES IDX 88 24 89 25 90 26 9 27 10 28 11 29 12 30 13 32 14 33 15 34
REMARK SMILES IDX 76 35 16 36 75 37 17 38 18 39 19 40 69 41 20 42 74 43 68 44
REMARK SMILES IDX 70 45 21 46 73 47 67 48 66 49 22 51 54 52 34 53 53 54 35 55
REMARK SMILES IDX 38 56 52 57 71 58 36 59 37 60 51 62 72 63 39 64 23 65 24 66
REMARK SMILES IDX 32 67 25 68 26 69 30 70 33 71 27 72 28 73 31 74 29 75 55 76
REMARK SMILES IDX 56 77 64 78 57 79 58 80 62 81 65 82 59 83 60 84 63 85 61 86
REMARK SMILES IDX 40 87 41 88 49 89 42 90 43 91 47 92 50 93 44 94 45 95 48 96
REMARK SMILES IDX 46 97
REMARK H PARENT 6 6 11 31 70 50 38 61
REMARK Flexibility Score: inf
ROOT
ATOM      1  C   UNL A   1      31.833  30.158  26.829  1.00  0.00     0.023 C 
ENDROOT
BRANCH   1   2
ATOM      2  C   UNL A   1      31.617  29.353  25.541  1.00  0.00     0.116 C 
BRANCH   2   3
ATOM      3  N   UNL A   1      32.709  29.603  24.620  1.00  0.00    -0.354 N 
ATOM      4  C   UNL A   1      33.047  28.956  23.462  1.00  0.00     0.243 C 
ATOM      5  O   UNL A   1      34.216  29.061  23.079  1.00  0.00    -0.273 OA
ATOM      6  H   UNL A   1      33.298  30.352  24.865  1.00  0.00     0.163 HD
BRANCH   4   7
ATOM      7  C   UNL A   1      32.002  28.122  22.667  1.00  0.00     0.181 C 
BRANCH   7   8
ATOM      8  C   UNL A   1      30.599  28.712  22.968  1.00  0.00     0.032 C 
ATOM      9  C   UNL A   1      29.994  29.704  21.999  1.00  0.00     0.006 C 
ENDBRANCH   7   8
BRANCH   7  10
ATOM     10  N   UNL A   1      32.091  26.696  23.150  1.00  0.00    -0.280 N 
ATOM     11  C   UNL A   1      32.955  25.801  22.521  1.00  0.00     0.266 C 
ATOM     12  C   UNL A   1      31.187  26.042  23.961  1.00  0.00     0.149 C 
ATOM     13  O   UNL A   1      33.514  25.962  21.445  1.00  0.00    -0.268 OA
ATOM     14  C   UNL A   1      33.014  24.518  23.288  1.00  0.00     0.081 C 
ATOM     15  S   UNL A   1      31.956  24.621  24.638  1.00  0.00    -0.054 SA
ATOM     16  S   UNL A   1      29.571  26.326  24.254  1.00  0.00    -0.052 S 
ATOM     17  C   UNL A   1      33.710  23.430  22.924  1.00  0.00     0.036 C 
BRANCH  17  18
ATOM     18  C   UNL A   1      33.622  22.146  23.647  1.00  0.00     0.054 A 
ATOM     19  C   UNL A   1      32.596  21.262  23.275  1.00  0.00     0.015 A 
ATOM     20  C   UNL A   1      34.561  21.699  24.604  1.00  0.00     0.276 A 
ATOM     21  C   UNL A   1      32.527  19.972  23.817  1.00  0.00     0.001 A 
ATOM     22  C   UNL A   1      34.498  20.402  25.140  1.00  0.00     0.086 A 
ATOM     23  C   UNL A   1      33.480  19.541  24.739  1.00  0.00     0.007 A 
BRANCH  20  24
ATOM     24  N   UNL A   1      35.659  22.558  25.054  1.00  0.00     0.063 N 
ATOM     25  O   UNL A   1      35.474  23.226  26.081  1.00  0.00    -0.258 OA
ATOM     26  O   UNL A   1      36.694  22.582  24.375  1.00  0.00    -0.258 OA
ENDBRANCH  20  24
ENDBRANCH  17  18
ENDBRANCH   7  10
ENDBRANCH   4   7
ENDBRANCH   2   3
ENDBRANCH   1   2
BRANCH   1  27
ATOM     27  C   UNL A   1      31.576  31.654  26.713  1.00  0.00     0.023 C 
BRANCH  27  28
ATOM     28  C   UNL A   1      32.816  32.510  26.876  1.00  0.00     0.116 C 
BRANCH  28  29
ATOM     29  N   UNL A   1      32.532  33.828  27.426  1.00  0.00    -0.352 N 
ATOM     30  C   UNL A   1      33.124  34.471  28.485  1.00  0.00     0.251 C 
ATOM     31  H   UNL A   1      31.814  34.329  26.973  1.00  0.00     0.163 HD
ATOM     32  O   UNL A   1      32.675  35.540  28.890  1.00  0.00    -0.269 OA
BRANCH  30  33
ATOM     33  C   UNL A   1      34.285  33.852  29.154  1.00  0.00     0.039 A 
ATOM     34  C   UNL A   1      34.068  32.855  30.107  1.00  0.00     0.014 A 
ATOM     35  C   UNL A   1      35.586  34.235  28.819  1.00  0.00     0.014 A 
ATOM     36  C   UNL A   1      35.161  32.210  30.688  1.00  0.00     0.010 A 
ATOM     37  C   UNL A   1      36.666  33.515  29.307  1.00  0.00     0.010 A 
ATOM     38  C   UNL A   1      36.466  32.517  30.272  1.00  0.00    -0.014 A 
BRANCH  38  39
ATOM     39  C   UNL A   1      37.647  31.863  30.884  1.00  0.00     0.031 A 
ATOM     40  C   UNL A   1      38.086  32.273  32.264  1.00  0.00     0.074 A 
ATOM     41  C   UNL A   1      38.350  30.951  30.186  1.00  0.00     0.049 A 
ATOM     42  N   UNL A   1      39.123  31.877  32.958  1.00  0.00    -0.248 NA
ATOM     43  C   UNL A   1      37.276  33.302  32.938  1.00  0.00     0.031 C 
ATOM     44  C   UNL A   1      38.060  30.521  28.818  1.00  0.00     0.029 A 
ATOM     45  N   UNL A   1      39.459  30.223  30.536  1.00  0.00    -0.354 N 
ATOM     46  C   UNL A   1      39.097  32.623  34.129  1.00  0.00     0.074 A 
ATOM     47  C   UNL A   1      37.993  33.547  34.024  1.00  0.00     0.031 C 
ATOM     48  C   UNL A   1      38.946  29.579  28.456  1.00  0.00     0.029 A 
ATOM     49  C   UNL A   1      39.881  29.361  29.555  1.00  0.00     0.049 A 
ATOM     50  H   UNL A   1      39.908  30.311  31.407  1.00  0.00     0.167 HD
ATOM     51  C   UNL A   1      39.900  32.520  35.215  1.00  0.00     0.037 A 
ATOM     52  C   UNL A   1      40.906  28.487  29.553  1.00  0.00     0.037 A 
ATOM     53  C   UNL A   1      40.967  31.564  35.334  1.00  0.00     0.049 A 
ATOM     54  C   UNL A   1      41.761  28.365  30.787  1.00  0.00     0.074 A 
ATOM     55  C   UNL A   1      41.801  31.328  36.412  1.00  0.00     0.029 A 
ATOM     56  N   UNL A   1      41.339  30.676  34.336  1.00  0.00    -0.354 N 
ATOM     57  N   UNL A   1      41.684  29.024  31.918  1.00  0.00    -0.248 NA
ATOM     58  C   UNL A   1      42.835  27.364  30.748  1.00  0.00     0.031 C 
ATOM     59  C   UNL A   1      42.702  30.321  36.053  1.00  0.00     0.029 A 
ATOM     60  C   UNL A   1      42.399  29.896  34.769  1.00  0.00     0.049 A 
ATOM     61  H   UNL A   1      40.914  30.609  33.451  1.00  0.00     0.167 HD
ATOM     62  C   UNL A   1      42.677  28.501  32.733  1.00  0.00     0.074 A 
ATOM     63  C   UNL A   1      43.329  27.454  31.973  1.00  0.00     0.031 C 
ATOM     64  C   UNL A   1      43.024  28.854  33.997  1.00  0.00     0.037 A 
BRANCH  51  65
ATOM     65  C   UNL A   1      39.635  33.454  36.360  1.00  0.00     0.064 A 
ATOM     66  C   UNL A   1      40.214  34.731  36.418  1.00  0.00     0.173 A 
ATOM     67  C   UNL A   1      38.784  33.074  37.410  1.00  0.00     0.173 A 
ATOM     68  F   UNL A   1      41.049  35.138  35.449  1.00  0.00    -0.203 F 
ATOM     69  C   UNL A   1      39.984  35.577  37.500  1.00  0.00     0.198 A 
ATOM     70  C   UNL A   1      38.529  33.936  38.474  1.00  0.00     0.198 A 
ATOM     71  F   UNL A   1      38.202  31.866  37.405  1.00  0.00    -0.203 F 
ATOM     72  F   UNL A   1      40.599  36.766  37.562  1.00  0.00    -0.200 F 
ATOM     73  C   UNL A   1      39.137  35.182  38.522  1.00  0.00     0.200 A 
ATOM     74  F   UNL A   1      37.701  33.557  39.456  1.00  0.00    -0.200 F 
ATOM     75  F   UNL A   1      38.912  35.997  39.562  1.00  0.00    -0.200 F 
ENDBRANCH  51  65
BRANCH  52  76
ATOM     76  C   UNL A   1      41.150  27.625  28.368  1.00  0.00     0.064 A 
ATOM     77  C   UNL A   1      42.037  28.027  27.359  1.00  0.00     0.173 A 
ATOM     78  C   UNL A   1      40.500  26.392  28.210  1.00  0.00     0.173 A 
ATOM     79  F   UNL A   1      42.669  29.207  27.455  1.00  0.00    -0.203 F 
ATOM     80  C   UNL A   1      42.242  27.244  26.224  1.00  0.00     0.198 A 
ATOM     81  C   UNL A   1      40.728  25.597  27.089  1.00  0.00     0.198 A 
ATOM     82  F   UNL A   1      39.649  25.957  29.150  1.00  0.00    -0.203 F 
ATOM     83  F   UNL A   1      43.056  27.678  25.252  1.00  0.00    -0.200 F 
ATOM     84  C   UNL A   1      41.591  26.027  26.093  1.00  0.00     0.200 A 
ATOM     85  F   UNL A   1      40.108  24.414  26.972  1.00  0.00    -0.200 F 
ATOM     86  F   UNL A   1      41.789  25.275  25.002  1.00  0.00    -0.200 F 
ENDBRANCH  52  76
BRANCH  64  87
ATOM     87  C   UNL A   1      44.133  28.076  34.641  1.00  0.00     0.064 A 
ATOM     88  C   UNL A   1      45.469  28.498  34.569  1.00  0.00     0.173 A 
ATOM     89  C   UNL A   1      43.851  26.904  35.361  1.00  0.00     0.173 A 
ATOM     90  F   UNL A   1      45.790  29.604  33.880  1.00  0.00    -0.203 F 
ATOM     91  C   UNL A   1      46.486  27.756  35.161  1.00  0.00     0.198 A 
ATOM     92  C   UNL A   1      44.867  26.183  35.981  1.00  0.00     0.198 A 
ATOM     93  F   UNL A   1      42.588  26.464  35.469  1.00  0.00    -0.203 F 
ATOM     94  F   UNL A   1      47.761  28.146  35.029  1.00  0.00    -0.200 F 
ATOM     95  C   UNL A   1      46.183  26.604  35.872  1.00  0.00     0.200 A 
ATOM     96  F   UNL A   1      44.571  25.078  36.679  1.00  0.00    -0.200 F 
ATOM     97  F   UNL A   1      47.165  25.891  36.443  1.00  0.00    -0.200 F 
ENDBRANCH  64  87
ENDBRANCH  38  39
ENDBRANCH  30  33
ENDBRANCH  28  29
ENDBRANCH  27  28
ENDBRANCH   1  27
TORSDOF 15
ENDMDL
