MODEL 1
REMARK VINA RESULT:     -12.9      0.000      0.000
REMARK SMILES COc1nc2c(cc1C(=O)NCc1ccc(C(=O)NCCCCNC(=O)c3ccc(-c4c5nc(c(-c6c(F)c(F)c(F)c(F)c6F)c6ccc([nH]6)c(-c6c(F)c(F)c(F)c(F)c6F)c6nc(c(-c7c(F)c(F)c(F)c(F)c7F)c7ccc4[nH]7)C=C6)C=C5)cc3)s1)CCC2
REMARK SMILES IDX 20 1 19 2 17 3 18 4 16 6 13 7 14 8 90 9 15 10 12 11 11 12
REMARK SMILES IDX 9 13 10 14 8 16 3 17 4 18 5 19 7 20 6 21 93 22 91 23 92 24
REMARK SMILES IDX 2 25 1 26 21 27 22 28 23 29 24 30 25 31 26 33 27 34 28 35
REMARK SMILES IDX 89 36 29 37 88 38 30 39 31 40 32 41 82 42 33 43 87 44 81 45
REMARK SMILES IDX 83 46 34 47 86 48 80 49 79 50 35 52 67 53 47 54 66 55 48 56
REMARK SMILES IDX 51 57 65 58 84 59 49 60 50 61 64 63 85 64 52 65 36 66 37 67
REMARK SMILES IDX 45 68 38 69 39 70 43 71 46 72 40 73 41 74 44 75 42 76 68 77
REMARK SMILES IDX 69 78 77 79 70 80 71 81 75 82 78 83 72 84 73 85 76 86 74 87
REMARK SMILES IDX 53 88 54 89 62 90 55 91 56 92 60 93 63 94 57 95 58 96 61 97
REMARK SMILES IDX 59 98
REMARK H PARENT 19 5 11 15 24 32 83 51 51 62
REMARK Flexibility Score: inf
ROOT
ATOM      1  C   UNL A   1      36.941  22.478  25.497  1.00  0.00     0.116 C 
ENDROOT
BRANCH   1   2
ATOM      2  N   UNL A   1      36.022  21.977  26.493  1.00  0.00    -0.351 N 
ATOM      3  C   UNL A   1      34.665  21.756  26.483  1.00  0.00     0.261 C 
ATOM      4  O   UNL A   1      34.208  21.438  27.586  1.00  0.00    -0.268 OA
ATOM      5  H   UNL A   1      36.453  21.748  27.347  1.00  0.00     0.163 HD
BRANCH   3   6
ATOM      6  C   UNL A   1      33.841  21.880  25.282  1.00  0.00     0.092 A 
ATOM      7  C   UNL A   1      32.306  22.924  23.590  1.00  0.00     0.025 A 
ATOM      8  C   UNL A   1      32.484  21.575  23.382  1.00  0.00     0.018 A 
ATOM      9  S   UNL A   1      33.258  23.464  24.907  1.00  0.00    -0.133 S 
ATOM     10  C   UNL A   1      33.354  20.981  24.349  1.00  0.00     0.026 A 
BRANCH   7  11
ATOM     11  C   UNL A   1      31.403  23.889  22.898  1.00  0.00     0.163 C 
BRANCH  11  12
ATOM     12  N   UNL A   1      32.136  24.774  22.019  1.00  0.00    -0.347 N 
ATOM     13  C   UNL A   1      32.633  26.043  22.038  1.00  0.00     0.257 C 
ATOM     14  O   UNL A   1      33.370  26.297  21.074  1.00  0.00    -0.269 OA
ATOM     15  H   UNL A   1      32.333  24.332  21.161  1.00  0.00     0.164 HD
BRANCH  13  16
ATOM     16  C   UNL A   1      32.378  27.155  23.004  1.00  0.00     0.102 A 
ATOM     17  C   UNL A   1      31.383  28.137  23.005  1.00  0.00     0.226 A 
ATOM     18  N   UNL A   1      31.283  29.152  23.916  1.00  0.00    -0.218 NA
ATOM     19  C   UNL A   1      32.183  29.148  24.906  1.00  0.00     0.048 A 
ATOM     20  C   UNL A   1      33.268  27.190  24.103  1.00  0.00     0.025 A 
ATOM     21  C   UNL A   1      33.161  28.186  25.055  1.00  0.00    -0.025 A 
ATOM     22  C   UNL A   1      32.221  30.139  26.035  1.00  0.00     0.057 C 
ATOM     23  C   UNL A   1      33.928  28.382  26.319  1.00  0.00     0.038 C 
ATOM     24  C   UNL A   1      33.608  29.851  26.633  1.00  0.00     0.011 C 
BRANCH  17  25
ATOM     25  O   UNL A   1      30.399  28.174  22.063  1.00  0.00    -0.480 OA
ATOM     26  C   UNL A   1      29.182  28.619  22.664  1.00  0.00     0.280 C 
ENDBRANCH  17  25
ENDBRANCH  13  16
ENDBRANCH  11  12
ENDBRANCH   7  11
ENDBRANCH   3   6
ENDBRANCH   1   2
BRANCH   1  27
ATOM     27  C   UNL A   1      37.332  21.396  24.494  1.00  0.00     0.023 C 
BRANCH  27  28
ATOM     28  C   UNL A   1      37.973  20.155  25.130  1.00  0.00     0.023 C 
BRANCH  28  29
ATOM     29  C   UNL A   1      39.274  20.408  25.887  1.00  0.00     0.116 C 
BRANCH  29  30
ATOM     30  N   UNL A   1      40.190  19.279  25.867  1.00  0.00    -0.352 N 
ATOM     31  C   UNL A   1      41.544  19.290  26.122  1.00  0.00     0.251 C 
ATOM     32  H   UNL A   1      39.796  18.404  25.645  1.00  0.00     0.163 HD
ATOM     33  O   UNL A   1      42.220  18.286  26.026  1.00  0.00    -0.269 OA
BRANCH  31  34
ATOM     34  C   UNL A   1      42.158  20.581  26.478  1.00  0.00     0.039 A 
ATOM     35  C   UNL A   1      42.529  21.449  25.449  1.00  0.00     0.014 A 
ATOM     36  C   UNL A   1      42.276  20.954  27.819  1.00  0.00     0.014 A 
ATOM     37  C   UNL A   1      42.975  22.729  25.768  1.00  0.00     0.010 A 
ATOM     38  C   UNL A   1      42.680  22.246  28.133  1.00  0.00     0.010 A 
ATOM     39  C   UNL A   1      43.028  23.141  27.109  1.00  0.00    -0.014 A 
BRANCH  39  40
ATOM     40  C   UNL A   1      43.477  24.507  27.461  1.00  0.00     0.031 A 
ATOM     41  C   UNL A   1      42.459  25.552  27.798  1.00  0.00     0.074 A 
ATOM     42  C   UNL A   1      44.789  24.805  27.437  1.00  0.00     0.049 A 
ATOM     43  N   UNL A   1      42.638  26.811  28.105  1.00  0.00    -0.248 NA
ATOM     44  C   UNL A   1      41.049  25.131  27.772  1.00  0.00     0.031 C 
ATOM     45  C   UNL A   1      45.863  23.873  27.094  1.00  0.00     0.029 A 
ATOM     46  N   UNL A   1      45.441  25.982  27.704  1.00  0.00    -0.354 N 
ATOM     47  C   UNL A   1      41.368  27.328  28.312  1.00  0.00     0.074 A 
ATOM     48  C   UNL A   1      40.423  26.267  28.043  1.00  0.00     0.031 C 
ATOM     49  C   UNL A   1      47.042  24.509  27.191  1.00  0.00     0.029 A 
ATOM     50  C   UNL A   1      46.805  25.896  27.580  1.00  0.00     0.049 A 
ATOM     51  H   UNL A   1      44.974  26.811  27.960  1.00  0.00     0.167 HD
ATOM     52  C   UNL A   1      41.024  28.571  28.719  1.00  0.00     0.037 A 
ATOM     53  C   UNL A   1      47.753  26.834  27.765  1.00  0.00     0.037 A 
ATOM     54  C   UNL A   1      41.969  29.619  29.000  1.00  0.00     0.049 A 
ATOM     55  C   UNL A   1      47.341  28.219  28.186  1.00  0.00     0.074 A 
ATOM     56  C   UNL A   1      41.723  30.901  29.456  1.00  0.00     0.029 A 
ATOM     57  N   UNL A   1      43.342  29.498  28.851  1.00  0.00    -0.354 N 
ATOM     58  N   UNL A   1      46.141  28.686  28.430  1.00  0.00    -0.248 NA
ATOM     59  C   UNL A   1      48.416  29.208  28.358  1.00  0.00     0.031 C 
ATOM     60  C   UNL A   1      42.948  31.569  29.554  1.00  0.00     0.029 A 
ATOM     61  C   UNL A   1      43.958  30.690  29.191  1.00  0.00     0.049 A 
ATOM     62  H   UNL A   1      43.809  28.687  28.549  1.00  0.00     0.167 HD
ATOM     63  C   UNL A   1      46.314  30.010  28.805  1.00  0.00     0.074 A 
ATOM     64  C   UNL A   1      47.738  30.273  28.766  1.00  0.00     0.031 C 
ATOM     65  C   UNL A   1      45.378  30.926  29.152  1.00  0.00     0.037 A 
BRANCH  52  66
ATOM     66  C   UNL A   1      39.565  28.857  28.902  1.00  0.00     0.064 A 
ATOM     67  C   UNL A   1      38.944  28.690  30.148  1.00  0.00     0.173 A 
ATOM     68  C   UNL A   1      38.789  29.332  27.835  1.00  0.00     0.173 A 
ATOM     69  F   UNL A   1      39.644  28.223  31.194  1.00  0.00    -0.203 F 
ATOM     70  C   UNL A   1      37.591  28.968  30.315  1.00  0.00     0.198 A 
ATOM     71  C   UNL A   1      37.441  29.630  28.011  1.00  0.00     0.198 A 
ATOM     72  F   UNL A   1      39.338  29.507  26.624  1.00  0.00    -0.203 F 
ATOM     73  F   UNL A   1      37.008  28.763  31.504  1.00  0.00    -0.200 F 
ATOM     74  C   UNL A   1      36.842  29.444  29.249  1.00  0.00     0.200 A 
ATOM     75  F   UNL A   1      36.719  30.097  26.984  1.00  0.00    -0.200 F 
ATOM     76  F   UNL A   1      35.541  29.717  29.413  1.00  0.00    -0.200 F 
ENDBRANCH  52  66
BRANCH  53  77
ATOM     77  C   UNL A   1      49.184  26.482  27.595  1.00  0.00     0.064 A 
ATOM     78  C   UNL A   1      49.997  26.239  28.712  1.00  0.00     0.173 A 
ATOM     79  C   UNL A   1      49.766  26.370  26.325  1.00  0.00     0.173 A 
ATOM     80  F   UNL A   1      49.488  26.354  29.947  1.00  0.00    -0.203 F 
ATOM     81  C   UNL A   1      51.342  25.908  28.564  1.00  0.00     0.198 A 
ATOM     82  C   UNL A   1      51.106  26.020  26.178  1.00  0.00     0.198 A 
ATOM     83  F   UNL A   1      49.029  26.591  25.228  1.00  0.00    -0.203 F 
ATOM     84  F   UNL A   1      52.104  25.709  29.648  1.00  0.00    -0.200 F 
ATOM     85  C   UNL A   1      51.895  25.792  27.296  1.00  0.00     0.200 A 
ATOM     86  F   UNL A   1      51.635  25.900  24.952  1.00  0.00    -0.200 F 
ATOM     87  F   UNL A   1      53.186  25.468  27.154  1.00  0.00    -0.200 F 
ENDBRANCH  53  77
BRANCH  65  88
ATOM     88  C   UNL A   1      45.856  32.293  29.533  1.00  0.00     0.064 A 
ATOM     89  C   UNL A   1      45.935  33.326  28.589  1.00  0.00     0.173 A 
ATOM     90  C   UNL A   1      46.151  32.595  30.870  1.00  0.00     0.173 A 
ATOM     91  F   UNL A   1      45.675  33.080  27.296  1.00  0.00    -0.203 F 
ATOM     92  C   UNL A   1      46.300  34.614  28.970  1.00  0.00     0.198 A 
ATOM     93  C   UNL A   1      46.494  33.889  31.252  1.00  0.00     0.198 A 
ATOM     94  F   UNL A   1      46.082  31.640  31.810  1.00  0.00    -0.203 F 
ATOM     95  F   UNL A   1      46.391  35.583  28.049  1.00  0.00    -0.200 F 
ATOM     96  C   UNL A   1      46.570  34.896  30.302  1.00  0.00     0.200 A 
ATOM     97  F   UNL A   1      46.742  34.163  32.540  1.00  0.00    -0.200 F 
ATOM     98  F   UNL A   1      46.901  36.141  30.669  1.00  0.00    -0.200 F 
ENDBRANCH  65  88
ENDBRANCH  39  40
ENDBRANCH  31  34
ENDBRANCH  29  30
ENDBRANCH  28  29
ENDBRANCH  27  28
ENDBRANCH   1  27
TORSDOF 15
ENDMDL
MODEL 2
REMARK VINA RESULT:     -12.8      5.022      9.825
REMARK SMILES COc1nc2c(cc1C(=O)NCc1ccc(C(=O)NCCCCNC(=O)c3ccc(-c4c5nc(c(-c6c(F)c(F)c(F)c(F)c6F)c6ccc([nH]6)c(-c6c(F)c(F)c(F)c(F)c6F)c6nc(c(-c7c(F)c(F)c(F)c(F)c7F)c7ccc4[nH]7)C=C6)C=C5)cc3)s1)CCC2
REMARK SMILES IDX 20 1 19 2 17 3 18 4 16 6 13 7 14 8 90 9 15 10 12 11 11 12
REMARK SMILES IDX 9 13 10 14 8 16 3 17 4 18 5 19 7 20 6 21 93 22 91 23 92 24
REMARK SMILES IDX 2 25 1 26 21 27 22 28 23 29 24 30 25 31 26 33 27 34 28 35
REMARK SMILES IDX 89 36 29 37 88 38 30 39 31 40 32 41 82 42 33 43 87 44 81 45
REMARK SMILES IDX 83 46 34 47 86 48 80 49 79 50 35 52 67 53 47 54 66 55 48 56
REMARK SMILES IDX 51 57 65 58 84 59 49 60 50 61 64 63 85 64 52 65 36 66 37 67
REMARK SMILES IDX 45 68 38 69 39 70 43 71 46 72 40 73 41 74 44 75 42 76 68 77
REMARK SMILES IDX 69 78 77 79 70 80 71 81 75 82 78 83 72 84 73 85 76 86 74 87
REMARK SMILES IDX 53 88 54 89 62 90 55 91 56 92 60 93 63 94 57 95 58 96 61 97
REMARK SMILES IDX 59 98
REMARK H PARENT 19 5 11 15 24 32 83 51 51 62
REMARK Flexibility Score: inf
ROOT
ATOM      1  C   UNL A   1      31.987  29.878  25.438  1.00  0.00     0.116 C 
ENDROOT
BRANCH   1   2
ATOM      2  N   UNL A   1      30.858  30.140  24.576  1.00  0.00    -0.351 N 
ATOM      3  C   UNL A   1      30.273  29.422  23.560  1.00  0.00     0.261 C 
ATOM      4  O   UNL A   1      29.389  30.043  22.960  1.00  0.00    -0.268 OA
ATOM      5  H   UNL A   1      30.421  31.004  24.751  1.00  0.00     0.163 HD
BRANCH   3   6
ATOM      6  C   UNL A   1      30.654  28.051  23.224  1.00  0.00     0.092 A 
ATOM      7  C   UNL A   1      30.698  25.542  23.313  1.00  0.00     0.025 A 
ATOM      8  C   UNL A   1      31.696  26.061  22.520  1.00  0.00     0.018 A 
ATOM      9  S   UNL A   1      29.702  26.792  23.927  1.00  0.00    -0.133 S 
ATOM     10  C   UNL A   1      31.672  27.489  22.473  1.00  0.00     0.026 A 
BRANCH   7  11
ATOM     11  C   UNL A   1      30.437  24.131  23.725  1.00  0.00     0.163 C 
BRANCH  11  12
ATOM     12  N   UNL A   1      30.584  23.954  25.153  1.00  0.00    -0.347 N 
ATOM     13  C   UNL A   1      31.533  23.521  26.031  1.00  0.00     0.257 C 
ATOM     14  O   UNL A   1      31.238  23.732  27.217  1.00  0.00    -0.269 OA
ATOM     15  H   UNL A   1      29.764  24.224  25.627  1.00  0.00     0.164 HD
BRANCH  13  16
ATOM     16  C   UNL A   1      32.816  22.799  25.773  1.00  0.00     0.102 A 
ATOM     17  C   UNL A   1      33.048  21.459  25.453  1.00  0.00     0.226 A 
ATOM     18  N   UNL A   1      34.282  20.891  25.297  1.00  0.00    -0.218 NA
ATOM     19  C   UNL A   1      35.330  21.716  25.406  1.00  0.00     0.048 A 
ATOM     20  C   UNL A   1      33.968  23.619  25.830  1.00  0.00     0.025 A 
ATOM     21  C   UNL A   1      35.223  23.071  25.639  1.00  0.00    -0.025 A 
ATOM     22  C   UNL A   1      36.765  21.309  25.222  1.00  0.00     0.057 C 
ATOM     23  C   UNL A   1      36.555  23.740  25.583  1.00  0.00     0.038 C 
ATOM     24  C   UNL A   1      37.494  22.540  25.782  1.00  0.00     0.011 C 
BRANCH  17  25
ATOM     25  O   UNL A   1      32.031  20.570  25.271  1.00  0.00    -0.480 OA
ATOM     26  C   UNL A   1      32.530  19.406  24.611  1.00  0.00     0.280 C 
ENDBRANCH  17  25
ENDBRANCH  13  16
ENDBRANCH  11  12
ENDBRANCH   7  11
ENDBRANCH   3   6
ENDBRANCH   1   2
BRANCH   1  27
ATOM     27  C   UNL A   1      31.796  30.493  26.822  1.00  0.00     0.023 C 
BRANCH  27  28
ATOM     28  C   UNL A   1      31.567  32.009  26.806  1.00  0.00     0.023 C 
BRANCH  28  29
ATOM     29  C   UNL A   1      32.756  32.854  27.256  1.00  0.00     0.116 C 
BRANCH  29  30
ATOM     30  N   UNL A   1      32.392  34.198  27.676  1.00  0.00    -0.352 N 
ATOM     31  C   UNL A   1      33.002  34.973  28.638  1.00  0.00     0.251 C 
ATOM     32  H   UNL A   1      31.618  34.602  27.220  1.00  0.00     0.163 HD
ATOM     33  O   UNL A   1      32.577  36.069  28.940  1.00  0.00    -0.269 OA
BRANCH  31  34
ATOM     34  C   UNL A   1      34.177  34.404  29.323  1.00  0.00     0.039 A 
ATOM     35  C   UNL A   1      33.969  33.591  30.439  1.00  0.00     0.014 A 
ATOM     36  C   UNL A   1      35.458  34.609  28.804  1.00  0.00     0.014 A 
ATOM     37  C   UNL A   1      35.054  32.930  31.009  1.00  0.00     0.010 A 
ATOM     38  C   UNL A   1      36.532  33.915  29.348  1.00  0.00     0.010 A 
ATOM     39  C   UNL A   1      36.334  33.070  30.451  1.00  0.00    -0.014 A 
BRANCH  39  40
ATOM     40  C   UNL A   1      37.492  32.354  31.033  1.00  0.00     0.031 A 
ATOM     41  C   UNL A   1      37.987  32.738  32.394  1.00  0.00     0.074 A 
ATOM     42  C   UNL A   1      38.111  31.395  30.321  1.00  0.00     0.049 A 
ATOM     43  N   UNL A   1      38.999  32.260  33.070  1.00  0.00    -0.248 NA
ATOM     44  C   UNL A   1      37.257  33.817  33.080  1.00  0.00     0.031 C 
ATOM     45  C   UNL A   1      37.730  30.962  28.976  1.00  0.00     0.029 A 
ATOM     46  N   UNL A   1      39.194  30.613  30.630  1.00  0.00    -0.354 N 
ATOM     47  C   UNL A   1      39.023  32.973  34.259  1.00  0.00     0.074 A 
ATOM     48  C   UNL A   1      37.963  33.955  34.192  1.00  0.00     0.031 C 
ATOM     49  C   UNL A   1      38.556  29.977  28.584  1.00  0.00     0.029 A 
ATOM     50  C   UNL A   1      39.534  29.727  29.639  1.00  0.00     0.049 A 
ATOM     51  H   UNL A   1      39.682  30.681  31.483  1.00  0.00     0.167 HD
ATOM     52  C   UNL A   1      39.840  32.803  35.323  1.00  0.00     0.037 A 
ATOM     53  C   UNL A   1      40.524  28.814  29.595  1.00  0.00     0.037 A 
ATOM     54  C   UNL A   1      40.883  31.816  35.391  1.00  0.00     0.049 A 
ATOM     55  C   UNL A   1      41.440  28.668  30.778  1.00  0.00     0.074 A 
ATOM     56  C   UNL A   1      41.740  31.537  36.440  1.00  0.00     0.029 A 
ATOM     57  N   UNL A   1      41.206  30.944  34.362  1.00  0.00    -0.354 N 
ATOM     58  N   UNL A   1      41.423  29.312  31.921  1.00  0.00    -0.248 NA
ATOM     59  C   UNL A   1      42.512  27.668  30.669  1.00  0.00     0.031 C 
ATOM     60  C   UNL A   1      42.605  30.515  36.034  1.00  0.00     0.029 A 
ATOM     61  C   UNL A   1      42.262  30.136  34.745  1.00  0.00     0.049 A 
ATOM     62  H   UNL A   1      40.753  30.906  33.490  1.00  0.00     0.167 HD
ATOM     63  C   UNL A   1      42.461  28.783  32.673  1.00  0.00     0.074 A 
ATOM     64  C   UNL A   1      43.085  27.757  31.862  1.00  0.00     0.031 C 
ATOM     65  C   UNL A   1      42.862  29.116  33.924  1.00  0.00     0.037 A 
BRANCH  52  66
ATOM     66  C   UNL A   1      39.623  33.695  36.508  1.00  0.00     0.064 A 
ATOM     67  C   UNL A   1      40.215  34.964  36.579  1.00  0.00     0.173 A 
ATOM     68  C   UNL A   1      38.792  33.293  37.564  1.00  0.00     0.173 A 
ATOM     69  F   UNL A   1      41.030  35.385  35.599  1.00  0.00    -0.203 F 
ATOM     70  C   UNL A   1      40.000  35.792  37.676  1.00  0.00     0.198 A 
ATOM     71  C   UNL A   1      38.562  34.133  38.649  1.00  0.00     0.198 A 
ATOM     72  F   UNL A   1      38.204  32.087  37.541  1.00  0.00    -0.203 F 
ATOM     73  F   UNL A   1      40.608  36.985  37.743  1.00  0.00    -0.200 F 
ATOM     74  C   UNL A   1      39.169  35.379  38.707  1.00  0.00     0.200 A 
ATOM     75  F   UNL A   1      37.753  33.737  39.641  1.00  0.00    -0.200 F 
ATOM     76  F   UNL A   1      38.958  36.180  39.760  1.00  0.00    -0.200 F 
ENDBRANCH  52  66
BRANCH  53  77
ATOM     77  C   UNL A   1      40.670  27.941  28.404  1.00  0.00     0.064 A 
ATOM     78  C   UNL A   1      40.049  26.685  28.359  1.00  0.00     0.173 A 
ATOM     79  C   UNL A   1      41.418  28.342  27.288  1.00  0.00     0.173 A 
ATOM     80  F   UNL A   1      39.340  26.252  29.411  1.00  0.00    -0.203 F 
ATOM     81  C   UNL A   1      40.180  25.857  27.246  1.00  0.00     0.198 A 
ATOM     82  C   UNL A   1      41.532  27.521  26.168  1.00  0.00     0.198 A 
ATOM     83  F   UNL A   1      42.029  29.535  27.283  1.00  0.00    -0.203 F 
ATOM     84  F   UNL A   1      39.601  24.649  27.240  1.00  0.00    -0.200 F 
ATOM     85  C   UNL A   1      40.917  26.279  26.148  1.00  0.00     0.200 A 
ATOM     86  F   UNL A   1      42.237  27.935  25.106  1.00  0.00    -0.200 F 
ATOM     87  F   UNL A   1      41.038  25.485  25.076  1.00  0.00    -0.200 F 
ENDBRANCH  53  77
BRANCH  65  88
ATOM     88  C   UNL A   1      44.016  28.360  34.505  1.00  0.00     0.064 A 
ATOM     89  C   UNL A   1      43.827  27.144  35.176  1.00  0.00     0.173 A 
ATOM     90  C   UNL A   1      45.330  28.812  34.313  1.00  0.00     0.173 A 
ATOM     91  F   UNL A   1      42.587  26.680  35.394  1.00  0.00    -0.203 F 
ATOM     92  C   UNL A   1      44.914  26.408  35.639  1.00  0.00     0.198 A 
ATOM     93  C   UNL A   1      46.416  28.063  34.758  1.00  0.00     0.198 A 
ATOM     94  F   UNL A   1      45.560  29.967  33.670  1.00  0.00    -0.203 F 
ATOM     95  F   UNL A   1      44.711  25.258  36.296  1.00  0.00    -0.200 F 
ATOM     96  C   UNL A   1      46.207  26.863  35.421  1.00  0.00     0.200 A 
ATOM     97  F   UNL A   1      47.664  28.497  34.536  1.00  0.00    -0.200 F 
ATOM     98  F   UNL A   1      47.252  26.144  35.851  1.00  0.00    -0.200 F 
ENDBRANCH  65  88
ENDBRANCH  39  40
ENDBRANCH  31  34
ENDBRANCH  29  30
ENDBRANCH  28  29
ENDBRANCH  27  28
ENDBRANCH   1  27
TORSDOF 15
ENDMDL
MODEL 3
REMARK VINA RESULT:     -12.8      5.033      9.767
REMARK SMILES COc1nc2c(cc1C(=O)NCc1ccc(C(=O)NCCCCNC(=O)c3ccc(-c4c5nc(c(-c6c(F)c(F)c(F)c(F)c6F)c6ccc([nH]6)c(-c6c(F)c(F)c(F)c(F)c6F)c6nc(c(-c7c(F)c(F)c(F)c(F)c7F)c7ccc4[nH]7)C=C6)C=C5)cc3)s1)CCC2
REMARK SMILES IDX 20 1 19 2 17 3 18 4 16 6 13 7 14 8 90 9 15 10 12 11 11 12
REMARK SMILES IDX 9 13 10 14 8 16 3 17 4 18 5 19 7 20 6 21 93 22 91 23 92 24
REMARK SMILES IDX 2 25 1 26 21 27 22 28 23 29 24 30 25 31 26 33 27 34 28 35
REMARK SMILES IDX 89 36 29 37 88 38 30 39 31 40 32 41 82 42 33 43 87 44 81 45
REMARK SMILES IDX 83 46 34 47 86 48 80 49 79 50 35 52 67 53 47 54 66 55 48 56
REMARK SMILES IDX 51 57 65 58 84 59 49 60 50 61 64 63 85 64 52 65 36 66 37 67
REMARK SMILES IDX 45 68 38 69 39 70 43 71 46 72 40 73 41 74 44 75 42 76 68 77
REMARK SMILES IDX 69 78 77 79 70 80 71 81 75 82 78 83 72 84 73 85 76 86 74 87
REMARK SMILES IDX 53 88 54 89 62 90 55 91 56 92 60 93 63 94 57 95 58 96 61 97
REMARK SMILES IDX 59 98
REMARK H PARENT 19 5 11 15 24 32 83 51 51 62
REMARK Flexibility Score: inf
ROOT
ATOM      1  C   UNL A   1      31.984  29.773  25.534  1.00  0.00     0.116 C 
ENDROOT
BRANCH   1   2
ATOM      2  N   UNL A   1      30.913  30.068  24.611  1.00  0.00    -0.351 N 
ATOM      3  C   UNL A   1      30.373  29.373  23.555  1.00  0.00     0.261 C 
ATOM      4  O   UNL A   1      29.539  30.019  22.912  1.00  0.00    -0.268 OA
ATOM      5  H   UNL A   1      30.484  30.939  24.771  1.00  0.00     0.163 HD
BRANCH   3   6
ATOM      6  C   UNL A   1      30.745  27.998  23.226  1.00  0.00     0.092 A 
ATOM      7  C   UNL A   1      30.781  25.489  23.337  1.00  0.00     0.025 A 
ATOM      8  C   UNL A   1      31.770  25.997  22.525  1.00  0.00     0.018 A 
ATOM      9  S   UNL A   1      29.798  26.748  23.954  1.00  0.00    -0.133 S 
ATOM     10  C   UNL A   1      31.750  27.426  22.466  1.00  0.00     0.026 A 
BRANCH   7  11
ATOM     11  C   UNL A   1      30.521  24.083  23.765  1.00  0.00     0.163 C 
BRANCH  11  12
ATOM     12  N   UNL A   1      30.678  23.920  25.193  1.00  0.00    -0.347 N 
ATOM     13  C   UNL A   1      31.632  23.492  26.069  1.00  0.00     0.257 C 
ATOM     14  O   UNL A   1      31.348  23.717  27.254  1.00  0.00    -0.269 OA
ATOM     15  H   UNL A   1      29.863  24.199  25.670  1.00  0.00     0.164 HD
BRANCH  13  16
ATOM     16  C   UNL A   1      32.910  22.762  25.808  1.00  0.00     0.102 A 
ATOM     17  C   UNL A   1      33.135  21.414  25.518  1.00  0.00     0.226 A 
ATOM     18  N   UNL A   1      34.366  20.840  25.357  1.00  0.00    -0.218 NA
ATOM     19  C   UNL A   1      35.417  21.666  25.429  1.00  0.00     0.048 A 
ATOM     20  C   UNL A   1      34.064  23.582  25.827  1.00  0.00     0.025 A 
ATOM     21  C   UNL A   1      35.315  23.027  25.629  1.00  0.00    -0.025 A 
ATOM     22  C   UNL A   1      36.848  21.253  25.232  1.00  0.00     0.057 C 
ATOM     23  C   UNL A   1      36.647  23.692  25.535  1.00  0.00     0.038 C 
ATOM     24  C   UNL A   1      37.588  22.496  25.750  1.00  0.00     0.011 C 
BRANCH  17  25
ATOM     25  O   UNL A   1      32.114  20.523  25.374  1.00  0.00    -0.480 OA
ATOM     26  C   UNL A   1      32.463  19.558  24.380  1.00  0.00     0.280 C 
ENDBRANCH  17  25
ENDBRANCH  13  16
ENDBRANCH  11  12
ENDBRANCH   7  11
ENDBRANCH   3   6
ENDBRANCH   1   2
BRANCH   1  27
ATOM     27  C   UNL A   1      31.789  30.482  26.871  1.00  0.00     0.023 C 
BRANCH  27  28
ATOM     28  C   UNL A   1      31.582  31.997  26.752  1.00  0.00     0.023 C 
BRANCH  28  29
ATOM     29  C   UNL A   1      32.763  32.854  27.203  1.00  0.00     0.116 C 
BRANCH  29  30
ATOM     30  N   UNL A   1      32.382  34.191  27.633  1.00  0.00    -0.352 N 
ATOM     31  C   UNL A   1      32.978  34.961  28.608  1.00  0.00     0.251 C 
ATOM     32  H   UNL A   1      31.608  34.591  27.176  1.00  0.00     0.163 HD
ATOM     33  O   UNL A   1      32.540  36.050  28.918  1.00  0.00    -0.269 OA
BRANCH  31  34
ATOM     34  C   UNL A   1      34.152  34.396  29.297  1.00  0.00     0.039 A 
ATOM     35  C   UNL A   1      33.944  33.592  30.419  1.00  0.00     0.014 A 
ATOM     36  C   UNL A   1      35.433  34.596  28.775  1.00  0.00     0.014 A 
ATOM     37  C   UNL A   1      35.028  32.934  30.994  1.00  0.00     0.010 A 
ATOM     38  C   UNL A   1      36.507  33.905  29.325  1.00  0.00     0.010 A 
ATOM     39  C   UNL A   1      36.309  33.068  30.434  1.00  0.00    -0.014 A 
BRANCH  39  40
ATOM     40  C   UNL A   1      37.466  32.355  31.020  1.00  0.00     0.031 A 
ATOM     41  C   UNL A   1      37.954  32.741  32.383  1.00  0.00     0.074 A 
ATOM     42  C   UNL A   1      38.090  31.398  30.311  1.00  0.00     0.049 A 
ATOM     43  N   UNL A   1      38.964  32.265  33.064  1.00  0.00    -0.248 NA
ATOM     44  C   UNL A   1      37.218  33.817  33.067  1.00  0.00     0.031 C 
ATOM     45  C   UNL A   1      37.717  30.964  28.964  1.00  0.00     0.029 A 
ATOM     46  N   UNL A   1      39.174  30.619  30.625  1.00  0.00    -0.354 N 
ATOM     47  C   UNL A   1      38.982  32.978  34.253  1.00  0.00     0.074 A 
ATOM     48  C   UNL A   1      37.919  33.957  34.182  1.00  0.00     0.031 C 
ATOM     49  C   UNL A   1      38.547  29.982  28.576  1.00  0.00     0.029 A 
ATOM     50  C   UNL A   1      39.522  29.734  29.635  1.00  0.00     0.049 A 
ATOM     51  H   UNL A   1      39.658  30.688  31.480  1.00  0.00     0.167 HD
ATOM     52  C   UNL A   1      39.795  32.810  35.321  1.00  0.00     0.037 A 
ATOM     53  C   UNL A   1      40.513  28.824  29.594  1.00  0.00     0.037 A 
ATOM     54  C   UNL A   1      40.840  31.826  35.392  1.00  0.00     0.049 A 
ATOM     55  C   UNL A   1      41.425  28.680  30.782  1.00  0.00     0.074 A 
ATOM     56  C   UNL A   1      41.693  31.549  36.445  1.00  0.00     0.029 A 
ATOM     57  N   UNL A   1      41.170  30.955  34.365  1.00  0.00    -0.354 N 
ATOM     58  N   UNL A   1      41.402  29.324  31.925  1.00  0.00    -0.248 NA
ATOM     59  C   UNL A   1      42.500  27.683  30.677  1.00  0.00     0.031 C 
ATOM     60  C   UNL A   1      42.562  30.530  36.043  1.00  0.00     0.029 A 
ATOM     61  C   UNL A   1      42.227  30.150  34.753  1.00  0.00     0.049 A 
ATOM     62  H   UNL A   1      40.720  30.915  33.491  1.00  0.00     0.167 HD
ATOM     63  C   UNL A   1      42.438  28.798  32.681  1.00  0.00     0.074 A 
ATOM     64  C   UNL A   1      43.068  27.774  31.873  1.00  0.00     0.031 C 
ATOM     65  C   UNL A   1      42.832  29.132  33.933  1.00  0.00     0.037 A 
BRANCH  52  66
ATOM     66  C   UNL A   1      39.570  33.701  36.504  1.00  0.00     0.064 A 
ATOM     67  C   UNL A   1      38.767  33.291  37.579  1.00  0.00     0.173 A 
ATOM     68  C   UNL A   1      40.185  34.959  36.581  1.00  0.00     0.173 A 
ATOM     69  F   UNL A   1      38.146  32.102  37.542  1.00  0.00    -0.203 F 
ATOM     70  C   UNL A   1      38.572  34.117  38.681  1.00  0.00     0.198 A 
ATOM     71  C   UNL A   1      40.004  35.774  37.695  1.00  0.00     0.198 A 
ATOM     72  F   UNL A   1      40.961  35.395  35.578  1.00  0.00    -0.203 F 
ATOM     73  F   UNL A   1      37.769  33.722  39.679  1.00  0.00    -0.200 F 
ATOM     74  C   UNL A   1      39.195  35.355  38.741  1.00  0.00     0.200 A 
ATOM     75  F   UNL A   1      40.613  36.965  37.757  1.00  0.00    -0.200 F 
ATOM     76  F   UNL A   1      39.010  36.147  39.806  1.00  0.00    -0.200 F 
ENDBRANCH  52  66
BRANCH  53  77
ATOM     77  C   UNL A   1      40.667  27.952  28.404  1.00  0.00     0.064 A 
ATOM     78  C   UNL A   1      40.038  26.700  28.350  1.00  0.00     0.173 A 
ATOM     79  C   UNL A   1      41.431  28.349  27.298  1.00  0.00     0.173 A 
ATOM     80  F   UNL A   1      39.314  26.270  29.394  1.00  0.00    -0.203 F 
ATOM     81  C   UNL A   1      40.176  25.873  27.237  1.00  0.00     0.198 A 
ATOM     82  C   UNL A   1      41.552  27.529  26.178  1.00  0.00     0.198 A 
ATOM     83  F   UNL A   1      42.051  29.537  27.301  1.00  0.00    -0.203 F 
ATOM     84  F   UNL A   1      39.589  24.669  27.224  1.00  0.00    -0.200 F 
ATOM     85  C   UNL A   1      40.928  26.291  26.149  1.00  0.00     0.200 A 
ATOM     86  F   UNL A   1      42.272  27.939  25.124  1.00  0.00    -0.200 F 
ATOM     87  F   UNL A   1      41.056  25.498  25.077  1.00  0.00    -0.200 F 
ENDBRANCH  53  77
BRANCH  65  88
ATOM     88  C   UNL A   1      43.987  28.379  34.520  1.00  0.00     0.064 A 
ATOM     89  C   UNL A   1      45.293  28.882  34.455  1.00  0.00     0.173 A 
ATOM     90  C   UNL A   1      43.770  27.188  35.229  1.00  0.00     0.173 A 
ATOM     91  F   UNL A   1      45.549  30.010  33.775  1.00  0.00    -0.203 F 
ATOM     92  C   UNL A   1      46.345  28.215  35.075  1.00  0.00     0.198 A 
ATOM     93  C   UNL A   1      44.822  26.536  35.867  1.00  0.00     0.198 A 
ATOM     94  F   UNL A   1      42.536  26.672  35.324  1.00  0.00    -0.203 F 
ATOM     95  F   UNL A   1      47.591  28.701  34.983  1.00  0.00    -0.200 F 
ATOM     96  C   UNL A   1      46.107  27.049  35.789  1.00  0.00     0.200 A 
ATOM     97  F   UNL A   1      44.589  25.417  36.566  1.00  0.00    -0.200 F 
ATOM     98  F   UNL A   1      47.119  26.420  36.402  1.00  0.00    -0.200 F 
ENDBRANCH  65  88
ENDBRANCH  39  40
ENDBRANCH  31  34
ENDBRANCH  29  30
ENDBRANCH  28  29
ENDBRANCH  27  28
ENDBRANCH   1  27
TORSDOF 15
ENDMDL
