MODEL 1
REMARK VINA RESULT:     -12.8      0.000      0.000
REMARK SMILES COc1ccc(-c2cccc(Cl)c2C(=O)NCCCCNC(=O)c2ccc(-c3c4nc(c(-c5c(F)c(F)c(F)c(F)c5F)c5ccc([nH]5)c(-c5c(F)c(F)c(F)c(F)c5F)c5nc(c(-c6c(F)c(F)c(F)c(F)c6F)c6ccc3[nH]6)C=C5)C=C4)cc2)c(F)c1
REMARK SMILES IDX 18 1 17 2 16 3 14 4 15 5 13 7 7 8 8 9 9 10 11 11 10 12 12 13
REMARK SMILES IDX 6 14 3 15 4 16 89 17 5 18 87 19 88 20 2 21 1 22 19 23 20 24
REMARK SMILES IDX 21 25 22 26 23 28 24 29 25 30 86 31 26 32 85 33 27 34 28 35
REMARK SMILES IDX 29 36 79 37 30 38 84 39 78 40 80 41 31 42 83 43 77 44 76 45
REMARK SMILES IDX 32 47 64 48 44 49 63 50 45 51 48 52 62 53 81 54 46 55 47 56
REMARK SMILES IDX 61 58 82 59 49 60 33 61 34 62 42 63 35 64 36 65 40 66 43 67
REMARK SMILES IDX 37 68 38 69 41 70 39 71 65 72 66 73 74 74 67 75 68 76 72 77
REMARK SMILES IDX 75 78 69 79 70 80 73 81 71 82 50 83 51 84 59 85 52 86 53 87
REMARK SMILES IDX 57 88 60 89 54 90 55 91 58 92 56 93
REMARK H PARENT 16 6 21 27 80 46 48 57
REMARK Flexibility Score: inf
ROOT
ATOM      1  C   UNL A   1      31.434  30.807  25.752  1.00  0.00     0.023 C 
ENDROOT
BRANCH   1   2
ATOM      2  C   UNL A   1      32.625  29.854  25.813  1.00  0.00     0.116 C 
BRANCH   2   3
ATOM      3  N   UNL A   1      33.240  29.518  24.540  1.00  0.00    -0.352 N 
ATOM      4  C   UNL A   1      32.709  28.893  23.422  1.00  0.00     0.253 C 
ATOM      5  O   UNL A   1      33.359  28.946  22.380  1.00  0.00    -0.269 OA
ATOM      6  H   UNL A   1      34.186  29.775  24.458  1.00  0.00     0.163 HD
BRANCH   4   7
ATOM      7  C   UNL A   1      31.448  28.093  23.478  1.00  0.00     0.066 A 
ATOM      8  C   UNL A   1      31.477  26.775  24.009  1.00  0.00    -0.001 A 
ATOM      9  C   UNL A   1      30.254  26.099  24.220  1.00  0.00     0.010 A 
ATOM     10  C   UNL A   1      29.036  26.673  23.876  1.00  0.00     0.002 A 
ATOM     11  C   UNL A   1      30.227  28.580  22.980  1.00  0.00     0.054 A 
ATOM     12  C   UNL A   1      29.026  27.900  23.227  1.00  0.00     0.021 A 
ATOM     13  Cl  UNL A   1      30.111  29.927  21.896  1.00  0.00    -0.083 Cl
BRANCH   8  14
ATOM     14  C   UNL A   1      32.704  25.989  24.246  1.00  0.00     0.019 A 
ATOM     15  C   UNL A   1      34.925  24.292  24.646  1.00  0.00     0.121 A 
ATOM     16  C   UNL A   1      34.403  25.036  25.708  1.00  0.00     0.047 A 
ATOM     17  C   UNL A   1      34.374  24.421  23.377  1.00  0.00     0.086 A 
ATOM     18  C   UNL A   1      33.295  25.875  25.510  1.00  0.00     0.015 A 
ATOM     19  C   UNL A   1      33.274  25.252  23.189  1.00  0.00     0.134 A 
ATOM     20  F   UNL A   1      32.728  25.308  21.963  1.00  0.00    -0.206 F 
BRANCH  15  21
ATOM     21  O   UNL A   1      36.006  23.461  24.751  1.00  0.00    -0.497 OA
ATOM     22  C   UNL A   1      36.473  22.960  23.501  1.00  0.00     0.278 C 
ENDBRANCH  15  21
ENDBRANCH   8  14
ENDBRANCH   4   7
ENDBRANCH   2   3
ENDBRANCH   1   2
BRANCH   1  23
ATOM     23  C   UNL A   1      31.331  31.873  26.843  1.00  0.00     0.023 C 
BRANCH  23  24
ATOM     24  C   UNL A   1      32.592  32.668  27.168  1.00  0.00     0.116 C 
BRANCH  24  25
ATOM     25  N   UNL A   1      32.343  34.025  27.626  1.00  0.00    -0.352 N 
ATOM     26  C   UNL A   1      33.001  34.792  28.559  1.00  0.00     0.251 C 
ATOM     27  H   UNL A   1      31.574  34.469  27.200  1.00  0.00     0.163 HD
ATOM     28  O   UNL A   1      32.563  35.905  28.847  1.00  0.00    -0.269 OA
BRANCH  26  29
ATOM     29  C   UNL A   1      34.206  34.286  29.260  1.00  0.00     0.039 A 
ATOM     30  C   UNL A   1      34.030  33.496  30.401  1.00  0.00     0.014 A 
ATOM     31  C   UNL A   1      35.497  34.579  28.818  1.00  0.00     0.014 A 
ATOM     32  C   UNL A   1      35.139  32.932  31.038  1.00  0.00     0.010 A 
ATOM     33  C   UNL A   1      36.597  33.942  29.397  1.00  0.00     0.010 A 
ATOM     34  C   UNL A   1      36.430  33.106  30.510  1.00  0.00    -0.014 A 
BRANCH  34  35
ATOM     35  C   UNL A   1      37.592  32.389  31.103  1.00  0.00     0.031 A 
ATOM     36  C   UNL A   1      38.084  32.718  32.486  1.00  0.00     0.074 A 
ATOM     37  C   UNL A   1      38.227  31.450  30.374  1.00  0.00     0.049 A 
ATOM     38  N   UNL A   1      39.060  32.169  33.167  1.00  0.00    -0.248 NA
ATOM     39  C   UNL A   1      37.411  33.820  33.191  1.00  0.00     0.031 C 
ATOM     40  C   UNL A   1      37.894  31.086  28.995  1.00  0.00     0.029 A 
ATOM     41  N   UNL A   1      39.279  30.621  30.687  1.00  0.00    -0.354 N 
ATOM     42  C   UNL A   1      39.115  32.855  34.372  1.00  0.00     0.074 A 
ATOM     43  C   UNL A   1      38.122  33.904  34.307  1.00  0.00     0.031 C 
ATOM     44  C   UNL A   1      38.684  30.077  28.602  1.00  0.00     0.029 A 
ATOM     45  C   UNL A   1      39.608  29.744  29.682  1.00  0.00     0.049 A 
ATOM     46  H   UNL A   1      39.751  30.654  31.551  1.00  0.00     0.167 HD
ATOM     47  C   UNL A   1      39.902  32.613  35.448  1.00  0.00     0.037 A 
ATOM     48  C   UNL A   1      40.541  28.774  29.636  1.00  0.00     0.037 A 
ATOM     49  C   UNL A   1      40.877  31.556  35.517  1.00  0.00     0.049 A 
ATOM     50  C   UNL A   1      41.402  28.525  30.844  1.00  0.00     0.074 A 
ATOM     51  C   UNL A   1      41.677  31.192  36.587  1.00  0.00     0.029 A 
ATOM     52  N   UNL A   1      41.189  30.694  34.476  1.00  0.00    -0.354 N 
ATOM     53  N   UNL A   1      41.388  29.130  32.007  1.00  0.00    -0.248 NA
ATOM     54  C   UNL A   1      42.402  27.453  30.737  1.00  0.00     0.031 C 
ATOM     55  C   UNL A   1      42.513  30.151  36.175  1.00  0.00     0.029 A 
ATOM     56  C   UNL A   1      42.192  29.821  34.868  1.00  0.00     0.049 A 
ATOM     57  H   UNL A   1      40.762  30.703  33.589  1.00  0.00     0.167 HD
ATOM     58  C   UNL A   1      42.363  28.506  32.773  1.00  0.00     0.074 A 
ATOM     59  C   UNL A   1      42.930  27.455  31.953  1.00  0.00     0.031 C 
ATOM     60  C   UNL A   1      42.757  28.785  34.040  1.00  0.00     0.037 A 
BRANCH  47  61
ATOM     61  C   UNL A   1      39.733  33.491  36.656  1.00  0.00     0.064 A 
ATOM     62  C   UNL A   1      38.840  33.136  37.678  1.00  0.00     0.173 A 
ATOM     63  C   UNL A   1      40.392  34.725  36.762  1.00  0.00     0.173 A 
ATOM     64  F   UNL A   1      38.177  31.971  37.624  1.00  0.00    -0.203 F 
ATOM     65  C   UNL A   1      38.601  33.992  38.751  1.00  0.00     0.198 A 
ATOM     66  C   UNL A   1      40.176  35.563  37.852  1.00  0.00     0.198 A 
ATOM     67  F   UNL A   1      41.265  35.109  35.817  1.00  0.00    -0.203 F 
ATOM     68  F   UNL A   1      37.713  33.648  39.695  1.00  0.00    -0.200 F 
ATOM     69  C   UNL A   1      39.272  35.202  38.839  1.00  0.00     0.200 A 
ATOM     70  F   UNL A   1      40.843  36.722  37.949  1.00  0.00    -0.200 F 
ATOM     71  F   UNL A   1      39.046  36.020  39.876  1.00  0.00    -0.200 F 
ENDBRANCH  47  61
BRANCH  48  72
ATOM     72  C   UNL A   1      40.674  27.939  28.413  1.00  0.00     0.064 A 
ATOM     73  C   UNL A   1      40.038  26.692  28.305  1.00  0.00     0.173 A 
ATOM     74  C   UNL A   1      41.469  28.358  27.337  1.00  0.00     0.173 A 
ATOM     75  F   UNL A   1      39.270  26.242  29.308  1.00  0.00    -0.203 F 
ATOM     76  C   UNL A   1      40.211  25.889  27.181  1.00  0.00     0.198 A 
ATOM     77  C   UNL A   1      41.617  27.568  26.199  1.00  0.00     0.198 A 
ATOM     78  F   UNL A   1      42.080  29.551  27.381  1.00  0.00    -0.203 F 
ATOM     79  F   UNL A   1      39.626  24.686  27.122  1.00  0.00    -0.200 F 
ATOM     80  C   UNL A   1      40.996  26.329  26.126  1.00  0.00     0.200 A 
ATOM     81  F   UNL A   1      42.355  28.008  25.171  1.00  0.00    -0.200 F 
ATOM     82  F   UNL A   1      41.153  25.561  25.039  1.00  0.00    -0.200 F 
ENDBRANCH  48  72
BRANCH  60  83
ATOM     83  C   UNL A   1      43.856  27.944  34.626  1.00  0.00     0.064 A 
ATOM     84  C   UNL A   1      45.197  28.343  34.516  1.00  0.00     0.173 A 
ATOM     85  C   UNL A   1      43.587  26.716  35.249  1.00  0.00     0.173 A 
ATOM     86  F   UNL A   1      45.511  29.503  33.920  1.00  0.00    -0.203 F 
ATOM     87  C   UNL A   1      46.226  27.539  34.997  1.00  0.00     0.198 A 
ATOM     88  C   UNL A   1      44.616  25.932  35.761  1.00  0.00     0.198 A 
ATOM     89  F   UNL A   1      42.321  26.295  35.391  1.00  0.00    -0.203 F 
ATOM     90  F   UNL A   1      47.502  27.926  34.850  1.00  0.00    -0.200 F 
ATOM     91  C   UNL A   1      45.935  26.339  35.627  1.00  0.00     0.200 A 
ATOM     92  F   UNL A   1      44.331  24.786  36.395  1.00  0.00    -0.200 F 
ATOM     93  F   UNL A   1      46.926  25.576  36.109  1.00  0.00    -0.200 F 
ENDBRANCH  60  83
ENDBRANCH  34  35
ENDBRANCH  26  29
ENDBRANCH  24  25
ENDBRANCH  23  24
ENDBRANCH   1  23
TORSDOF 13
ENDMDL
MODEL 2
REMARK VINA RESULT:     -12.7      5.599     10.745
REMARK SMILES COc1ccc(-c2cccc(Cl)c2C(=O)NCCCCNC(=O)c2ccc(-c3c4nc(c(-c5c(F)c(F)c(F)c(F)c5F)c5ccc([nH]5)c(-c5c(F)c(F)c(F)c(F)c5F)c5nc(c(-c6c(F)c(F)c(F)c(F)c6F)c6ccc3[nH]6)C=C5)C=C4)cc2)c(F)c1
REMARK SMILES IDX 18 1 17 2 16 3 14 4 15 5 13 7 7 8 8 9 9 10 11 11 10 12 12 13
REMARK SMILES IDX 6 14 3 15 4 16 89 17 5 18 87 19 88 20 2 21 1 22 19 23 20 24
REMARK SMILES IDX 21 25 22 26 23 28 24 29 25 30 86 31 26 32 85 33 27 34 28 35
REMARK SMILES IDX 29 36 79 37 30 38 84 39 78 40 80 41 31 42 83 43 77 44 76 45
REMARK SMILES IDX 32 47 64 48 44 49 63 50 45 51 48 52 62 53 81 54 46 55 47 56
REMARK SMILES IDX 61 58 82 59 49 60 33 61 34 62 42 63 35 64 36 65 40 66 43 67
REMARK SMILES IDX 37 68 38 69 41 70 39 71 65 72 66 73 74 74 67 75 68 76 72 77
REMARK SMILES IDX 75 78 69 79 70 80 73 81 71 82 50 83 51 84 59 85 52 86 53 87
REMARK SMILES IDX 57 88 60 89 54 90 55 91 58 92 56 93
REMARK H PARENT 16 6 21 27 80 46 48 57
REMARK Flexibility Score: inf
ROOT
ATOM      1  C   UNL A   1      36.665  20.332  25.020  1.00  0.00     0.023 C 
ENDROOT
BRANCH   1   2
ATOM      2  C   UNL A   1      36.409  21.739  25.554  1.00  0.00     0.116 C 
BRANCH   2   3
ATOM      3  N   UNL A   1      35.388  21.857  26.582  1.00  0.00    -0.352 N 
ATOM      4  C   UNL A   1      34.032  21.571  26.539  1.00  0.00     0.253 C 
ATOM      5  O   UNL A   1      33.429  21.516  27.609  1.00  0.00    -0.269 OA
ATOM      6  H   UNL A   1      35.711  22.193  27.448  1.00  0.00     0.163 HD
BRANCH   4   7
ATOM      7  C   UNL A   1      33.286  21.430  25.252  1.00  0.00     0.066 A 
ATOM      8  C   UNL A   1      32.902  22.595  24.533  1.00  0.00    -0.001 A 
ATOM      9  C   UNL A   1      32.359  22.447  23.237  1.00  0.00     0.010 A 
ATOM     10  C   UNL A   1      32.147  21.194  22.675  1.00  0.00     0.002 A 
ATOM     11  C   UNL A   1      32.904  20.179  24.736  1.00  0.00     0.054 A 
ATOM     12  C   UNL A   1      32.391  20.061  23.438  1.00  0.00     0.021 A 
ATOM     13  Cl  UNL A   1      32.863  18.731  25.689  1.00  0.00    -0.083 Cl
BRANCH   8  14
ATOM     14  C   UNL A   1      32.907  23.965  25.085  1.00  0.00     0.019 A 
ATOM     15  C   UNL A   1      33.107  26.521  26.265  1.00  0.00     0.121 A 
ATOM     16  C   UNL A   1      31.985  25.721  26.497  1.00  0.00     0.047 A 
ATOM     17  C   UNL A   1      34.110  26.074  25.414  1.00  0.00     0.086 A 
ATOM     18  C   UNL A   1      31.888  24.447  25.915  1.00  0.00     0.015 A 
ATOM     19  C   UNL A   1      34.009  24.808  24.844  1.00  0.00     0.134 A 
ATOM     20  F   UNL A   1      35.024  24.381  24.074  1.00  0.00    -0.206 F 
BRANCH  15  21
ATOM     21  O   UNL A   1      33.274  27.776  26.784  1.00  0.00    -0.497 OA
ATOM     22  C   UNL A   1      32.109  28.298  27.418  1.00  0.00     0.278 C 
ENDBRANCH  15  21
ENDBRANCH   8  14
ENDBRANCH   4   7
ENDBRANCH   2   3
ENDBRANCH   1   2
BRANCH   1  23
ATOM     23  C   UNL A   1      38.111  19.958  24.694  1.00  0.00     0.023 C 
BRANCH  23  24
ATOM     24  C   UNL A   1      39.148  20.140  25.798  1.00  0.00     0.116 C 
BRANCH  24  25
ATOM     25  N   UNL A   1      40.198  19.134  25.805  1.00  0.00    -0.352 N 
ATOM     26  C   UNL A   1      41.538  19.238  26.100  1.00  0.00     0.251 C 
ATOM     27  H   UNL A   1      39.902  18.229  25.555  1.00  0.00     0.163 HD
ATOM     28  O   UNL A   1      42.265  18.255  25.965  1.00  0.00    -0.269 OA
BRANCH  26  29
ATOM     29  C   UNL A   1      42.133  20.524  26.536  1.00  0.00     0.039 A 
ATOM     30  C   UNL A   1      42.651  21.383  25.561  1.00  0.00     0.014 A 
ATOM     31  C   UNL A   1      42.194  20.893  27.881  1.00  0.00     0.014 A 
ATOM     32  C   UNL A   1      43.142  22.638  25.926  1.00  0.00     0.010 A 
ATOM     33  C   UNL A   1      42.598  22.182  28.235  1.00  0.00     0.010 A 
ATOM     34  C   UNL A   1      43.072  23.072  27.261  1.00  0.00    -0.014 A 
BRANCH  34  35
ATOM     35  C   UNL A   1      43.461  24.461  27.627  1.00  0.00     0.031 A 
ATOM     36  C   UNL A   1      44.904  24.887  27.635  1.00  0.00     0.074 A 
ATOM     37  C   UNL A   1      42.503  25.342  27.982  1.00  0.00     0.049 A 
ATOM     38  N   UNL A   1      45.416  26.065  27.896  1.00  0.00    -0.248 NA
ATOM     39  C   UNL A   1      45.908  23.855  27.334  1.00  0.00     0.031 C 
ATOM     40  C   UNL A   1      41.075  25.036  28.082  1.00  0.00     0.029 A 
ATOM     41  N   UNL A   1      42.579  26.673  28.316  1.00  0.00    -0.354 N 
ATOM     42  C   UNL A   1      46.791  25.914  27.790  1.00  0.00     0.074 A 
ATOM     43  C   UNL A   1      47.042  24.518  27.508  1.00  0.00     0.031 C 
ATOM     44  C   UNL A   1      40.406  26.155  28.399  1.00  0.00     0.029 A 
ATOM     45  C   UNL A   1      41.356  27.249  28.563  1.00  0.00     0.049 A 
ATOM     46  H   UNL A   1      43.429  27.166  28.372  1.00  0.00     0.167 HD
ATOM     47  C   UNL A   1      47.756  26.860  27.888  1.00  0.00     0.037 A 
ATOM     48  C   UNL A   1      41.033  28.519  28.877  1.00  0.00     0.037 A 
ATOM     49  C   UNL A   1      47.502  28.252  28.150  1.00  0.00     0.049 A 
ATOM     50  C   UNL A   1      42.123  29.550  28.979  1.00  0.00     0.074 A 
ATOM     51  C   UNL A   1      48.409  29.297  28.205  1.00  0.00     0.029 A 
ATOM     52  N   UNL A   1      46.252  28.797  28.405  1.00  0.00    -0.354 N 
ATOM     53  N   UNL A   1      43.414  29.409  28.797  1.00  0.00    -0.248 NA
ATOM     54  C   UNL A   1      41.712  30.918  29.323  1.00  0.00     0.031 C 
ATOM     55  C   UNL A   1      47.717  30.460  28.551  1.00  0.00     0.029 A 
ATOM     56  C   UNL A   1      46.368  30.157  28.649  1.00  0.00     0.049 A 
ATOM     57  H   UNL A   1      45.407  28.292  28.412  1.00  0.00     0.167 HD
ATOM     58  C   UNL A   1      43.967  30.668  28.990  1.00  0.00     0.074 A 
ATOM     59  C   UNL A   1      42.867  31.567  29.273  1.00  0.00     0.031 C 
ATOM     60  C   UNL A   1      45.269  31.042  28.942  1.00  0.00     0.037 A 
BRANCH  47  61
ATOM     61  C   UNL A   1      49.183  26.432  27.691  1.00  0.00     0.064 A 
ATOM     62  C   UNL A   1      50.029  26.235  28.793  1.00  0.00     0.173 A 
ATOM     63  C   UNL A   1      49.738  26.299  26.409  1.00  0.00     0.173 A 
ATOM     64  F   UNL A   1      49.553  26.357  30.043  1.00  0.00    -0.203 F 
ATOM     65  C   UNL A   1      51.379  25.939  28.619  1.00  0.00     0.198 A 
ATOM     66  C   UNL A   1      51.079  25.971  26.238  1.00  0.00     0.198 A 
ATOM     67  F   UNL A   1      48.971  26.467  25.321  1.00  0.00    -0.203 F 
ATOM     68  F   UNL A   1      52.176  25.794  29.686  1.00  0.00    -0.200 F 
ATOM     69  C   UNL A   1      51.901  25.802  27.341  1.00  0.00     0.200 A 
ATOM     70  F   UNL A   1      51.578  25.816  25.003  1.00  0.00    -0.200 F 
ATOM     71  F   UNL A   1      53.199  25.510  27.175  1.00  0.00    -0.200 F 
ENDBRANCH  47  61
BRANCH  48  72
ATOM     72  C   UNL A   1      39.606  28.888  29.071  1.00  0.00     0.064 A 
ATOM     73  C   UNL A   1      38.987  28.783  30.326  1.00  0.00     0.173 A 
ATOM     74  C   UNL A   1      38.821  29.322  27.993  1.00  0.00     0.173 A 
ATOM     75  F   UNL A   1      39.692  28.369  31.389  1.00  0.00    -0.203 F 
ATOM     76  C   UNL A   1      37.635  29.076  30.490  1.00  0.00     0.198 A 
ATOM     77  C   UNL A   1      37.476  29.644  28.164  1.00  0.00     0.198 A 
ATOM     78  F   UNL A   1      39.371  29.459  26.778  1.00  0.00    -0.203 F 
ATOM     79  F   UNL A   1      37.060  28.929  31.691  1.00  0.00    -0.200 F 
ATOM     80  C   UNL A   1      36.882  29.511  29.410  1.00  0.00     0.200 A 
ATOM     81  F   UNL A   1      36.758  30.089  27.124  1.00  0.00    -0.200 F 
ATOM     82  F   UNL A   1      35.584  29.804  29.571  1.00  0.00    -0.200 F 
ENDBRANCH  48  72
BRANCH  60  83
ATOM     83  C   UNL A   1      45.586  32.487  29.202  1.00  0.00     0.064 A 
ATOM     84  C   UNL A   1      45.658  33.405  28.142  1.00  0.00     0.173 A 
ATOM     85  C   UNL A   1      45.871  32.954  30.494  1.00  0.00     0.173 A 
ATOM     86  F   UNL A   1      45.405  33.009  26.886  1.00  0.00    -0.203 F 
ATOM     87  C   UNL A   1      46.014  34.732  28.366  1.00  0.00     0.198 A 
ATOM     88  C   UNL A   1      46.192  34.290  30.717  1.00  0.00     0.198 A 
ATOM     89  F   UNL A   1      45.804  32.121  31.543  1.00  0.00    -0.203 F 
ATOM     90  F   UNL A   1      46.110  35.581  27.333  1.00  0.00    -0.200 F 
ATOM     91  C   UNL A   1      46.273  35.175  29.653  1.00  0.00     0.200 A 
ATOM     92  F   UNL A   1      46.413  34.723  31.967  1.00  0.00    -0.200 F 
ATOM     93  F   UNL A   1      46.594  36.458  29.869  1.00  0.00    -0.200 F 
ENDBRANCH  60  83
ENDBRANCH  34  35
ENDBRANCH  26  29
ENDBRANCH  24  25
ENDBRANCH  23  24
ENDBRANCH   1  23
TORSDOF 13
ENDMDL
MODEL 3
REMARK VINA RESULT:     -12.7      0.911      7.545
REMARK SMILES COc1ccc(-c2cccc(Cl)c2C(=O)NCCCCNC(=O)c2ccc(-c3c4nc(c(-c5c(F)c(F)c(F)c(F)c5F)c5ccc([nH]5)c(-c5c(F)c(F)c(F)c(F)c5F)c5nc(c(-c6c(F)c(F)c(F)c(F)c6F)c6ccc3[nH]6)C=C5)C=C4)cc2)c(F)c1
REMARK SMILES IDX 18 1 17 2 16 3 14 4 15 5 13 7 7 8 8 9 9 10 11 11 10 12 12 13
REMARK SMILES IDX 6 14 3 15 4 16 89 17 5 18 87 19 88 20 2 21 1 22 19 23 20 24
REMARK SMILES IDX 21 25 22 26 23 28 24 29 25 30 86 31 26 32 85 33 27 34 28 35
REMARK SMILES IDX 29 36 79 37 30 38 84 39 78 40 80 41 31 42 83 43 77 44 76 45
REMARK SMILES IDX 32 47 64 48 44 49 63 50 45 51 48 52 62 53 81 54 46 55 47 56
REMARK SMILES IDX 61 58 82 59 49 60 33 61 34 62 42 63 35 64 36 65 40 66 43 67
REMARK SMILES IDX 37 68 38 69 41 70 39 71 65 72 66 73 74 74 67 75 68 76 72 77
REMARK SMILES IDX 75 78 69 79 70 80 73 81 71 82 50 83 51 84 59 85 52 86 53 87
REMARK SMILES IDX 57 88 60 89 54 90 55 91 58 92 56 93
REMARK H PARENT 16 6 21 27 80 46 48 57
REMARK Flexibility Score: inf
ROOT
ATOM      1  C   UNL A   1      31.431  31.010  25.737  1.00  0.00     0.023 C 
ENDROOT
BRANCH   1   2
ATOM      2  C   UNL A   1      32.452  29.879  25.843  1.00  0.00     0.116 C 
BRANCH   2   3
ATOM      3  N   UNL A   1      33.106  29.491  24.604  1.00  0.00    -0.352 N 
ATOM      4  C   UNL A   1      32.602  28.848  23.484  1.00  0.00     0.253 C 
ATOM      5  O   UNL A   1      33.292  28.855  22.467  1.00  0.00    -0.269 OA
ATOM      6  H   UNL A   1      34.061  29.723  24.552  1.00  0.00     0.163 HD
BRANCH   4   7
ATOM      7  C   UNL A   1      31.320  28.081  23.513  1.00  0.00     0.066 A 
ATOM      8  C   UNL A   1      31.314  26.744  23.996  1.00  0.00    -0.001 A 
ATOM      9  C   UNL A   1      30.073  26.095  24.185  1.00  0.00     0.010 A 
ATOM     10  C   UNL A   1      28.871  26.714  23.865  1.00  0.00     0.002 A 
ATOM     11  C   UNL A   1      30.111  28.619  23.036  1.00  0.00     0.054 A 
ATOM     12  C   UNL A   1      28.893  27.963  23.261  1.00  0.00     0.021 A 
ATOM     13  Cl  UNL A   1      30.031  30.007  22.002  1.00  0.00    -0.083 Cl
BRANCH   8  14
ATOM     14  C   UNL A   1      32.519  25.917  24.202  1.00  0.00     0.019 A 
ATOM     15  C   UNL A   1      34.943  24.537  24.640  1.00  0.00     0.121 A 
ATOM     16  C   UNL A   1      34.326  24.504  23.386  1.00  0.00     0.047 A 
ATOM     17  C   UNL A   1      34.337  25.218  25.688  1.00  0.00     0.086 A 
ATOM     18  C   UNL A   1      33.124  25.195  23.166  1.00  0.00     0.015 A 
ATOM     19  C   UNL A   1      33.148  25.904  25.462  1.00  0.00     0.134 A 
ATOM     20  F   UNL A   1      32.619  26.602  26.481  1.00  0.00    -0.206 F 
BRANCH  15  21
ATOM     21  O   UNL A   1      36.106  23.883  24.939  1.00  0.00    -0.497 OA
ATOM     22  C   UNL A   1      36.651  23.145  23.848  1.00  0.00     0.278 C 
ENDBRANCH  15  21
ENDBRANCH   8  14
ENDBRANCH   4   7
ENDBRANCH   2   3
ENDBRANCH   1   2
BRANCH   1  23
ATOM     23  C   UNL A   1      31.357  31.999  26.899  1.00  0.00     0.023 C 
BRANCH  23  24
ATOM     24  C   UNL A   1      32.614  32.804  27.216  1.00  0.00     0.116 C 
BRANCH  24  25
ATOM     25  N   UNL A   1      32.360  34.178  27.619  1.00  0.00    -0.352 N 
ATOM     26  C   UNL A   1      32.978  34.966  28.562  1.00  0.00     0.251 C 
ATOM     27  H   UNL A   1      31.620  34.617  27.139  1.00  0.00     0.163 HD
ATOM     28  O   UNL A   1      32.541  36.092  28.791  1.00  0.00    -0.269 OA
BRANCH  26  29
ATOM     29  C   UNL A   1      34.137  34.467  29.341  1.00  0.00     0.039 A 
ATOM     30  C   UNL A   1      33.899  33.887  30.592  1.00  0.00     0.014 A 
ATOM     31  C   UNL A   1      35.446  34.565  28.865  1.00  0.00     0.014 A 
ATOM     32  C   UNL A   1      34.957  33.331  31.316  1.00  0.00     0.010 A 
ATOM     33  C   UNL A   1      36.487  33.928  29.544  1.00  0.00     0.010 A 
ATOM     34  C   UNL A   1      36.254  33.298  30.775  1.00  0.00    -0.014 A 
BRANCH  34  35
ATOM     35  C   UNL A   1      37.349  32.579  31.480  1.00  0.00     0.031 A 
ATOM     36  C   UNL A   1      38.062  31.422  30.833  1.00  0.00     0.074 A 
ATOM     37  C   UNL A   1      37.687  32.956  32.730  1.00  0.00     0.049 A 
ATOM     38  N   UNL A   1      39.058  30.706  31.292  1.00  0.00    -0.248 NA
ATOM     39  C   UNL A   1      37.581  30.997  29.510  1.00  0.00     0.031 C 
ATOM     40  C   UNL A   1      37.028  34.016  33.496  1.00  0.00     0.029 A 
ATOM     41  N   UNL A   1      38.670  32.502  33.576  1.00  0.00    -0.354 N 
ATOM     42  C   UNL A   1      39.321  29.753  30.318  1.00  0.00     0.074 A 
ATOM     43  C   UNL A   1      38.339  29.936  29.272  1.00  0.00     0.031 C 
ATOM     44  C   UNL A   1      37.656  34.167  34.671  1.00  0.00     0.029 A 
ATOM     45  C   UNL A   1      38.737  33.191  34.763  1.00  0.00     0.049 A 
ATOM     46  H   UNL A   1      39.270  31.754  33.351  1.00  0.00     0.167 HD
ATOM     47  C   UNL A   1      40.311  28.829  30.284  1.00  0.00     0.037 A 
ATOM     48  C   UNL A   1      39.580  33.060  35.806  1.00  0.00     0.037 A 
ATOM     49  C   UNL A   1      41.300  28.662  31.317  1.00  0.00     0.049 A 
ATOM     50  C   UNL A   1      40.671  32.027  35.743  1.00  0.00     0.074 A 
ATOM     51  C   UNL A   1      42.380  27.796  31.344  1.00  0.00     0.029 A 
ATOM     52  N   UNL A   1      41.329  29.372  32.509  1.00  0.00    -0.354 N 
ATOM     53  N   UNL A   1      40.957  31.186  34.779  1.00  0.00    -0.248 NA
ATOM     54  C   UNL A   1      41.561  31.930  36.908  1.00  0.00     0.031 C 
ATOM     55  C   UNL A   1      43.026  27.940  32.573  1.00  0.00     0.029 A 
ATOM     56  C   UNL A   1      42.390  28.940  33.291  1.00  0.00     0.049 A 
ATOM     57  H   UNL A   1      40.691  30.076  32.763  1.00  0.00     0.167 HD
ATOM     58  C   UNL A   1      42.066  30.471  35.214  1.00  0.00     0.074 A 
ATOM     59  C   UNL A   1      42.418  30.998  36.516  1.00  0.00     0.031 C 
ATOM     60  C   UNL A   1      42.726  29.463  34.591  1.00  0.00     0.037 A 
BRANCH  47  61
ATOM     61  C   UNL A   1      40.397  27.933  29.081  1.00  0.00     0.064 A 
ATOM     62  C   UNL A   1      41.141  28.318  27.955  1.00  0.00     0.173 A 
ATOM     63  C   UNL A   1      39.676  26.732  29.008  1.00  0.00     0.173 A 
ATOM     64  F   UNL A   1      41.845  29.461  27.966  1.00  0.00    -0.203 F 
ATOM     65  C   UNL A   1      41.144  27.543  26.797  1.00  0.00     0.198 A 
ATOM     66  C   UNL A   1      39.707  25.943  27.862  1.00  0.00     0.198 A 
ATOM     67  F   UNL A   1      38.956  26.312  30.061  1.00  0.00    -0.203 F 
ATOM     68  F   UNL A   1      41.831  27.951  25.721  1.00  0.00    -0.200 F 
ATOM     69  C   UNL A   1      40.431  26.355  26.754  1.00  0.00     0.200 A 
ATOM     70  F   UNL A   1      39.036  24.783  27.829  1.00  0.00    -0.200 F 
ATOM     71  F   UNL A   1      40.441  25.607  25.642  1.00  0.00    -0.200 F 
ENDBRANCH  47  61
BRANCH  48  72
ATOM     72  C   UNL A   1      39.446  33.966  36.977  1.00  0.00     0.064 A 
ATOM     73  C   UNL A   1      40.061  35.228  37.000  1.00  0.00     0.173 A 
ATOM     74  C   UNL A   1      38.726  33.573  38.114  1.00  0.00     0.173 A 
ATOM     75  F   UNL A   1      40.765  35.650  35.940  1.00  0.00    -0.203 F 
ATOM     76  C   UNL A   1      39.979  36.049  38.122  1.00  0.00     0.198 A 
ATOM     77  C   UNL A   1      38.619  34.408  39.224  1.00  0.00     0.198 A 
ATOM     78  F   UNL A   1      38.103  32.386  38.133  1.00  0.00    -0.203 F 
ATOM     79  F   UNL A   1      40.610  37.231  38.133  1.00  0.00    -0.200 F 
ATOM     80  C   UNL A   1      39.254  35.641  39.232  1.00  0.00     0.200 A 
ATOM     81  F   UNL A   1      37.897  34.021  40.284  1.00  0.00    -0.200 F 
ATOM     82  F   UNL A   1      39.167  36.437  40.307  1.00  0.00    -0.200 F 
ENDBRANCH  48  72
BRANCH  60  83
ATOM     83  C   UNL A   1      43.901  28.858  35.306  1.00  0.00     0.064 A 
ATOM     84  C   UNL A   1      43.715  27.824  36.237  1.00  0.00     0.173 A 
ATOM     85  C   UNL A   1      45.205  29.337  35.110  1.00  0.00     0.173 A 
ATOM     86  F   UNL A   1      42.488  27.335  36.470  1.00  0.00    -0.203 F 
ATOM     87  C   UNL A   1      44.790  27.302  36.952  1.00  0.00     0.198 A 
ATOM     88  C   UNL A   1      46.281  28.788  35.801  1.00  0.00     0.198 A 
ATOM     89  F   UNL A   1      45.438  30.316  34.223  1.00  0.00    -0.203 F 
ATOM     90  F   UNL A   1      44.582  26.338  37.861  1.00  0.00    -0.200 F 
ATOM     91  C   UNL A   1      46.072  27.778  36.728  1.00  0.00     0.200 A 
ATOM     92  F   UNL A   1      47.524  29.230  35.562  1.00  0.00    -0.200 F 
ATOM     93  F   UNL A   1      47.108  27.259  37.401  1.00  0.00    -0.200 F 
ENDBRANCH  60  83
ENDBRANCH  34  35
ENDBRANCH  26  29
ENDBRANCH  24  25
ENDBRANCH  23  24
ENDBRANCH   1  23
TORSDOF 13
ENDMDL
