MODEL 1
REMARK VINA RESULT:     -13.3      0.000      0.000
REMARK SMILES CN1C(=O)/C(=C\c2ccc(-c3ccccc3C(=O)NCCCCNC(=O)c3ccc(-c4c5nc(c(-c6c(F)c(F)c(F)c(F)c6F)c6ccc([nH]6)c(-c6c(F)c(F)c(F)c(F)c6F)c6nc(c(-c7c(F)c(F)c(F)c(F)c7F)c7ccc4[nH]7)C=C6)C=C5)cc3)o2)C(=O)[NH+]=C1S
REMARK SMILES IDX 21 1 20 2 19 3 17 4 18 5 16 7 11 8 12 9 13 10 15 11 14 12
REMARK SMILES IDX 10 13 7 14 8 15 90 16 9 17 6 18 1 19 2 20 3 21 94 22 4 23
REMARK SMILES IDX 5 24 93 25 91 26 92 28 95 29 22 31 23 32 24 33 25 34 26 36
REMARK SMILES IDX 27 37 28 38 89 39 29 40 88 41 30 42 31 43 32 44 82 45 33 46
REMARK SMILES IDX 87 47 81 48 83 49 34 50 86 51 80 52 79 53 35 55 67 56 47 57
REMARK SMILES IDX 66 58 48 59 51 60 65 61 84 62 49 63 50 64 64 66 85 67 52 68
REMARK SMILES IDX 36 69 37 70 45 71 38 72 39 73 43 74 46 75 40 76 41 77 44 78
REMARK SMILES IDX 42 79 68 80 69 81 77 82 70 83 71 84 75 85 78 86 72 87 73 88
REMARK SMILES IDX 76 89 74 90 53 91 54 92 62 93 55 94 56 95 60 96 63 97 57 98
REMARK SMILES IDX 58 99 61 100 59 101
REMARK H PARENT 19 6 93 27 95 30 24 35 83 54 51 65
REMARK Flexibility Score: inf
ROOT
ATOM      1  C   UNL A   1      36.123  23.384  24.195  1.00  0.00     0.023 C 
ENDROOT
BRANCH   1   2
ATOM      2  C   UNL A   1      35.963  24.144  25.503  1.00  0.00     0.116 C 
BRANCH   2   3
ATOM      3  N   UNL A   1      34.676  24.702  25.825  1.00  0.00    -0.352 N 
ATOM      4  C   UNL A   1      33.438  24.088  25.825  1.00  0.00     0.252 C 
ATOM      5  O   UNL A   1      32.500  24.739  26.293  1.00  0.00    -0.269 OA
ATOM      6  H   UNL A   1      34.678  25.652  26.082  1.00  0.00     0.163 HD
BRANCH   4   7
ATOM      7  C   UNL A   1      33.126  22.747  25.214  1.00  0.00     0.050 A 
ATOM      8  C   UNL A   1      32.781  22.444  23.882  1.00  0.00     0.030 A 
ATOM      9  C   UNL A   1      32.520  21.105  23.514  1.00  0.00     0.013 A 
ATOM     10  C   UNL A   1      32.653  20.060  24.424  1.00  0.00     0.001 A 
ATOM     11  C   UNL A   1      33.274  21.664  26.112  1.00  0.00     0.014 A 
ATOM     12  C   UNL A   1      33.048  20.338  25.723  1.00  0.00     0.001 A 
BRANCH   8  13
ATOM     13  C   UNL A   1      32.728  23.402  22.800  1.00  0.00     0.135 A 
ATOM     14  C   UNL A   1      32.006  25.323  21.945  1.00  0.00     0.128 A 
ATOM     15  C   UNL A   1      32.902  24.747  21.043  1.00  0.00     0.051 A 
ATOM     16  O   UNL A   1      31.900  24.464  23.011  1.00  0.00    -0.457 OA
ATOM     17  C   UNL A   1      33.340  23.513  21.576  1.00  0.00     0.051 A 
BRANCH  14  18
ATOM     18  C   UNL A   1      31.372  26.597  21.917  1.00  0.00     0.071 C 
ATOM     19  C   UNL A   1      33.602  27.978  25.905  1.00  0.00     0.301 C 
ATOM     20  N   UNL A   1      32.646  28.291  24.851  1.00  0.00    -0.189 N 
ATOM     21  C   UNL A   1      32.785  27.533  23.715  1.00  0.00     0.349 C 
ATOM     22  C   UNL A   1      31.751  29.331  24.846  1.00  0.00     0.318 C 
ATOM     23  O   UNL A   1      33.810  26.901  23.463  1.00  0.00    -0.240 OA
ATOM     24  C   UNL A   1      31.646  27.585  22.788  1.00  0.00     0.157 C 
ATOM     25  N   UNL A   1      30.901  29.587  23.919  1.00  0.00    -0.200 N 
ATOM     26  C   UNL A   1      30.731  28.747  22.849  1.00  0.00     0.347 C 
ATOM     27  H   UNL A   1      30.359  30.406  23.978  1.00  0.00     0.316 HD
ATOM     28  O   UNL A   1      29.874  28.927  22.002  1.00  0.00    -0.241 OA
BRANCH  22  29
ATOM     29  S   UNL A   1      31.785  30.463  26.175  1.00  0.00    -0.055 SA
ATOM     30  H   UNL A   1      30.651  30.328  26.914  1.00  0.00     0.116 HD
ENDBRANCH  22  29
ENDBRANCH  14  18
ENDBRANCH   8  13
ENDBRANCH   4   7
ENDBRANCH   2   3
ENDBRANCH   1   2
BRANCH   1  31
ATOM     31  C   UNL A   1      36.728  21.982  24.248  1.00  0.00     0.023 C 
BRANCH  31  32
ATOM     32  C   UNL A   1      37.208  21.431  25.591  1.00  0.00     0.116 C 
BRANCH  32  33
ATOM     33  N   UNL A   1      38.387  20.574  25.548  1.00  0.00    -0.352 N 
ATOM     34  C   UNL A   1      39.629  20.745  26.126  1.00  0.00     0.251 C 
ATOM     35  H   UNL A   1      38.282  19.746  25.026  1.00  0.00     0.163 HD
ATOM     36  O   UNL A   1      40.454  19.835  26.111  1.00  0.00    -0.269 OA
BRANCH  34  37
ATOM     37  C   UNL A   1      39.978  22.054  26.722  1.00  0.00     0.039 A 
ATOM     38  C   UNL A   1      40.906  22.102  27.767  1.00  0.00     0.014 A 
ATOM     39  C   UNL A   1      39.475  23.236  26.178  1.00  0.00     0.014 A 
ATOM     40  C   UNL A   1      41.428  23.336  28.174  1.00  0.00     0.010 A 
ATOM     41  C   UNL A   1      40.061  24.451  26.519  1.00  0.00     0.010 A 
ATOM     42  C   UNL A   1      41.064  24.515  27.501  1.00  0.00    -0.014 A 
BRANCH  42  43
ATOM     43  C   UNL A   1      41.741  25.814  27.768  1.00  0.00     0.031 A 
ATOM     44  C   UNL A   1      41.002  26.924  28.462  1.00  0.00     0.074 A 
ATOM     45  C   UNL A   1      42.983  26.034  27.289  1.00  0.00     0.049 A 
ATOM     46  N   UNL A   1      41.370  28.163  28.673  1.00  0.00    -0.248 NA
ATOM     47  C   UNL A   1      39.653  26.607  28.953  1.00  0.00     0.031 C 
ATOM     48  C   UNL A   1      43.788  25.067  26.541  1.00  0.00     0.029 A 
ATOM     49  N   UNL A   1      43.781  27.153  27.340  1.00  0.00    -0.354 N 
ATOM     50  C   UNL A   1      40.292  28.774  29.302  1.00  0.00     0.074 A 
ATOM     51  C   UNL A   1      39.236  27.789  29.382  1.00  0.00     0.031 C 
ATOM     52  C   UNL A   1      44.968  25.624  26.222  1.00  0.00     0.029 A 
ATOM     53  C   UNL A   1      44.991  27.001  26.704  1.00  0.00     0.049 A 
ATOM     54  H   UNL A   1      43.512  27.986  27.790  1.00  0.00     0.167 HD
ATOM     55  C   UNL A   1      40.201  30.034  29.792  1.00  0.00     0.037 A 
ATOM     56  C   UNL A   1      46.001  27.875  26.521  1.00  0.00     0.037 A 
ATOM     57  C   UNL A   1      41.262  31.005  29.733  1.00  0.00     0.049 A 
ATOM     58  C   UNL A   1      45.877  29.266  27.081  1.00  0.00     0.074 A 
ATOM     59  C   UNL A   1      41.288  32.288  30.253  1.00  0.00     0.029 A 
ATOM     60  N   UNL A   1      42.488  30.798  29.118  1.00  0.00    -0.354 N 
ATOM     61  N   UNL A   1      44.880  29.811  27.735  1.00  0.00    -0.248 NA
ATOM     62  C   UNL A   1      47.024  30.166  26.883  1.00  0.00     0.031 C 
ATOM     63  C   UNL A   1      42.513  32.873  29.913  1.00  0.00     0.029 A 
ATOM     64  C   UNL A   1      43.271  31.936  29.228  1.00  0.00     0.049 A 
ATOM     65  H   UNL A   1      42.761  29.966  28.668  1.00  0.00     0.167 HD
ATOM     66  C   UNL A   1      45.288  31.099  28.052  1.00  0.00     0.074 A 
ATOM     67  C   UNL A   1      46.630  31.252  27.532  1.00  0.00     0.031 C 
ATOM     68  C   UNL A   1      44.610  32.069  28.714  1.00  0.00     0.037 A 
BRANCH  55  69
ATOM     69  C   UNL A   1      38.907  30.430  30.446  1.00  0.00     0.064 A 
ATOM     70  C   UNL A   1      37.809  30.872  29.690  1.00  0.00     0.173 A 
ATOM     71  C   UNL A   1      38.752  30.342  31.837  1.00  0.00     0.173 A 
ATOM     72  F   UNL A   1      37.907  30.985  28.357  1.00  0.00    -0.203 F 
ATOM     73  C   UNL A   1      36.619  31.247  30.307  1.00  0.00     0.198 A 
ATOM     74  C   UNL A   1      37.548  30.686  32.447  1.00  0.00     0.198 A 
ATOM     75  F   UNL A   1      39.766  29.920  32.606  1.00  0.00    -0.203 F 
ATOM     76  F   UNL A   1      35.606  31.722  29.570  1.00  0.00    -0.200 F 
ATOM     77  C   UNL A   1      36.486  31.148  31.683  1.00  0.00     0.200 A 
ATOM     78  F   UNL A   1      37.417  30.578  33.777  1.00  0.00    -0.200 F 
ATOM     79  F   UNL A   1      35.338  31.506  32.275  1.00  0.00    -0.200 F 
ENDBRANCH  55  69
BRANCH  56  80
ATOM     80  C   UNL A   1      47.230  27.454  25.797  1.00  0.00     0.064 A 
ATOM     81  C   UNL A   1      48.302  26.862  26.480  1.00  0.00     0.173 A 
ATOM     82  C   UNL A   1      47.366  27.643  24.413  1.00  0.00     0.173 A 
ATOM     83  F   UNL A   1      48.229  26.681  27.807  1.00  0.00    -0.203 F 
ATOM     84  C   UNL A   1      49.471  26.496  25.814  1.00  0.00     0.198 A 
ATOM     85  C   UNL A   1      48.524  27.249  23.743  1.00  0.00     0.198 A 
ATOM     86  F   UNL A   1      46.370  28.201  23.710  1.00  0.00    -0.203 F 
ATOM     87  F   UNL A   1      50.497  25.978  26.502  1.00  0.00    -0.200 F 
ATOM     88  C   UNL A   1      49.578  26.684  24.445  1.00  0.00     0.200 A 
ATOM     89  F   UNL A   1      48.619  27.420  22.417  1.00  0.00    -0.200 F 
ATOM     90  F   UNL A   1      50.700  26.330  23.804  1.00  0.00    -0.200 F 
ENDBRANCH  56  80
BRANCH  68  91
ATOM     91  C   UNL A   1      45.322  33.370  28.949  1.00  0.00     0.064 A 
ATOM     92  C   UNL A   1      46.130  33.575  30.077  1.00  0.00     0.173 A 
ATOM     93  C   UNL A   1      45.227  34.408  28.010  1.00  0.00     0.173 A 
ATOM     94  F   UNL A   1      46.242  32.619  31.011  1.00  0.00    -0.203 F 
ATOM     95  C   UNL A   1      46.798  34.782  30.267  1.00  0.00     0.198 A 
ATOM     96  C   UNL A   1      45.921  35.601  28.188  1.00  0.00     0.198 A 
ATOM     97  F   UNL A   1      44.472  34.260  26.911  1.00  0.00    -0.203 F 
ATOM     98  F   UNL A   1      47.529  34.974  31.374  1.00  0.00    -0.200 F 
ATOM     99  C   UNL A   1      46.701  35.790  29.319  1.00  0.00     0.200 A 
ATOM    100  F   UNL A   1      45.838  36.568  27.264  1.00  0.00    -0.200 F 
ATOM    101  F   UNL A   1      47.353  36.947  29.499  1.00  0.00    -0.200 F 
ENDBRANCH  68  91
ENDBRANCH  42  43
ENDBRANCH  34  37
ENDBRANCH  32  33
ENDBRANCH  31  32
ENDBRANCH   1  31
TORSDOF 14
ENDMDL
MODEL 2
REMARK VINA RESULT:     -13.3      3.739      7.170
REMARK SMILES CN1C(=O)/C(=C\c2ccc(-c3ccccc3C(=O)NCCCCNC(=O)c3ccc(-c4c5nc(c(-c6c(F)c(F)c(F)c(F)c6F)c6ccc([nH]6)c(-c6c(F)c(F)c(F)c(F)c6F)c6nc(c(-c7c(F)c(F)c(F)c(F)c7F)c7ccc4[nH]7)C=C6)C=C5)cc3)o2)C(=O)[NH+]=C1S
REMARK SMILES IDX 21 1 20 2 19 3 17 4 18 5 16 7 11 8 12 9 13 10 15 11 14 12
REMARK SMILES IDX 10 13 7 14 8 15 90 16 9 17 6 18 1 19 2 20 3 21 94 22 4 23
REMARK SMILES IDX 5 24 93 25 91 26 92 28 95 29 22 31 23 32 24 33 25 34 26 36
REMARK SMILES IDX 27 37 28 38 89 39 29 40 88 41 30 42 31 43 32 44 82 45 33 46
REMARK SMILES IDX 87 47 81 48 83 49 34 50 86 51 80 52 79 53 35 55 67 56 47 57
REMARK SMILES IDX 66 58 48 59 51 60 65 61 84 62 49 63 50 64 64 66 85 67 52 68
REMARK SMILES IDX 36 69 37 70 45 71 38 72 39 73 43 74 46 75 40 76 41 77 44 78
REMARK SMILES IDX 42 79 68 80 69 81 77 82 70 83 71 84 75 85 78 86 72 87 73 88
REMARK SMILES IDX 76 89 74 90 53 91 54 92 62 93 55 94 56 95 60 96 63 97 57 98
REMARK SMILES IDX 58 99 61 100 59 101
REMARK H PARENT 19 6 93 27 95 30 24 35 83 54 51 65
REMARK Flexibility Score: inf
ROOT
ATOM      1  C   UNL A   1      34.001  27.879  25.246  1.00  0.00     0.023 C 
ENDROOT
BRANCH   1   2
ATOM      2  C   UNL A   1      34.064  26.359  25.260  1.00  0.00     0.116 C 
BRANCH   2   3
ATOM      3  N   UNL A   1      34.010  25.654  24.006  1.00  0.00    -0.352 N 
ATOM      4  C   UNL A   1      33.041  25.704  23.022  1.00  0.00     0.252 C 
ATOM      5  O   UNL A   1      33.300  25.123  21.964  1.00  0.00    -0.269 OA
ATOM      6  H   UNL A   1      34.768  25.053  23.825  1.00  0.00     0.163 HD
BRANCH   4   7
ATOM      7  C   UNL A   1      31.671  26.314  23.171  1.00  0.00     0.050 A 
ATOM      8  C   UNL A   1      30.608  25.900  23.996  1.00  0.00     0.030 A 
ATOM      9  C   UNL A   1      29.391  26.618  23.981  1.00  0.00     0.013 A 
ATOM     10  C   UNL A   1      29.232  27.768  23.214  1.00  0.00     0.001 A 
ATOM     11  C   UNL A   1      31.491  27.498  22.417  1.00  0.00     0.014 A 
ATOM     12  C   UNL A   1      30.291  28.219  22.442  1.00  0.00     0.001 A 
BRANCH   8  13
ATOM     13  C   UNL A   1      30.666  24.804  24.939  1.00  0.00     0.135 A 
ATOM     14  C   UNL A   1      31.282  22.736  25.472  1.00  0.00     0.128 A 
ATOM     15  C   UNL A   1      30.711  23.331  26.598  1.00  0.00     0.051 A 
ATOM     16  O   UNL A   1      31.223  23.658  24.456  1.00  0.00    -0.457 OA
ATOM     17  C   UNL A   1      30.296  24.637  26.249  1.00  0.00     0.051 A 
BRANCH  14  18
ATOM     18  C   UNL A   1      31.935  21.479  25.333  1.00  0.00     0.071 C 
ATOM     19  C   UNL A   1      36.241  23.468  25.865  1.00  0.00     0.301 C 
ATOM     20  N   UNL A   1      35.456  22.265  25.619  1.00  0.00    -0.189 N 
ATOM     21  C   UNL A   1      34.143  22.354  26.012  1.00  0.00     0.349 C 
ATOM     22  C   UNL A   1      35.934  21.057  25.179  1.00  0.00     0.318 C 
ATOM     23  O   UNL A   1      33.745  23.212  26.798  1.00  0.00    -0.240 OA
ATOM     24  C   UNL A   1      33.261  21.307  25.476  1.00  0.00     0.157 C 
ATOM     25  N   UNL A   1      35.230  20.009  24.950  1.00  0.00    -0.200 N 
ATOM     26  C   UNL A   1      33.862  20.031  25.027  1.00  0.00     0.347 C 
ATOM     27  H   UNL A   1      35.684  19.168  24.713  1.00  0.00     0.316 HD
ATOM     28  O   UNL A   1      33.171  19.071  24.734  1.00  0.00    -0.241 OA
BRANCH  22  29
ATOM     29  S   UNL A   1      37.657  20.874  24.961  1.00  0.00    -0.055 SA
ATOM     30  H   UNL A   1      38.208  22.084  24.671  1.00  0.00     0.116 HD
ENDBRANCH  22  29
ENDBRANCH  14  18
ENDBRANCH   8  13
ENDBRANCH   4   7
ENDBRANCH   2   3
ENDBRANCH   1   2
BRANCH   1  31
ATOM     31  C   UNL A   1      32.852  28.557  25.990  1.00  0.00     0.023 C 
BRANCH  31  32
ATOM     32  C   UNL A   1      33.041  28.941  27.458  1.00  0.00     0.116 C 
BRANCH  32  33
ATOM     33  N   UNL A   1      33.282  30.354  27.725  1.00  0.00    -0.352 N 
ATOM     34  C   UNL A   1      34.462  31.018  27.991  1.00  0.00     0.251 C 
ATOM     35  H   UNL A   1      32.478  30.922  27.716  1.00  0.00     0.163 HD
ATOM     36  O   UNL A   1      34.491  32.245  28.037  1.00  0.00    -0.269 OA
BRANCH  34  37
ATOM     37  C   UNL A   1      35.688  30.236  28.272  1.00  0.00     0.039 A 
ATOM     38  C   UNL A   1      36.677  30.142  27.289  1.00  0.00     0.014 A 
ATOM     39  C   UNL A   1      35.904  29.693  29.539  1.00  0.00     0.014 A 
ATOM     40  C   UNL A   1      37.934  29.621  27.619  1.00  0.00     0.010 A 
ATOM     41  C   UNL A   1      37.181  29.262  29.889  1.00  0.00     0.010 A 
ATOM     42  C   UNL A   1      38.219  29.245  28.943  1.00  0.00    -0.014 A 
BRANCH  42  43
ATOM     43  C   UNL A   1      39.595  28.875  29.376  1.00  0.00     0.031 A 
ATOM     44  C   UNL A   1      40.395  29.815  30.234  1.00  0.00     0.074 A 
ATOM     45  C   UNL A   1      40.165  27.745  28.908  1.00  0.00     0.049 A 
ATOM     46  N   UNL A   1      41.647  29.734  30.610  1.00  0.00    -0.248 NA
ATOM     47  C   UNL A   1      39.705  31.025  30.703  1.00  0.00     0.031 C 
ATOM     48  C   UNL A   1      39.524  26.777  28.016  1.00  0.00     0.029 A 
ATOM     49  N   UNL A   1      41.425  27.228  29.100  1.00  0.00    -0.354 N 
ATOM     50  C   UNL A   1      41.897  30.890  31.340  1.00  0.00     0.074 A 
ATOM     51  C   UNL A   1      40.687  31.682  31.302  1.00  0.00     0.031 C 
ATOM     52  C   UNL A   1      40.383  25.778  27.755  1.00  0.00     0.029 A 
ATOM     53  C   UNL A   1      41.650  26.051  28.426  1.00  0.00     0.049 A 
ATOM     54  H   UNL A   1      42.103  27.660  29.669  1.00  0.00     0.167 HD
ATOM     55  C   UNL A   1      43.023  31.246  32.004  1.00  0.00     0.037 A 
ATOM     56  C   UNL A   1      42.755  25.283  28.348  1.00  0.00     0.037 A 
ATOM     57  C   UNL A   1      44.217  30.445  32.062  1.00  0.00     0.049 A 
ATOM     58  C   UNL A   1      43.991  25.698  29.100  1.00  0.00     0.074 A 
ATOM     59  C   UNL A   1      45.390  30.691  32.756  1.00  0.00     0.029 A 
ATOM     60  N   UNL A   1      44.390  29.238  31.399  1.00  0.00    -0.354 N 
ATOM     61  N   UNL A   1      44.191  26.759  29.844  1.00  0.00    -0.248 NA
ATOM     62  C   UNL A   1      45.155  24.804  29.008  1.00  0.00     0.031 C 
ATOM     63  C   UNL A   1      46.288  29.655  32.477  1.00  0.00     0.029 A 
ATOM     64  C   UNL A   1      45.657  28.737  31.653  1.00  0.00     0.049 A 
ATOM     65  H   UNL A   1      43.714  28.803  30.831  1.00  0.00     0.167 HD
ATOM     66  C   UNL A   1      45.487  26.646  30.331  1.00  0.00     0.074 A 
ATOM     67  C   UNL A   1      46.022  25.405  29.810  1.00  0.00     0.031 C 
ATOM     68  C   UNL A   1      46.171  27.494  31.136  1.00  0.00     0.037 A 
BRANCH  55  69
ATOM     69  C   UNL A   1      43.009  32.561  32.733  1.00  0.00     0.064 A 
ATOM     70  C   UNL A   1      42.500  32.672  34.036  1.00  0.00     0.173 A 
ATOM     71  C   UNL A   1      43.532  33.716  32.133  1.00  0.00     0.173 A 
ATOM     72  F   UNL A   1      41.978  31.600  34.652  1.00  0.00    -0.203 F 
ATOM     73  C   UNL A   1      42.482  33.897  34.697  1.00  0.00     0.198 A 
ATOM     74  C   UNL A   1      43.543  34.933  32.810  1.00  0.00     0.198 A 
ATOM     75  F   UNL A   1      44.036  33.665  30.891  1.00  0.00    -0.203 F 
ATOM     76  F   UNL A   1      41.938  33.989  35.918  1.00  0.00    -0.200 F 
ATOM     77  C   UNL A   1      43.009  35.025  34.087  1.00  0.00     0.200 A 
ATOM     78  F   UNL A   1      44.065  36.020  32.225  1.00  0.00    -0.200 F 
ATOM     79  F   UNL A   1      42.995  36.202  34.726  1.00  0.00    -0.200 F 
ENDBRANCH  55  69
BRANCH  56  80
ATOM     80  C   UNL A   1      42.738  24.030  27.546  1.00  0.00     0.064 A 
ATOM     81  C   UNL A   1      42.381  22.806  28.132  1.00  0.00     0.173 A 
ATOM     82  C   UNL A   1      43.088  24.023  26.188  1.00  0.00     0.173 A 
ATOM     83  F   UNL A   1      42.061  22.757  29.433  1.00  0.00    -0.203 F 
ATOM     84  C   UNL A   1      42.395  21.622  27.396  1.00  0.00     0.198 A 
ATOM     85  C   UNL A   1      43.072  22.842  25.446  1.00  0.00     0.198 A 
ATOM     86  F   UNL A   1      43.433  25.166  25.577  1.00  0.00    -0.203 F 
ATOM     87  F   UNL A   1      42.098  20.461  27.995  1.00  0.00    -0.200 F 
ATOM     88  C   UNL A   1      42.735  21.642  26.053  1.00  0.00     0.200 A 
ATOM     89  F   UNL A   1      43.388  22.868  24.144  1.00  0.00    -0.200 F 
ATOM     90  F   UNL A   1      42.746  20.504  25.345  1.00  0.00    -0.200 F 
ENDBRANCH  56  80
BRANCH  68  91
ATOM     91  C   UNL A   1      47.562  27.094  31.538  1.00  0.00     0.064 A 
ATOM     92  C   UNL A   1      47.798  26.237  32.623  1.00  0.00     0.173 A 
ATOM     93  C   UNL A   1      48.667  27.539  30.798  1.00  0.00     0.173 A 
ATOM     94  F   UNL A   1      46.775  25.796  33.370  1.00  0.00    -0.203 F 
ATOM     95  C   UNL A   1      49.093  25.861  32.967  1.00  0.00     0.198 A 
ATOM     96  C   UNL A   1      49.959  27.135  31.126  1.00  0.00     0.198 A 
ATOM     97  F   UNL A   1      48.495  28.354  29.747  1.00  0.00    -0.203 F 
ATOM     98  F   UNL A   1      49.300  25.079  34.036  1.00  0.00    -0.200 F 
ATOM     99  C   UNL A   1      50.171  26.303  32.214  1.00  0.00     0.200 A 
ATOM    100  F   UNL A   1      50.997  27.551  30.389  1.00  0.00    -0.200 F 
ATOM    101  F   UNL A   1      51.416  25.931  32.542  1.00  0.00    -0.200 F 
ENDBRANCH  68  91
ENDBRANCH  42  43
ENDBRANCH  34  37
ENDBRANCH  32  33
ENDBRANCH  31  32
ENDBRANCH   1  31
TORSDOF 14
ENDMDL
MODEL 3
REMARK VINA RESULT:     -13.3      0.441      7.254
REMARK SMILES CN1C(=O)/C(=C\c2ccc(-c3ccccc3C(=O)NCCCCNC(=O)c3ccc(-c4c5nc(c(-c6c(F)c(F)c(F)c(F)c6F)c6ccc([nH]6)c(-c6c(F)c(F)c(F)c(F)c6F)c6nc(c(-c7c(F)c(F)c(F)c(F)c7F)c7ccc4[nH]7)C=C6)C=C5)cc3)o2)C(=O)[NH+]=C1S
REMARK SMILES IDX 21 1 20 2 19 3 17 4 18 5 16 7 11 8 12 9 13 10 15 11 14 12
REMARK SMILES IDX 10 13 7 14 8 15 90 16 9 17 6 18 1 19 2 20 3 21 94 22 4 23
REMARK SMILES IDX 5 24 93 25 91 26 92 28 95 29 22 31 23 32 24 33 25 34 26 36
REMARK SMILES IDX 27 37 28 38 89 39 29 40 88 41 30 42 31 43 32 44 82 45 33 46
REMARK SMILES IDX 87 47 81 48 83 49 34 50 86 51 80 52 79 53 35 55 67 56 47 57
REMARK SMILES IDX 66 58 48 59 51 60 65 61 84 62 49 63 50 64 64 66 85 67 52 68
REMARK SMILES IDX 36 69 37 70 45 71 38 72 39 73 43 74 46 75 40 76 41 77 44 78
REMARK SMILES IDX 42 79 68 80 69 81 77 82 70 83 71 84 75 85 78 86 72 87 73 88
REMARK SMILES IDX 76 89 74 90 53 91 54 92 62 93 55 94 56 95 60 96 63 97 57 98
REMARK SMILES IDX 58 99 61 100 59 101
REMARK H PARENT 19 6 93 27 95 30 24 35 83 54 51 65
REMARK Flexibility Score: inf
ROOT
ATOM      1  C   UNL A   1      35.998  23.411  24.187  1.00  0.00     0.023 C 
ENDROOT
BRANCH   1   2
ATOM      2  C   UNL A   1      35.827  24.126  25.518  1.00  0.00     0.116 C 
BRANCH   2   3
ATOM      3  N   UNL A   1      34.536  24.669  25.849  1.00  0.00    -0.352 N 
ATOM      4  C   UNL A   1      33.299  24.053  25.815  1.00  0.00     0.252 C 
ATOM      5  O   UNL A   1      32.355  24.685  26.299  1.00  0.00    -0.269 OA
ATOM      6  H   UNL A   1      34.533  25.610  26.139  1.00  0.00     0.163 HD
BRANCH   4   7
ATOM      7  C   UNL A   1      32.995  22.734  25.154  1.00  0.00     0.050 A 
ATOM      8  C   UNL A   1      32.687  22.476  23.804  1.00  0.00     0.030 A 
ATOM      9  C   UNL A   1      32.428  21.151  23.388  1.00  0.00     0.013 A 
ATOM     10  C   UNL A   1      32.528  20.077  24.267  1.00  0.00     0.001 A 
ATOM     11  C   UNL A   1      33.111  21.622  26.022  1.00  0.00     0.014 A 
ATOM     12  C   UNL A   1      32.888  20.311  25.585  1.00  0.00     0.001 A 
BRANCH   8  13
ATOM     13  C   UNL A   1      32.670  23.468  22.752  1.00  0.00     0.135 A 
ATOM     14  C   UNL A   1      31.989  25.421  21.939  1.00  0.00     0.128 A 
ATOM     15  C   UNL A   1      32.903  24.864  21.043  1.00  0.00     0.051 A 
ATOM     16  O   UNL A   1      31.847  24.530  22.974  1.00  0.00    -0.457 OA
ATOM     17  C   UNL A   1      33.315  23.610  21.549  1.00  0.00     0.051 A 
BRANCH  14  18
ATOM     18  C   UNL A   1      31.367  26.701  21.935  1.00  0.00     0.071 C 
ATOM     19  C   UNL A   1      33.574  27.969  25.973  1.00  0.00     0.301 C 
ATOM     20  N   UNL A   1      32.630  28.315  24.918  1.00  0.00    -0.189 N 
ATOM     21  C   UNL A   1      32.773  27.582  23.766  1.00  0.00     0.349 C 
ATOM     22  C   UNL A   1      31.745  29.364  24.929  1.00  0.00     0.318 C 
ATOM     23  O   UNL A   1      33.794  26.946  23.509  1.00  0.00    -0.240 OA
ATOM     24  C   UNL A   1      31.642  27.666  22.830  1.00  0.00     0.157 C 
ATOM     25  N   UNL A   1      30.907  29.649  24.001  1.00  0.00    -0.200 N 
ATOM     26  C   UNL A   1      30.738  28.836  22.911  1.00  0.00     0.347 C 
ATOM     27  H   UNL A   1      30.372  30.472  24.073  1.00  0.00     0.316 HD
ATOM     28  O   UNL A   1      29.891  29.044  22.059  1.00  0.00    -0.241 OA
BRANCH  22  29
ATOM     29  S   UNL A   1      31.778  30.465  26.283  1.00  0.00    -0.055 SA
ATOM     30  H   UNL A   1      30.819  31.416  26.118  1.00  0.00     0.116 HD
ENDBRANCH  22  29
ENDBRANCH  14  18
ENDBRANCH   8  13
ENDBRANCH   4   7
ENDBRANCH   2   3
ENDBRANCH   1   2
BRANCH   1  31
ATOM     31  C   UNL A   1      36.719  22.063  24.183  1.00  0.00     0.023 C 
BRANCH  31  32
ATOM     32  C   UNL A   1      37.110  21.426  25.517  1.00  0.00     0.116 C 
BRANCH  32  33
ATOM     33  N   UNL A   1      38.330  20.629  25.514  1.00  0.00    -0.352 N 
ATOM     34  C   UNL A   1      39.551  20.872  26.112  1.00  0.00     0.251 C 
ATOM     35  H   UNL A   1      38.276  19.786  25.008  1.00  0.00     0.163 HD
ATOM     36  O   UNL A   1      40.420  20.004  26.131  1.00  0.00    -0.269 OA
BRANCH  34  37
ATOM     37  C   UNL A   1      39.824  22.208  26.686  1.00  0.00     0.039 A 
ATOM     38  C   UNL A   1      40.812  22.340  27.666  1.00  0.00     0.014 A 
ATOM     39  C   UNL A   1      39.184  23.340  26.180  1.00  0.00     0.014 A 
ATOM     40  C   UNL A   1      41.251  23.616  28.039  1.00  0.00     0.010 A 
ATOM     41  C   UNL A   1      39.684  24.603  26.484  1.00  0.00     0.010 A 
ATOM     42  C   UNL A   1      40.741  24.757  27.396  1.00  0.00    -0.014 A 
BRANCH  42  43
ATOM     43  C   UNL A   1      41.319  26.111  27.620  1.00  0.00     0.031 A 
ATOM     44  C   UNL A   1      42.722  26.418  27.174  1.00  0.00     0.074 A 
ATOM     45  C   UNL A   1      40.624  27.030  28.323  1.00  0.00     0.049 A 
ATOM     46  N   UNL A   1      43.446  27.488  27.387  1.00  0.00    -0.248 NA
ATOM     47  C   UNL A   1      43.414  25.366  26.416  1.00  0.00     0.031 C 
ATOM     48  C   UNL A   1      39.279  26.840  28.871  1.00  0.00     0.029 A 
ATOM     49  N   UNL A   1      40.961  28.303  28.717  1.00  0.00    -0.354 N 
ATOM     50  C   UNL A   1      44.682  27.228  26.808  1.00  0.00     0.074 A 
ATOM     51  C   UNL A   1      44.629  25.879  26.289  1.00  0.00     0.031 C 
ATOM     52  C   UNL A   1      38.899  27.958  29.509  1.00  0.00     0.029 A 
ATOM     53  C   UNL A   1      39.985  28.931  29.455  1.00  0.00     0.049 A 
ATOM     54  H   UNL A   1      41.820  28.727  28.491  1.00  0.00     0.167 HD
ATOM     55  C   UNL A   1      45.754  28.049  26.695  1.00  0.00     0.037 A 
ATOM     56  C   UNL A   1      39.970  30.150  30.031  1.00  0.00     0.037 A 
ATOM     57  C   UNL A   1      45.796  29.400  27.189  1.00  0.00     0.049 A 
ATOM     58  C   UNL A   1      41.171  31.045  29.886  1.00  0.00     0.074 A 
ATOM     59  C   UNL A   1      46.813  30.331  27.073  1.00  0.00     0.029 A 
ATOM     60  N   UNL A   1      44.771  30.014  27.895  1.00  0.00    -0.354 N 
ATOM     61  N   UNL A   1      42.308  30.813  29.275  1.00  0.00    -0.248 NA
ATOM     62  C   UNL A   1      41.086  32.376  30.504  1.00  0.00     0.031 C 
ATOM     63  C   UNL A   1      46.422  31.493  27.747  1.00  0.00     0.029 A 
ATOM     64  C   UNL A   1      45.140  31.305  28.237  1.00  0.00     0.049 A 
ATOM     65  H   UNL A   1      43.909  29.593  28.121  1.00  0.00     0.167 HD
ATOM     66  C   UNL A   1      43.059  31.973  29.409  1.00  0.00     0.074 A 
ATOM     67  C   UNL A   1      42.243  32.916  30.146  1.00  0.00     0.031 C 
ATOM     68  C   UNL A   1      44.311  32.234  28.961  1.00  0.00     0.037 A 
BRANCH  55  69
ATOM     69  C   UNL A   1      46.969  27.506  25.997  1.00  0.00     0.064 A 
ATOM     70  C   UNL A   1      47.997  26.864  26.707  1.00  0.00     0.173 A 
ATOM     71  C   UNL A   1      47.099  27.605  24.604  1.00  0.00     0.173 A 
ATOM     72  F   UNL A   1      47.928  26.752  28.042  1.00  0.00    -0.203 F 
ATOM     73  C   UNL A   1      49.124  26.376  26.053  1.00  0.00     0.198 A 
ATOM     74  C   UNL A   1      48.212  27.085  23.949  1.00  0.00     0.198 A 
ATOM     75  F   UNL A   1      46.144  28.203  23.876  1.00  0.00    -0.203 F 
ATOM     76  F   UNL A   1      50.118  25.819  26.759  1.00  0.00    -0.200 F 
ATOM     77  C   UNL A   1      49.229  26.479  24.674  1.00  0.00     0.200 A 
ATOM     78  F   UNL A   1      48.306  27.174  22.615  1.00  0.00    -0.200 F 
ATOM     79  F   UNL A   1      50.312  26.005  24.045  1.00  0.00    -0.200 F 
ENDBRANCH  55  69
BRANCH  56  80
ATOM     80  C   UNL A   1      38.768  30.607  30.779  1.00  0.00     0.064 A 
ATOM     81  C   UNL A   1      37.678  31.180  30.108  1.00  0.00     0.173 A 
ATOM     82  C   UNL A   1      38.687  30.495  32.175  1.00  0.00     0.173 A 
ATOM     83  F   UNL A   1      37.717  31.330  28.776  1.00  0.00    -0.203 F 
ATOM     84  C   UNL A   1      36.562  31.642  30.805  1.00  0.00     0.198 A 
ATOM     85  C   UNL A   1      37.557  30.931  32.868  1.00  0.00     0.198 A 
ATOM     86  F   UNL A   1      39.700  29.953  32.866  1.00  0.00    -0.203 F 
ATOM     87  F   UNL A   1      35.557  32.229  30.141  1.00  0.00    -0.200 F 
ATOM     88  C   UNL A   1      36.500  31.512  32.183  1.00  0.00     0.200 A 
ATOM     89  F   UNL A   1      37.496  30.791  34.199  1.00  0.00    -0.200 F 
ATOM     90  F   UNL A   1      35.427  31.953  32.853  1.00  0.00    -0.200 F 
ENDBRANCH  56  80
BRANCH  68  91
ATOM     91  C   UNL A   1      44.865  33.606  29.221  1.00  0.00     0.064 A 
ATOM     92  C   UNL A   1      44.639  34.672  28.338  1.00  0.00     0.173 A 
ATOM     93  C   UNL A   1      45.593  33.865  30.392  1.00  0.00     0.173 A 
ATOM     94  F   UNL A   1      43.962  34.473  27.198  1.00  0.00    -0.203 F 
ATOM     95  C   UNL A   1      45.144  35.942  28.607  1.00  0.00     0.198 A 
ATOM     96  C   UNL A   1      46.069  35.142  30.673  1.00  0.00     0.198 A 
ATOM     97  F   UNL A   1      45.831  32.881  31.273  1.00  0.00    -0.203 F 
ATOM     98  F   UNL A   1      44.956  36.935  27.727  1.00  0.00    -0.200 F 
ATOM     99  C   UNL A   1      45.850  36.178  29.777  1.00  0.00     0.200 A 
ATOM    100  F   UNL A   1      46.738  35.372  31.811  1.00  0.00    -0.200 F 
ATOM    101  F   UNL A   1      46.326  37.403  30.038  1.00  0.00    -0.200 F 
ENDBRANCH  68  91
ENDBRANCH  42  43
ENDBRANCH  34  37
ENDBRANCH  32  33
ENDBRANCH  31  32
ENDBRANCH   1  31
TORSDOF 14
ENDMDL
