MODEL 1
REMARK VINA RESULT:     -11.5      0.000      0.000
REMARK SMILES C[C@H]1[C@@H](C(=O)NCCCCNC(=O)c2ccc(-c3c4nc(c(-c5c(F)c(F)c(F)c(F)c5F)c5ccc([nH]5)c(-c5c(F)c(F)c(F)c(F)c5F)c5nc(c(-c6c(F)c(F)c(F)c(F)c6F)c6ccc3[nH]6)C=C5)C=C4)cc2)CC[N@@H+]1CCO
REMARK SMILES IDX 8 1 7 2 6 3 4 4 5 5 3 7 1 8 2 9 79 10 77 11 78 12 80 14
REMARK SMILES IDX 81 15 82 16 9 18 10 19 11 20 12 21 13 23 14 24 15 25 76 26
REMARK SMILES IDX 16 27 75 28 17 29 18 30 19 31 69 32 20 33 74 34 68 35 70 36
REMARK SMILES IDX 21 37 73 38 67 39 66 40 22 42 54 43 34 44 53 45 35 46 38 47
REMARK SMILES IDX 52 48 71 49 36 50 37 51 51 53 72 54 39 55 23 56 24 57 32 58
REMARK SMILES IDX 25 59 26 60 30 61 33 62 27 63 28 64 31 65 29 66 55 67 56 68
REMARK SMILES IDX 64 69 57 70 58 71 62 72 65 73 59 74 60 75 63 76 61 77 40 78
REMARK SMILES IDX 41 79 49 80 42 81 43 82 47 83 50 84 44 85 45 86 48 87 46 88
REMARK H PARENT 6 6 79 13 82 17 11 22 70 41 38 52
REMARK Flexibility Score: inf
ROOT
ATOM      1  C   UNL A   1      31.921  30.617  26.355  1.00  0.00     0.023 C 
ENDROOT
BRANCH   1   2
ATOM      2  C   UNL A   1      32.938  29.888  27.239  1.00  0.00     0.116 C 
BRANCH   2   3
ATOM      3  N   UNL A   1      32.381  28.613  27.623  1.00  0.00    -0.356 N 
ATOM      4  C   UNL A   1      32.167  27.510  26.851  1.00  0.00     0.229 C 
ATOM      5  O   UNL A   1      31.302  26.728  27.251  1.00  0.00    -0.275 OA
ATOM      6  H   UNL A   1      32.122  28.529  28.568  1.00  0.00     0.163 HD
BRANCH   4   7
ATOM      7  C   UNL A   1      33.085  27.192  25.663  1.00  0.00     0.142 C 
ATOM      8  C   UNL A   1      31.352  28.012  23.810  1.00  0.00     0.076 C 
ATOM      9  C   UNL A   1      32.590  27.232  24.199  1.00  0.00     0.193 C 
ATOM     10  N   UNL A   1      32.344  25.840  23.783  1.00  0.00    -0.330 N 
ATOM     11  C   UNL A   1      33.562  25.734  25.786  1.00  0.00     0.081 C 
ATOM     12  C   UNL A   1      32.566  24.975  24.932  1.00  0.00     0.263 C 
ATOM     13  H   UNL A   1      31.368  25.721  23.512  1.00  0.00     0.348 HD
BRANCH  10  14
ATOM     14  C   UNL A   1      32.983  25.459  22.516  1.00  0.00     0.290 C 
BRANCH  14  15
ATOM     15  C   UNL A   1      32.240  25.764  21.201  1.00  0.00     0.217 C 
BRANCH  15  16
ATOM     16  O   UNL A   1      33.134  26.028  20.128  1.00  0.00    -0.391 OA
ATOM     17  H   UNL A   1      32.893  25.481  19.364  1.00  0.00     0.210 HD
ENDBRANCH  15  16
ENDBRANCH  14  15
ENDBRANCH  10  14
ENDBRANCH   4   7
ENDBRANCH   2   3
ENDBRANCH   1   2
BRANCH   1  18
ATOM     18  C   UNL A   1      31.544  32.013  26.825  1.00  0.00     0.023 C 
BRANCH  18  19
ATOM     19  C   UNL A   1      32.719  32.825  27.333  1.00  0.00     0.116 C 
BRANCH  19  20
ATOM     20  N   UNL A   1      32.379  34.208  27.648  1.00  0.00    -0.352 N 
ATOM     21  C   UNL A   1      32.959  35.036  28.577  1.00  0.00     0.251 C 
ATOM     22  H   UNL A   1      31.638  34.596  27.129  1.00  0.00     0.163 HD
ATOM     23  O   UNL A   1      32.510  36.156  28.797  1.00  0.00    -0.269 OA
BRANCH  21  24
ATOM     24  C   UNL A   1      34.109  34.524  29.341  1.00  0.00     0.039 A 
ATOM     25  C   UNL A   1      33.879  33.843  30.536  1.00  0.00     0.014 A 
ATOM     26  C   UNL A   1      35.394  34.615  28.801  1.00  0.00     0.014 A 
ATOM     27  C   UNL A   1      34.936  33.175  31.152  1.00  0.00     0.010 A 
ATOM     28  C   UNL A   1      36.418  33.864  29.356  1.00  0.00     0.010 A 
ATOM     29  C   UNL A   1      36.200  33.142  30.539  1.00  0.00    -0.014 A 
BRANCH  29  30
ATOM     30  C   UNL A   1      37.326  32.377  31.125  1.00  0.00     0.031 A 
ATOM     31  C   UNL A   1      37.810  32.720  32.505  1.00  0.00     0.074 A 
ATOM     32  C   UNL A   1      37.962  31.447  30.388  1.00  0.00     0.049 A 
ATOM     33  N   UNL A   1      38.843  32.257  33.160  1.00  0.00    -0.248 NA
ATOM     34  C   UNL A   1      37.058  33.758  33.229  1.00  0.00     0.031 C 
ATOM     35  C   UNL A   1      37.630  31.080  29.010  1.00  0.00     0.029 A 
ATOM     36  N   UNL A   1      39.036  30.649  30.693  1.00  0.00    -0.354 N 
ATOM     37  C   UNL A   1      38.881  32.971  34.349  1.00  0.00     0.074 A 
ATOM     38  C   UNL A   1      37.809  33.938  34.304  1.00  0.00     0.031 C 
ATOM     39  C   UNL A   1      38.460  30.107  28.601  1.00  0.00     0.029 A 
ATOM     40  C   UNL A   1      39.402  29.805  29.673  1.00  0.00     0.049 A 
ATOM     41  H   UNL A   1      39.498  30.677  31.561  1.00  0.00     0.167 HD
ATOM     42  C   UNL A   1      39.716  32.811  35.402  1.00  0.00     0.037 A 
ATOM     43  C   UNL A   1      40.390  28.891  29.618  1.00  0.00     0.037 A 
ATOM     44  C   UNL A   1      40.742  31.806  35.466  1.00  0.00     0.049 A 
ATOM     45  C   UNL A   1      41.271  28.696  30.820  1.00  0.00     0.074 A 
ATOM     46  C   UNL A   1      41.590  31.503  36.516  1.00  0.00     0.029 A 
ATOM     47  N   UNL A   1      41.049  30.931  34.435  1.00  0.00    -0.354 N 
ATOM     48  N   UNL A   1      41.253  29.327  31.970  1.00  0.00    -0.248 NA
ATOM     49  C   UNL A   1      42.303  27.655  30.722  1.00  0.00     0.031 C 
ATOM     50  C   UNL A   1      42.429  30.460  36.109  1.00  0.00     0.029 A 
ATOM     51  C   UNL A   1      42.079  30.091  34.820  1.00  0.00     0.049 A 
ATOM     52  H   UNL A   1      40.600  30.910  33.559  1.00  0.00     0.167 HD
ATOM     53  C   UNL A   1      42.252  28.746  32.739  1.00  0.00     0.074 A 
ATOM     54  C   UNL A   1      42.846  27.701  31.931  1.00  0.00     0.031 C 
ATOM     55  C   UNL A   1      42.643  29.051  34.000  1.00  0.00     0.037 A 
BRANCH  42  56
ATOM     56  C   UNL A   1      39.536  33.732  36.572  1.00  0.00     0.064 A 
ATOM     57  C   UNL A   1      40.144  34.997  36.612  1.00  0.00     0.173 A 
ATOM     58  C   UNL A   1      38.738  33.353  37.661  1.00  0.00     0.173 A 
ATOM     59  F   UNL A   1      40.931  35.398  35.602  1.00  0.00    -0.203 F 
ATOM     60  C   UNL A   1      39.988  35.832  37.713  1.00  0.00     0.198 A 
ATOM     61  C   UNL A   1      38.560  34.204  38.749  1.00  0.00     0.198 A 
ATOM     62  F   UNL A   1      38.133  32.155  37.673  1.00  0.00    -0.203 F 
ATOM     63  F   UNL A   1      40.626  37.010  37.754  1.00  0.00    -0.200 F 
ATOM     64  C   UNL A   1      39.192  35.439  38.778  1.00  0.00     0.200 A 
ATOM     65  F   UNL A   1      37.783  33.827  39.773  1.00  0.00    -0.200 F 
ATOM     66  F   UNL A   1      39.041  36.245  39.838  1.00  0.00    -0.200 F 
ENDBRANCH  42  56
BRANCH  43  67
ATOM     67  C   UNL A   1      40.566  28.062  28.398  1.00  0.00     0.064 A 
ATOM     68  C   UNL A   1      39.959  26.801  28.298  1.00  0.00     0.173 A 
ATOM     69  C   UNL A   1      41.338  28.503  27.314  1.00  0.00     0.173 A 
ATOM     70  F   UNL A   1      39.227  26.328  29.317  1.00  0.00    -0.203 F 
ATOM     71  C   UNL A   1      40.135  26.005  27.167  1.00  0.00     0.198 A 
ATOM     72  C   UNL A   1      41.493  27.716  26.175  1.00  0.00     0.198 A 
ATOM     73  F   UNL A   1      41.933  29.704  27.359  1.00  0.00    -0.203 F 
ATOM     74  F   UNL A   1      39.578  24.788  27.116  1.00  0.00    -0.200 F 
ATOM     75  C   UNL A   1      40.898  26.466  26.106  1.00  0.00     0.200 A 
ATOM     76  F   UNL A   1      42.221  28.169  25.145  1.00  0.00    -0.200 F 
ATOM     77  F   UNL A   1      41.065  25.701  25.017  1.00  0.00    -0.200 F 
ENDBRANCH  43  67
BRANCH  55  78
ATOM     78  C   UNL A   1      43.744  28.224  34.593  1.00  0.00     0.064 A 
ATOM     79  C   UNL A   1      43.479  27.016  35.254  1.00  0.00     0.173 A 
ATOM     80  C   UNL A   1      45.082  28.620  34.453  1.00  0.00     0.173 A 
ATOM     81  F   UNL A   1      42.213  26.605  35.425  1.00  0.00    -0.203 F 
ATOM     82  C   UNL A   1      44.515  26.244  35.772  1.00  0.00     0.198 A 
ATOM     83  C   UNL A   1      46.116  27.833  34.947  1.00  0.00     0.198 A 
ATOM     84  F   UNL A   1      45.386  29.765  33.821  1.00  0.00    -0.203 F 
ATOM     85  F   UNL A   1      44.238  25.113  36.434  1.00  0.00    -0.200 F 
ATOM     86  C   UNL A   1      45.832  26.650  35.611  1.00  0.00     0.200 A 
ATOM     87  F   UNL A   1      47.389  28.219  34.783  1.00  0.00    -0.200 F 
ATOM     88  F   UNL A   1      46.828  25.899  36.103  1.00  0.00    -0.200 F 
ENDBRANCH  55  78
ENDBRANCH  29  30
ENDBRANCH  21  24
ENDBRANCH  19  20
ENDBRANCH  18  19
ENDBRANCH   1  18
TORSDOF 14
ENDMDL
MODEL 2
REMARK VINA RESULT:     -11.4      0.922      2.273
REMARK SMILES C[C@H]1[C@@H](C(=O)NCCCCNC(=O)c2ccc(-c3c4nc(c(-c5c(F)c(F)c(F)c(F)c5F)c5ccc([nH]5)c(-c5c(F)c(F)c(F)c(F)c5F)c5nc(c(-c6c(F)c(F)c(F)c(F)c6F)c6ccc3[nH]6)C=C5)C=C4)cc2)CC[N@@H+]1CCO
REMARK SMILES IDX 8 1 7 2 6 3 4 4 5 5 3 7 1 8 2 9 79 10 77 11 78 12 80 14
REMARK SMILES IDX 81 15 82 16 9 18 10 19 11 20 12 21 13 23 14 24 15 25 76 26
REMARK SMILES IDX 16 27 75 28 17 29 18 30 19 31 69 32 20 33 74 34 68 35 70 36
REMARK SMILES IDX 21 37 73 38 67 39 66 40 22 42 54 43 34 44 53 45 35 46 38 47
REMARK SMILES IDX 52 48 71 49 36 50 37 51 51 53 72 54 39 55 23 56 24 57 32 58
REMARK SMILES IDX 25 59 26 60 30 61 33 62 27 63 28 64 31 65 29 66 55 67 56 68
REMARK SMILES IDX 64 69 57 70 58 71 62 72 65 73 59 74 60 75 63 76 61 77 40 78
REMARK SMILES IDX 41 79 49 80 42 81 43 82 47 83 50 84 44 85 45 86 48 87 46 88
REMARK H PARENT 6 6 79 13 82 17 11 22 70 41 38 52
REMARK Flexibility Score: inf
ROOT
ATOM      1  C   UNL A   1      31.804  30.531  26.802  1.00  0.00     0.023 C 
ENDROOT
BRANCH   1   2
ATOM      2  C   UNL A   1      32.727  29.893  25.758  1.00  0.00     0.116 C 
BRANCH   2   3
ATOM      3  N   UNL A   1      31.980  29.711  24.537  1.00  0.00    -0.356 N 
ATOM      4  C   UNL A   1      31.482  28.559  24.007  1.00  0.00     0.229 C 
ATOM      5  O   UNL A   1      31.288  28.561  22.789  1.00  0.00    -0.275 OA
ATOM      6  H   UNL A   1      31.808  30.529  24.017  1.00  0.00     0.163 HD
BRANCH   4   7
ATOM      7  C   UNL A   1      31.028  27.408  24.915  1.00  0.00     0.142 C 
ATOM      8  C   UNL A   1      33.439  26.279  25.076  1.00  0.00     0.076 C 
ATOM      9  C   UNL A   1      31.935  26.198  25.237  1.00  0.00     0.193 C 
ATOM     10  N   UNL A   1      31.492  25.081  24.383  1.00  0.00    -0.330 N 
ATOM     11  C   UNL A   1      29.815  26.718  24.266  1.00  0.00     0.081 C 
ATOM     12  C   UNL A   1      30.442  25.569  23.502  1.00  0.00     0.263 C 
ATOM     13  H   UNL A   1      32.257  24.772  23.784  1.00  0.00     0.348 HD
BRANCH  10  14
ATOM     14  C   UNL A   1      31.241  23.825  25.103  1.00  0.00     0.290 C 
BRANCH  14  15
ATOM     15  C   UNL A   1      30.933  23.894  26.611  1.00  0.00     0.217 C 
BRANCH  15  16
ATOM     16  O   UNL A   1      29.547  24.075  26.868  1.00  0.00    -0.391 OA
ATOM     17  H   UNL A   1      29.040  23.393  26.400  1.00  0.00     0.210 HD
ENDBRANCH  15  16
ENDBRANCH  14  15
ENDBRANCH  10  14
ENDBRANCH   4   7
ENDBRANCH   2   3
ENDBRANCH   1   2
BRANCH   1  18
ATOM     18  C   UNL A   1      31.648  32.039  26.688  1.00  0.00     0.023 C 
BRANCH  18  19
ATOM     19  C   UNL A   1      32.793  32.820  27.302  1.00  0.00     0.116 C 
BRANCH  19  20
ATOM     20  N   UNL A   1      32.448  34.200  27.625  1.00  0.00    -0.352 N 
ATOM     21  C   UNL A   1      33.018  35.021  28.567  1.00  0.00     0.251 C 
ATOM     22  H   UNL A   1      31.713  34.592  27.101  1.00  0.00     0.163 HD
ATOM     23  O   UNL A   1      32.566  36.139  28.791  1.00  0.00    -0.269 OA
BRANCH  21  24
ATOM     24  C   UNL A   1      34.160  34.504  29.339  1.00  0.00     0.039 A 
ATOM     25  C   UNL A   1      33.919  33.838  30.540  1.00  0.00     0.014 A 
ATOM     26  C   UNL A   1      35.448  34.574  28.801  1.00  0.00     0.014 A 
ATOM     27  C   UNL A   1      34.967  33.163  31.166  1.00  0.00     0.010 A 
ATOM     28  C   UNL A   1      36.461  33.817  29.367  1.00  0.00     0.010 A 
ATOM     29  C   UNL A   1      36.232  33.109  30.557  1.00  0.00    -0.014 A 
BRANCH  29  30
ATOM     30  C   UNL A   1      37.347  32.337  31.154  1.00  0.00     0.031 A 
ATOM     31  C   UNL A   1      37.818  32.674  32.540  1.00  0.00     0.074 A 
ATOM     32  C   UNL A   1      37.987  31.406  30.420  1.00  0.00     0.049 A 
ATOM     33  N   UNL A   1      38.841  32.204  33.205  1.00  0.00    -0.248 NA
ATOM     34  C   UNL A   1      37.062  33.714  33.257  1.00  0.00     0.031 C 
ATOM     35  C   UNL A   1      37.668  31.044  29.038  1.00  0.00     0.029 A 
ATOM     36  N   UNL A   1      39.053  30.601  30.736  1.00  0.00    -0.354 N 
ATOM     37  C   UNL A   1      38.868  32.914  34.397  1.00  0.00     0.074 A 
ATOM     38  C   UNL A   1      37.801  33.887  34.342  1.00  0.00     0.031 C 
ATOM     39  C   UNL A   1      38.499  30.068  28.636  1.00  0.00     0.029 A 
ATOM     40  C   UNL A   1      39.427  29.759  29.718  1.00  0.00     0.049 A 
ATOM     41  H   UNL A   1      39.506  30.625  31.609  1.00  0.00     0.167 HD
ATOM     42  C   UNL A   1      39.691  32.747  35.459  1.00  0.00     0.037 A 
ATOM     43  C   UNL A   1      40.410  28.840  29.671  1.00  0.00     0.037 A 
ATOM     44  C   UNL A   1      40.710  31.737  35.531  1.00  0.00     0.049 A 
ATOM     45  C   UNL A   1      41.277  28.637  30.883  1.00  0.00     0.074 A 
ATOM     46  C   UNL A   1      41.545  31.427  36.590  1.00  0.00     0.029 A 
ATOM     47  N   UNL A   1      41.025  30.864  34.501  1.00  0.00    -0.354 N 
ATOM     48  N   UNL A   1      41.250  29.265  32.034  1.00  0.00    -0.248 NA
ATOM     49  C   UNL A   1      42.305  27.591  30.794  1.00  0.00     0.031 C 
ATOM     50  C   UNL A   1      42.384  30.381  36.189  1.00  0.00     0.029 A 
ATOM     51  C   UNL A   1      42.046  30.017  34.895  1.00  0.00     0.049 A 
ATOM     52  H   UNL A   1      40.586  30.847  33.620  1.00  0.00     0.167 HD
ATOM     53  C   UNL A   1      42.236  28.677  32.813  1.00  0.00     0.074 A 
ATOM     54  C   UNL A   1      42.835  27.632  32.009  1.00  0.00     0.031 C 
ATOM     55  C   UNL A   1      42.615  28.977  34.080  1.00  0.00     0.037 A 
BRANCH  42  56
ATOM     56  C   UNL A   1      39.502  33.667  36.628  1.00  0.00     0.064 A 
ATOM     57  C   UNL A   1      38.715  33.300  37.731  1.00  0.00     0.173 A 
ATOM     58  C   UNL A   1      40.122  34.924  36.653  1.00  0.00     0.173 A 
ATOM     59  F   UNL A   1      38.086  32.115  37.747  1.00  0.00    -0.203 F 
ATOM     60  C   UNL A   1      38.528  34.173  38.799  1.00  0.00     0.198 A 
ATOM     61  C   UNL A   1      39.957  35.782  37.738  1.00  0.00     0.198 A 
ATOM     62  F   UNL A   1      40.886  35.323  35.624  1.00  0.00    -0.203 F 
ATOM     63  F   UNL A   1      37.725  33.823  39.813  1.00  0.00    -0.200 F 
ATOM     64  C   UNL A   1      39.153  35.410  38.805  1.00  0.00     0.200 A 
ATOM     65  F   UNL A   1      40.569  36.974  37.747  1.00  0.00    -0.200 F 
ATOM     66  F   UNL A   1      38.974  36.248  39.835  1.00  0.00    -0.200 F 
ENDBRANCH  42  56
BRANCH  43  67
ATOM     67  C   UNL A   1      40.597  28.013  28.451  1.00  0.00     0.064 A 
ATOM     68  C   UNL A   1      41.375  28.482  27.382  1.00  0.00     0.173 A 
ATOM     69  C   UNL A   1      40.008  26.747  28.325  1.00  0.00     0.173 A 
ATOM     70  F   UNL A   1      41.943  29.695  27.450  1.00  0.00    -0.203 F 
ATOM     71  C   UNL A   1      41.539  27.723  26.225  1.00  0.00     0.198 A 
ATOM     72  C   UNL A   1      40.193  25.980  27.177  1.00  0.00     0.198 A 
ATOM     73  F   UNL A   1      39.261  26.252  29.323  1.00  0.00    -0.203 F 
ATOM     74  F   UNL A   1      42.253  28.213  25.202  1.00  0.00    -0.200 F 
ATOM     75  C   UNL A   1      40.952  26.472  26.125  1.00  0.00     0.200 A 
ATOM     76  F   UNL A   1      39.634  24.766  27.087  1.00  0.00    -0.200 F 
ATOM     77  F   UNL A   1      41.112  25.742  25.012  1.00  0.00    -0.200 F 
ENDBRANCH  43  67
BRANCH  55  78
ATOM     78  C   UNL A   1      43.705  28.143  34.683  1.00  0.00     0.064 A 
ATOM     79  C   UNL A   1      43.425  26.943  35.352  1.00  0.00     0.173 A 
ATOM     80  C   UNL A   1      45.048  28.524  34.543  1.00  0.00     0.173 A 
ATOM     81  F   UNL A   1      42.154  26.547  35.522  1.00  0.00    -0.203 F 
ATOM     82  C   UNL A   1      44.450  26.164  35.879  1.00  0.00     0.198 A 
ATOM     83  C   UNL A   1      46.072  27.729  35.048  1.00  0.00     0.198 A 
ATOM     84  F   UNL A   1      45.366  29.660  33.904  1.00  0.00    -0.203 F 
ATOM     85  F   UNL A   1      44.159  25.042  36.550  1.00  0.00    -0.200 F 
ATOM     86  C   UNL A   1      45.772  26.554  35.720  1.00  0.00     0.200 A 
ATOM     87  F   UNL A   1      47.348  28.100  34.884  1.00  0.00    -0.200 F 
ATOM     88  F   UNL A   1      46.759  25.797  36.221  1.00  0.00    -0.200 F 
ENDBRANCH  55  78
ENDBRANCH  29  30
ENDBRANCH  21  24
ENDBRANCH  19  20
ENDBRANCH  18  19
ENDBRANCH   1  18
TORSDOF 14
ENDMDL
MODEL 3
REMARK VINA RESULT:     -11.3      5.183     10.631
REMARK SMILES C[C@H]1[C@@H](C(=O)NCCCCNC(=O)c2ccc(-c3c4nc(c(-c5c(F)c(F)c(F)c(F)c5F)c5ccc([nH]5)c(-c5c(F)c(F)c(F)c(F)c5F)c5nc(c(-c6c(F)c(F)c(F)c(F)c6F)c6ccc3[nH]6)C=C5)C=C4)cc2)CC[N@@H+]1CCO
REMARK SMILES IDX 8 1 7 2 6 3 4 4 5 5 3 7 1 8 2 9 79 10 77 11 78 12 80 14
REMARK SMILES IDX 81 15 82 16 9 18 10 19 11 20 12 21 13 23 14 24 15 25 76 26
REMARK SMILES IDX 16 27 75 28 17 29 18 30 19 31 69 32 20 33 74 34 68 35 70 36
REMARK SMILES IDX 21 37 73 38 67 39 66 40 22 42 54 43 34 44 53 45 35 46 38 47
REMARK SMILES IDX 52 48 71 49 36 50 37 51 51 53 72 54 39 55 23 56 24 57 32 58
REMARK SMILES IDX 25 59 26 60 30 61 33 62 27 63 28 64 31 65 29 66 55 67 56 68
REMARK SMILES IDX 64 69 57 70 58 71 62 72 65 73 59 74 60 75 63 76 61 77 40 78
REMARK SMILES IDX 41 79 49 80 42 81 43 82 47 83 50 84 44 85 45 86 48 87 46 88
REMARK H PARENT 6 6 79 13 82 17 11 22 70 41 38 52
REMARK Flexibility Score: inf
ROOT
ATOM      1  C   UNL A   1      42.532  23.172  28.713  1.00  0.00     0.023 C 
ENDROOT
BRANCH   1   2
ATOM      2  C   UNL A   1      43.939  23.504  29.220  1.00  0.00     0.116 C 
BRANCH   2   3
ATOM      3  N   UNL A   1      44.901  22.866  28.353  1.00  0.00    -0.356 N 
ATOM      4  C   UNL A   1      45.514  23.368  27.245  1.00  0.00     0.229 C 
ATOM      5  O   UNL A   1      45.928  22.538  26.431  1.00  0.00    -0.275 OA
ATOM      6  H   UNL A   1      45.147  21.945  28.597  1.00  0.00     0.163 HD
BRANCH   4   7
ATOM      7  C   UNL A   1      45.819  24.867  27.126  1.00  0.00     0.142 C 
ATOM      8  C   UNL A   1      44.085  25.297  25.147  1.00  0.00     0.076 C 
ATOM      9  C   UNL A   1      45.284  25.733  25.962  1.00  0.00     0.193 C 
ATOM     10  N   UNL A   1      46.389  25.906  25.003  1.00  0.00    -0.330 N 
ATOM     11  C   UNL A   1      47.339  25.050  26.970  1.00  0.00     0.081 C 
ATOM     12  C   UNL A   1      47.523  25.121  25.467  1.00  0.00     0.263 C 
ATOM     13  H   UNL A   1      46.126  25.530  24.092  1.00  0.00     0.348 HD
BRANCH  10  14
ATOM     14  C   UNL A   1      46.645  27.299  24.612  1.00  0.00     0.290 C 
BRANCH  14  15
ATOM     15  C   UNL A   1      46.126  28.424  25.527  1.00  0.00     0.217 C 
BRANCH  15  16
ATOM     16  O   UNL A   1      46.403  29.715  25.002  1.00  0.00    -0.391 OA
ATOM     17  H   UNL A   1      47.337  29.766  24.744  1.00  0.00     0.210 HD
ENDBRANCH  15  16
ENDBRANCH  14  15
ENDBRANCH  10  14
ENDBRANCH   4   7
ENDBRANCH   2   3
ENDBRANCH   1   2
BRANCH   1  18
ATOM     18  C   UNL A   1      42.469  22.070  27.667  1.00  0.00     0.023 C 
BRANCH  18  19
ATOM     19  C   UNL A   1      41.936  22.532  26.325  1.00  0.00     0.116 C 
BRANCH  19  20
ATOM     20  N   UNL A   1      40.559  22.122  26.074  1.00  0.00    -0.352 N 
ATOM     21  C   UNL A   1      39.405  22.829  26.306  1.00  0.00     0.251 C 
ATOM     22  H   UNL A   1      40.442  21.223  25.689  1.00  0.00     0.163 HD
ATOM     23  O   UNL A   1      38.303  22.323  26.125  1.00  0.00    -0.269 OA
BRANCH  21  24
ATOM     24  C   UNL A   1      39.524  24.201  26.827  1.00  0.00     0.039 A 
ATOM     25  C   UNL A   1      39.205  24.450  28.161  1.00  0.00     0.014 A 
ATOM     26  C   UNL A   1      40.072  25.202  26.020  1.00  0.00     0.014 A 
ATOM     27  C   UNL A   1      39.517  25.690  28.715  1.00  0.00     0.010 A 
ATOM     28  C   UNL A   1      40.476  26.394  26.599  1.00  0.00     0.010 A 
ATOM     29  C   UNL A   1      40.198  26.652  27.950  1.00  0.00    -0.014 A 
BRANCH  29  30
ATOM     30  C   UNL A   1      40.613  27.951  28.529  1.00  0.00     0.031 A 
ATOM     31  C   UNL A   1      42.050  28.161  28.913  1.00  0.00     0.074 A 
ATOM     32  C   UNL A   1      39.690  28.897  28.788  1.00  0.00     0.049 A 
ATOM     33  N   UNL A   1      42.604  29.171  29.532  1.00  0.00    -0.248 NA
ATOM     34  C   UNL A   1      42.982  27.065  28.600  1.00  0.00     0.031 C 
ATOM     35  C   UNL A   1      38.254  28.778  28.527  1.00  0.00     0.029 A 
ATOM     36  N   UNL A   1      39.824  30.144  29.344  1.00  0.00    -0.354 N 
ATOM     37  C   UNL A   1      43.933  28.816  29.711  1.00  0.00     0.074 A 
ATOM     38  C   UNL A   1      44.093  27.476  29.192  1.00  0.00     0.031 C 
ATOM     39  C   UNL A   1      37.645  29.918  28.893  1.00  0.00     0.029 A 
ATOM     40  C   UNL A   1      38.640  30.832  29.443  1.00  0.00     0.049 A 
ATOM     41  H   UNL A   1      40.686  30.510  29.644  1.00  0.00     0.167 HD
ATOM     42  C   UNL A   1      44.940  29.555  30.231  1.00  0.00     0.037 A 
ATOM     43  C   UNL A   1      38.392  32.065  29.924  1.00  0.00     0.037 A 
ATOM     44  C   UNL A   1      44.787  30.908  30.689  1.00  0.00     0.049 A 
ATOM     45  C   UNL A   1      39.537  32.887  30.448  1.00  0.00     0.074 A 
ATOM     46  C   UNL A   1      45.757  31.776  31.158  1.00  0.00     0.029 A 
ATOM     47  N   UNL A   1      43.582  31.594  30.722  1.00  0.00    -0.354 N 
ATOM     48  N   UNL A   1      40.806  32.569  30.548  1.00  0.00    -0.248 NA
ATOM     49  C   UNL A   1      39.219  34.242  30.920  1.00  0.00     0.031 C 
ATOM     50  C   UNL A   1      45.132  32.980  31.501  1.00  0.00     0.029 A 
ATOM     51  C   UNL A   1      43.781  32.873  31.212  1.00  0.00     0.049 A 
ATOM     52  H   UNL A   1      42.714  31.226  30.439  1.00  0.00     0.167 HD
ATOM     53  C   UNL A   1      41.440  33.689  31.068  1.00  0.00     0.074 A 
ATOM     54  C   UNL A   1      40.419  34.700  31.250  1.00  0.00     0.031 C 
ATOM     55  C   UNL A   1      42.749  33.864  31.370  1.00  0.00     0.037 A 
BRANCH  42  56
ATOM     56  C   UNL A   1      46.294  28.915  30.311  1.00  0.00     0.064 A 
ATOM     57  C   UNL A   1      47.268  29.129  29.323  1.00  0.00     0.173 A 
ATOM     58  C   UNL A   1      46.628  28.086  31.392  1.00  0.00     0.173 A 
ATOM     59  F   UNL A   1      46.990  29.899  28.259  1.00  0.00    -0.203 F 
ATOM     60  C   UNL A   1      48.512  28.510  29.397  1.00  0.00     0.198 A 
ATOM     61  C   UNL A   1      47.885  27.493  31.479  1.00  0.00     0.198 A 
ATOM     62  F   UNL A   1      45.734  27.850  32.365  1.00  0.00    -0.203 F 
ATOM     63  F   UNL A   1      49.403  28.683  28.411  1.00  0.00    -0.200 F 
ATOM     64  C   UNL A   1      48.822  27.698  30.477  1.00  0.00     0.200 A 
ATOM     65  F   UNL A   1      48.187  26.716  32.527  1.00  0.00    -0.200 F 
ATOM     66  F   UNL A   1      50.021  27.104  30.547  1.00  0.00    -0.200 F 
ENDBRANCH  42  56
BRANCH  43  67
ATOM     67  C   UNL A   1      37.012  32.614  29.889  1.00  0.00     0.064 A 
ATOM     68  C   UNL A   1      36.539  33.284  28.751  1.00  0.00     0.173 A 
ATOM     69  C   UNL A   1      36.141  32.482  30.979  1.00  0.00     0.173 A 
ATOM     70  F   UNL A   1      37.342  33.451  27.690  1.00  0.00    -0.203 F 
ATOM     71  C   UNL A   1      35.253  33.821  28.715  1.00  0.00     0.198 A 
ATOM     72  C   UNL A   1      34.847  32.999  30.932  1.00  0.00     0.198 A 
ATOM     73  F   UNL A   1      36.544  31.843  32.087  1.00  0.00    -0.203 F 
ATOM     74  F   UNL A   1      34.842  34.494  27.631  1.00  0.00    -0.200 F 
ATOM     75  C   UNL A   1      34.408  33.674  29.803  1.00  0.00     0.200 A 
ATOM     76  F   UNL A   1      34.028  32.844  31.980  1.00  0.00    -0.200 F 
ATOM     77  F   UNL A   1      33.170  34.188  29.766  1.00  0.00    -0.200 F 
ENDBRANCH  43  67
BRANCH  55  78
ATOM     78  C   UNL A   1      43.155  35.207  31.898  1.00  0.00     0.064 A 
ATOM     79  C   UNL A   1      43.062  35.517  33.262  1.00  0.00     0.173 A 
ATOM     80  C   UNL A   1      43.690  36.175  31.035  1.00  0.00     0.173 A 
ATOM     81  F   UNL A   1      42.543  34.628  34.122  1.00  0.00    -0.203 F 
ATOM     82  C   UNL A   1      43.472  36.758  33.741  1.00  0.00     0.198 A 
ATOM     83  C   UNL A   1      44.124  37.404  31.521  1.00  0.00     0.198 A 
ATOM     84  F   UNL A   1      43.805  35.922  29.722  1.00  0.00    -0.203 F 
ATOM     85  F   UNL A   1      43.338  37.049  35.042  1.00  0.00    -0.200 F 
ATOM     86  C   UNL A   1      44.009  37.696  32.872  1.00  0.00     0.200 A 
ATOM     87  F   UNL A   1      44.652  38.306  30.683  1.00  0.00    -0.200 F 
ATOM     88  F   UNL A   1      44.411  38.888  33.337  1.00  0.00    -0.200 F 
ENDBRANCH  55  78
ENDBRANCH  29  30
ENDBRANCH  21  24
ENDBRANCH  19  20
ENDBRANCH  18  19
ENDBRANCH   1  18
TORSDOF 14
ENDMDL
