MODEL 1
REMARK VINA RESULT:     -14.1      0.000      0.000
REMARK SMILES O=C(NCCCCNC(=O)[C@@H]1CCCC[C@H]1C(=O)Nc1ccccc1C(=O)N1CCOCC1)c1ccc(-c2c3nc(c(-c4c(F)c(F)c(F)c(F)c4F)c4ccc([nH]4)c(-c4c(F)c(F)c(F)c(F)c4F)c4nc(c(-c5c(F)c(F)c(F)c(F)c5F)c5ccc2[nH]5)C=C4)C=C3)cc1
REMARK SMILES IDX 6 1 5 2 4 3 3 4 1 5 2 6 34 8 35 9 96 10 36 11 95 12 37 13
REMARK SMILES IDX 38 14 39 15 89 16 40 17 94 18 88 19 90 20 41 21 93 22 87 23
REMARK SMILES IDX 86 24 42 26 74 27 54 28 73 29 55 30 58 31 72 32 91 33 56 34
REMARK SMILES IDX 57 35 71 37 92 38 59 39 43 40 44 41 52 42 45 43 46 44 50 45
REMARK SMILES IDX 53 46 47 47 48 48 51 49 49 50 75 51 76 52 84 53 77 54 78 55
REMARK SMILES IDX 82 56 85 57 79 58 80 59 83 60 81 61 60 62 61 63 69 64 62 65
REMARK SMILES IDX 63 66 67 67 70 68 64 69 65 70 68 71 66 72 7 73 8 74 9 75
REMARK SMILES IDX 10 77 11 78 12 79 16 80 13 81 15 82 14 83 17 84 18 85 19 86
REMARK SMILES IDX 20 88 21 89 25 90 22 91 24 92 23 93 26 94 27 95 28 96 29 97
REMARK SMILES IDX 33 98 30 99 32 100 31 101
REMARK H PARENT 3 7 90 25 58 36 8 76 19 87
REMARK Flexibility Score: inf
ROOT
ATOM      1  C   UNL A   1      31.235  27.511  26.554  1.00  0.00     0.023 C 
ENDROOT
BRANCH   1   2
ATOM      2  C   UNL A   1      31.789  28.757  27.242  1.00  0.00     0.023 C 
BRANCH   2   3
ATOM      3  C   UNL A   1      32.647  29.678  26.379  1.00  0.00     0.116 C 
BRANCH   3   4
ATOM      4  N   UNL A   1      32.478  31.097  26.670  1.00  0.00    -0.352 N 
ATOM      5  O   UNL A   1      32.963  33.126  27.531  1.00  0.00    -0.269 OA
ATOM      6  C   UNL A   1      33.308  31.964  27.339  1.00  0.00     0.251 C 
ATOM      7  H   UNL A   1      31.641  31.494  26.337  1.00  0.00     0.163 HD
BRANCH   6   8
ATOM      8  C   UNL A   1      34.598  31.481  27.868  1.00  0.00     0.039 A 
ATOM      9  C   UNL A   1      34.766  30.144  28.224  1.00  0.00     0.014 A 
ATOM     10  C   UNL A   1      35.639  32.397  28.049  1.00  0.00     0.014 A 
ATOM     11  C   UNL A   1      35.902  29.760  28.927  1.00  0.00     0.010 A 
ATOM     12  C   UNL A   1      36.818  31.989  28.676  1.00  0.00     0.010 A 
ATOM     13  C   UNL A   1      36.938  30.680  29.167  1.00  0.00    -0.014 A 
BRANCH  13  14
ATOM     14  C   UNL A   1      38.137  30.238  29.920  1.00  0.00     0.031 A 
ATOM     15  C   UNL A   1      38.352  30.657  31.349  1.00  0.00     0.074 A 
ATOM     16  C   UNL A   1      39.012  29.413  29.316  1.00  0.00     0.049 A 
ATOM     17  N   UNL A   1      39.321  30.331  32.167  1.00  0.00    -0.248 NA
ATOM     18  C   UNL A   1      37.355  31.565  31.937  1.00  0.00     0.031 C 
ATOM     19  C   UNL A   1      38.909  28.950  27.930  1.00  0.00     0.029 A 
ATOM     20  N   UNL A   1      40.140  28.796  29.790  1.00  0.00    -0.354 N 
ATOM     21  C   UNL A   1      39.070  31.015  33.349  1.00  0.00     0.074 A 
ATOM     22  C   UNL A   1      37.866  31.790  33.140  1.00  0.00     0.031 C 
ATOM     23  C   UNL A   1      39.896  28.077  27.685  1.00  0.00     0.029 A 
ATOM     24  C   UNL A   1      40.733  27.964  28.873  1.00  0.00     0.049 A 
ATOM     25  H   UNL A   1      40.490  28.934  30.699  1.00  0.00     0.167 HD
ATOM     26  C   UNL A   1      39.777  30.992  34.505  1.00  0.00     0.037 A 
ATOM     27  C   UNL A   1      41.835  27.200  28.975  1.00  0.00     0.037 A 
ATOM     28  C   UNL A   1      40.958  30.191  34.717  1.00  0.00     0.049 A 
ATOM     29  C   UNL A   1      42.596  27.189  30.271  1.00  0.00     0.074 A 
ATOM     30  C   UNL A   1      41.722  30.064  35.864  1.00  0.00     0.029 A 
ATOM     31  N   UNL A   1      41.544  29.380  33.756  1.00  0.00    -0.354 N 
ATOM     32  N   UNL A   1      42.330  27.818  31.390  1.00  0.00    -0.248 NA
ATOM     33  C   UNL A   1      43.809  26.365  30.314  1.00  0.00     0.031 C 
ATOM     34  C   UNL A   1      42.794  29.209  35.585  1.00  0.00     0.029 A 
ATOM     35  C   UNL A   1      42.671  28.765  34.279  1.00  0.00     0.049 A 
ATOM     36  H   UNL A   1      41.209  29.259  32.837  1.00  0.00     0.167 HD
ATOM     37  C   UNL A   1      43.331  27.452  32.277  1.00  0.00     0.074 A 
ATOM     38  C   UNL A   1      44.197  26.530  31.571  1.00  0.00     0.031 C 
ATOM     39  C   UNL A   1      43.518  27.847  33.560  1.00  0.00     0.037 A 
BRANCH  26  40
ATOM     40  C   UNL A   1      39.313  31.874  35.629  1.00  0.00     0.064 A 
ATOM     41  C   UNL A   1      38.419  31.418  36.608  1.00  0.00     0.173 A 
ATOM     42  C   UNL A   1      39.810  33.182  35.753  1.00  0.00     0.173 A 
ATOM     43  F   UNL A   1      37.905  30.182  36.530  1.00  0.00    -0.203 F 
ATOM     44  C   UNL A   1      38.019  32.247  37.656  1.00  0.00     0.198 A 
ATOM     45  C   UNL A   1      39.429  33.997  36.816  1.00  0.00     0.198 A 
ATOM     46  F   UNL A   1      40.673  33.665  34.848  1.00  0.00    -0.203 F 
ATOM     47  F   UNL A   1      37.131  31.804  38.557  1.00  0.00    -0.200 F 
ATOM     48  C   UNL A   1      38.529  33.532  37.762  1.00  0.00     0.200 A 
ATOM     49  F   UNL A   1      39.933  35.235  36.923  1.00  0.00    -0.200 F 
ATOM     50  F   UNL A   1      38.151  34.324  38.775  1.00  0.00    -0.200 F 
ENDBRANCH  26  40
BRANCH  27  51
ATOM     51  C   UNL A   1      42.268  26.375  27.821  1.00  0.00     0.064 A 
ATOM     52  C   UNL A   1      43.253  26.836  26.935  1.00  0.00     0.173 A 
ATOM     53  C   UNL A   1      41.727  25.102  27.591  1.00  0.00     0.173 A 
ATOM     54  F   UNL A   1      43.787  28.055  27.104  1.00  0.00    -0.203 F 
ATOM     55  C   UNL A   1      43.669  26.059  25.857  1.00  0.00     0.198 A 
ATOM     56  C   UNL A   1      42.166  24.314  26.531  1.00  0.00     0.198 A 
ATOM     57  F   UNL A   1      40.788  24.613  28.414  1.00  0.00    -0.203 F 
ATOM     58  F   UNL A   1      44.585  26.539  25.003  1.00  0.00    -0.200 F 
ATOM     59  C   UNL A   1      43.132  24.796  25.660  1.00  0.00     0.200 A 
ATOM     60  F   UNL A   1      41.657  23.087  26.355  1.00  0.00    -0.200 F 
ATOM     61  F   UNL A   1      43.541  24.044  24.629  1.00  0.00    -0.200 F 
ENDBRANCH  27  51
BRANCH  39  62
ATOM     62  C   UNL A   1      44.688  27.254  34.288  1.00  0.00     0.064 A 
ATOM     63  C   UNL A   1      45.929  27.906  34.338  1.00  0.00     0.173 A 
ATOM     64  C   UNL A   1      44.561  26.026  34.953  1.00  0.00     0.173 A 
ATOM     65  F   UNL A   1      46.105  29.073  33.702  1.00  0.00    -0.203 F 
ATOM     66  C   UNL A   1      47.011  27.331  35.000  1.00  0.00     0.198 A 
ATOM     67  C   UNL A   1      45.636  25.469  35.639  1.00  0.00     0.198 A 
ATOM     68  F   UNL A   1      43.393  25.367  34.939  1.00  0.00    -0.203 F 
ATOM     69  F   UNL A   1      48.203  27.944  34.989  1.00  0.00    -0.200 F 
ATOM     70  C   UNL A   1      46.862  26.118  35.654  1.00  0.00     0.200 A 
ATOM     71  F   UNL A   1      45.488  24.301  36.279  1.00  0.00    -0.200 F 
ATOM     72  F   UNL A   1      47.905  25.566  36.291  1.00  0.00    -0.200 F 
ENDBRANCH  39  62
ENDBRANCH  13  14
ENDBRANCH   6   8
ENDBRANCH   3   4
ENDBRANCH   2   3
ENDBRANCH   1   2
BRANCH   1  73
ATOM     73  C   UNL A   1      32.057  26.243  26.735  1.00  0.00     0.116 C 
BRANCH  73  74
ATOM     74  N   UNL A   1      31.252  25.036  26.742  1.00  0.00    -0.356 N 
ATOM     75  C   UNL A   1      31.727  23.763  26.637  1.00  0.00     0.223 C 
ATOM     76  H   UNL A   1      30.277  25.146  26.831  1.00  0.00     0.163 HD
ATOM     77  O   UNL A   1      31.542  23.043  27.621  1.00  0.00    -0.275 OA
BRANCH  75  78
ATOM     78  C   UNL A   1      32.450  23.205  25.406  1.00  0.00     0.091 C 
ATOM     79  C   UNL A   1      33.899  22.853  25.778  1.00  0.00     0.014 C 
ATOM     80  C   UNL A   1      32.432  24.035  24.103  1.00  0.00     0.091 C 
ATOM     81  C   UNL A   1      34.599  22.069  24.684  1.00  0.00     0.001 C 
ATOM     82  C   UNL A   1      33.223  23.296  22.990  1.00  0.00     0.014 C 
ATOM     83  C   UNL A   1      34.629  22.898  23.408  1.00  0.00     0.001 C 
BRANCH  80  84
ATOM     84  C   UNL A   1      31.163  24.520  23.374  1.00  0.00     0.228 C 
ATOM     85  O   UNL A   1      30.281  23.687  23.123  1.00  0.00    -0.274 OA
ATOM     86  N   UNL A   1      30.825  25.831  23.214  1.00  0.00    -0.325 N 
ATOM     87  H   UNL A   1      29.863  26.019  23.125  1.00  0.00     0.169 HD
BRANCH  86  88
ATOM     88  C   UNL A   1      31.669  26.938  23.161  1.00  0.00     0.054 A 
ATOM     89  C   UNL A   1      33.038  26.684  23.333  1.00  0.00     0.027 A 
ATOM     90  C   UNL A   1      31.213  28.250  22.965  1.00  0.00     0.063 A 
ATOM     91  C   UNL A   1      33.974  27.690  23.106  1.00  0.00     0.002 A 
ATOM     92  C   UNL A   1      32.173  29.238  22.676  1.00  0.00     0.016 A 
ATOM     93  C   UNL A   1      33.542  28.953  22.718  1.00  0.00     0.001 A 
BRANCH  90  94
ATOM     94  C   UNL A   1      29.793  28.721  23.155  1.00  0.00     0.256 C 
ATOM     95  O   UNL A   1      28.915  27.929  23.496  1.00  0.00    -0.269 OA
ATOM     96  N   UNL A   1      29.461  30.021  22.754  1.00  0.00    -0.334 N 
ATOM     97  C   UNL A   1      28.576  30.094  21.597  1.00  0.00     0.148 C 
ATOM     98  C   UNL A   1      29.056  30.954  23.807  1.00  0.00     0.148 C 
ATOM     99  C   UNL A   1      28.399  31.536  21.124  1.00  0.00     0.181 C 
ATOM    100  C   UNL A   1      28.778  32.369  23.286  1.00  0.00     0.181 C 
ATOM    101  O   UNL A   1      27.864  32.349  22.181  1.00  0.00    -0.378 OA
ENDBRANCH  90  94
ENDBRANCH  86  88
ENDBRANCH  80  84
ENDBRANCH  75  78
ENDBRANCH  73  74
ENDBRANCH   1  73
TORSDOF 14
ENDMDL
MODEL 2
REMARK VINA RESULT:     -14.1      1.253      2.279
REMARK SMILES O=C(NCCCCNC(=O)[C@@H]1CCCC[C@H]1C(=O)Nc1ccccc1C(=O)N1CCOCC1)c1ccc(-c2c3nc(c(-c4c(F)c(F)c(F)c(F)c4F)c4ccc([nH]4)c(-c4c(F)c(F)c(F)c(F)c4F)c4nc(c(-c5c(F)c(F)c(F)c(F)c5F)c5ccc2[nH]5)C=C4)C=C3)cc1
REMARK SMILES IDX 6 1 5 2 4 3 3 4 1 5 2 6 34 8 35 9 96 10 36 11 95 12 37 13
REMARK SMILES IDX 38 14 39 15 89 16 40 17 94 18 88 19 90 20 41 21 93 22 87 23
REMARK SMILES IDX 86 24 42 26 74 27 54 28 73 29 55 30 58 31 72 32 91 33 56 34
REMARK SMILES IDX 57 35 71 37 92 38 59 39 43 40 44 41 52 42 45 43 46 44 50 45
REMARK SMILES IDX 53 46 47 47 48 48 51 49 49 50 75 51 76 52 84 53 77 54 78 55
REMARK SMILES IDX 82 56 85 57 79 58 80 59 83 60 81 61 60 62 61 63 69 64 62 65
REMARK SMILES IDX 63 66 67 67 70 68 64 69 65 70 68 71 66 72 7 73 8 74 9 75
REMARK SMILES IDX 10 77 11 78 12 79 16 80 13 81 15 82 14 83 17 84 18 85 19 86
REMARK SMILES IDX 20 88 21 89 25 90 22 91 24 92 23 93 26 94 27 95 28 96 29 97
REMARK SMILES IDX 33 98 30 99 32 100 31 101
REMARK H PARENT 3 7 90 25 58 36 8 76 19 87
REMARK Flexibility Score: inf
ROOT
ATOM      1  C   UNL A   1      32.228  28.351  27.567  1.00  0.00     0.023 C 
ENDROOT
BRANCH   1   2
ATOM      2  C   UNL A   1      31.812  29.452  26.593  1.00  0.00     0.023 C 
BRANCH   2   3
ATOM      3  C   UNL A   1      32.902  30.441  26.191  1.00  0.00     0.116 C 
BRANCH   3   4
ATOM      4  N   UNL A   1      32.701  31.791  26.704  1.00  0.00    -0.352 N 
ATOM      5  O   UNL A   1      33.117  33.651  27.914  1.00  0.00    -0.269 OA
ATOM      6  C   UNL A   1      33.486  32.538  27.549  1.00  0.00     0.251 C 
ATOM      7  H   UNL A   1      31.878  32.235  26.398  1.00  0.00     0.163 HD
BRANCH   6   8
ATOM      8  C   UNL A   1      34.753  31.978  28.058  1.00  0.00     0.039 A 
ATOM      9  C   UNL A   1      34.812  30.670  28.536  1.00  0.00     0.014 A 
ATOM     10  C   UNL A   1      35.886  32.796  28.095  1.00  0.00     0.014 A 
ATOM     11  C   UNL A   1      35.946  30.240  29.215  1.00  0.00     0.010 A 
ATOM     12  C   UNL A   1      37.056  32.332  28.699  1.00  0.00     0.010 A 
ATOM     13  C   UNL A   1      37.078  31.068  29.310  1.00  0.00    -0.014 A 
BRANCH  13  14
ATOM     14  C   UNL A   1      38.272  30.579  30.042  1.00  0.00     0.031 A 
ATOM     15  C   UNL A   1      38.506  30.954  31.480  1.00  0.00     0.074 A 
ATOM     16  C   UNL A   1      39.125  29.752  29.409  1.00  0.00     0.049 A 
ATOM     17  N   UNL A   1      39.474  30.585  32.282  1.00  0.00    -0.248 NA
ATOM     18  C   UNL A   1      37.535  31.868  32.101  1.00  0.00     0.031 C 
ATOM     19  C   UNL A   1      39.001  29.330  28.012  1.00  0.00     0.029 A 
ATOM     20  N   UNL A   1      40.242  29.097  29.858  1.00  0.00    -0.354 N 
ATOM     21  C   UNL A   1      39.246  31.241  33.485  1.00  0.00     0.074 A 
ATOM     22  C   UNL A   1      38.058  32.048  33.305  1.00  0.00     0.031 C 
ATOM     23  C   UNL A   1      39.966  28.442  27.736  1.00  0.00     0.029 A 
ATOM     24  C   UNL A   1      40.810  28.278  28.914  1.00  0.00     0.049 A 
ATOM     25  H   UNL A   1      40.600  29.203  30.768  1.00  0.00     0.167 HD
ATOM     26  C   UNL A   1      39.961  31.170  34.634  1.00  0.00     0.037 A 
ATOM     27  C   UNL A   1      41.895  27.487  28.987  1.00  0.00     0.037 A 
ATOM     28  C   UNL A   1      41.124  30.338  34.814  1.00  0.00     0.049 A 
ATOM     29  C   UNL A   1      42.663  27.423  30.276  1.00  0.00     0.074 A 
ATOM     30  C   UNL A   1      41.893  30.163  35.952  1.00  0.00     0.029 A 
ATOM     31  N   UNL A   1      41.685  29.540  33.827  1.00  0.00    -0.354 N 
ATOM     32  N   UNL A   1      42.420  28.027  31.414  1.00  0.00    -0.248 NA
ATOM     33  C   UNL A   1      43.858  26.572  30.288  1.00  0.00     0.031 C 
ATOM     34  C   UNL A   1      42.944  29.292  35.641  1.00  0.00     0.029 A 
ATOM     35  C   UNL A   1      42.802  28.886  34.325  1.00  0.00     0.049 A 
ATOM     36  H   UNL A   1      41.341  29.452  32.909  1.00  0.00     0.167 HD
ATOM     37  C   UNL A   1      43.418  27.614  32.283  1.00  0.00     0.074 A 
ATOM     38  C   UNL A   1      44.259  26.693  31.546  1.00  0.00     0.031 C 
ATOM     39  C   UNL A   1      43.623  27.970  33.575  1.00  0.00     0.037 A 
BRANCH  26  40
ATOM     40  C   UNL A   1      39.524  32.031  35.785  1.00  0.00     0.064 A 
ATOM     41  C   UNL A   1      40.062  33.308  36.001  1.00  0.00     0.173 A 
ATOM     42  C   UNL A   1      38.515  31.589  36.656  1.00  0.00     0.173 A 
ATOM     43  F   UNL A   1      41.036  33.774  35.205  1.00  0.00    -0.203 F 
ATOM     44  C   UNL A   1      39.626  34.100  37.062  1.00  0.00     0.198 A 
ATOM     45  C   UNL A   1      38.062  32.394  37.698  1.00  0.00     0.198 A 
ATOM     46  F   UNL A   1      37.961  30.379  36.490  1.00  0.00    -0.203 F 
ATOM     47  F   UNL A   1      40.184  35.300  37.275  1.00  0.00    -0.200 F 
ATOM     48  C   UNL A   1      38.622  33.646  37.905  1.00  0.00     0.200 A 
ATOM     49  F   UNL A   1      37.084  31.958  38.504  1.00  0.00    -0.200 F 
ATOM     50  F   UNL A   1      38.197  34.412  38.919  1.00  0.00    -0.200 F 
ENDBRANCH  26  40
BRANCH  27  51
ATOM     51  C   UNL A   1      42.301  26.684  27.807  1.00  0.00     0.064 A 
ATOM     52  C   UNL A   1      41.724  25.431  27.555  1.00  0.00     0.173 A 
ATOM     53  C   UNL A   1      43.254  27.160  26.895  1.00  0.00     0.173 A 
ATOM     54  F   UNL A   1      40.822  24.927  28.410  1.00  0.00    -0.203 F 
ATOM     55  C   UNL A   1      42.096  24.680  26.443  1.00  0.00     0.198 A 
ATOM     56  C   UNL A   1      43.602  26.423  25.767  1.00  0.00     0.198 A 
ATOM     57  F   UNL A   1      43.829  28.356  27.088  1.00  0.00    -0.203 F 
ATOM     58  F   UNL A   1      41.557  23.469  26.245  1.00  0.00    -0.200 F 
ATOM     59  C   UNL A   1      43.028  25.180  25.546  1.00  0.00     0.200 A 
ATOM     60  F   UNL A   1      44.490  26.916  24.894  1.00  0.00    -0.200 F 
ATOM     61  F   UNL A   1      43.376  24.462  24.469  1.00  0.00    -0.200 F 
ENDBRANCH  27  51
BRANCH  39  62
ATOM     62  C   UNL A   1      44.785  27.331  34.277  1.00  0.00     0.064 A 
ATOM     63  C   UNL A   1      46.070  27.892  34.231  1.00  0.00     0.173 A 
ATOM     64  C   UNL A   1      44.606  26.152  35.015  1.00  0.00     0.173 A 
ATOM     65  F   UNL A   1      46.294  29.008  33.523  1.00  0.00    -0.203 F 
ATOM     66  C   UNL A   1      47.141  27.274  34.872  1.00  0.00     0.198 A 
ATOM     67  C   UNL A   1      45.673  25.554  35.678  1.00  0.00     0.198 A 
ATOM     68  F   UNL A   1      43.395  25.581  35.094  1.00  0.00    -0.203 F 
ATOM     69  F   UNL A   1      48.371  27.797  34.769  1.00  0.00    -0.200 F 
ATOM     70  C   UNL A   1      46.940  26.111  35.599  1.00  0.00     0.200 A 
ATOM     71  F   UNL A   1      45.476  24.435  36.389  1.00  0.00    -0.200 F 
ATOM     72  F   UNL A   1      47.973  25.518  36.215  1.00  0.00    -0.200 F 
ENDBRANCH  39  62
ENDBRANCH  13  14
ENDBRANCH   6   8
ENDBRANCH   3   4
ENDBRANCH   2   3
ENDBRANCH   1   2
BRANCH   1  73
ATOM     73  C   UNL A   1      32.716  27.060  26.926  1.00  0.00     0.116 C 
BRANCH  73  74
ATOM     74  N   UNL A   1      33.768  27.267  25.950  1.00  0.00    -0.356 N 
ATOM     75  C   UNL A   1      33.828  26.699  24.712  1.00  0.00     0.223 C 
ATOM     76  H   UNL A   1      34.504  27.871  26.203  1.00  0.00     0.163 HD
ATOM     77  O   UNL A   1      33.766  27.483  23.764  1.00  0.00    -0.275 OA
BRANCH  75  78
ATOM     78  C   UNL A   1      33.963  25.195  24.454  1.00  0.00     0.091 C 
ATOM     79  C   UNL A   1      35.166  24.645  25.237  1.00  0.00     0.014 C 
ATOM     80  C   UNL A   1      34.023  24.701  22.991  1.00  0.00     0.091 C 
ATOM     81  C   UNL A   1      35.214  23.129  25.230  1.00  0.00     0.001 C 
ATOM     82  C   UNL A   1      34.167  23.155  22.956  1.00  0.00     0.014 C 
ATOM     83  C   UNL A   1      35.321  22.634  23.795  1.00  0.00     0.001 C 
BRANCH  80  84
ATOM     84  C   UNL A   1      32.959  24.983  21.912  1.00  0.00     0.228 C 
ATOM     85  O   UNL A   1      33.324  25.021  20.729  1.00  0.00    -0.274 OA
ATOM     86  N   UNL A   1      31.614  24.942  22.134  1.00  0.00    -0.325 N 
ATOM     87  H   UNL A   1      31.057  24.729  21.352  1.00  0.00     0.169 HD
BRANCH  86  88
ATOM     88  C   UNL A   1      30.930  25.164  23.327  1.00  0.00     0.054 A 
ATOM     89  C   UNL A   1      30.783  24.056  24.174  1.00  0.00     0.027 A 
ATOM     90  C   UNL A   1      30.389  26.407  23.689  1.00  0.00     0.063 A 
ATOM     91  C   UNL A   1      30.287  24.219  25.465  1.00  0.00     0.002 A 
ATOM     92  C   UNL A   1      29.951  26.566  25.016  1.00  0.00     0.016 A 
ATOM     93  C   UNL A   1      29.928  25.487  25.907  1.00  0.00     0.001 A 
BRANCH  90  94
ATOM     94  C   UNL A   1      30.123  27.554  22.746  1.00  0.00     0.256 C 
ATOM     95  O   UNL A   1      30.663  27.589  21.641  1.00  0.00    -0.269 OA
ATOM     96  N   UNL A   1      29.409  28.659  23.224  1.00  0.00    -0.334 N 
ATOM     97  C   UNL A   1      30.194  29.882  23.353  1.00  0.00     0.148 C 
ATOM     98  C   UNL A   1      28.102  28.916  22.615  1.00  0.00     0.148 C 
ATOM     99  C   UNL A   1      29.390  30.988  24.035  1.00  0.00     0.181 C 
ATOM    100  C   UNL A   1      27.364  30.102  23.247  1.00  0.00     0.181 C 
ATOM    101  O   UNL A   1      28.193  31.271  23.290  1.00  0.00    -0.378 OA
ENDBRANCH  90  94
ENDBRANCH  86  88
ENDBRANCH  80  84
ENDBRANCH  75  78
ENDBRANCH  73  74
ENDBRANCH   1  73
TORSDOF 14
ENDMDL
MODEL 3
REMARK VINA RESULT:     -14.1      4.501      9.999
REMARK SMILES O=C(NCCCCNC(=O)[C@@H]1CCCC[C@H]1C(=O)Nc1ccccc1C(=O)N1CCOCC1)c1ccc(-c2c3nc(c(-c4c(F)c(F)c(F)c(F)c4F)c4ccc([nH]4)c(-c4c(F)c(F)c(F)c(F)c4F)c4nc(c(-c5c(F)c(F)c(F)c(F)c5F)c5ccc2[nH]5)C=C4)C=C3)cc1
REMARK SMILES IDX 6 1 5 2 4 3 3 4 1 5 2 6 34 8 35 9 96 10 36 11 95 12 37 13
REMARK SMILES IDX 38 14 39 15 89 16 40 17 94 18 88 19 90 20 41 21 93 22 87 23
REMARK SMILES IDX 86 24 42 26 74 27 54 28 73 29 55 30 58 31 72 32 91 33 56 34
REMARK SMILES IDX 57 35 71 37 92 38 59 39 43 40 44 41 52 42 45 43 46 44 50 45
REMARK SMILES IDX 53 46 47 47 48 48 51 49 49 50 75 51 76 52 84 53 77 54 78 55
REMARK SMILES IDX 82 56 85 57 79 58 80 59 83 60 81 61 60 62 61 63 69 64 62 65
REMARK SMILES IDX 63 66 67 67 70 68 64 69 65 70 68 71 66 72 7 73 8 74 9 75
REMARK SMILES IDX 10 77 11 78 12 79 16 80 13 81 15 82 14 83 17 84 18 85 19 86
REMARK SMILES IDX 20 88 21 89 25 90 22 91 24 92 23 93 26 94 27 95 28 96 29 97
REMARK SMILES IDX 33 98 30 99 32 100 31 101
REMARK H PARENT 3 7 90 25 58 36 8 76 19 87
REMARK Flexibility Score: inf
ROOT
ATOM      1  C   UNL A   1      36.811  23.125  23.721  1.00  0.00     0.023 C 
ENDROOT
BRANCH   1   2
ATOM      2  C   UNL A   1      36.615  21.752  24.363  1.00  0.00     0.023 C 
BRANCH   2   3
ATOM      3  C   UNL A   1      37.199  21.572  25.761  1.00  0.00     0.116 C 
BRANCH   3   4
ATOM      4  N   UNL A   1      38.294  20.612  25.830  1.00  0.00    -0.352 N 
ATOM      5  O   UNL A   1      40.391  19.855  26.182  1.00  0.00    -0.269 OA
ATOM      6  C   UNL A   1      39.592  20.784  26.247  1.00  0.00     0.251 C 
ATOM      7  H   UNL A   1      38.069  19.701  25.533  1.00  0.00     0.163 HD
BRANCH   6   8
ATOM      8  C   UNL A   1      40.037  22.106  26.730  1.00  0.00     0.039 A 
ATOM      9  C   UNL A   1      39.523  23.277  26.174  1.00  0.00     0.014 A 
ATOM     10  C   UNL A   1      41.016  22.167  27.725  1.00  0.00     0.014 A 
ATOM     11  C   UNL A   1      40.115  24.496  26.479  1.00  0.00     0.010 A 
ATOM     12  C   UNL A   1      41.550  23.403  28.097  1.00  0.00     0.010 A 
ATOM     13  C   UNL A   1      41.140  24.572  27.439  1.00  0.00    -0.014 A 
BRANCH  13  14
ATOM     14  C   UNL A   1      41.751  25.890  27.742  1.00  0.00     0.031 A 
ATOM     15  C   UNL A   1      43.104  26.259  27.198  1.00  0.00     0.074 A 
ATOM     16  C   UNL A   1      41.051  26.773  28.478  1.00  0.00     0.049 A 
ATOM     17  N   UNL A   1      43.768  27.381  27.330  1.00  0.00    -0.248 NA
ATOM     18  C   UNL A   1      43.809  25.238  26.408  1.00  0.00     0.031 C 
ATOM     19  C   UNL A   1      39.734  26.518  29.065  1.00  0.00     0.029 A 
ATOM     20  N   UNL A   1      41.330  28.066  28.835  1.00  0.00    -0.354 N 
ATOM     21  C   UNL A   1      44.975  27.190  26.670  1.00  0.00     0.074 A 
ATOM     22  C   UNL A   1      44.963  25.839  26.152  1.00  0.00     0.031 C 
ATOM     23  C   UNL A   1      39.294  27.637  29.658  1.00  0.00     0.029 A 
ATOM     24  C   UNL A   1      40.320  28.667  29.544  1.00  0.00     0.049 A 
ATOM     25  H   UNL A   1      42.173  28.520  28.605  1.00  0.00     0.167 HD
ATOM     26  C   UNL A   1      45.996  28.066  26.508  1.00  0.00     0.037 A 
ATOM     27  C   UNL A   1      40.232  29.909  30.053  1.00  0.00     0.037 A 
ATOM     28  C   UNL A   1      45.986  29.422  26.999  1.00  0.00     0.049 A 
ATOM     29  C   UNL A   1      41.376  30.861  29.851  1.00  0.00     0.074 A 
ATOM     30  C   UNL A   1      46.952  30.402  26.850  1.00  0.00     0.029 A 
ATOM     31  N   UNL A   1      44.955  29.987  27.735  1.00  0.00    -0.354 N 
ATOM     32  N   UNL A   1      42.499  30.676  29.201  1.00  0.00    -0.248 NA
ATOM     33  C   UNL A   1      41.240  32.190  30.457  1.00  0.00     0.031 C 
ATOM     34  C   UNL A   1      46.524  31.547  27.531  1.00  0.00     0.029 A 
ATOM     35  C   UNL A   1      45.270  31.297  28.063  1.00  0.00     0.049 A 
ATOM     36  H   UNL A   1      44.121  29.527  27.986  1.00  0.00     0.167 HD
ATOM     37  C   UNL A   1      43.196  31.871  29.302  1.00  0.00     0.074 A 
ATOM     38  C   UNL A   1      42.360  32.779  30.060  1.00  0.00     0.031 C 
ATOM     39  C   UNL A   1      44.421  32.186  28.815  1.00  0.00     0.037 A 
BRANCH  26  40
ATOM     40  C   UNL A   1      47.225  27.585  25.790  1.00  0.00     0.064 A 
ATOM     41  C   UNL A   1      47.362  27.698  24.399  1.00  0.00     0.173 A 
ATOM     42  C   UNL A   1      48.301  27.046  26.513  1.00  0.00     0.173 A 
ATOM     43  F   UNL A   1      46.359  28.195  23.659  1.00  0.00    -0.203 F 
ATOM     44  C   UNL A   1      48.521  27.267  23.755  1.00  0.00     0.198 A 
ATOM     45  C   UNL A   1      49.468  26.641  25.870  1.00  0.00     0.198 A 
ATOM     46  F   UNL A   1      48.225  26.922  27.846  1.00  0.00    -0.203 F 
ATOM     47  F   UNL A   1      48.614  27.346  22.420  1.00  0.00    -0.200 F 
ATOM     48  C   UNL A   1      49.575  26.746  24.491  1.00  0.00     0.200 A 
ATOM     49  F   UNL A   1      50.490  26.149  26.584  1.00  0.00    -0.200 F 
ATOM     50  F   UNL A   1      50.691  26.339  23.872  1.00  0.00    -0.200 F 
ENDBRANCH  26  40
BRANCH  27  51
ATOM     51  C   UNL A   1      39.008  30.319  30.785  1.00  0.00     0.064 A 
ATOM     52  C   UNL A   1      38.934  30.213  32.181  1.00  0.00     0.173 A 
ATOM     53  C   UNL A   1      37.898  30.847  30.110  1.00  0.00     0.173 A 
ATOM     54  F   UNL A   1      39.964  29.696  32.868  1.00  0.00    -0.203 F 
ATOM     55  C   UNL A   1      37.791  30.607  32.871  1.00  0.00     0.198 A 
ATOM     56  C   UNL A   1      36.768  31.270  30.804  1.00  0.00     0.198 A 
ATOM     57  F   UNL A   1      37.923  30.976  28.775  1.00  0.00    -0.203 F 
ATOM     58  F   UNL A   1      37.731  30.460  34.202  1.00  0.00    -0.200 F 
ATOM     59  C   UNL A   1      36.712  31.142  32.184  1.00  0.00     0.200 A 
ATOM     60  F   UNL A   1      35.735  31.803  30.138  1.00  0.00    -0.200 F 
ATOM     61  F   UNL A   1      35.616  31.533  32.850  1.00  0.00    -0.200 F 
ENDBRANCH  27  51
BRANCH  39  62
ATOM     62  C   UNL A   1      44.910  33.582  29.063  1.00  0.00     0.064 A 
ATOM     63  C   UNL A   1      44.612  34.632  28.181  1.00  0.00     0.173 A 
ATOM     64  C   UNL A   1      45.674  33.875  30.202  1.00  0.00     0.173 A 
ATOM     65  F   UNL A   1      43.901  34.398  27.069  1.00  0.00    -0.203 F 
ATOM     66  C   UNL A   1      45.091  35.918  28.415  1.00  0.00     0.198 A 
ATOM     67  C   UNL A   1      46.126  35.168  30.447  1.00  0.00     0.198 A 
ATOM     68  F   UNL A   1      45.980  32.906  31.078  1.00  0.00    -0.203 F 
ATOM     69  F   UNL A   1      44.842  36.895  27.531  1.00  0.00    -0.200 F 
ATOM     70  C   UNL A   1      45.842  36.186  29.550  1.00  0.00     0.200 A 
ATOM     71  F   UNL A   1      46.842  35.427  31.550  1.00  0.00    -0.200 F 
ATOM     72  F   UNL A   1      46.302  37.425  29.773  1.00  0.00    -0.200 F 
ENDBRANCH  39  62
ENDBRANCH  13  14
ENDBRANCH   6   8
ENDBRANCH   3   4
ENDBRANCH   2   3
ENDBRANCH   1   2
BRANCH   1  73
ATOM     73  C   UNL A   1      35.728  24.151  24.024  1.00  0.00     0.116 C 
BRANCH  73  74
ATOM     74  N   UNL A   1      35.430  24.268  25.439  1.00  0.00    -0.356 N 
ATOM     75  C   UNL A   1      34.184  24.281  25.990  1.00  0.00     0.223 C 
ATOM     76  H   UNL A   1      36.195  24.344  26.055  1.00  0.00     0.163 HD
ATOM     77  O   UNL A   1      33.922  23.336  26.737  1.00  0.00    -0.275 OA
BRANCH  75  78
ATOM     78  C   UNL A   1      33.135  25.369  25.737  1.00  0.00     0.091 C 
ATOM     79  C   UNL A   1      33.746  26.749  26.028  1.00  0.00     0.014 C 
ATOM     80  C   UNL A   1      31.763  25.248  26.438  1.00  0.00     0.091 C 
ATOM     81  C   UNL A   1      32.852  27.884  25.564  1.00  0.00     0.001 C 
ATOM     82  C   UNL A   1      30.859  26.449  26.053  1.00  0.00     0.014 C 
ATOM     83  C   UNL A   1      31.515  27.800  26.285  1.00  0.00     0.001 C 
BRANCH  80  84
ATOM     84  C   UNL A   1      30.812  24.039  26.330  1.00  0.00     0.228 C 
ATOM     85  O   UNL A   1      30.064  23.798  27.288  1.00  0.00    -0.274 OA
ATOM     86  N   UNL A   1      30.551  23.371  25.170  1.00  0.00    -0.325 N 
ATOM     87  H   UNL A   1      29.675  22.926  25.119  1.00  0.00     0.169 HD
BRANCH  86  88
ATOM     88  C   UNL A   1      31.366  23.241  24.048  1.00  0.00     0.054 A 
ATOM     89  C   UNL A   1      31.287  24.272  23.100  1.00  0.00     0.027 A 
ATOM     90  C   UNL A   1      32.219  22.148  23.834  1.00  0.00     0.063 A 
ATOM     91  C   UNL A   1      32.197  24.330  22.046  1.00  0.00     0.002 A 
ATOM     92  C   UNL A   1      33.170  22.255  22.803  1.00  0.00     0.016 A 
ATOM     93  C   UNL A   1      33.178  23.351  21.934  1.00  0.00     0.001 A 
BRANCH  90  94
ATOM     94  C   UNL A   1      32.127  20.816  24.535  1.00  0.00     0.256 C 
ATOM     95  O   UNL A   1      31.481  20.704  25.576  1.00  0.00    -0.269 OA
ATOM     96  N   UNL A   1      32.939  19.768  24.086  1.00  0.00    -0.334 N 
ATOM     97  C   UNL A   1      33.997  19.377  25.012  1.00  0.00     0.148 C 
ATOM     98  C   UNL A   1      32.259  18.602  23.516  1.00  0.00     0.148 C 
ATOM     99  C   UNL A   1      34.935  18.349  24.380  1.00  0.00     0.181 C 
ATOM    100  C   UNL A   1      33.227  17.536  22.990  1.00  0.00     0.181 C 
ATOM    101  O   UNL A   1      34.202  17.180  23.979  1.00  0.00    -0.378 OA
ENDBRANCH  90  94
ENDBRANCH  86  88
ENDBRANCH  80  84
ENDBRANCH  75  78
ENDBRANCH  73  74
ENDBRANCH   1  73
TORSDOF 14
ENDMDL
