MODEL 1
REMARK VINA RESULT:     -14.3      0.000      0.000
REMARK SMILES COc1ccccc1[C@@H]1CN(C(=O)c2cnn3ccccc23)C[C@H]1C(=O)NCCCCNC(=O)c1ccc(-c2c3nc(c(-c4c(F)c(F)c(F)c(F)c4F)c4ccc([nH]4)c(-c4c(F)c(F)c(F)c(F)c4F)c4nc(c(-c5c(F)c(F)c(F)c(F)c5F)c5ccc2[nH]5)C=C4)C=C3)cc1
REMARK SMILES IDX 29 1 28 2 27 3 25 4 26 5 24 7 9 8 10 9 11 10 23 11 8 12 3 13
REMARK SMILES IDX 4 14 5 15 7 16 6 17 2 18 1 19 12 20 13 21 14 22 15 23 22 24
REMARK SMILES IDX 16 25 17 26 21 27 18 28 20 29 19 30 30 31 31 32 32 33 33 34
REMARK SMILES IDX 34 36 35 37 36 38 97 39 37 40 96 41 38 42 39 43 40 44 90 45
REMARK SMILES IDX 41 46 95 47 89 48 91 49 42 50 94 51 88 52 87 53 43 55 75 56
REMARK SMILES IDX 55 57 74 58 56 59 59 60 73 61 92 62 57 63 58 64 72 66 93 67
REMARK SMILES IDX 60 68 44 69 45 70 53 71 46 72 47 73 51 74 54 75 48 76 49 77
REMARK SMILES IDX 52 78 50 79 76 80 77 81 85 82 78 83 79 84 83 85 86 86 80 87
REMARK SMILES IDX 81 88 84 89 82 90 61 91 62 92 70 93 63 94 64 95 68 96 71 97
REMARK SMILES IDX 65 98 66 99 69 100 67 101
REMARK H PARENT 27 6 32 35 91 54 59 65
REMARK Flexibility Score: inf
ROOT
ATOM      1  C   UNL A   1      36.460  20.336  25.037  1.00  0.00     0.023 C 
ENDROOT
BRANCH   1   2
ATOM      2  C   UNL A   1      36.401  21.821  25.401  1.00  0.00     0.116 C 
BRANCH   2   3
ATOM      3  N   UNL A   1      35.639  22.058  26.611  1.00  0.00    -0.356 N 
ATOM      4  C   UNL A   1      34.370  22.501  26.801  1.00  0.00     0.225 C 
ATOM      5  O   UNL A   1      33.995  22.623  27.971  1.00  0.00    -0.275 OA
ATOM      6  H   UNL A   1      36.129  21.862  27.442  1.00  0.00     0.163 HD
BRANCH   4   7
ATOM      7  C   UNL A   1      33.413  22.817  25.664  1.00  0.00     0.107 C 
ATOM      8  C   UNL A   1      32.210  21.865  25.516  1.00  0.00     0.057 C 
ATOM      9  C   UNL A   1      31.066  22.758  25.041  1.00  0.00     0.129 C 
ATOM     10  N   UNL A   1      31.361  24.025  25.687  1.00  0.00    -0.337 N 
ATOM     11  C   UNL A   1      32.802  24.217  25.783  1.00  0.00     0.134 C 
BRANCH   8  12
ATOM     12  C   UNL A   1      32.422  20.585  24.743  1.00  0.00    -0.000 A 
ATOM     13  C   UNL A   1      32.334  20.440  23.349  1.00  0.00     0.122 A 
ATOM     14  C   UNL A   1      32.489  19.176  22.761  1.00  0.00     0.047 A 
ATOM     15  C   UNL A   1      32.707  18.041  23.543  1.00  0.00     0.004 A 
ATOM     16  C   UNL A   1      32.652  19.420  25.510  1.00  0.00     0.008 A 
ATOM     17  C   UNL A   1      32.773  18.161  24.922  1.00  0.00     0.001 A 
BRANCH  13  18
ATOM     18  O   UNL A   1      31.865  21.416  22.510  1.00  0.00    -0.496 OA
ATOM     19  C   UNL A   1      32.820  22.396  22.124  1.00  0.00     0.278 C 
ENDBRANCH  13  18
ENDBRANCH   8  12
BRANCH  10  20
ATOM     20  C   UNL A   1      30.486  25.035  26.043  1.00  0.00     0.257 C 
ATOM     21  O   UNL A   1      29.590  24.839  26.860  1.00  0.00    -0.269 OA
BRANCH  20  22
ATOM     22  C   UNL A   1      30.662  26.342  25.446  1.00  0.00     0.085 A 
ATOM     23  C   UNL A   1      30.373  26.684  24.108  1.00  0.00     0.150 A 
ATOM     24  C   UNL A   1      31.225  27.496  25.965  1.00  0.00     0.079 A 
ATOM     25  N   UNL A   1      30.629  27.959  23.820  1.00  0.00    -0.176 NA
ATOM     26  N   UNL A   1      31.151  28.471  24.961  1.00  0.00    -0.240 N 
ATOM     27  C   UNL A   1      31.821  27.878  27.207  1.00  0.00     0.029 A 
ATOM     28  C   UNL A   1      31.573  29.784  25.171  1.00  0.00     0.113 A 
ATOM     29  C   UNL A   1      32.215  29.150  27.400  1.00  0.00     0.004 A 
ATOM     30  C   UNL A   1      32.085  30.152  26.357  1.00  0.00     0.020 A 
ENDBRANCH  20  22
ENDBRANCH  10  20
ENDBRANCH   4   7
ENDBRANCH   2   3
ENDBRANCH   1   2
BRANCH   1  31
ATOM     31  C   UNL A   1      37.840  19.790  24.659  1.00  0.00     0.023 C 
BRANCH  31  32
ATOM     32  C   UNL A   1      38.939  20.153  25.644  1.00  0.00     0.116 C 
BRANCH  32  33
ATOM     33  N   UNL A   1      39.939  19.093  25.809  1.00  0.00    -0.352 N 
ATOM     34  C   UNL A   1      41.309  19.239  25.993  1.00  0.00     0.251 C 
ATOM     35  H   UNL A   1      39.601  18.169  25.784  1.00  0.00     0.163 HD
ATOM     36  O   UNL A   1      42.092  18.340  25.767  1.00  0.00    -0.269 OA
BRANCH  34  37
ATOM     37  C   UNL A   1      41.774  20.533  26.520  1.00  0.00     0.039 A 
ATOM     38  C   UNL A   1      42.367  21.519  25.727  1.00  0.00     0.014 A 
ATOM     39  C   UNL A   1      41.485  20.758  27.856  1.00  0.00     0.014 A 
ATOM     40  C   UNL A   1      42.602  22.771  26.295  1.00  0.00     0.010 A 
ATOM     41  C   UNL A   1      41.462  22.038  28.310  1.00  0.00     0.010 A 
ATOM     42  C   UNL A   1      42.135  23.018  27.592  1.00  0.00    -0.014 A 
BRANCH  42  43
ATOM     43  C   UNL A   1      42.242  24.309  28.257  1.00  0.00     0.031 A 
ATOM     44  C   UNL A   1      41.043  25.180  28.125  1.00  0.00     0.074 A 
ATOM     45  C   UNL A   1      43.225  24.506  29.170  1.00  0.00     0.049 A 
ATOM     46  N   UNL A   1      40.979  26.373  27.632  1.00  0.00    -0.248 NA
ATOM     47  C   UNL A   1      39.727  24.614  28.475  1.00  0.00     0.031 C 
ATOM     48  C   UNL A   1      44.280  23.568  29.594  1.00  0.00     0.029 A 
ATOM     49  N   UNL A   1      43.403  25.543  30.031  1.00  0.00    -0.354 N 
ATOM     50  C   UNL A   1      39.660  26.786  27.802  1.00  0.00     0.074 A 
ATOM     51  C   UNL A   1      38.904  25.609  28.139  1.00  0.00     0.031 C 
ATOM     52  C   UNL A   1      44.801  23.964  30.774  1.00  0.00     0.029 A 
ATOM     53  C   UNL A   1      44.262  25.268  31.094  1.00  0.00     0.049 A 
ATOM     54  H   UNL A   1      42.961  26.415  29.913  1.00  0.00     0.167 HD
ATOM     55  C   UNL A   1      39.351  28.107  27.921  1.00  0.00     0.037 A 
ATOM     56  C   UNL A   1      44.471  26.055  32.178  1.00  0.00     0.037 A 
ATOM     57  C   UNL A   1      40.429  28.937  27.446  1.00  0.00     0.049 A 
ATOM     58  C   UNL A   1      44.009  27.419  31.810  1.00  0.00     0.074 A 
ATOM     59  C   UNL A   1      41.075  29.086  26.234  1.00  0.00     0.029 A 
ATOM     60  N   UNL A   1      41.268  29.495  28.380  1.00  0.00    -0.354 N 
ATOM     61  N   UNL A   1      44.580  28.142  30.885  1.00  0.00    -0.248 NA
ATOM     62  C   UNL A   1      42.621  27.748  32.097  1.00  0.00     0.031 C 
ATOM     63  C   UNL A   1      42.454  29.247  26.571  1.00  0.00     0.029 A 
ATOM     64  C   UNL A   1      42.555  29.271  27.963  1.00  0.00     0.049 A 
ATOM     65  H   UNL A   1      40.995  29.968  29.199  1.00  0.00     0.167 HD
ATOM     66  C   UNL A   1      43.529  28.716  30.185  1.00  0.00     0.074 A 
ATOM     67  C   UNL A   1      42.346  28.478  31.012  1.00  0.00     0.031 C 
ATOM     68  C   UNL A   1      43.659  29.056  28.867  1.00  0.00     0.037 A 
BRANCH  55  69
ATOM     69  C   UNL A   1      38.268  28.648  28.825  1.00  0.00     0.064 A 
ATOM     70  C   UNL A   1      37.424  29.667  28.343  1.00  0.00     0.173 A 
ATOM     71  C   UNL A   1      38.233  28.438  30.221  1.00  0.00     0.173 A 
ATOM     72  F   UNL A   1      37.387  29.962  27.035  1.00  0.00    -0.203 F 
ATOM     73  C   UNL A   1      36.672  30.471  29.205  1.00  0.00     0.198 A 
ATOM     74  C   UNL A   1      37.441  29.207  31.071  1.00  0.00     0.198 A 
ATOM     75  F   UNL A   1      39.044  27.569  30.835  1.00  0.00    -0.203 F 
ATOM     76  F   UNL A   1      35.988  31.514  28.715  1.00  0.00    -0.200 F 
ATOM     77  C   UNL A   1      36.689  30.246  30.569  1.00  0.00     0.200 A 
ATOM     78  F   UNL A   1      37.486  28.983  32.393  1.00  0.00    -0.200 F 
ATOM     79  F   UNL A   1      36.024  31.057  31.403  1.00  0.00    -0.200 F 
ENDBRANCH  55  69
BRANCH  56  80
ATOM     80  C   UNL A   1      44.677  25.624  33.584  1.00  0.00     0.064 A 
ATOM     81  C   UNL A   1      43.591  25.382  34.441  1.00  0.00     0.173 A 
ATOM     82  C   UNL A   1      45.937  25.176  34.031  1.00  0.00     0.173 A 
ATOM     83  F   UNL A   1      42.351  25.731  34.069  1.00  0.00    -0.203 F 
ATOM     84  C   UNL A   1      43.753  24.718  35.664  1.00  0.00     0.198 A 
ATOM     85  C   UNL A   1      46.098  24.517  35.252  1.00  0.00     0.198 A 
ATOM     86  F   UNL A   1      47.021  25.283  33.249  1.00  0.00    -0.203 F 
ATOM     87  F   UNL A   1      42.685  24.456  36.429  1.00  0.00    -0.200 F 
ATOM     88  C   UNL A   1      45.005  24.278  36.063  1.00  0.00     0.200 A 
ATOM     89  F   UNL A   1      47.308  24.060  35.606  1.00  0.00    -0.200 F 
ATOM     90  F   UNL A   1      45.150  23.588  37.202  1.00  0.00    -0.200 F 
ENDBRANCH  56  80
BRANCH  68  91
ATOM     91  C   UNL A   1      45.033  28.983  28.256  1.00  0.00     0.064 A 
ATOM     92  C   UNL A   1      45.539  27.855  27.583  1.00  0.00     0.173 A 
ATOM     93  C   UNL A   1      45.806  30.149  28.212  1.00  0.00     0.173 A 
ATOM     94  F   UNL A   1      44.821  26.732  27.486  1.00  0.00    -0.203 F 
ATOM     95  C   UNL A   1      46.775  27.883  26.938  1.00  0.00     0.198 A 
ATOM     96  C   UNL A   1      47.024  30.186  27.539  1.00  0.00     0.198 A 
ATOM     97  F   UNL A   1      45.350  31.275  28.782  1.00  0.00    -0.203 F 
ATOM     98  F   UNL A   1      47.232  26.788  26.311  1.00  0.00    -0.200 F 
ATOM     99  C   UNL A   1      47.515  29.051  26.912  1.00  0.00     0.200 A 
ATOM    100  F   UNL A   1      47.712  31.334  27.473  1.00  0.00    -0.200 F 
ATOM    101  F   UNL A   1      48.683  29.094  26.258  1.00  0.00    -0.200 F 
ENDBRANCH  68  91
ENDBRANCH  42  43
ENDBRANCH  34  37
ENDBRANCH  32  33
ENDBRANCH  31  32
ENDBRANCH   1  31
TORSDOF 15
ENDMDL
MODEL 2
REMARK VINA RESULT:     -14.0      3.021      8.169
REMARK SMILES COc1ccccc1[C@@H]1CN(C(=O)c2cnn3ccccc23)C[C@H]1C(=O)NCCCCNC(=O)c1ccc(-c2c3nc(c(-c4c(F)c(F)c(F)c(F)c4F)c4ccc([nH]4)c(-c4c(F)c(F)c(F)c(F)c4F)c4nc(c(-c5c(F)c(F)c(F)c(F)c5F)c5ccc2[nH]5)C=C4)C=C3)cc1
REMARK SMILES IDX 29 1 28 2 27 3 25 4 26 5 24 7 9 8 10 9 11 10 23 11 8 12 3 13
REMARK SMILES IDX 4 14 5 15 7 16 6 17 2 18 1 19 12 20 13 21 14 22 15 23 22 24
REMARK SMILES IDX 16 25 17 26 21 27 18 28 20 29 19 30 30 31 31 32 32 33 33 34
REMARK SMILES IDX 34 36 35 37 36 38 97 39 37 40 96 41 38 42 39 43 40 44 90 45
REMARK SMILES IDX 41 46 95 47 89 48 91 49 42 50 94 51 88 52 87 53 43 55 75 56
REMARK SMILES IDX 55 57 74 58 56 59 59 60 73 61 92 62 57 63 58 64 72 66 93 67
REMARK SMILES IDX 60 68 44 69 45 70 53 71 46 72 47 73 51 74 54 75 48 76 49 77
REMARK SMILES IDX 52 78 50 79 76 80 77 81 85 82 78 83 79 84 83 85 86 86 80 87
REMARK SMILES IDX 81 88 84 89 82 90 61 91 62 92 70 93 63 94 64 95 68 96 71 97
REMARK SMILES IDX 65 98 66 99 69 100 67 101
REMARK H PARENT 27 6 32 35 91 54 59 65
REMARK Flexibility Score: inf
ROOT
ATOM      1  C   UNL A   1      32.790  30.297  27.187  1.00  0.00     0.023 C 
ENDROOT
BRANCH   1   2
ATOM      2  C   UNL A   1      32.144  29.941  25.845  1.00  0.00     0.116 C 
BRANCH   2   3
ATOM      3  N   UNL A   1      33.130  29.702  24.811  1.00  0.00    -0.356 N 
ATOM      4  C   UNL A   1      33.252  28.702  23.900  1.00  0.00     0.225 C 
ATOM      5  O   UNL A   1      34.226  28.756  23.144  1.00  0.00    -0.275 OA
ATOM      6  H   UNL A   1      33.837  30.385  24.759  1.00  0.00     0.163 HD
BRANCH   4   7
ATOM      7  C   UNL A   1      32.250  27.568  23.762  1.00  0.00     0.107 C 
ATOM      8  C   UNL A   1      31.356  27.612  22.507  1.00  0.00     0.057 C 
ATOM      9  C   UNL A   1      31.153  26.148  22.125  1.00  0.00     0.129 C 
ATOM     10  N   UNL A   1      32.407  25.535  22.531  1.00  0.00    -0.337 N 
ATOM     11  C   UNL A   1      32.923  26.192  23.724  1.00  0.00     0.134 C 
BRANCH   8  12
ATOM     12  C   UNL A   1      30.111  28.464  22.565  1.00  0.00    -0.000 A 
ATOM     13  C   UNL A   1      28.881  28.089  23.128  1.00  0.00     0.122 A 
ATOM     14  C   UNL A   1      27.780  28.955  23.056  1.00  0.00     0.047 A 
ATOM     15  C   UNL A   1      27.875  30.187  22.408  1.00  0.00     0.004 A 
ATOM     16  C   UNL A   1      30.181  29.721  21.921  1.00  0.00     0.008 A 
ATOM     17  C   UNL A   1      29.074  30.564  21.824  1.00  0.00     0.001 A 
BRANCH  13  18
ATOM     18  O   UNL A   1      28.592  26.818  23.549  1.00  0.00    -0.496 OA
ATOM     19  C   UNL A   1      27.308  26.649  24.135  1.00  0.00     0.278 C 
ENDBRANCH  13  18
ENDBRANCH   8  12
BRANCH  10  20
ATOM     20  C   UNL A   1      33.013  24.398  22.028  1.00  0.00     0.257 C 
ATOM     21  O   UNL A   1      33.333  24.321  20.845  1.00  0.00    -0.269 OA
BRANCH  20  22
ATOM     22  C   UNL A   1      33.285  23.303  22.936  1.00  0.00     0.085 A 
ATOM     23  C   UNL A   1      32.316  22.526  23.603  1.00  0.00     0.150 A 
ATOM     24  C   UNL A   1      34.487  22.833  23.438  1.00  0.00     0.079 A 
ATOM     25  N   UNL A   1      32.840  21.580  24.382  1.00  0.00    -0.176 NA
ATOM     26  N   UNL A   1      34.180  21.758  24.284  1.00  0.00    -0.240 N 
ATOM     27  C   UNL A   1      35.865  23.181  23.294  1.00  0.00     0.029 A 
ATOM     28  C   UNL A   1      35.172  21.004  24.912  1.00  0.00     0.113 A 
ATOM     29  C   UNL A   1      36.812  22.439  23.897  1.00  0.00     0.004 A 
ATOM     30  C   UNL A   1      36.469  21.303  24.732  1.00  0.00     0.020 A 
ENDBRANCH  20  22
ENDBRANCH  10  20
ENDBRANCH   4   7
ENDBRANCH   2   3
ENDBRANCH   1   2
BRANCH   1  31
ATOM     31  C   UNL A   1      34.284  29.987  27.318  1.00  0.00     0.023 C 
BRANCH  31  32
ATOM     32  C   UNL A   1      35.158  31.217  27.489  1.00  0.00     0.116 C 
BRANCH  32  33
ATOM     33  N   UNL A   1      34.754  32.059  28.620  1.00  0.00    -0.352 N 
ATOM     34  C   UNL A   1      35.122  31.925  29.954  1.00  0.00     0.251 C 
ATOM     35  H   UNL A   1      34.149  32.807  28.410  1.00  0.00     0.163 HD
ATOM     36  O   UNL A   1      34.482  32.425  30.855  1.00  0.00    -0.269 OA
BRANCH  34  37
ATOM     37  C   UNL A   1      36.360  31.178  30.229  1.00  0.00     0.039 A 
ATOM     38  C   UNL A   1      36.402  29.789  30.385  1.00  0.00     0.014 A 
ATOM     39  C   UNL A   1      37.518  31.939  30.217  1.00  0.00     0.014 A 
ATOM     40  C   UNL A   1      37.650  29.171  30.461  1.00  0.00     0.010 A 
ATOM     41  C   UNL A   1      38.707  31.312  30.017  1.00  0.00     0.010 A 
ATOM     42  C   UNL A   1      38.798  29.949  30.267  1.00  0.00    -0.014 A 
BRANCH  42  43
ATOM     43  C   UNL A   1      40.148  29.404  30.237  1.00  0.00     0.031 A 
ATOM     44  C   UNL A   1      40.780  29.230  31.573  1.00  0.00     0.074 A 
ATOM     45  C   UNL A   1      40.604  28.820  29.103  1.00  0.00     0.049 A 
ATOM     46  N   UNL A   1      41.888  29.740  32.000  1.00  0.00    -0.248 NA
ATOM     47  C   UNL A   1      40.032  28.493  32.609  1.00  0.00     0.031 C 
ATOM     48  C   UNL A   1      39.911  28.669  27.810  1.00  0.00     0.029 A 
ATOM     49  N   UNL A   1      41.736  28.095  28.904  1.00  0.00    -0.354 N 
ATOM     50  C   UNL A   1      42.080  29.221  33.278  1.00  0.00     0.074 A 
ATOM     51  C   UNL A   1      40.830  28.627  33.670  1.00  0.00     0.031 C 
ATOM     52  C   UNL A   1      40.508  27.707  27.076  1.00  0.00     0.029 A 
ATOM     53  C   UNL A   1      41.723  27.309  27.752  1.00  0.00     0.049 A 
ATOM     54  H   UNL A   1      42.503  28.123  29.522  1.00  0.00     0.167 HD
ATOM     55  C   UNL A   1      43.333  29.081  33.795  1.00  0.00     0.037 A 
ATOM     56  C   UNL A   1      42.639  26.368  27.415  1.00  0.00     0.037 A 
ATOM     57  C   UNL A   1      44.286  29.883  33.069  1.00  0.00     0.049 A 
ATOM     58  C   UNL A   1      43.858  26.653  28.215  1.00  0.00     0.074 A 
ATOM     59  C   UNL A   1      44.423  31.234  32.817  1.00  0.00     0.029 A 
ATOM     60  N   UNL A   1      45.072  29.254  32.133  1.00  0.00    -0.354 N 
ATOM     61  N   UNL A   1      44.573  27.736  28.069  1.00  0.00    -0.248 NA
ATOM     62  C   UNL A   1      43.968  25.998  29.510  1.00  0.00     0.031 C 
ATOM     63  C   UNL A   1      44.854  31.312  31.458  1.00  0.00     0.029 A 
ATOM     64  C   UNL A   1      45.035  30.010  30.990  1.00  0.00     0.049 A 
ATOM     65  H   UNL A   1      45.570  28.415  32.261  1.00  0.00     0.167 HD
ATOM     66  C   UNL A   1      44.882  28.134  29.362  1.00  0.00     0.074 A 
ATOM     67  C   UNL A   1      44.527  26.993  30.206  1.00  0.00     0.031 C 
ATOM     68  C   UNL A   1      45.106  29.448  29.662  1.00  0.00     0.037 A 
BRANCH  55  69
ATOM     69  C   UNL A   1      43.765  27.933  34.676  1.00  0.00     0.064 A 
ATOM     70  C   UNL A   1      43.603  26.615  34.206  1.00  0.00     0.173 A 
ATOM     71  C   UNL A   1      44.026  28.058  36.058  1.00  0.00     0.173 A 
ATOM     72  F   UNL A   1      43.337  26.378  32.913  1.00  0.00    -0.203 F 
ATOM     73  C   UNL A   1      43.613  25.517  35.072  1.00  0.00     0.198 A 
ATOM     74  C   UNL A   1      44.088  26.956  36.908  1.00  0.00     0.198 A 
ATOM     75  F   UNL A   1      44.113  29.247  36.665  1.00  0.00    -0.203 F 
ATOM     76  F   UNL A   1      43.320  24.297  34.601  1.00  0.00    -0.200 F 
ATOM     77  C   UNL A   1      43.846  25.690  36.423  1.00  0.00     0.200 A 
ATOM     78  F   UNL A   1      44.298  27.148  38.219  1.00  0.00    -0.200 F 
ATOM     79  F   UNL A   1      43.788  24.649  37.264  1.00  0.00    -0.200 F 
ENDBRANCH  55  69
BRANCH  56  80
ATOM     80  C   UNL A   1      42.393  25.060  26.756  1.00  0.00     0.064 A 
ATOM     81  C   UNL A   1      43.079  24.689  25.589  1.00  0.00     0.173 A 
ATOM     82  C   UNL A   1      41.681  24.036  27.414  1.00  0.00     0.173 A 
ATOM     83  F   UNL A   1      43.822  25.591  24.931  1.00  0.00    -0.203 F 
ATOM     84  C   UNL A   1      43.068  23.370  25.116  1.00  0.00     0.198 A 
ATOM     85  C   UNL A   1      41.668  22.722  26.940  1.00  0.00     0.198 A 
ATOM     86  F   UNL A   1      41.064  24.269  28.581  1.00  0.00    -0.203 F 
ATOM     87  F   UNL A   1      43.780  23.042  24.030  1.00  0.00    -0.200 F 
ATOM     88  C   UNL A   1      42.370  22.386  25.799  1.00  0.00     0.200 A 
ATOM     89  F   UNL A   1      41.022  21.772  27.633  1.00  0.00    -0.200 F 
ATOM     90  F   UNL A   1      42.409  21.113  25.382  1.00  0.00    -0.200 F 
ENDBRANCH  56  80
BRANCH  68  91
ATOM     91  C   UNL A   1      45.212  30.422  28.518  1.00  0.00     0.064 A 
ATOM     92  C   UNL A   1      44.145  31.213  28.053  1.00  0.00     0.173 A 
ATOM     93  C   UNL A   1      46.476  30.677  27.976  1.00  0.00     0.173 A 
ATOM     94  F   UNL A   1      42.926  31.108  28.590  1.00  0.00    -0.203 F 
ATOM     95  C   UNL A   1      44.329  32.179  27.065  1.00  0.00     0.198 A 
ATOM     96  C   UNL A   1      46.666  31.666  27.014  1.00  0.00     0.198 A 
ATOM     97  F   UNL A   1      47.545  29.998  28.421  1.00  0.00    -0.203 F 
ATOM     98  F   UNL A   1      43.290  32.914  26.639  1.00  0.00    -0.200 F 
ATOM     99  C   UNL A   1      45.592  32.409  26.550  1.00  0.00     0.200 A 
ATOM    100  F   UNL A   1      47.900  31.919  26.556  1.00  0.00    -0.200 F 
ATOM    101  F   UNL A   1      45.781  33.365  25.631  1.00  0.00    -0.200 F 
ENDBRANCH  68  91
ENDBRANCH  42  43
ENDBRANCH  34  37
ENDBRANCH  32  33
ENDBRANCH  31  32
ENDBRANCH   1  31
TORSDOF 15
ENDMDL
MODEL 3
REMARK VINA RESULT:     -14.0      1.287      2.153
REMARK SMILES COc1ccccc1[C@@H]1CN(C(=O)c2cnn3ccccc23)C[C@H]1C(=O)NCCCCNC(=O)c1ccc(-c2c3nc(c(-c4c(F)c(F)c(F)c(F)c4F)c4ccc([nH]4)c(-c4c(F)c(F)c(F)c(F)c4F)c4nc(c(-c5c(F)c(F)c(F)c(F)c5F)c5ccc2[nH]5)C=C4)C=C3)cc1
REMARK SMILES IDX 29 1 28 2 27 3 25 4 26 5 24 7 9 8 10 9 11 10 23 11 8 12 3 13
REMARK SMILES IDX 4 14 5 15 7 16 6 17 2 18 1 19 12 20 13 21 14 22 15 23 22 24
REMARK SMILES IDX 16 25 17 26 21 27 18 28 20 29 19 30 30 31 31 32 32 33 33 34
REMARK SMILES IDX 34 36 35 37 36 38 97 39 37 40 96 41 38 42 39 43 40 44 90 45
REMARK SMILES IDX 41 46 95 47 89 48 91 49 42 50 94 51 88 52 87 53 43 55 75 56
REMARK SMILES IDX 55 57 74 58 56 59 59 60 73 61 92 62 57 63 58 64 72 66 93 67
REMARK SMILES IDX 60 68 44 69 45 70 53 71 46 72 47 73 51 74 54 75 48 76 49 77
REMARK SMILES IDX 52 78 50 79 76 80 77 81 85 82 78 83 79 84 83 85 86 86 80 87
REMARK SMILES IDX 81 88 84 89 82 90 61 91 62 92 70 93 63 94 64 95 68 96 71 97
REMARK SMILES IDX 65 98 66 99 69 100 67 101
REMARK H PARENT 27 6 32 35 91 54 59 65
REMARK Flexibility Score: inf
ROOT
ATOM      1  C   UNL A   1      36.913  20.530  24.905  1.00  0.00     0.023 C 
ENDROOT
BRANCH   1   2
ATOM      2  C   UNL A   1      37.365  21.963  24.614  1.00  0.00     0.116 C 
BRANCH   2   3
ATOM      3  N   UNL A   1      36.587  22.941  25.349  1.00  0.00    -0.356 N 
ATOM      4  C   UNL A   1      35.390  23.523  25.081  1.00  0.00     0.225 C 
ATOM      5  O   UNL A   1      34.979  24.350  25.900  1.00  0.00    -0.275 OA
ATOM      6  H   UNL A   1      37.000  23.234  26.194  1.00  0.00     0.163 HD
BRANCH   4   7
ATOM      7  C   UNL A   1      34.549  23.185  23.861  1.00  0.00     0.107 C 
ATOM      8  C   UNL A   1      33.116  22.695  24.150  1.00  0.00     0.057 C 
ATOM      9  C   UNL A   1      32.279  23.253  23.001  1.00  0.00     0.129 C 
ATOM     10  N   UNL A   1      32.946  24.508  22.699  1.00  0.00    -0.337 N 
ATOM     11  C   UNL A   1      34.381  24.378  22.916  1.00  0.00     0.134 C 
BRANCH   8  12
ATOM     12  C   UNL A   1      32.927  21.230  24.462  1.00  0.00    -0.000 A 
ATOM     13  C   UNL A   1      33.284  20.591  25.660  1.00  0.00     0.122 A 
ATOM     14  C   UNL A   1      33.114  19.205  25.796  1.00  0.00     0.047 A 
ATOM     15  C   UNL A   1      32.613  18.435  24.746  1.00  0.00     0.004 A 
ATOM     16  C   UNL A   1      32.414  20.427  23.417  1.00  0.00     0.008 A 
ATOM     17  C   UNL A   1      32.278  19.046  23.547  1.00  0.00     0.001 A 
BRANCH  13  18
ATOM     18  O   UNL A   1      34.022  21.184  26.649  1.00  0.00    -0.496 OA
ATOM     19  C   UNL A   1      33.267  21.791  27.690  1.00  0.00     0.278 C 
ENDBRANCH  13  18
ENDBRANCH   8  12
BRANCH  10  20
ATOM     20  C   UNL A   1      32.415  25.652  22.132  1.00  0.00     0.257 C 
ATOM     21  O   UNL A   1      32.413  25.814  20.914  1.00  0.00    -0.269 OA
BRANCH  20  22
ATOM     22  C   UNL A   1      31.837  26.651  23.007  1.00  0.00     0.085 A 
ATOM     23  C   UNL A   1      30.558  27.228  22.868  1.00  0.00     0.150 A 
ATOM     24  C   UNL A   1      32.394  27.338  24.073  1.00  0.00     0.079 A 
ATOM     25  N   UNL A   1      30.277  28.125  23.812  1.00  0.00    -0.176 NA
ATOM     26  N   UNL A   1      31.401  28.197  24.564  1.00  0.00    -0.240 N 
ATOM     27  C   UNL A   1      33.664  27.359  24.729  1.00  0.00     0.029 A 
ATOM     28  C   UNL A   1      31.605  28.997  25.689  1.00  0.00     0.113 A 
ATOM     29  C   UNL A   1      33.843  28.128  25.819  1.00  0.00     0.004 A 
ATOM     30  C   UNL A   1      32.783  28.976  26.334  1.00  0.00     0.020 A 
ENDBRANCH  20  22
ENDBRANCH  10  20
ENDBRANCH   4   7
ENDBRANCH   2   3
ENDBRANCH   1   2
BRANCH   1  31
ATOM     31  C   UNL A   1      38.029  19.495  25.075  1.00  0.00     0.023 C 
BRANCH  31  32
ATOM     32  C   UNL A   1      39.324  20.066  25.628  1.00  0.00     0.116 C 
BRANCH  32  33
ATOM     33  N   UNL A   1      40.370  19.055  25.810  1.00  0.00    -0.352 N 
ATOM     34  C   UNL A   1      41.731  19.264  25.995  1.00  0.00     0.251 C 
ATOM     35  H   UNL A   1      40.073  18.117  25.799  1.00  0.00     0.163 HD
ATOM     36  O   UNL A   1      42.554  18.397  25.784  1.00  0.00    -0.269 OA
BRANCH  34  37
ATOM     37  C   UNL A   1      42.137  20.585  26.503  1.00  0.00     0.039 A 
ATOM     38  C   UNL A   1      42.646  21.600  25.688  1.00  0.00     0.014 A 
ATOM     39  C   UNL A   1      41.879  20.800  27.847  1.00  0.00     0.014 A 
ATOM     40  C   UNL A   1      42.826  22.866  26.244  1.00  0.00     0.010 A 
ATOM     41  C   UNL A   1      41.796  22.078  28.298  1.00  0.00     0.010 A 
ATOM     42  C   UNL A   1      42.388  23.092  27.555  1.00  0.00    -0.014 A 
BRANCH  42  43
ATOM     43  C   UNL A   1      42.442  24.390  28.213  1.00  0.00     0.031 A 
ATOM     44  C   UNL A   1      41.186  25.185  28.128  1.00  0.00     0.074 A 
ATOM     45  C   UNL A   1      43.445  24.652  29.085  1.00  0.00     0.049 A 
ATOM     46  N   UNL A   1      41.029  26.369  27.635  1.00  0.00    -0.248 NA
ATOM     47  C   UNL A   1      39.923  24.540  28.531  1.00  0.00     0.031 C 
ATOM     48  C   UNL A   1      44.572  23.783  29.469  1.00  0.00     0.029 A 
ATOM     49  N   UNL A   1      43.593  25.701  29.936  1.00  0.00    -0.354 N 
ATOM     50  C   UNL A   1      39.694  26.700  27.857  1.00  0.00     0.074 A 
ATOM     51  C   UNL A   1      39.027  25.481  28.227  1.00  0.00     0.031 C 
ATOM     52  C   UNL A   1      45.115  24.215  30.626  1.00  0.00     0.029 A 
ATOM     53  C   UNL A   1      44.510  25.485  30.964  1.00  0.00     0.049 A 
ATOM     54  H   UNL A   1      43.094  26.544  29.835  1.00  0.00     0.167 HD
ATOM     55  C   UNL A   1      39.309  28.001  27.986  1.00  0.00     0.037 A 
ATOM     56  C   UNL A   1      44.712  26.288  32.038  1.00  0.00     0.037 A 
ATOM     57  C   UNL A   1      40.314  28.893  27.466  1.00  0.00     0.049 A 
ATOM     58  C   UNL A   1      44.153  27.619  31.686  1.00  0.00     0.074 A 
ATOM     59  C   UNL A   1      40.901  29.077  26.229  1.00  0.00     0.029 A 
ATOM     60  N   UNL A   1      41.154  29.506  28.365  1.00  0.00    -0.354 N 
ATOM     61  N   UNL A   1      44.641  28.372  30.737  1.00  0.00    -0.248 NA
ATOM     62  C   UNL A   1      42.760  27.863  32.028  1.00  0.00     0.031 C 
ATOM     63  C   UNL A   1      42.280  29.324  26.510  1.00  0.00     0.029 A 
ATOM     64  C   UNL A   1      42.434  29.361  27.896  1.00  0.00     0.049 A 
ATOM     65  H   UNL A   1      40.885  29.965  29.192  1.00  0.00     0.167 HD
ATOM     66  C   UNL A   1      43.529  28.877  30.079  1.00  0.00     0.074 A 
ATOM     67  C   UNL A   1      42.397  28.570  30.954  1.00  0.00     0.031 C 
ATOM     68  C   UNL A   1      43.585  29.218  28.756  1.00  0.00     0.037 A 
BRANCH  55  69
ATOM     69  C   UNL A   1      38.232  28.478  28.931  1.00  0.00     0.064 A 
ATOM     70  C   UNL A   1      37.295  29.425  28.475  1.00  0.00     0.173 A 
ATOM     71  C   UNL A   1      38.276  28.290  30.330  1.00  0.00     0.173 A 
ATOM     72  F   UNL A   1      37.178  29.695  27.166  1.00  0.00    -0.203 F 
ATOM     73  C   UNL A   1      36.527  30.188  29.360  1.00  0.00     0.198 A 
ATOM     74  C   UNL A   1      37.469  29.014  31.205  1.00  0.00     0.198 A 
ATOM     75  F   UNL A   1      39.174  27.492  30.918  1.00  0.00    -0.203 F 
ATOM     76  F   UNL A   1      35.748  31.170  28.888  1.00  0.00    -0.200 F 
ATOM     77  C   UNL A   1      36.622  29.987  30.725  1.00  0.00     0.200 A 
ATOM     78  F   UNL A   1      37.590  28.817  32.526  1.00  0.00    -0.200 F 
ATOM     79  F   UNL A   1      35.938  30.763  31.577  1.00  0.00    -0.200 F 
ENDBRANCH  55  69
BRANCH  56  80
ATOM     80  C   UNL A   1      45.000  25.877  33.435  1.00  0.00     0.064 A 
ATOM     81  C   UNL A   1      45.866  26.620  34.252  1.00  0.00     0.173 A 
ATOM     82  C   UNL A   1      44.216  24.899  34.083  1.00  0.00     0.173 A 
ATOM     83  F   UNL A   1      46.609  27.604  33.724  1.00  0.00    -0.203 F 
ATOM     84  C   UNL A   1      45.933  26.411  35.636  1.00  0.00     0.198 A 
ATOM     85  C   UNL A   1      44.286  24.689  35.462  1.00  0.00     0.198 A 
ATOM     86  F   UNL A   1      43.297  24.196  33.405  1.00  0.00    -0.203 F 
ATOM     87  F   UNL A   1      46.731  27.178  36.392  1.00  0.00    -0.200 F 
ATOM     88  C   UNL A   1      45.135  25.452  36.240  1.00  0.00     0.200 A 
ATOM     89  F   UNL A   1      43.478  23.787  36.038  1.00  0.00    -0.200 F 
ATOM     90  F   UNL A   1      45.153  25.294  37.571  1.00  0.00    -0.200 F 
ENDBRANCH  56  80
BRANCH  68  91
ATOM     91  C   UNL A   1      44.935  29.227  28.090  1.00  0.00     0.064 A 
ATOM     92  C   UNL A   1      45.866  30.277  28.207  1.00  0.00     0.173 A 
ATOM     93  C   UNL A   1      45.365  28.066  27.440  1.00  0.00     0.173 A 
ATOM     94  F   UNL A   1      45.576  31.380  28.903  1.00  0.00    -0.203 F 
ATOM     95  C   UNL A   1      47.146  30.182  27.662  1.00  0.00     0.198 A 
ATOM     96  C   UNL A   1      46.655  27.959  26.925  1.00  0.00     0.198 A 
ATOM     97  F   UNL A   1      44.545  27.007  27.349  1.00  0.00    -0.203 F 
ATOM     98  F   UNL A   1      48.008  31.202  27.785  1.00  0.00    -0.200 F 
ATOM     99  C   UNL A   1      47.541  29.019  27.025  1.00  0.00     0.200 A 
ATOM    100  F   UNL A   1      47.049  26.811  26.355  1.00  0.00    -0.200 F 
ATOM    101  F   UNL A   1      48.784  28.908  26.536  1.00  0.00    -0.200 F 
ENDBRANCH  68  91
ENDBRANCH  42  43
ENDBRANCH  34  37
ENDBRANCH  32  33
ENDBRANCH  31  32
ENDBRANCH   1  31
TORSDOF 15
ENDMDL
