MODEL 1
REMARK VINA RESULT:     -14.5      0.000      0.000
REMARK SMILES Cc1ccc(-c2csc(NC(=O)[C@H]3[C@@H](C(=O)NCCCCNC(=O)c4ccc(-c5c6nc(c(-c7c(F)c(F)c(F)c(F)c7F)c7ccc([nH]7)c(-c7c(F)c(F)c(F)c(F)c7F)c7nc(c(-c8c(F)c(F)c(F)c(F)c8F)c8ccc5[nH]8)C=C7)C=C6)cc4)[C@H]4C=C[C@@H]3C4)c2C(=O)NC2CC2)cc1
REMARK SMILES IDX 18 1 17 2 15 3 16 4 14 6 13 7 91 8 88 9 90 10 92 11 89 12
REMARK SMILES IDX 11 13 10 14 12 16 9 17 6 18 7 19 93 20 8 21 5 22 1 23 2 24
REMARK SMILES IDX 3 25 101 26 4 27 100 28 94 29 95 30 96 31 97 33 98 34 99 35
REMARK SMILES IDX 19 36 20 37 21 38 22 39 23 40 24 42 25 43 26 44 87 45 27 46
REMARK SMILES IDX 86 47 28 48 29 49 30 50 80 51 31 52 85 53 79 54 81 55 32 56
REMARK SMILES IDX 84 57 78 58 77 59 33 61 65 62 45 63 64 64 46 65 49 66 63 67
REMARK SMILES IDX 82 68 47 69 48 70 62 72 83 73 50 74 34 75 35 76 43 77 36 78
REMARK SMILES IDX 37 79 41 80 44 81 38 82 39 83 42 84 40 85 66 86 67 87 75 88
REMARK SMILES IDX 68 89 69 90 73 91 76 92 70 93 71 94 74 95 72 96 51 97 52 98
REMARK SMILES IDX 60 99 53 100 54 101 58 102 61 103 55 104 56 105 59 106
REMARK SMILES IDX 57 107
REMARK H PARENT 17 5 10 15 96 32 22 41 81 60 49 71
REMARK Flexibility Score: inf
ROOT
ATOM      1  C   UNL A   1      31.198  30.456  25.812  1.00  0.00     0.116 C 
ENDROOT
BRANCH   1   2
ATOM      2  N   UNL A   1      31.902  30.083  24.599  1.00  0.00    -0.356 N 
ATOM      3  C   UNL A   1      31.960  28.901  23.915  1.00  0.00     0.224 C 
ATOM      4  O   UNL A   1      32.711  28.863  22.939  1.00  0.00    -0.275 OA
ATOM      5  H   UNL A   1      32.433  30.809  24.199  1.00  0.00     0.163 HD
BRANCH   3   6
ATOM      6  C   UNL A   1      31.016  27.761  24.294  1.00  0.00     0.098 C 
ATOM      7  C   UNL A   1      31.602  26.421  24.901  1.00  0.00     0.099 C 
ATOM      8  C   UNL A   1      31.134  25.376  23.849  1.00  0.00     0.025 C 
ATOM      9  C   UNL A   1      30.276  27.260  23.014  1.00  0.00     0.025 C 
ATOM     10  C   UNL A   1      31.811  25.615  22.527  1.00  0.00    -0.027 C 
ATOM     11  C   UNL A   1      29.738  25.919  23.503  1.00  0.00     0.017 C 
ATOM     12  C   UNL A   1      31.274  26.726  22.008  1.00  0.00    -0.027 C 
BRANCH   7  13
ATOM     13  C   UNL A   1      33.074  26.481  25.311  1.00  0.00     0.229 C 
ATOM     14  N   UNL A   1      33.876  25.376  25.331  1.00  0.00    -0.317 N 
ATOM     15  H   UNL A   1      34.834  25.557  25.190  1.00  0.00     0.170 HD
ATOM     16  O   UNL A   1      33.570  27.544  25.705  1.00  0.00    -0.274 OA
BRANCH  14  17
ATOM     17  C   UNL A   1      33.559  24.044  25.518  1.00  0.00     0.108 A 
ATOM     18  C   UNL A   1      33.359  21.738  25.274  1.00  0.00     0.007 A 
ATOM     19  C   UNL A   1      32.523  22.005  26.346  1.00  0.00     0.076 A 
ATOM     20  C   UNL A   1      34.049  22.939  24.815  1.00  0.00     0.082 A 
ATOM     21  S   UNL A   1      32.628  23.613  26.873  1.00  0.00    -0.125 S 
BRANCH  18  22
ATOM     22  C   UNL A   1      33.427  20.352  24.824  1.00  0.00    -0.017 A 
ATOM     23  C   UNL A   1      34.041  16.502  23.005  1.00  0.00     0.044 C 
ATOM     24  C   UNL A   1      33.773  17.772  23.758  1.00  0.00    -0.051 A 
ATOM     25  C   UNL A   1      34.816  18.389  24.451  1.00  0.00     0.004 A 
ATOM     26  C   UNL A   1      32.529  18.419  23.678  1.00  0.00     0.004 A 
ATOM     27  C   UNL A   1      34.634  19.654  25.002  1.00  0.00     0.009 A 
ATOM     28  C   UNL A   1      32.352  19.707  24.207  1.00  0.00     0.009 A 
ENDBRANCH  18  22
BRANCH  20  29
ATOM     29  C   UNL A   1      34.921  23.172  23.658  1.00  0.00     0.255 C 
ATOM     30  O   UNL A   1      34.410  23.351  22.545  1.00  0.00    -0.269 OA
ATOM     31  N   UNL A   1      36.286  23.329  23.678  1.00  0.00    -0.349 N 
ATOM     32  H   UNL A   1      36.628  23.496  22.771  1.00  0.00     0.164 HD
BRANCH  31  33
ATOM     33  C   UNL A   1      37.349  23.322  24.621  1.00  0.00     0.082 C 
ATOM     34  C   UNL A   1      37.348  23.687  26.062  1.00  0.00     0.027 C 
ATOM     35  C   UNL A   1      37.341  22.238  25.662  1.00  0.00     0.027 C 
ENDBRANCH  31  33
ENDBRANCH  20  29
ENDBRANCH  14  17
ENDBRANCH   7  13
ENDBRANCH   3   6
ENDBRANCH   1   2
BRANCH   1  36
ATOM     36  C   UNL A   1      32.051  30.247  27.070  1.00  0.00     0.023 C 
BRANCH  36  37
ATOM     37  C   UNL A   1      33.281  31.156  27.186  1.00  0.00     0.023 C 
BRANCH  37  38
ATOM     38  C   UNL A   1      34.495  30.520  27.853  1.00  0.00     0.116 C 
BRANCH  38  39
ATOM     39  N   UNL A   1      35.284  31.415  28.688  1.00  0.00    -0.352 N 
ATOM     40  C   UNL A   1      36.465  31.171  29.375  1.00  0.00     0.251 C 
ATOM     41  H   UNL A   1      34.928  32.328  28.780  1.00  0.00     0.163 HD
ATOM     42  O   UNL A   1      36.934  32.024  30.111  1.00  0.00    -0.269 OA
BRANCH  40  43
ATOM     43  C   UNL A   1      37.232  29.924  29.108  1.00  0.00     0.039 A 
ATOM     44  C   UNL A   1      37.365  28.998  30.151  1.00  0.00     0.014 A 
ATOM     45  C   UNL A   1      37.967  29.762  27.939  1.00  0.00     0.014 A 
ATOM     46  C   UNL A   1      38.415  28.079  30.123  1.00  0.00     0.010 A 
ATOM     47  C   UNL A   1      39.067  28.928  27.952  1.00  0.00     0.010 A 
ATOM     48  C   UNL A   1      39.330  28.140  29.074  1.00  0.00    -0.014 A 
BRANCH  48  49
ATOM     49  C   UNL A   1      40.661  27.547  29.138  1.00  0.00     0.031 A 
ATOM     50  C   UNL A   1      40.911  26.164  28.688  1.00  0.00     0.074 A 
ATOM     51  C   UNL A   1      41.706  28.324  29.503  1.00  0.00     0.049 A 
ATOM     52  N   UNL A   1      41.883  25.437  29.131  1.00  0.00    -0.248 NA
ATOM     53  C   UNL A   1      40.077  25.478  27.707  1.00  0.00     0.031 C 
ATOM     54  C   UNL A   1      43.127  28.026  29.337  1.00  0.00     0.029 A 
ATOM     55  N   UNL A   1      41.685  29.504  30.266  1.00  0.00    -0.354 N 
ATOM     56  C   UNL A   1      41.979  24.340  28.311  1.00  0.00     0.074 A 
ATOM     57  C   UNL A   1      40.790  24.368  27.488  1.00  0.00     0.031 C 
ATOM     58  C   UNL A   1      43.831  28.783  30.191  1.00  0.00     0.029 A 
ATOM     59  C   UNL A   1      42.878  29.487  31.027  1.00  0.00     0.049 A 
ATOM     60  H   UNL A   1      40.987  30.198  30.271  1.00  0.00     0.167 HD
ATOM     61  C   UNL A   1      43.122  23.598  28.300  1.00  0.00     0.037 A 
ATOM     62  C   UNL A   1      42.860  29.453  32.390  1.00  0.00     0.037 A 
ATOM     63  C   UNL A   1      44.121  24.122  29.221  1.00  0.00     0.049 A 
ATOM     64  C   UNL A   1      43.567  28.260  32.985  1.00  0.00     0.074 A 
ATOM     65  C   UNL A   1      45.217  24.948  29.035  1.00  0.00     0.029 A 
ATOM     66  N   UNL A   1      43.885  24.086  30.591  1.00  0.00    -0.354 N 
ATOM     67  N   UNL A   1      43.826  27.169  32.323  1.00  0.00    -0.248 NA
ATOM     68  C   UNL A   1      44.009  28.185  34.375  1.00  0.00     0.031 C 
ATOM     69  C   UNL A   1      45.632  25.428  30.299  1.00  0.00     0.029 A 
ATOM     70  C   UNL A   1      44.794  24.887  31.256  1.00  0.00     0.049 A 
ATOM     71  H   UNL A   1      43.173  23.563  31.025  1.00  0.00     0.167 HD
ATOM     72  C   UNL A   1      44.429  26.258  33.152  1.00  0.00     0.074 A 
ATOM     73  C   UNL A   1      44.538  26.949  34.421  1.00  0.00     0.031 C 
ATOM     74  C   UNL A   1      44.775  25.013  32.705  1.00  0.00     0.037 A 
BRANCH  61  75
ATOM     75  C   UNL A   1      43.409  22.589  27.222  1.00  0.00     0.064 A 
ATOM     76  C   UNL A   1      42.692  21.378  27.132  1.00  0.00     0.173 A 
ATOM     77  C   UNL A   1      44.428  22.757  26.267  1.00  0.00     0.173 A 
ATOM     78  F   UNL A   1      41.653  21.116  27.933  1.00  0.00    -0.203 F 
ATOM     79  C   UNL A   1      43.032  20.374  26.224  1.00  0.00     0.198 A 
ATOM     80  C   UNL A   1      44.800  21.734  25.389  1.00  0.00     0.198 A 
ATOM     81  F   UNL A   1      45.081  23.924  26.159  1.00  0.00    -0.203 F 
ATOM     82  F   UNL A   1      42.323  19.237  26.194  1.00  0.00    -0.200 F 
ATOM     83  C   UNL A   1      44.107  20.537  25.375  1.00  0.00     0.200 A 
ATOM     84  F   UNL A   1      45.843  21.908  24.566  1.00  0.00    -0.200 F 
ATOM     85  F   UNL A   1      44.467  19.553  24.541  1.00  0.00    -0.200 F 
ENDBRANCH  61  75
BRANCH  62  86
ATOM     86  C   UNL A   1      41.670  30.124  32.972  1.00  0.00     0.064 A 
ATOM     87  C   UNL A   1      41.629  31.531  32.951  1.00  0.00     0.173 A 
ATOM     88  C   UNL A   1      40.462  29.440  33.151  1.00  0.00     0.173 A 
ATOM     89  F   UNL A   1      42.761  32.231  32.776  1.00  0.00    -0.203 F 
ATOM     90  C   UNL A   1      40.419  32.219  32.981  1.00  0.00     0.198 A 
ATOM     91  C   UNL A   1      39.252  30.136  33.195  1.00  0.00     0.198 A 
ATOM     92  F   UNL A   1      40.436  28.100  33.161  1.00  0.00    -0.203 F 
ATOM     93  F   UNL A   1      40.405  33.553  32.837  1.00  0.00    -0.200 F 
ATOM     94  C   UNL A   1      39.228  31.518  33.073  1.00  0.00     0.200 A 
ATOM     95  F   UNL A   1      38.096  29.458  33.256  1.00  0.00    -0.200 F 
ATOM     96  F   UNL A   1      38.059  32.170  33.002  1.00  0.00    -0.200 F 
ENDBRANCH  62  86
BRANCH  74  97
ATOM     97  C   UNL A   1      45.233  23.834  33.535  1.00  0.00     0.064 A 
ATOM     98  C   UNL A   1      44.453  22.694  33.791  1.00  0.00     0.173 A 
ATOM     99  C   UNL A   1      46.575  23.761  33.994  1.00  0.00     0.173 A 
ATOM    100  F   UNL A   1      43.208  22.577  33.314  1.00  0.00    -0.203 F 
ATOM    101  C   UNL A   1      44.954  21.596  34.499  1.00  0.00     0.198 A 
ATOM    102  C   UNL A   1      47.088  22.639  34.645  1.00  0.00     0.198 A 
ATOM    103  F   UNL A   1      47.443  24.764  33.800  1.00  0.00    -0.203 F 
ATOM    104  F   UNL A   1      44.154  20.551  34.751  1.00  0.00    -0.200 F 
ATOM    105  C   UNL A   1      46.272  21.562  34.913  1.00  0.00     0.200 A 
ATOM    106  F   UNL A   1      48.383  22.606  34.990  1.00  0.00    -0.200 F 
ATOM    107  F   UNL A   1      46.760  20.488  35.547  1.00  0.00    -0.200 F 
ENDBRANCH  74  97
ENDBRANCH  48  49
ENDBRANCH  40  43
ENDBRANCH  38  39
ENDBRANCH  37  38
ENDBRANCH  36  37
ENDBRANCH   1  36
TORSDOF 16
ENDMDL
MODEL 2
REMARK VINA RESULT:     -14.2      3.855     10.365
REMARK SMILES Cc1ccc(-c2csc(NC(=O)[C@H]3[C@@H](C(=O)NCCCCNC(=O)c4ccc(-c5c6nc(c(-c7c(F)c(F)c(F)c(F)c7F)c7ccc([nH]7)c(-c7c(F)c(F)c(F)c(F)c7F)c7nc(c(-c8c(F)c(F)c(F)c(F)c8F)c8ccc5[nH]8)C=C7)C=C6)cc4)[C@H]4C=C[C@@H]3C4)c2C(=O)NC2CC2)cc1
REMARK SMILES IDX 18 1 17 2 15 3 16 4 14 6 13 7 91 8 88 9 90 10 92 11 89 12
REMARK SMILES IDX 11 13 10 14 12 16 9 17 6 18 7 19 93 20 8 21 5 22 1 23 2 24
REMARK SMILES IDX 3 25 101 26 4 27 100 28 94 29 95 30 96 31 97 33 98 34 99 35
REMARK SMILES IDX 19 36 20 37 21 38 22 39 23 40 24 42 25 43 26 44 87 45 27 46
REMARK SMILES IDX 86 47 28 48 29 49 30 50 80 51 31 52 85 53 79 54 81 55 32 56
REMARK SMILES IDX 84 57 78 58 77 59 33 61 65 62 45 63 64 64 46 65 49 66 63 67
REMARK SMILES IDX 82 68 47 69 48 70 62 72 83 73 50 74 34 75 35 76 43 77 36 78
REMARK SMILES IDX 37 79 41 80 44 81 38 82 39 83 42 84 40 85 66 86 67 87 75 88
REMARK SMILES IDX 68 89 69 90 73 91 76 92 70 93 71 94 74 95 72 96 51 97 52 98
REMARK SMILES IDX 60 99 53 100 54 101 58 102 61 103 55 104 56 105 59 106
REMARK SMILES IDX 57 107
REMARK H PARENT 17 5 10 15 96 32 22 41 81 60 49 71
REMARK Flexibility Score: inf
ROOT
ATOM      1  C   UNL A   1      36.456  20.151  24.733  1.00  0.00     0.116 C 
ENDROOT
BRANCH   1   2
ATOM      2  N   UNL A   1      35.479  20.460  25.760  1.00  0.00    -0.356 N 
ATOM      3  C   UNL A   1      34.323  21.187  25.717  1.00  0.00     0.224 C 
ATOM      4  O   UNL A   1      33.725  21.339  26.784  1.00  0.00    -0.275 OA
ATOM      5  H   UNL A   1      35.686  20.081  26.645  1.00  0.00     0.163 HD
BRANCH   3   6
ATOM      6  C   UNL A   1      33.765  21.643  24.370  1.00  0.00     0.098 C 
ATOM      7  C   UNL A   1      33.646  23.189  24.049  1.00  0.00     0.099 C 
ATOM      8  C   UNL A   1      32.115  23.337  23.816  1.00  0.00     0.025 C 
ATOM      9  C   UNL A   1      32.291  21.151  24.231  1.00  0.00     0.025 C 
ATOM     10  C   UNL A   1      31.357  23.073  25.087  1.00  0.00    -0.027 C 
ATOM     11  C   UNL A   1      31.807  22.025  23.077  1.00  0.00     0.017 C 
ATOM     12  C   UNL A   1      31.432  21.757  25.321  1.00  0.00    -0.027 C 
BRANCH   7  13
ATOM     13  C   UNL A   1      34.358  24.116  25.035  1.00  0.00     0.229 C 
ATOM     14  N   UNL A   1      33.939  25.393  25.275  1.00  0.00    -0.317 N 
ATOM     15  H   UNL A   1      34.162  25.740  26.169  1.00  0.00     0.170 HD
ATOM     16  O   UNL A   1      35.392  23.746  25.605  1.00  0.00    -0.274 OA
BRANCH  14  17
ATOM     17  C   UNL A   1      33.252  26.276  24.464  1.00  0.00     0.108 A 
ATOM     18  C   UNL A   1      31.727  27.828  23.636  1.00  0.00     0.007 A 
ATOM     19  C   UNL A   1      32.455  27.483  22.509  1.00  0.00     0.076 A 
ATOM     20  C   UNL A   1      32.244  27.173  24.833  1.00  0.00     0.082 A 
ATOM     21  S   UNL A   1      33.785  26.493  22.865  1.00  0.00    -0.125 S 
BRANCH  18  22
ATOM     22  C   UNL A   1      30.632  28.773  23.446  1.00  0.00    -0.017 A 
ATOM     23  C   UNL A   1      27.245  31.423  23.541  1.00  0.00     0.044 C 
ATOM     24  C   UNL A   1      28.468  30.568  23.383  1.00  0.00    -0.051 A 
ATOM     25  C   UNL A   1      29.625  30.891  24.094  1.00  0.00     0.004 A 
ATOM     26  C   UNL A   1      28.436  29.380  22.633  1.00  0.00     0.004 A 
ATOM     27  C   UNL A   1      30.706  30.015  24.101  1.00  0.00     0.009 A 
ATOM     28  C   UNL A   1      29.513  28.481  22.664  1.00  0.00     0.009 A 
ENDBRANCH  18  22
BRANCH  20  29
ATOM     29  C   UNL A   1      31.737  27.133  26.210  1.00  0.00     0.255 C 
ATOM     30  O   UNL A   1      30.941  26.243  26.533  1.00  0.00    -0.269 OA
ATOM     31  N   UNL A   1      32.138  27.931  27.254  1.00  0.00    -0.349 N 
ATOM     32  H   UNL A   1      31.660  27.688  28.079  1.00  0.00     0.164 HD
BRANCH  31  33
ATOM     33  C   UNL A   1      33.039  29.004  27.495  1.00  0.00     0.082 C 
ATOM     34  C   UNL A   1      33.788  29.854  26.533  1.00  0.00     0.027 C 
ATOM     35  C   UNL A   1      32.552  30.394  27.197  1.00  0.00     0.027 C 
ENDBRANCH  31  33
ENDBRANCH  20  29
ENDBRANCH  14  17
ENDBRANCH   7  13
ENDBRANCH   3   6
ENDBRANCH   1   2
BRANCH   1  36
ATOM     36  C   UNL A   1      37.877  20.571  25.132  1.00  0.00     0.023 C 
BRANCH  36  37
ATOM     37  C   UNL A   1      38.126  22.083  25.169  1.00  0.00     0.023 C 
BRANCH  37  38
ATOM     38  C   UNL A   1      38.769  22.603  26.451  1.00  0.00     0.116 C 
BRANCH  38  39
ATOM     39  N   UNL A   1      40.216  22.756  26.401  1.00  0.00    -0.352 N 
ATOM     40  C   UNL A   1      40.987  23.907  26.494  1.00  0.00     0.251 C 
ATOM     41  H   UNL A   1      40.724  21.921  26.285  1.00  0.00     0.163 HD
ATOM     42  O   UNL A   1      42.194  23.851  26.330  1.00  0.00    -0.269 OA
BRANCH  40  43
ATOM     43  C   UNL A   1      40.358  25.184  26.929  1.00  0.00     0.039 A 
ATOM     44  C   UNL A   1      40.654  26.344  26.200  1.00  0.00     0.014 A 
ATOM     45  C   UNL A   1      39.665  25.278  28.131  1.00  0.00     0.014 A 
ATOM     46  C   UNL A   1      40.492  27.592  26.801  1.00  0.00     0.010 A 
ATOM     47  C   UNL A   1      39.599  26.500  28.769  1.00  0.00     0.010 A 
ATOM     48  C   UNL A   1      40.079  27.647  28.131  1.00  0.00    -0.014 A 
BRANCH  48  49
ATOM     49  C   UNL A   1      40.271  28.816  28.981  1.00  0.00     0.031 A 
ATOM     50  C   UNL A   1      39.214  29.833  29.142  1.00  0.00     0.074 A 
ATOM     51  C   UNL A   1      41.394  28.903  29.731  1.00  0.00     0.049 A 
ATOM     52  N   UNL A   1      39.453  31.062  29.459  1.00  0.00    -0.248 NA
ATOM     53  C   UNL A   1      37.795  29.552  28.947  1.00  0.00     0.031 C 
ATOM     54  C   UNL A   1      41.636  29.805  30.853  1.00  0.00     0.029 A 
ATOM     55  N   UNL A   1      42.633  28.279  29.511  1.00  0.00    -0.354 N 
ATOM     56  C   UNL A   1      38.252  31.640  29.789  1.00  0.00     0.074 A 
ATOM     57  C   UNL A   1      37.241  30.688  29.383  1.00  0.00     0.031 C 
ATOM     58  C   UNL A   1      42.960  29.917  31.041  1.00  0.00     0.029 A 
ATOM     59  C   UNL A   1      43.608  29.200  29.959  1.00  0.00     0.049 A 
ATOM     60  H   UNL A   1      42.792  27.387  29.126  1.00  0.00     0.167 HD
ATOM     61  C   UNL A   1      38.230  32.798  30.508  1.00  0.00     0.037 A 
ATOM     62  C   UNL A   1      44.534  29.736  29.113  1.00  0.00     0.037 A 
ATOM     63  C   UNL A   1      39.570  33.266  30.830  1.00  0.00     0.049 A 
ATOM     64  C   UNL A   1      44.497  31.242  29.033  1.00  0.00     0.074 A 
ATOM     65  C   UNL A   1      40.356  33.132  31.962  1.00  0.00     0.029 A 
ATOM     66  N   UNL A   1      40.417  33.691  29.813  1.00  0.00    -0.354 N 
ATOM     67  N   UNL A   1      43.471  31.960  29.394  1.00  0.00    -0.248 NA
ATOM     68  C   UNL A   1      45.592  32.057  28.514  1.00  0.00     0.031 C 
ATOM     69  C   UNL A   1      41.688  33.460  31.620  1.00  0.00     0.029 A 
ATOM     70  C   UNL A   1      41.712  33.803  30.281  1.00  0.00     0.049 A 
ATOM     71  H   UNL A   1      40.134  33.887  28.890  1.00  0.00     0.167 HD
ATOM     72  C   UNL A   1      43.729  33.286  29.154  1.00  0.00     0.074 A 
ATOM     73  C   UNL A   1      45.077  33.295  28.621  1.00  0.00     0.031 C 
ATOM     74  C   UNL A   1      42.795  34.248  29.417  1.00  0.00     0.037 A 
BRANCH  61  75
ATOM     75  C   UNL A   1      36.973  33.309  31.159  1.00  0.00     0.064 A 
ATOM     76  C   UNL A   1      36.719  33.112  32.532  1.00  0.00     0.173 A 
ATOM     77  C   UNL A   1      35.957  33.972  30.447  1.00  0.00     0.173 A 
ATOM     78  F   UNL A   1      37.627  32.556  33.342  1.00  0.00    -0.203 F 
ATOM     79  C   UNL A   1      35.503  33.460  33.123  1.00  0.00     0.198 A 
ATOM     80  C   UNL A   1      34.722  34.279  31.028  1.00  0.00     0.198 A 
ATOM     81  F   UNL A   1      36.145  34.345  29.172  1.00  0.00    -0.203 F 
ATOM     82  F   UNL A   1      35.312  33.235  34.431  1.00  0.00    -0.200 F 
ATOM     83  C   UNL A   1      34.492  34.013  32.365  1.00  0.00     0.200 A 
ATOM     84  F   UNL A   1      33.750  34.820  30.280  1.00  0.00    -0.200 F 
ATOM     85  F   UNL A   1      33.306  34.297  32.921  1.00  0.00    -0.200 F 
ENDBRANCH  61  75
BRANCH  62  86
ATOM     86  C   UNL A   1      44.895  28.825  27.998  1.00  0.00     0.064 A 
ATOM     87  C   UNL A   1      45.718  27.720  28.286  1.00  0.00     0.173 A 
ATOM     88  C   UNL A   1      44.147  28.788  26.815  1.00  0.00     0.173 A 
ATOM     89  F   UNL A   1      46.451  27.707  29.411  1.00  0.00    -0.203 F 
ATOM     90  C   UNL A   1      45.697  26.576  27.493  1.00  0.00     0.198 A 
ATOM     91  C   UNL A   1      44.140  27.643  26.015  1.00  0.00     0.198 A 
ATOM     92  F   UNL A   1      43.332  29.802  26.496  1.00  0.00    -0.203 F 
ATOM     93  F   UNL A   1      46.399  25.494  27.862  1.00  0.00    -0.200 F 
ATOM     94  C   UNL A   1      44.884  26.528  26.373  1.00  0.00     0.200 A 
ATOM     95  F   UNL A   1      43.332  27.584  24.946  1.00  0.00    -0.200 F 
ATOM     96  F   UNL A   1      44.785  25.394  25.665  1.00  0.00    -0.200 F 
ENDBRANCH  62  86
BRANCH  74  97
ATOM     97  C   UNL A   1      42.836  35.704  29.007  1.00  0.00     0.064 A 
ATOM     98  C   UNL A   1      42.146  36.236  27.906  1.00  0.00     0.173 A 
ATOM     99  C   UNL A   1      43.485  36.660  29.831  1.00  0.00     0.173 A 
ATOM    100  F   UNL A   1      41.394  35.465  27.112  1.00  0.00    -0.203 F 
ATOM    101  C   UNL A   1      42.154  37.606  27.617  1.00  0.00     0.198 A 
ATOM    102  C   UNL A   1      43.439  38.030  29.575  1.00  0.00     0.198 A 
ATOM    103  F   UNL A   1      44.162  36.301  30.931  1.00  0.00    -0.203 F 
ATOM    104  F   UNL A   1      41.513  38.056  26.530  1.00  0.00    -0.200 F 
ATOM    105  C   UNL A   1      42.787  38.503  28.457  1.00  0.00     0.200 A 
ATOM    106  F   UNL A   1      44.014  38.887  30.431  1.00  0.00    -0.200 F 
ATOM    107  F   UNL A   1      42.750  39.817  28.203  1.00  0.00    -0.200 F 
ENDBRANCH  74  97
ENDBRANCH  48  49
ENDBRANCH  40  43
ENDBRANCH  38  39
ENDBRANCH  37  38
ENDBRANCH  36  37
ENDBRANCH   1  36
TORSDOF 16
ENDMDL
MODEL 3
REMARK VINA RESULT:     -14.2      2.154      3.517
REMARK SMILES Cc1ccc(-c2csc(NC(=O)[C@H]3[C@@H](C(=O)NCCCCNC(=O)c4ccc(-c5c6nc(c(-c7c(F)c(F)c(F)c(F)c7F)c7ccc([nH]7)c(-c7c(F)c(F)c(F)c(F)c7F)c7nc(c(-c8c(F)c(F)c(F)c(F)c8F)c8ccc5[nH]8)C=C7)C=C6)cc4)[C@H]4C=C[C@@H]3C4)c2C(=O)NC2CC2)cc1
REMARK SMILES IDX 18 1 17 2 15 3 16 4 14 6 13 7 91 8 88 9 90 10 92 11 89 12
REMARK SMILES IDX 11 13 10 14 12 16 9 17 6 18 7 19 93 20 8 21 5 22 1 23 2 24
REMARK SMILES IDX 3 25 101 26 4 27 100 28 94 29 95 30 96 31 97 33 98 34 99 35
REMARK SMILES IDX 19 36 20 37 21 38 22 39 23 40 24 42 25 43 26 44 87 45 27 46
REMARK SMILES IDX 86 47 28 48 29 49 30 50 80 51 31 52 85 53 79 54 81 55 32 56
REMARK SMILES IDX 84 57 78 58 77 59 33 61 65 62 45 63 64 64 46 65 49 66 63 67
REMARK SMILES IDX 82 68 47 69 48 70 62 72 83 73 50 74 34 75 35 76 43 77 36 78
REMARK SMILES IDX 37 79 41 80 44 81 38 82 39 83 42 84 40 85 66 86 67 87 75 88
REMARK SMILES IDX 68 89 69 90 73 91 76 92 70 93 71 94 74 95 72 96 51 97 52 98
REMARK SMILES IDX 60 99 53 100 54 101 58 102 61 103 55 104 56 105 59 106
REMARK SMILES IDX 57 107
REMARK H PARENT 17 5 10 15 96 32 22 41 81 60 49 71
REMARK Flexibility Score: inf
ROOT
ATOM      1  C   UNL A   1      31.559  30.456  26.158  1.00  0.00     0.116 C 
ENDROOT
BRANCH   1   2
ATOM      2  N   UNL A   1      32.071  30.145  24.836  1.00  0.00    -0.356 N 
ATOM      3  C   UNL A   1      31.973  29.016  24.073  1.00  0.00     0.224 C 
ATOM      4  O   UNL A   1      32.581  29.018  23.001  1.00  0.00    -0.275 OA
ATOM      5  H   UNL A   1      32.580  30.875  24.416  1.00  0.00     0.163 HD
BRANCH   3   6
ATOM      6  C   UNL A   1      31.031  27.892  24.501  1.00  0.00     0.098 C 
ATOM      7  C   UNL A   1      31.626  26.506  24.986  1.00  0.00     0.099 C 
ATOM      8  C   UNL A   1      31.010  25.527  23.946  1.00  0.00     0.025 C 
ATOM      9  C   UNL A   1      30.142  27.476  23.288  1.00  0.00     0.025 C 
ATOM     10  C   UNL A   1      31.553  25.803  22.571  1.00  0.00    -0.027 C 
ATOM     11  C   UNL A   1      29.607  26.132  23.774  1.00  0.00     0.017 C 
ATOM     12  C   UNL A   1      31.008  26.955  22.160  1.00  0.00    -0.027 C 
BRANCH   7  13
ATOM     13  C   UNL A   1      33.134  26.498  25.239  1.00  0.00     0.229 C 
ATOM     14  N   UNL A   1      33.889  25.365  25.136  1.00  0.00    -0.317 N 
ATOM     15  H   UNL A   1      34.832  25.517  24.900  1.00  0.00     0.170 HD
ATOM     16  O   UNL A   1      33.710  27.527  25.614  1.00  0.00    -0.274 OA
BRANCH  14  17
ATOM     17  C   UNL A   1      33.540  24.039  25.311  1.00  0.00     0.108 A 
ATOM     18  C   UNL A   1      33.280  21.741  25.042  1.00  0.00     0.007 A 
ATOM     19  C   UNL A   1      32.461  22.017  26.125  1.00  0.00     0.076 A 
ATOM     20  C   UNL A   1      33.996  22.930  24.591  1.00  0.00     0.082 A 
ATOM     21  S   UNL A   1      32.611  23.615  26.670  1.00  0.00    -0.125 S 
BRANCH  18  22
ATOM     22  C   UNL A   1      33.309  20.359  24.576  1.00  0.00    -0.017 A 
ATOM     23  C   UNL A   1      33.951  16.474  22.846  1.00  0.00     0.044 C 
ATOM     24  C   UNL A   1      33.635  17.763  23.547  1.00  0.00    -0.051 A 
ATOM     25  C   UNL A   1      34.516  18.247  24.516  1.00  0.00     0.004 A 
ATOM     26  C   UNL A   1      32.541  18.553  23.161  1.00  0.00     0.004 A 
ATOM     27  C   UNL A   1      34.336  19.522  25.044  1.00  0.00     0.009 A 
ATOM     28  C   UNL A   1      32.375  19.850  23.671  1.00  0.00     0.009 A 
ENDBRANCH  18  22
BRANCH  20  29
ATOM     29  C   UNL A   1      34.863  23.155  23.428  1.00  0.00     0.255 C 
ATOM     30  O   UNL A   1      34.369  23.603  22.386  1.00  0.00    -0.269 OA
ATOM     31  N   UNL A   1      36.230  23.025  23.388  1.00  0.00    -0.349 N 
ATOM     32  H   UNL A   1      36.574  23.256  22.495  1.00  0.00     0.164 HD
BRANCH  31  33
ATOM     33  C   UNL A   1      37.296  22.657  24.254  1.00  0.00     0.082 C 
ATOM     34  C   UNL A   1      37.268  22.275  25.690  1.00  0.00     0.027 C 
ATOM     35  C   UNL A   1      37.402  21.208  24.640  1.00  0.00     0.027 C 
ENDBRANCH  31  33
ENDBRANCH  20  29
ENDBRANCH  14  17
ENDBRANCH   7  13
ENDBRANCH   3   6
ENDBRANCH   1   2
BRANCH   1  36
ATOM     36  C   UNL A   1      32.574  30.147  27.266  1.00  0.00     0.023 C 
BRANCH  36  37
ATOM     37  C   UNL A   1      34.038  30.442  26.914  1.00  0.00     0.023 C 
BRANCH  37  38
ATOM     38  C   UNL A   1      34.801  31.259  27.952  1.00  0.00     0.116 C 
BRANCH  38  39
ATOM     39  N   UNL A   1      34.086  32.413  28.481  1.00  0.00    -0.352 N 
ATOM     40  C   UNL A   1      34.445  33.283  29.501  1.00  0.00     0.251 C 
ATOM     41  H   UNL A   1      33.220  32.604  28.052  1.00  0.00     0.163 HD
ATOM     42  O   UNL A   1      33.665  34.143  29.875  1.00  0.00    -0.269 OA
BRANCH  40  43
ATOM     43  C   UNL A   1      35.830  33.257  30.041  1.00  0.00     0.039 A 
ATOM     44  C   UNL A   1      36.850  33.822  29.263  1.00  0.00     0.014 A 
ATOM     45  C   UNL A   1      36.151  32.523  31.178  1.00  0.00     0.014 A 
ATOM     46  C   UNL A   1      38.172  33.430  29.475  1.00  0.00     0.010 A 
ATOM     47  C   UNL A   1      37.441  32.053  31.327  1.00  0.00     0.010 A 
ATOM     48  C   UNL A   1      38.436  32.451  30.431  1.00  0.00    -0.014 A 
BRANCH  48  49
ATOM     49  C   UNL A   1      39.667  31.671  30.459  1.00  0.00     0.031 A 
ATOM     50  C   UNL A   1      39.760  30.353  29.801  1.00  0.00     0.074 A 
ATOM     51  C   UNL A   1      40.781  32.224  30.992  1.00  0.00     0.049 A 
ATOM     52  N   UNL A   1      40.593  29.435  30.162  1.00  0.00    -0.248 NA
ATOM     53  C   UNL A   1      38.909  29.954  28.684  1.00  0.00     0.031 C 
ATOM     54  C   UNL A   1      42.156  31.755  30.844  1.00  0.00     0.029 A 
ATOM     55  N   UNL A   1      40.866  33.262  31.936  1.00  0.00    -0.354 N 
ATOM     56  C   UNL A   1      40.597  28.476  29.180  1.00  0.00     0.074 A 
ATOM     57  C   UNL A   1      39.481  28.801  28.319  1.00  0.00     0.031 C 
ATOM     58  C   UNL A   1      42.896  32.262  31.842  1.00  0.00     0.029 A 
ATOM     59  C   UNL A   1      41.991  32.957  32.737  1.00  0.00     0.049 A 
ATOM     60  H   UNL A   1      40.269  34.040  32.022  1.00  0.00     0.167 HD
ATOM     61  C   UNL A   1      41.628  27.589  29.101  1.00  0.00     0.037 A 
ATOM     62  C   UNL A   1      41.877  32.714  34.074  1.00  0.00     0.037 A 
ATOM     63  C   UNL A   1      42.624  27.815  30.139  1.00  0.00     0.049 A 
ATOM     64  C   UNL A   1      42.376  31.355  34.498  1.00  0.00     0.074 A 
ATOM     65  C   UNL A   1      43.831  28.494  30.140  1.00  0.00     0.029 A 
ATOM     66  N   UNL A   1      42.293  27.601  31.472  1.00  0.00    -0.354 N 
ATOM     67  N   UNL A   1      42.530  30.354  33.679  1.00  0.00    -0.248 NA
ATOM     68  C   UNL A   1      42.708  31.003  35.876  1.00  0.00     0.031 C 
ATOM     69  C   UNL A   1      44.219  28.708  31.482  1.00  0.00     0.029 A 
ATOM     70  C   UNL A   1      43.253  28.151  32.300  1.00  0.00     0.049 A 
ATOM     71  H   UNL A   1      41.489  27.125  31.783  1.00  0.00     0.167 HD
ATOM     72  C   UNL A   1      42.948  29.248  34.375  1.00  0.00     0.074 A 
ATOM     73  C   UNL A   1      43.062  29.712  35.743  1.00  0.00     0.031 C 
ATOM     74  C   UNL A   1      43.154  28.051  33.747  1.00  0.00     0.037 A 
BRANCH  61  75
ATOM     75  C   UNL A   1      41.850  26.728  27.886  1.00  0.00     0.064 A 
ATOM     76  C   UNL A   1      41.165  25.509  27.709  1.00  0.00     0.173 A 
ATOM     77  C   UNL A   1      42.774  27.052  26.877  1.00  0.00     0.173 A 
ATOM     78  F   UNL A   1      40.209  25.110  28.557  1.00  0.00    -0.203 F 
ATOM     79  C   UNL A   1      41.455  24.635  26.659  1.00  0.00     0.198 A 
ATOM     80  C   UNL A   1      43.098  26.157  25.852  1.00  0.00     0.198 A 
ATOM     81  F   UNL A   1      43.378  28.249  26.859  1.00  0.00    -0.203 F 
ATOM     82  F   UNL A   1      40.780  23.481  26.549  1.00  0.00    -0.200 F 
ATOM     83  C   UNL A   1      42.445  24.943  25.749  1.00  0.00     0.200 A 
ATOM     84  F   UNL A   1      44.059  26.472  24.971  1.00  0.00    -0.200 F 
ATOM     85  F   UNL A   1      42.759  24.081  24.773  1.00  0.00    -0.200 F 
ENDBRANCH  61  75
BRANCH  62  86
ATOM     86  C   UNL A   1      40.751  33.450  34.703  1.00  0.00     0.064 A 
ATOM     87  C   UNL A   1      39.539  32.762  34.899  1.00  0.00     0.173 A 
ATOM     88  C   UNL A   1      40.968  34.613  35.451  1.00  0.00     0.173 A 
ATOM     89  F   UNL A   1      39.287  31.639  34.208  1.00  0.00    -0.203 F 
ATOM     90  C   UNL A   1      38.640  33.149  35.890  1.00  0.00     0.198 A 
ATOM     91  C   UNL A   1      40.056  35.004  36.435  1.00  0.00     0.198 A 
ATOM     92  F   UNL A   1      42.110  35.300  35.322  1.00  0.00    -0.203 F 
ATOM     93  F   UNL A   1      37.553  32.401  36.134  1.00  0.00    -0.200 F 
ATOM     94  C   UNL A   1      38.914  34.254  36.678  1.00  0.00     0.200 A 
ATOM     95  F   UNL A   1      40.334  36.058  37.218  1.00  0.00    -0.200 F 
ATOM     96  F   UNL A   1      38.102  34.569  37.696  1.00  0.00    -0.200 F 
ENDBRANCH  62  86
BRANCH  74  97
ATOM     97  C   UNL A   1      43.392  26.705  34.394  1.00  0.00     0.064 A 
ATOM     98  C   UNL A   1      42.374  25.869  34.882  1.00  0.00     0.173 A 
ATOM     99  C   UNL A   1      44.695  26.140  34.410  1.00  0.00     0.173 A 
ATOM    100  F   UNL A   1      41.086  26.225  34.818  1.00  0.00    -0.203 F 
ATOM    101  C   UNL A   1      42.644  24.596  35.399  1.00  0.00     0.198 A 
ATOM    102  C   UNL A   1      44.950  24.849  34.870  1.00  0.00     0.198 A 
ATOM    103  F   UNL A   1      45.761  26.812  33.954  1.00  0.00    -0.203 F 
ATOM    104  F   UNL A   1      41.640  23.856  35.889  1.00  0.00    -0.200 F 
ATOM    105  C   UNL A   1      43.927  24.082  35.380  1.00  0.00     0.200 A 
ATOM    106  F   UNL A   1      46.192  24.349  34.793  1.00  0.00    -0.200 F 
ATOM    107  F   UNL A   1      44.170  22.844  35.831  1.00  0.00    -0.200 F 
ENDBRANCH  74  97
ENDBRANCH  48  49
ENDBRANCH  40  43
ENDBRANCH  38  39
ENDBRANCH  37  38
ENDBRANCH  36  37
ENDBRANCH   1  36
TORSDOF 16
ENDMDL
