MODEL 1
REMARK VINA RESULT:     -12.8      0.000      0.000
REMARK SMILES C[C@@H](C(=O)NCCCCNC(=O)c1ccc(-c2c3nc(c(-c4c(F)c(F)c(F)c(F)c4F)c4ccc([nH]4)c(-c4c(F)c(F)c(F)c(F)c4F)c4nc(c(-c5c(F)c(F)c(F)c(F)c5F)c5ccc2[nH]5)C=C4)C=C3)cc1)N1C(=O)/C(=C/c2ccc(N(C)C)cc2)SC1=S
REMARK SMILES IDX 7 1 6 2 5 3 3 4 4 5 2 7 1 8 76 9 77 10 91 11 78 12 79 13
REMARK SMILES IDX 90 14 92 15 80 16 81 17 82 18 89 19 83 20 88 21 84 22 85 23
REMARK SMILES IDX 86 24 87 25 8 26 9 27 10 28 11 29 12 31 13 32 14 33 75 34
REMARK SMILES IDX 15 35 74 36 16 37 17 38 18 39 68 40 19 41 73 42 67 43 69 44
REMARK SMILES IDX 20 45 72 46 66 47 65 48 21 50 53 51 33 52 52 53 34 54 37 55
REMARK SMILES IDX 51 56 70 57 35 58 36 59 50 61 71 62 38 63 22 64 23 65 31 66
REMARK SMILES IDX 24 67 25 68 29 69 32 70 26 71 27 72 30 73 28 74 54 75 55 76
REMARK SMILES IDX 63 77 56 78 57 79 61 80 64 81 58 82 59 83 62 84 60 85 39 86
REMARK SMILES IDX 40 87 48 88 41 89 42 90 46 91 49 92 43 93 44 94 47 95 45 96
REMARK H PARENT 5 6 10 30 69 49 37 60
REMARK Flexibility Score: inf
ROOT
ATOM      1  C   UNL A   1      37.183  21.074  24.606  1.00  0.00     0.023 C 
ENDROOT
BRANCH   1   2
ATOM      2  C   UNL A   1      36.084  21.401  25.617  1.00  0.00     0.116 C 
BRANCH   2   3
ATOM      3  N   UNL A   1      34.773  21.244  25.024  1.00  0.00    -0.354 N 
ATOM      4  C   UNL A   1      33.592  21.847  25.343  1.00  0.00     0.242 C 
ATOM      5  O   UNL A   1      32.596  21.504  24.700  1.00  0.00    -0.273 OA
ATOM      6  H   UNL A   1      34.727  20.604  24.276  1.00  0.00     0.163 HD
BRANCH   4   7
ATOM      7  C   UNL A   1      33.538  22.944  26.430  1.00  0.00     0.178 C 
ATOM      8  C   UNL A   1      33.237  22.451  27.844  1.00  0.00     0.042 C 
BRANCH   7   9
ATOM      9  N   UNL A   1      32.626  24.005  25.951  1.00  0.00    -0.281 N 
ATOM     10  C   UNL A   1      33.174  24.979  25.127  1.00  0.00     0.266 C 
ATOM     11  C   UNL A   1      31.252  24.046  26.104  1.00  0.00     0.149 C 
ATOM     12  O   UNL A   1      34.346  25.051  24.780  1.00  0.00    -0.268 OA
ATOM     13  C   UNL A   1      32.142  25.966  24.727  1.00  0.00     0.081 C 
ATOM     14  S   UNL A   1      30.614  25.505  25.355  1.00  0.00    -0.054 SA
ATOM     15  S   UNL A   1      30.224  22.978  26.871  1.00  0.00    -0.052 S 
ATOM     16  C   UNL A   1      32.434  27.059  24.009  1.00  0.00     0.029 C 
BRANCH  16  17
ATOM     17  C   UNL A   1      31.472  28.123  23.714  1.00  0.00    -0.024 A 
ATOM     18  C   UNL A   1      30.625  28.054  22.614  1.00  0.00     0.010 A 
ATOM     19  C   UNL A   1      31.379  29.226  24.559  1.00  0.00     0.010 A 
ATOM     20  C   UNL A   1      29.676  29.066  22.385  1.00  0.00     0.026 A 
ATOM     21  C   UNL A   1      30.430  30.226  24.319  1.00  0.00     0.026 A 
ATOM     22  C   UNL A   1      29.539  30.181  23.232  1.00  0.00     0.036 A 
BRANCH  22  23
ATOM     23  N   UNL A   1      28.607  31.188  23.018  1.00  0.00    -0.378 N 
ATOM     24  C   UNL A   1      28.741  32.208  21.987  1.00  0.00     0.143 C 
ATOM     25  C   UNL A   1      27.304  31.134  23.681  1.00  0.00     0.143 C 
ENDBRANCH  22  23
ENDBRANCH  16  17
ENDBRANCH   7   9
ENDBRANCH   4   7
ENDBRANCH   2   3
ENDBRANCH   1   2
BRANCH   1  26
ATOM     26  C   UNL A   1      38.071  19.889  25.001  1.00  0.00     0.023 C 
BRANCH  26  27
ATOM     27  C   UNL A   1      39.256  20.238  25.896  1.00  0.00     0.116 C 
BRANCH  27  28
ATOM     28  N   UNL A   1      40.253  19.182  25.956  1.00  0.00    -0.352 N 
ATOM     29  C   UNL A   1      41.610  19.286  26.139  1.00  0.00     0.251 C 
ATOM     30  H   UNL A   1      39.909  18.266  25.850  1.00  0.00     0.163 HD
ATOM     31  O   UNL A   1      42.324  18.293  26.038  1.00  0.00    -0.269 OA
BRANCH  29  32
ATOM     32  C   UNL A   1      42.215  20.604  26.424  1.00  0.00     0.039 A 
ATOM     33  C   UNL A   1      42.675  21.376  25.355  1.00  0.00     0.014 A 
ATOM     34  C   UNL A   1      42.315  21.083  27.733  1.00  0.00     0.014 A 
ATOM     35  C   UNL A   1      43.175  22.659  25.592  1.00  0.00     0.010 A 
ATOM     36  C   UNL A   1      42.749  22.386  27.961  1.00  0.00     0.010 A 
ATOM     37  C   UNL A   1      43.182  23.187  26.893  1.00  0.00    -0.014 A 
BRANCH  37  38
ATOM     38  C   UNL A   1      43.630  24.577  27.155  1.00  0.00     0.031 A 
ATOM     39  C   UNL A   1      42.655  25.606  27.653  1.00  0.00     0.074 A 
ATOM     40  C   UNL A   1      44.902  24.930  26.880  1.00  0.00     0.049 A 
ATOM     41  N   UNL A   1      42.839  26.883  27.875  1.00  0.00    -0.248 NA
ATOM     42  C   UNL A   1      41.283  25.143  27.914  1.00  0.00     0.031 C 
ATOM     43  C   UNL A   1      45.929  24.036  26.345  1.00  0.00     0.029 A 
ATOM     44  N   UNL A   1      45.542  26.139  26.999  1.00  0.00    -0.354 N 
ATOM     45  C   UNL A   1      41.607  27.376  28.284  1.00  0.00     0.074 A 
ATOM     46  C   UNL A   1      40.671  26.274  28.231  1.00  0.00     0.031 C 
ATOM     47  C   UNL A   1      47.076  24.720  26.202  1.00  0.00     0.029 A 
ATOM     48  C   UNL A   1      46.855  26.108  26.597  1.00  0.00     0.049 A 
ATOM     49  H   UNL A   1      45.101  26.950  27.339  1.00  0.00     0.167 HD
ATOM     50  C   UNL A   1      41.291  28.630  28.690  1.00  0.00     0.037 A 
ATOM     51  C   UNL A   1      47.775  27.090  26.548  1.00  0.00     0.037 A 
ATOM     52  C   UNL A   1      42.230  29.717  28.765  1.00  0.00     0.049 A 
ATOM     53  C   UNL A   1      47.397  28.474  27.001  1.00  0.00     0.074 A 
ATOM     54  C   UNL A   1      42.022  31.008  29.221  1.00  0.00     0.029 A 
ATOM     55  N   UNL A   1      43.558  29.643  28.369  1.00  0.00    -0.354 N 
ATOM     56  N   UNL A   1      46.247  28.912  27.454  1.00  0.00    -0.248 NA
ATOM     57  C   UNL A   1      48.448  29.499  26.941  1.00  0.00     0.031 C 
ATOM     58  C   UNL A   1      43.211  31.727  29.058  1.00  0.00     0.029 A 
ATOM     59  C   UNL A   1      44.175  30.871  28.550  1.00  0.00     0.049 A 
ATOM     60  H   UNL A   1      43.996  28.838  28.012  1.00  0.00     0.167 HD
ATOM     61  C   UNL A   1      46.442  30.251  27.761  1.00  0.00     0.074 A 
ATOM     62  C   UNL A   1      47.826  30.551  27.455  1.00  0.00     0.031 C 
ATOM     63  C   UNL A   1      45.556  31.152  28.250  1.00  0.00     0.037 A 
BRANCH  50  64
ATOM     64  C   UNL A   1      39.867  28.892  29.090  1.00  0.00     0.064 A 
ATOM     65  C   UNL A   1      38.912  29.334  28.161  1.00  0.00     0.173 A 
ATOM     66  C   UNL A   1      39.443  28.663  30.407  1.00  0.00     0.173 A 
ATOM     67  F   UNL A   1      39.268  29.579  26.890  1.00  0.00    -0.203 F 
ATOM     68  C   UNL A   1      37.594  29.566  28.544  1.00  0.00     0.198 A 
ATOM     69  C   UNL A   1      38.117  28.867  30.779  1.00  0.00     0.198 A 
ATOM     70  F   UNL A   1      40.314  28.235  31.333  1.00  0.00    -0.203 F 
ATOM     71  F   UNL A   1      36.712  30.036  27.651  1.00  0.00    -0.200 F 
ATOM     72  C   UNL A   1      37.195  29.325  29.850  1.00  0.00     0.200 A 
ATOM     73  F   UNL A   1      37.730  28.621  32.039  1.00  0.00    -0.200 F 
ATOM     74  F   UNL A   1      35.925  29.542  30.215  1.00  0.00    -0.200 F 
ENDBRANCH  50  64
BRANCH  51  75
ATOM     75  C   UNL A   1      49.152  26.794  26.073  1.00  0.00     0.064 A 
ATOM     76  C   UNL A   1      49.510  26.999  24.734  1.00  0.00     0.173 A 
ATOM     77  C   UNL A   1      50.134  26.297  26.942  1.00  0.00     0.173 A 
ATOM     78  F   UNL A   1      48.600  27.454  23.860  1.00  0.00    -0.203 F 
ATOM     79  C   UNL A   1      50.792  26.699  24.276  1.00  0.00     0.198 A 
ATOM     80  C   UNL A   1      51.423  26.023  26.491  1.00  0.00     0.198 A 
ATOM     81  F   UNL A   1      49.843  26.087  28.235  1.00  0.00    -0.203 F 
ATOM     82  F   UNL A   1      51.093  26.860  22.981  1.00  0.00    -0.200 F 
ATOM     83  C   UNL A   1      51.749  26.216  25.156  1.00  0.00     0.200 A 
ATOM     84  F   UNL A   1      52.349  25.571  27.348  1.00  0.00    -0.200 F 
ATOM     85  F   UNL A   1      52.981  25.930  24.718  1.00  0.00    -0.200 F 
ENDBRANCH  51  75
BRANCH  63  86
ATOM     86  C   UNL A   1      46.062  32.538  28.523  1.00  0.00     0.064 A 
ATOM     87  C   UNL A   1      46.637  32.885  29.755  1.00  0.00     0.173 A 
ATOM     88  C   UNL A   1      46.008  33.523  27.524  1.00  0.00     0.173 A 
ATOM     89  F   UNL A   1      46.700  31.983  30.747  1.00  0.00    -0.203 F 
ATOM     90  C   UNL A   1      47.115  34.171  29.985  1.00  0.00     0.198 A 
ATOM     91  C   UNL A   1      46.514  34.799  27.748  1.00  0.00     0.198 A 
ATOM     92  F   UNL A   1      45.473  33.241  26.326  1.00  0.00    -0.203 F 
ATOM     93  F   UNL A   1      47.616  34.493  31.186  1.00  0.00    -0.200 F 
ATOM     94  C   UNL A   1      47.060  35.126  28.980  1.00  0.00     0.200 A 
ATOM     95  F   UNL A   1      46.472  35.716  26.770  1.00  0.00    -0.200 F 
ATOM     96  F   UNL A   1      47.528  36.362  29.201  1.00  0.00    -0.200 F 
ENDBRANCH  63  86
ENDBRANCH  37  38
ENDBRANCH  29  32
ENDBRANCH  27  28
ENDBRANCH  26  27
ENDBRANCH   1  26
TORSDOF 14
ENDMDL
MODEL 2
REMARK VINA RESULT:     -12.6      0.523      7.224
REMARK SMILES C[C@@H](C(=O)NCCCCNC(=O)c1ccc(-c2c3nc(c(-c4c(F)c(F)c(F)c(F)c4F)c4ccc([nH]4)c(-c4c(F)c(F)c(F)c(F)c4F)c4nc(c(-c5c(F)c(F)c(F)c(F)c5F)c5ccc2[nH]5)C=C4)C=C3)cc1)N1C(=O)/C(=C/c2ccc(N(C)C)cc2)SC1=S
REMARK SMILES IDX 7 1 6 2 5 3 3 4 4 5 2 7 1 8 76 9 77 10 91 11 78 12 79 13
REMARK SMILES IDX 90 14 92 15 80 16 81 17 82 18 89 19 83 20 88 21 84 22 85 23
REMARK SMILES IDX 86 24 87 25 8 26 9 27 10 28 11 29 12 31 13 32 14 33 75 34
REMARK SMILES IDX 15 35 74 36 16 37 17 38 18 39 68 40 19 41 73 42 67 43 69 44
REMARK SMILES IDX 20 45 72 46 66 47 65 48 21 50 53 51 33 52 52 53 34 54 37 55
REMARK SMILES IDX 51 56 70 57 35 58 36 59 50 61 71 62 38 63 22 64 23 65 31 66
REMARK SMILES IDX 24 67 25 68 29 69 32 70 26 71 27 72 30 73 28 74 54 75 55 76
REMARK SMILES IDX 63 77 56 78 57 79 61 80 64 81 58 82 59 83 62 84 60 85 39 86
REMARK SMILES IDX 40 87 48 88 41 89 42 90 46 91 49 92 43 93 44 94 47 95 45 96
REMARK H PARENT 5 6 10 30 69 49 37 60
REMARK Flexibility Score: inf
ROOT
ATOM      1  C   UNL A   1      37.262  21.118  24.610  1.00  0.00     0.023 C 
ENDROOT
BRANCH   1   2
ATOM      2  C   UNL A   1      36.159  21.423  25.624  1.00  0.00     0.116 C 
BRANCH   2   3
ATOM      3  N   UNL A   1      34.850  21.244  25.033  1.00  0.00    -0.354 N 
ATOM      4  C   UNL A   1      33.655  21.808  25.369  1.00  0.00     0.242 C 
ATOM      5  O   UNL A   1      32.665  21.452  24.723  1.00  0.00    -0.273 OA
ATOM      6  H   UNL A   1      34.817  20.620  24.271  1.00  0.00     0.163 HD
BRANCH   4   7
ATOM      7  C   UNL A   1      33.576  22.879  26.480  1.00  0.00     0.178 C 
ATOM      8  C   UNL A   1      33.275  22.349  27.881  1.00  0.00     0.042 C 
BRANCH   7   9
ATOM      9  N   UNL A   1      32.650  23.935  26.020  1.00  0.00    -0.281 N 
ATOM     10  C   UNL A   1      33.191  24.946  25.237  1.00  0.00     0.266 C 
ATOM     11  C   UNL A   1      31.273  23.944  26.150  1.00  0.00     0.149 C 
ATOM     12  O   UNL A   1      34.367  25.054  24.912  1.00  0.00    -0.268 OA
ATOM     13  C   UNL A   1      32.145  25.925  24.851  1.00  0.00     0.081 C 
ATOM     14  S   UNL A   1      30.616  25.412  25.437  1.00  0.00    -0.054 SA
ATOM     15  S   UNL A   1      30.255  22.831  26.866  1.00  0.00    -0.052 S 
ATOM     16  C   UNL A   1      32.425  27.046  24.173  1.00  0.00     0.029 C 
BRANCH  16  17
ATOM     17  C   UNL A   1      31.446  28.098  23.895  1.00  0.00    -0.024 A 
ATOM     18  C   UNL A   1      31.337  29.223  24.705  1.00  0.00     0.010 A 
ATOM     19  C   UNL A   1      30.612  27.993  22.785  1.00  0.00     0.010 A 
ATOM     20  C   UNL A   1      30.423  30.242  24.384  1.00  0.00     0.026 A 
ATOM     21  C   UNL A   1      29.706  29.014  22.477  1.00  0.00     0.026 A 
ATOM     22  C   UNL A   1      29.583  30.179  23.257  1.00  0.00     0.036 A 
BRANCH  22  23
ATOM     23  N   UNL A   1      28.675  31.177  22.927  1.00  0.00    -0.378 N 
ATOM     24  C   UNL A   1      28.777  31.997  21.728  1.00  0.00     0.143 C 
ATOM     25  C   UNL A   1      27.418  31.297  23.665  1.00  0.00     0.143 C 
ENDBRANCH  22  23
ENDBRANCH  16  17
ENDBRANCH   7   9
ENDBRANCH   4   7
ENDBRANCH   2   3
ENDBRANCH   1   2
BRANCH   1  26
ATOM     26  C   UNL A   1      38.120  19.897  24.960  1.00  0.00     0.023 C 
BRANCH  26  27
ATOM     27  C   UNL A   1      39.189  20.141  26.020  1.00  0.00     0.116 C 
BRANCH  27  28
ATOM     28  N   UNL A   1      40.260  19.157  25.984  1.00  0.00    -0.352 N 
ATOM     29  C   UNL A   1      41.615  19.352  26.092  1.00  0.00     0.251 C 
ATOM     30  H   UNL A   1      39.975  18.223  25.864  1.00  0.00     0.163 HD
ATOM     31  O   UNL A   1      42.389  18.417  25.913  1.00  0.00    -0.269 OA
BRANCH  29  32
ATOM     32  C   UNL A   1      42.142  20.701  26.390  1.00  0.00     0.039 A 
ATOM     33  C   UNL A   1      42.409  21.567  25.327  1.00  0.00     0.014 A 
ATOM     34  C   UNL A   1      42.358  21.115  27.707  1.00  0.00     0.014 A 
ATOM     35  C   UNL A   1      42.831  22.872  25.587  1.00  0.00     0.010 A 
ATOM     36  C   UNL A   1      42.711  22.436  27.967  1.00  0.00     0.010 A 
ATOM     37  C   UNL A   1      42.950  23.328  26.910  1.00  0.00    -0.014 A 
BRANCH  37  38
ATOM     38  C   UNL A   1      43.314  24.736  27.208  1.00  0.00     0.031 A 
ATOM     39  C   UNL A   1      44.720  25.218  26.988  1.00  0.00     0.074 A 
ATOM     40  C   UNL A   1      42.392  25.563  27.740  1.00  0.00     0.049 A 
ATOM     41  N   UNL A   1      45.246  26.387  27.251  1.00  0.00    -0.248 NA
ATOM     42  C   UNL A   1      45.669  24.248  26.419  1.00  0.00     0.031 C 
ATOM     43  C   UNL A   1      41.009  25.200  28.047  1.00  0.00     0.029 A 
ATOM     44  N   UNL A   1      42.486  26.876  28.130  1.00  0.00    -0.354 N 
ATOM     45  C   UNL A   1      46.584  26.288  26.896  1.00  0.00     0.074 A 
ATOM     46  C   UNL A   1      46.803  24.930  26.446  1.00  0.00     0.031 C 
ATOM     47  C   UNL A   1      40.376  26.269  28.559  1.00  0.00     0.029 A 
ATOM     48  C   UNL A   1      41.319  27.380  28.651  1.00  0.00     0.049 A 
ATOM     49  H   UNL A   1      43.311  27.405  28.045  1.00  0.00     0.167 HD
ATOM     50  C   UNL A   1      47.539  27.249  26.920  1.00  0.00     0.037 A 
ATOM     51  C   UNL A   1      41.043  28.599  29.152  1.00  0.00     0.037 A 
ATOM     52  C   UNL A   1      47.312  28.605  27.345  1.00  0.00     0.049 A 
ATOM     53  C   UNL A   1      42.122  29.648  29.170  1.00  0.00     0.074 A 
ATOM     54  C   UNL A   1      48.198  29.669  27.348  1.00  0.00     0.029 A 
ATOM     55  N   UNL A   1      46.110  29.085  27.847  1.00  0.00    -0.354 N 
ATOM     56  N   UNL A   1      43.366  29.563  28.764  1.00  0.00    -0.248 NA
ATOM     57  C   UNL A   1      41.756  30.964  29.711  1.00  0.00     0.031 C 
ATOM     58  C   UNL A   1      47.546  30.780  27.895  1.00  0.00     0.029 A 
ATOM     59  C   UNL A   1      46.239  30.423  28.182  1.00  0.00     0.049 A 
ATOM     60  H   UNL A   1      45.289  28.553  27.949  1.00  0.00     0.167 HD
ATOM     61  C   UNL A   1      43.921  30.817  28.972  1.00  0.00     0.074 A 
ATOM     62  C   UNL A   1      42.875  31.650  29.527  1.00  0.00     0.031 C 
ATOM     63  C   UNL A   1      45.185  31.241  28.726  1.00  0.00     0.037 A 
BRANCH  50  64
ATOM     64  C   UNL A   1      48.920  26.868  26.469  1.00  0.00     0.064 A 
ATOM     65  C   UNL A   1      49.326  27.021  25.134  1.00  0.00     0.173 A 
ATOM     66  C   UNL A   1      49.860  26.379  27.388  1.00  0.00     0.173 A 
ATOM     67  F   UNL A   1      48.462  27.474  24.212  1.00  0.00    -0.203 F 
ATOM     68  C   UNL A   1      50.611  26.669  24.731  1.00  0.00     0.198 A 
ATOM     69  C   UNL A   1      51.154  26.058  26.987  1.00  0.00     0.198 A 
ATOM     70  F   UNL A   1      49.526  26.219  28.677  1.00  0.00    -0.203 F 
ATOM     71  F   UNL A   1      50.960  26.777  23.442  1.00  0.00    -0.200 F 
ATOM     72  C   UNL A   1      51.527  26.196  25.659  1.00  0.00     0.200 A 
ATOM     73  F   UNL A   1      52.042  25.613  27.887  1.00  0.00    -0.200 F 
ATOM     74  F   UNL A   1      52.765  25.865  25.271  1.00  0.00    -0.200 F 
ENDBRANCH  50  64
BRANCH  51  75
ATOM     75  C   UNL A   1      39.677  28.903  29.655  1.00  0.00     0.064 A 
ATOM     76  C   UNL A   1      39.334  28.660  30.991  1.00  0.00     0.173 A 
ATOM     77  C   UNL A   1      38.690  29.436  28.813  1.00  0.00     0.173 A 
ATOM     78  F   UNL A   1      40.238  28.133  31.830  1.00  0.00    -0.203 F 
ATOM     79  C   UNL A   1      38.048  28.918  31.463  1.00  0.00     0.198 A 
ATOM     80  C   UNL A   1      37.413  29.719  29.292  1.00  0.00     0.198 A 
ATOM     81  F   UNL A   1      38.970  29.690  27.526  1.00  0.00    -0.203 F 
ATOM     82  F   UNL A   1      37.733  28.632  32.734  1.00  0.00    -0.200 F 
ATOM     83  C   UNL A   1      37.090  29.452  30.614  1.00  0.00     0.200 A 
ATOM     84  F   UNL A   1      36.495  30.249  28.472  1.00  0.00    -0.200 F 
ATOM     85  F   UNL A   1      35.855  29.702  31.068  1.00  0.00    -0.200 F 
ENDBRANCH  51  75
BRANCH  63  86
ATOM     86  C   UNL A   1      45.498  32.680  29.019  1.00  0.00     0.064 A 
ATOM     87  C   UNL A   1      46.060  33.079  30.241  1.00  0.00     0.173 A 
ATOM     88  C   UNL A   1      45.268  33.668  28.049  1.00  0.00     0.173 A 
ATOM     89  F   UNL A   1      46.284  32.175  31.207  1.00  0.00    -0.203 F 
ATOM     90  C   UNL A   1      46.357  34.416  30.490  1.00  0.00     0.198 A 
ATOM     91  C   UNL A   1      45.594  34.999  28.290  1.00  0.00     0.198 A 
ATOM     92  F   UNL A   1      44.739  33.338  26.861  1.00  0.00    -0.203 F 
ATOM     93  F   UNL A   1      46.848  34.781  31.682  1.00  0.00    -0.200 F 
ATOM     94  C   UNL A   1      46.131  35.374  29.512  1.00  0.00     0.200 A 
ATOM     95  F   UNL A   1      45.389  35.921  27.338  1.00  0.00    -0.200 F 
ATOM     96  F   UNL A   1      46.425  36.659  29.751  1.00  0.00    -0.200 F 
ENDBRANCH  63  86
ENDBRANCH  37  38
ENDBRANCH  29  32
ENDBRANCH  27  28
ENDBRANCH  26  27
ENDBRANCH   1  26
TORSDOF 14
ENDMDL
MODEL 3
REMARK VINA RESULT:     -12.3      5.517     11.414
REMARK SMILES C[C@@H](C(=O)NCCCCNC(=O)c1ccc(-c2c3nc(c(-c4c(F)c(F)c(F)c(F)c4F)c4ccc([nH]4)c(-c4c(F)c(F)c(F)c(F)c4F)c4nc(c(-c5c(F)c(F)c(F)c(F)c5F)c5ccc2[nH]5)C=C4)C=C3)cc1)N1C(=O)/C(=C/c2ccc(N(C)C)cc2)SC1=S
REMARK SMILES IDX 7 1 6 2 5 3 3 4 4 5 2 7 1 8 76 9 77 10 91 11 78 12 79 13
REMARK SMILES IDX 90 14 92 15 80 16 81 17 82 18 89 19 83 20 88 21 84 22 85 23
REMARK SMILES IDX 86 24 87 25 8 26 9 27 10 28 11 29 12 31 13 32 14 33 75 34
REMARK SMILES IDX 15 35 74 36 16 37 17 38 18 39 68 40 19 41 73 42 67 43 69 44
REMARK SMILES IDX 20 45 72 46 66 47 65 48 21 50 53 51 33 52 52 53 34 54 37 55
REMARK SMILES IDX 51 56 70 57 35 58 36 59 50 61 71 62 38 63 22 64 23 65 31 66
REMARK SMILES IDX 24 67 25 68 29 69 32 70 26 71 27 72 30 73 28 74 54 75 55 76
REMARK SMILES IDX 63 77 56 78 57 79 61 80 64 81 58 82 59 83 62 84 60 85 39 86
REMARK SMILES IDX 40 87 48 88 41 89 42 90 46 91 49 92 43 93 44 94 47 95 45 96
REMARK H PARENT 5 6 10 30 69 49 37 60
REMARK Flexibility Score: inf
ROOT
ATOM      1  C   UNL A   1      31.057  31.630  25.585  1.00  0.00     0.023 C 
ENDROOT
BRANCH   1   2
ATOM      2  C   UNL A   1      31.173  30.152  25.211  1.00  0.00     0.116 C 
BRANCH   2   3
ATOM      3  N   UNL A   1      32.546  29.800  24.916  1.00  0.00    -0.354 N 
ATOM      4  C   UNL A   1      33.042  28.811  24.119  1.00  0.00     0.242 C 
ATOM      5  O   UNL A   1      34.270  28.696  24.068  1.00  0.00    -0.273 OA
ATOM      6  H   UNL A   1      33.225  30.361  25.359  1.00  0.00     0.163 HD
BRANCH   4   7
ATOM      7  C   UNL A   1      32.093  27.920  23.288  1.00  0.00     0.178 C 
ATOM      8  C   UNL A   1      30.648  28.407  23.197  1.00  0.00     0.042 C 
BRANCH   7   9
ATOM      9  N   UNL A   1      32.235  26.533  23.779  1.00  0.00    -0.281 N 
ATOM     10  C   UNL A   1      32.968  25.659  22.987  1.00  0.00     0.266 C 
ATOM     11  C   UNL A   1      31.854  26.050  25.017  1.00  0.00     0.149 C 
ATOM     12  O   UNL A   1      33.488  25.926  21.911  1.00  0.00    -0.268 OA
ATOM     13  C   UNL A   1      33.027  24.313  23.610  1.00  0.00     0.081 C 
ATOM     14  S   UNL A   1      32.239  24.337  25.134  1.00  0.00    -0.054 SA
ATOM     15  S   UNL A   1      31.112  26.832  26.293  1.00  0.00    -0.052 S 
ATOM     16  C   UNL A   1      33.595  23.264  23.001  1.00  0.00     0.029 C 
BRANCH  16  17
ATOM     17  C   UNL A   1      33.550  21.896  23.520  1.00  0.00    -0.024 A 
ATOM     18  C   UNL A   1      32.526  21.021  23.177  1.00  0.00     0.010 A 
ATOM     19  C   UNL A   1      34.562  21.442  24.363  1.00  0.00     0.010 A 
ATOM     20  C   UNL A   1      32.538  19.696  23.650  1.00  0.00     0.026 A 
ATOM     21  C   UNL A   1      34.560  20.121  24.826  1.00  0.00     0.026 A 
ATOM     22  C   UNL A   1      33.556  19.198  24.482  1.00  0.00     0.036 A 
BRANCH  22  23
ATOM     23  N   UNL A   1      33.581  17.893  24.958  1.00  0.00    -0.378 N 
ATOM     24  C   UNL A   1      32.543  17.323  25.806  1.00  0.00     0.143 C 
ATOM     25  C   UNL A   1      34.553  16.938  24.427  1.00  0.00     0.143 C 
ENDBRANCH  22  23
ENDBRANCH  16  17
ENDBRANCH   7   9
ENDBRANCH   4   7
ENDBRANCH   2   3
ENDBRANCH   1   2
BRANCH   1  26
ATOM     26  C   UNL A   1      31.419  31.943  27.040  1.00  0.00     0.023 C 
BRANCH  26  27
ATOM     27  C   UNL A   1      32.668  32.797  27.228  1.00  0.00     0.116 C 
BRANCH  27  28
ATOM     28  N   UNL A   1      32.366  34.172  27.593  1.00  0.00    -0.352 N 
ATOM     29  C   UNL A   1      32.952  34.957  28.556  1.00  0.00     0.251 C 
ATOM     30  H   UNL A   1      31.642  34.599  27.082  1.00  0.00     0.163 HD
ATOM     31  O   UNL A   1      32.487  36.061  28.818  1.00  0.00    -0.269 OA
BRANCH  29  32
ATOM     32  C   UNL A   1      34.124  34.454  29.302  1.00  0.00     0.039 A 
ATOM     33  C   UNL A   1      33.913  33.762  30.497  1.00  0.00     0.014 A 
ATOM     34  C   UNL A   1      35.422  34.648  28.821  1.00  0.00     0.014 A 
ATOM     35  C   UNL A   1      34.999  33.207  31.177  1.00  0.00     0.010 A 
ATOM     36  C   UNL A   1      36.496  34.036  29.462  1.00  0.00     0.010 A 
ATOM     37  C   UNL A   1      36.295  33.309  30.646  1.00  0.00    -0.014 A 
BRANCH  37  38
ATOM     38  C   UNL A   1      37.450  32.655  31.308  1.00  0.00     0.031 A 
ATOM     39  C   UNL A   1      38.162  31.514  30.637  1.00  0.00     0.074 A 
ATOM     40  C   UNL A   1      37.817  33.045  32.545  1.00  0.00     0.049 A 
ATOM     41  N   UNL A   1      39.144  30.773  31.083  1.00  0.00    -0.248 NA
ATOM     42  C   UNL A   1      37.689  31.140  29.295  1.00  0.00     0.031 C 
ATOM     43  C   UNL A   1      37.175  34.105  33.322  1.00  0.00     0.029 A 
ATOM     44  N   UNL A   1      38.812  32.583  33.372  1.00  0.00    -0.354 N 
ATOM     45  C   UNL A   1      39.395  29.839  30.087  1.00  0.00     0.074 A 
ATOM     46  C   UNL A   1      38.429  30.073  29.034  1.00  0.00     0.031 C 
ATOM     47  C   UNL A   1      37.803  34.228  34.503  1.00  0.00     0.029 A 
ATOM     48  C   UNL A   1      38.866  33.231  34.581  1.00  0.00     0.049 A 
ATOM     49  H   UNL A   1      39.427  31.858  33.121  1.00  0.00     0.167 HD
ATOM     50  C   UNL A   1      40.359  28.887  30.042  1.00  0.00     0.037 A 
ATOM     51  C   UNL A   1      39.679  33.039  35.638  1.00  0.00     0.037 A 
ATOM     52  C   UNL A   1      41.333  28.674  31.080  1.00  0.00     0.049 A 
ATOM     53  C   UNL A   1      40.739  31.973  35.565  1.00  0.00     0.074 A 
ATOM     54  C   UNL A   1      42.388  27.777  31.102  1.00  0.00     0.029 A 
ATOM     55  N   UNL A   1      41.370  29.364  32.283  1.00  0.00    -0.354 N 
ATOM     56  N   UNL A   1      41.013  31.144  34.587  1.00  0.00    -0.248 NA
ATOM     57  C   UNL A   1      41.607  31.822  36.741  1.00  0.00     0.031 C 
ATOM     58  C   UNL A   1      43.034  27.893  32.338  1.00  0.00     0.029 A 
ATOM     59  C   UNL A   1      42.416  28.897  33.064  1.00  0.00     0.049 A 
ATOM     60  H   UNL A   1      40.746  30.079  32.543  1.00  0.00     0.167 HD
ATOM     61  C   UNL A   1      42.099  30.394  35.016  1.00  0.00     0.074 A 
ATOM     62  C   UNL A   1      42.444  30.877  36.337  1.00  0.00     0.031 C 
ATOM     63  C   UNL A   1      42.752  29.395  34.373  1.00  0.00     0.037 A 
BRANCH  50  64
ATOM     64  C   UNL A   1      40.410  28.006  28.828  1.00  0.00     0.064 A 
ATOM     65  C   UNL A   1      41.156  28.360  27.693  1.00  0.00     0.173 A 
ATOM     66  C   UNL A   1      39.735  26.776  28.811  1.00  0.00     0.173 A 
ATOM     67  F   UNL A   1      41.811  29.531  27.653  1.00  0.00    -0.203 F 
ATOM     68  C   UNL A   1      41.200  27.531  26.576  1.00  0.00     0.198 A 
ATOM     69  C   UNL A   1      39.807  25.935  27.704  1.00  0.00     0.198 A 
ATOM     70  F   UNL A   1      39.012  26.387  29.871  1.00  0.00    -0.203 F 
ATOM     71  F   UNL A   1      41.878  27.913  25.486  1.00  0.00    -0.200 F 
ATOM     72  C   UNL A   1      40.532  26.315  26.585  1.00  0.00     0.200 A 
ATOM     73  F   UNL A   1      39.171  24.755  27.719  1.00  0.00    -0.200 F 
ATOM     74  F   UNL A   1      40.581  25.515  25.512  1.00  0.00    -0.200 F 
ENDBRANCH  50  64
BRANCH  51  75
ATOM     75  C   UNL A   1      39.538  33.891  36.848  1.00  0.00     0.064 A 
ATOM     76  C   UNL A   1      40.179  35.134  36.929  1.00  0.00     0.173 A 
ATOM     77  C   UNL A   1      38.770  33.480  37.946  1.00  0.00     0.173 A 
ATOM     78  F   UNL A   1      40.942  35.561  35.912  1.00  0.00    -0.203 F 
ATOM     79  C   UNL A   1      40.074  35.927  38.070  1.00  0.00     0.198 A 
ATOM     80  C   UNL A   1      38.642  34.284  39.077  1.00  0.00     0.198 A 
ATOM     81  F   UNL A   1      38.133  32.300  37.917  1.00  0.00    -0.203 F 
ATOM     82  F   UNL A   1      40.736  37.090  38.139  1.00  0.00    -0.200 F 
ATOM     83  C   UNL A   1      39.302  35.503  39.141  1.00  0.00     0.200 A 
ATOM     84  F   UNL A   1      37.883  33.878  40.103  1.00  0.00    -0.200 F 
ATOM     85  F   UNL A   1      39.198  36.265  40.238  1.00  0.00    -0.200 F 
ENDBRANCH  51  75
BRANCH  63  86
ATOM     86  C   UNL A   1      43.931  28.781  35.073  1.00  0.00     0.064 A 
ATOM     87  C   UNL A   1      43.793  27.660  35.904  1.00  0.00     0.173 A 
ATOM     88  C   UNL A   1      45.220  29.300  34.876  1.00  0.00     0.173 A 
ATOM     89  F   UNL A   1      42.580  27.137  36.136  1.00  0.00    -0.203 F 
ATOM     90  C   UNL A   1      44.900  27.096  36.533  1.00  0.00     0.198 A 
ATOM     91  C   UNL A   1      46.327  28.714  35.483  1.00  0.00     0.198 A 
ATOM     92  F   UNL A   1      45.407  30.368  34.086  1.00  0.00    -0.203 F 
ATOM     93  F   UNL A   1      44.739  26.054  37.361  1.00  0.00    -0.200 F 
ATOM     94  C   UNL A   1      46.166  27.618  36.316  1.00  0.00     0.200 A 
ATOM     95  F   UNL A   1      47.552  29.212  35.261  1.00  0.00    -0.200 F 
ATOM     96  F   UNL A   1      47.231  27.068  36.917  1.00  0.00    -0.200 F 
ENDBRANCH  63  86
ENDBRANCH  37  38
ENDBRANCH  29  32
ENDBRANCH  27  28
ENDBRANCH  26  27
ENDBRANCH   1  26
TORSDOF 14
ENDMDL
