MODEL 1
REMARK VINA RESULT:     -12.5      0.000      0.000
REMARK SMILES Cc1cc(C(=O)Nc2nc(CC(=O)NCCCCNC(=O)c3ccc(-c4c5nc(c(-c6c(F)c(F)c(F)c(F)c6F)c6ccc([nH]6)c(-c6c(F)c(F)c(F)c(F)c6F)c6nc(c(-c7c(F)c(F)c(F)c(F)c7F)c7ccc4[nH]7)C=C6)C=C5)cc3)cs2)sc1C
REMARK SMILES IDX 16 1 15 2 14 3 12 4 13 5 11 7 10 8 8 9 9 10 86 11 85 12 7 13
REMARK SMILES IDX 5 14 6 15 4 17 1 18 2 19 3 20 88 21 87 22 89 23 17 24 18 25
REMARK SMILES IDX 19 26 20 27 21 29 22 30 23 31 84 32 24 33 83 34 25 35 26 36
REMARK SMILES IDX 27 37 77 38 28 39 82 40 76 41 78 42 29 43 81 44 75 45 74 46
REMARK SMILES IDX 30 48 62 49 42 50 61 51 43 52 46 53 60 54 79 55 44 56 45 57
REMARK SMILES IDX 59 59 80 60 47 61 31 62 32 63 40 64 33 65 34 66 38 67 41 68
REMARK SMILES IDX 35 69 36 70 39 71 37 72 63 73 64 74 72 75 65 76 66 77 70 78
REMARK SMILES IDX 73 79 67 80 68 81 71 82 69 83 48 84 49 85 57 86 50 87 51 88
REMARK SMILES IDX 55 89 58 90 52 91 53 92 56 93 54 94
REMARK H PARENT 14 6 7 16 19 28 78 47 46 58
REMARK Flexibility Score: inf
ROOT
ATOM      1  C   UNL A   1      31.746  30.637  26.658  1.00  0.00     0.023 C 
ENDROOT
BRANCH   1   2
ATOM      2  C   UNL A   1      31.619  30.107  25.228  1.00  0.00     0.116 C 
BRANCH   2   3
ATOM      3  N   UNL A   1      32.908  29.714  24.687  1.00  0.00    -0.356 N 
ATOM      4  C   UNL A   1      33.168  28.835  23.674  1.00  0.00     0.226 C 
ATOM      5  O   UNL A   1      34.344  28.559  23.425  1.00  0.00    -0.275 OA
ATOM      6  H   UNL A   1      33.694  30.135  25.104  1.00  0.00     0.163 HD
BRANCH   4   7
ATOM      7  C   UNL A   1      32.032  28.260  22.854  1.00  0.00     0.157 C 
BRANCH   7   8
ATOM      8  C   UNL A   1      31.594  26.917  23.330  1.00  0.00     0.063 A 
ATOM      9  C   UNL A   1      31.211  25.471  24.951  1.00  0.00     0.189 A 
ATOM     10  N   UNL A   1      31.724  26.642  24.683  1.00  0.00    -0.224 NA
ATOM     11  S   UNL A   1      30.761  24.524  23.609  1.00  0.00    -0.105 S 
ATOM     12  C   UNL A   1      31.055  25.880  22.588  1.00  0.00     0.093 A 
BRANCH   9  13
ATOM     13  N   UNL A   1      30.984  24.910  26.169  1.00  0.00    -0.297 N 
ATOM     14  C   UNL A   1      31.570  23.768  26.671  1.00  0.00     0.267 C 
ATOM     15  O   UNL A   1      30.950  23.207  27.583  1.00  0.00    -0.268 OA
ATOM     16  H   UNL A   1      30.334  25.367  26.751  1.00  0.00     0.172 HD
BRANCH  14  17
ATOM     17  C   UNL A   1      32.890  23.285  26.252  1.00  0.00     0.093 A 
ATOM     18  C   UNL A   1      36.608  23.801  25.803  1.00  0.00     0.045 C 
ATOM     19  C   UNL A   1      35.223  23.249  25.861  1.00  0.00    -0.037 A 
ATOM     20  C   UNL A   1      34.086  23.983  26.346  1.00  0.00     0.029 A 
ATOM     21  C   UNL A   1      34.846  21.971  25.494  1.00  0.00     0.005 A 
ATOM     22  S   UNL A   1      33.154  21.867  25.328  1.00  0.00    -0.135 S 
ATOM     23  C   UNL A   1      35.684  20.784  25.160  1.00  0.00     0.056 C 
ENDBRANCH  14  17
ENDBRANCH   9  13
ENDBRANCH   7   8
ENDBRANCH   4   7
ENDBRANCH   2   3
ENDBRANCH   1   2
BRANCH   1  24
ATOM     24  C   UNL A   1      31.517  32.142  26.805  1.00  0.00     0.023 C 
BRANCH  24  25
ATOM     25  C   UNL A   1      32.737  32.931  27.248  1.00  0.00     0.116 C 
BRANCH  25  26
ATOM     26  N   UNL A   1      32.419  34.296  27.637  1.00  0.00    -0.352 N 
ATOM     27  C   UNL A   1      32.979  35.057  28.632  1.00  0.00     0.251 C 
ATOM     28  H   UNL A   1      31.705  34.732  27.117  1.00  0.00     0.163 HD
ATOM     29  O   UNL A   1      32.504  36.151  28.922  1.00  0.00    -0.269 OA
BRANCH  27  30
ATOM     30  C   UNL A   1      34.142  34.534  29.380  1.00  0.00     0.039 A 
ATOM     31  C   UNL A   1      33.936  33.986  30.647  1.00  0.00     0.014 A 
ATOM     32  C   UNL A   1      35.423  34.562  28.822  1.00  0.00     0.014 A 
ATOM     33  C   UNL A   1      35.007  33.411  31.331  1.00  0.00     0.010 A 
ATOM     34  C   UNL A   1      36.470  33.913  29.468  1.00  0.00     0.010 A 
ATOM     35  C   UNL A   1      36.275  33.339  30.732  1.00  0.00    -0.014 A 
BRANCH  35  36
ATOM     36  C   UNL A   1      37.415  32.682  31.420  1.00  0.00     0.031 A 
ATOM     37  C   UNL A   1      38.126  31.530  30.767  1.00  0.00     0.074 A 
ATOM     38  C   UNL A   1      37.771  33.084  32.656  1.00  0.00     0.049 A 
ATOM     39  N   UNL A   1      39.105  30.792  31.225  1.00  0.00    -0.248 NA
ATOM     40  C   UNL A   1      37.655  31.135  29.430  1.00  0.00     0.031 C 
ATOM     41  C   UNL A   1      37.127  34.156  33.415  1.00  0.00     0.029 A 
ATOM     42  N   UNL A   1      38.761  32.632  33.494  1.00  0.00    -0.354 N 
ATOM     43  C   UNL A   1      39.355  29.843  30.243  1.00  0.00     0.074 A 
ATOM     44  C   UNL A   1      38.386  30.057  29.191  1.00  0.00     0.031 C 
ATOM     45  C   UNL A   1      37.754  34.298  34.595  1.00  0.00     0.029 A 
ATOM     46  C   UNL A   1      38.817  33.302  34.690  1.00  0.00     0.049 A 
ATOM     47  H   UNL A   1      39.372  31.897  33.258  1.00  0.00     0.167 HD
ATOM     48  C   UNL A   1      40.324  28.897  30.208  1.00  0.00     0.037 A 
ATOM     49  C   UNL A   1      39.633  33.129  35.748  1.00  0.00     0.037 A 
ATOM     50  C   UNL A   1      41.299  28.702  31.248  1.00  0.00     0.049 A 
ATOM     51  C   UNL A   1      40.694  32.063  35.689  1.00  0.00     0.074 A 
ATOM     52  C   UNL A   1      42.355  27.808  31.284  1.00  0.00     0.029 A 
ATOM     53  N   UNL A   1      41.335  29.411  32.440  1.00  0.00    -0.354 N 
ATOM     54  N   UNL A   1      40.969  31.220  34.724  1.00  0.00    -0.248 NA
ATOM     55  C   UNL A   1      41.568  31.934  36.863  1.00  0.00     0.031 C 
ATOM     56  C   UNL A   1      42.997  27.939  32.520  1.00  0.00     0.029 A 
ATOM     57  C   UNL A   1      42.382  28.958  33.228  1.00  0.00     0.049 A 
ATOM     58  H   UNL A   1      40.710  30.130  32.689  1.00  0.00     0.167 HD
ATOM     59  C   UNL A   1      42.064  30.484  35.158  1.00  0.00     0.074 A 
ATOM     60  C   UNL A   1      42.412  30.992  36.468  1.00  0.00     0.031 C 
ATOM     61  C   UNL A   1      42.722  29.481  34.527  1.00  0.00     0.037 A 
BRANCH  48  62
ATOM     62  C   UNL A   1      40.375  28.001  29.003  1.00  0.00     0.064 A 
ATOM     63  C   UNL A   1      41.142  28.326  27.873  1.00  0.00     0.173 A 
ATOM     64  C   UNL A   1      39.670  26.787  28.987  1.00  0.00     0.173 A 
ATOM     65  F   UNL A   1      41.826  29.479  27.830  1.00  0.00    -0.203 F 
ATOM     66  C   UNL A   1      41.175  27.488  26.761  1.00  0.00     0.198 A 
ATOM     67  C   UNL A   1      39.732  25.935  27.887  1.00  0.00     0.198 A 
ATOM     68  F   UNL A   1      38.925  26.424  30.041  1.00  0.00    -0.203 F 
ATOM     69  F   UNL A   1      41.868  27.848  25.673  1.00  0.00    -0.200 F 
ATOM     70  C   UNL A   1      40.476  26.291  26.773  1.00  0.00     0.200 A 
ATOM     71  F   UNL A   1      39.068  24.771  27.906  1.00  0.00    -0.200 F 
ATOM     72  F   UNL A   1      40.513  25.481  25.704  1.00  0.00    -0.200 F 
ENDBRANCH  48  62
BRANCH  49  73
ATOM     73  C   UNL A   1      39.496  34.002  36.943  1.00  0.00     0.064 A 
ATOM     74  C   UNL A   1      40.110  35.262  36.988  1.00  0.00     0.173 A 
ATOM     75  C   UNL A   1      38.761  33.597  38.067  1.00  0.00     0.173 A 
ATOM     76  F   UNL A   1      40.841  35.688  35.947  1.00  0.00    -0.203 F 
ATOM     77  C   UNL A   1      40.014  36.072  38.118  1.00  0.00     0.198 A 
ATOM     78  C   UNL A   1      38.639  34.420  39.184  1.00  0.00     0.198 A 
ATOM     79  F   UNL A   1      38.149  32.404  38.073  1.00  0.00    -0.203 F 
ATOM     80  F   UNL A   1      40.653  37.249  38.153  1.00  0.00    -0.200 F 
ATOM     81  C   UNL A   1      39.274  35.653  39.213  1.00  0.00     0.200 A 
ATOM     82  F   UNL A   1      37.909  34.018  40.233  1.00  0.00    -0.200 F 
ATOM     83  F   UNL A   1      39.178  36.433  40.298  1.00  0.00    -0.200 F 
ENDBRANCH  49  73
BRANCH  61  84
ATOM     84  C   UNL A   1      43.917  28.894  35.225  1.00  0.00     0.064 A 
ATOM     85  C   UNL A   1      45.211  29.396  35.029  1.00  0.00     0.173 A 
ATOM     86  C   UNL A   1      43.755  27.834  36.131  1.00  0.00     0.173 A 
ATOM     87  F   UNL A   1      45.422  30.400  34.164  1.00  0.00    -0.203 F 
ATOM     88  C   UNL A   1      46.303  28.839  35.689  1.00  0.00     0.198 A 
ATOM     89  C   UNL A   1      44.844  27.302  36.815  1.00  0.00     0.198 A 
ATOM     90  F   UNL A   1      42.537  27.320  36.362  1.00  0.00    -0.203 F 
ATOM     91  F   UNL A   1      47.538  29.299  35.444  1.00  0.00    -0.200 F 
ATOM     92  C   UNL A   1      46.119  27.798  36.587  1.00  0.00     0.200 A 
ATOM     93  F   UNL A   1      44.660  26.308  37.695  1.00  0.00    -0.200 F 
ATOM     94  F   UNL A   1      47.170  27.269  37.227  1.00  0.00    -0.200 F 
ENDBRANCH  61  84
ENDBRANCH  35  36
ENDBRANCH  27  30
ENDBRANCH  25  26
ENDBRANCH  24  25
ENDBRANCH   1  24
TORSDOF 14
ENDMDL
MODEL 2
REMARK VINA RESULT:     -12.5      0.127      1.598
REMARK SMILES Cc1cc(C(=O)Nc2nc(CC(=O)NCCCCNC(=O)c3ccc(-c4c5nc(c(-c6c(F)c(F)c(F)c(F)c6F)c6ccc([nH]6)c(-c6c(F)c(F)c(F)c(F)c6F)c6nc(c(-c7c(F)c(F)c(F)c(F)c7F)c7ccc4[nH]7)C=C6)C=C5)cc3)cs2)sc1C
REMARK SMILES IDX 16 1 15 2 14 3 12 4 13 5 11 7 10 8 8 9 9 10 86 11 85 12 7 13
REMARK SMILES IDX 5 14 6 15 4 17 1 18 2 19 3 20 88 21 87 22 89 23 17 24 18 25
REMARK SMILES IDX 19 26 20 27 21 29 22 30 23 31 84 32 24 33 83 34 25 35 26 36
REMARK SMILES IDX 27 37 77 38 28 39 82 40 76 41 78 42 29 43 81 44 75 45 74 46
REMARK SMILES IDX 30 48 62 49 42 50 61 51 43 52 46 53 60 54 79 55 44 56 45 57
REMARK SMILES IDX 59 59 80 60 47 61 31 62 32 63 40 64 33 65 34 66 38 67 41 68
REMARK SMILES IDX 35 69 36 70 39 71 37 72 63 73 64 74 72 75 65 76 66 77 70 78
REMARK SMILES IDX 73 79 67 80 68 81 71 82 69 83 48 84 49 85 57 86 50 87 51 88
REMARK SMILES IDX 55 89 58 90 52 91 53 92 56 93 54 94
REMARK H PARENT 14 6 7 16 19 28 78 47 46 58
REMARK Flexibility Score: inf
ROOT
ATOM      1  C   UNL A   1      31.776  30.561  26.620  1.00  0.00     0.023 C 
ENDROOT
BRANCH   1   2
ATOM      2  C   UNL A   1      31.653  30.054  25.181  1.00  0.00     0.116 C 
BRANCH   2   3
ATOM      3  N   UNL A   1      32.947  29.697  24.628  1.00  0.00    -0.356 N 
ATOM      4  C   UNL A   1      33.222  28.819  23.619  1.00  0.00     0.226 C 
ATOM      5  O   UNL A   1      34.403  28.577  23.357  1.00  0.00    -0.275 OA
ATOM      6  H   UNL A   1      33.725  30.146  25.031  1.00  0.00     0.163 HD
BRANCH   4   7
ATOM      7  C   UNL A   1      32.095  28.201  22.817  1.00  0.00     0.157 C 
BRANCH   7   8
ATOM      8  C   UNL A   1      31.693  26.857  23.322  1.00  0.00     0.063 A 
ATOM      9  C   UNL A   1      31.380  25.424  24.970  1.00  0.00     0.189 A 
ATOM     10  N   UNL A   1      31.867  26.600  24.674  1.00  0.00    -0.224 NA
ATOM     11  S   UNL A   1      30.907  24.454  23.653  1.00  0.00    -0.105 S 
ATOM     12  C   UNL A   1      31.149  25.803  22.608  1.00  0.00     0.093 A 
BRANCH   9  13
ATOM     13  N   UNL A   1      31.198  24.875  26.200  1.00  0.00    -0.297 N 
ATOM     14  C   UNL A   1      31.793  23.730  26.686  1.00  0.00     0.267 C 
ATOM     15  O   UNL A   1      31.205  23.182  27.627  1.00  0.00    -0.268 OA
ATOM     16  H   UNL A   1      30.578  25.342  26.805  1.00  0.00     0.172 HD
BRANCH  14  17
ATOM     17  C   UNL A   1      33.090  23.231  26.217  1.00  0.00     0.093 A 
ATOM     18  C   UNL A   1      36.795  23.699  25.629  1.00  0.00     0.045 C 
ATOM     19  C   UNL A   1      35.406  23.165  25.738  1.00  0.00    -0.037 A 
ATOM     20  C   UNL A   1      34.298  23.913  26.267  1.00  0.00     0.029 A 
ATOM     21  C   UNL A   1      34.998  21.892  25.384  1.00  0.00     0.005 A 
ATOM     22  S   UNL A   1      33.300  21.811  25.281  1.00  0.00    -0.135 S 
ATOM     23  C   UNL A   1      35.808  20.695  25.016  1.00  0.00     0.056 C 
ENDBRANCH  14  17
ENDBRANCH   9  13
ENDBRANCH   7   8
ENDBRANCH   4   7
ENDBRANCH   2   3
ENDBRANCH   1   2
BRANCH   1  24
ATOM     24  C   UNL A   1      31.543  32.062  26.791  1.00  0.00     0.023 C 
BRANCH  24  25
ATOM     25  C   UNL A   1      32.761  32.847  27.250  1.00  0.00     0.116 C 
BRANCH  25  26
ATOM     26  N   UNL A   1      32.444  34.214  27.633  1.00  0.00    -0.352 N 
ATOM     27  C   UNL A   1      32.999  34.975  28.631  1.00  0.00     0.251 C 
ATOM     28  H   UNL A   1      31.737  34.651  27.106  1.00  0.00     0.163 HD
ATOM     29  O   UNL A   1      32.525  36.071  28.914  1.00  0.00    -0.269 OA
BRANCH  27  30
ATOM     30  C   UNL A   1      34.153  34.450  29.390  1.00  0.00     0.039 A 
ATOM     31  C   UNL A   1      33.930  33.874  30.642  1.00  0.00     0.014 A 
ATOM     32  C   UNL A   1      35.444  34.503  28.857  1.00  0.00     0.014 A 
ATOM     33  C   UNL A   1      34.995  33.297  31.334  1.00  0.00     0.010 A 
ATOM     34  C   UNL A   1      36.486  33.853  29.509  1.00  0.00     0.010 A 
ATOM     35  C   UNL A   1      36.275  33.252  30.758  1.00  0.00    -0.014 A 
BRANCH  35  36
ATOM     36  C   UNL A   1      37.409  32.593  31.454  1.00  0.00     0.031 A 
ATOM     37  C   UNL A   1      38.113  31.430  30.813  1.00  0.00     0.074 A 
ATOM     38  C   UNL A   1      37.767  33.005  32.687  1.00  0.00     0.049 A 
ATOM     39  N   UNL A   1      39.086  30.690  31.280  1.00  0.00    -0.248 NA
ATOM     40  C   UNL A   1      37.642  31.026  29.479  1.00  0.00     0.031 C 
ATOM     41  C   UNL A   1      37.128  34.089  33.434  1.00  0.00     0.029 A 
ATOM     42  N   UNL A   1      38.752  32.555  33.530  1.00  0.00    -0.354 N 
ATOM     43  C   UNL A   1      39.331  29.730  30.308  1.00  0.00     0.074 A 
ATOM     44  C   UNL A   1      38.365  29.940  29.253  1.00  0.00     0.031 C 
ATOM     45  C   UNL A   1      37.755  34.238  34.613  1.00  0.00     0.029 A 
ATOM     46  C   UNL A   1      38.811  33.236  34.720  1.00  0.00     0.049 A 
ATOM     47  H   UNL A   1      39.358  31.813  33.302  1.00  0.00     0.167 HD
ATOM     48  C   UNL A   1      40.294  28.777  30.283  1.00  0.00     0.037 A 
ATOM     49  C   UNL A   1      39.624  33.067  35.781  1.00  0.00     0.037 A 
ATOM     50  C   UNL A   1      41.266  28.585  31.327  1.00  0.00     0.049 A 
ATOM     51  C   UNL A   1      40.678  31.994  35.733  1.00  0.00     0.074 A 
ATOM     52  C   UNL A   1      42.316  27.685  31.373  1.00  0.00     0.029 A 
ATOM     53  N   UNL A   1      41.305  29.305  32.512  1.00  0.00    -0.354 N 
ATOM     54  N   UNL A   1      40.948  31.139  34.777  1.00  0.00    -0.248 NA
ATOM     55  C   UNL A   1      41.549  31.871  36.910  1.00  0.00     0.031 C 
ATOM     56  C   UNL A   1      42.957  27.823  32.608  1.00  0.00     0.029 A 
ATOM     57  C   UNL A   1      42.347  28.853  33.306  1.00  0.00     0.049 A 
ATOM     58  H   UNL A   1      40.685  30.031  32.753  1.00  0.00     0.167 HD
ATOM     59  C   UNL A   1      42.038  30.401  35.220  1.00  0.00     0.074 A 
ATOM     60  C   UNL A   1      42.387  30.919  36.526  1.00  0.00     0.031 C 
ATOM     61  C   UNL A   1      42.690  29.387  34.600  1.00  0.00     0.037 A 
BRANCH  48  62
ATOM     62  C   UNL A   1      40.340  27.869  29.087  1.00  0.00     0.064 A 
ATOM     63  C   UNL A   1      39.624  26.662  29.048  1.00  0.00     0.173 A 
ATOM     64  C   UNL A   1      41.088  28.222  27.953  1.00  0.00     0.173 A 
ATOM     65  F   UNL A   1      38.902  26.270  30.109  1.00  0.00    -0.203 F 
ATOM     66  C   UNL A   1      39.681  25.828  27.934  1.00  0.00     0.198 A 
ATOM     67  C   UNL A   1      41.116  27.402  26.828  1.00  0.00     0.198 A 
ATOM     68  F   UNL A   1      41.788  29.366  27.933  1.00  0.00    -0.203 F 
ATOM     69  F   UNL A   1      39.035  24.655  27.944  1.00  0.00    -0.200 F 
ATOM     70  C   UNL A   1      40.421  26.203  26.823  1.00  0.00     0.200 A 
ATOM     71  F   UNL A   1      41.819  27.773  25.749  1.00  0.00    -0.200 F 
ATOM     72  F   UNL A   1      40.470  25.402  25.748  1.00  0.00    -0.200 F 
ENDBRANCH  48  62
BRANCH  49  73
ATOM     73  C   UNL A   1      39.492  33.954  36.967  1.00  0.00     0.064 A 
ATOM     74  C   UNL A   1      40.118  35.208  37.003  1.00  0.00     0.173 A 
ATOM     75  C   UNL A   1      38.748  33.566  38.091  1.00  0.00     0.173 A 
ATOM     76  F   UNL A   1      40.858  35.616  35.960  1.00  0.00    -0.203 F 
ATOM     77  C   UNL A   1      40.026  36.029  38.124  1.00  0.00     0.198 A 
ATOM     78  C   UNL A   1      38.630  34.402  39.200  1.00  0.00     0.198 A 
ATOM     79  F   UNL A   1      38.123  32.380  38.106  1.00  0.00    -0.203 F 
ATOM     80  F   UNL A   1      40.677  37.200  38.151  1.00  0.00    -0.200 F 
ATOM     81  C   UNL A   1      39.277  35.628  39.220  1.00  0.00     0.200 A 
ATOM     82  F   UNL A   1      37.892  34.017  40.250  1.00  0.00    -0.200 F 
ATOM     83  F   UNL A   1      39.186  36.419  40.298  1.00  0.00    -0.200 F 
ENDBRANCH  49  73
BRANCH  61  84
ATOM     84  C   UNL A   1      43.879  28.798  35.306  1.00  0.00     0.064 A 
ATOM     85  C   UNL A   1      43.758  27.710  36.182  1.00  0.00     0.173 A 
ATOM     86  C   UNL A   1      45.164  29.312  35.072  1.00  0.00     0.173 A 
ATOM     87  F   UNL A   1      42.551  27.190  36.450  1.00  0.00    -0.203 F 
ATOM     88  C   UNL A   1      44.875  27.179  36.822  1.00  0.00     0.198 A 
ATOM     89  C   UNL A   1      46.283  28.757  35.686  1.00  0.00     0.198 A 
ATOM     90  F   UNL A   1      45.338  30.348  34.237  1.00  0.00    -0.203 F 
ATOM     91  F   UNL A   1      44.728  26.174  37.697  1.00  0.00    -0.200 F 
ATOM     92  C   UNL A   1      46.136  27.696  36.568  1.00  0.00     0.200 A 
ATOM     93  F   UNL A   1      47.502  29.248  35.426  1.00  0.00    -0.200 F 
ATOM     94  F   UNL A   1      47.210  27.178  37.179  1.00  0.00    -0.200 F 
ENDBRANCH  61  84
ENDBRANCH  35  36
ENDBRANCH  27  30
ENDBRANCH  25  26
ENDBRANCH  24  25
ENDBRANCH   1  24
TORSDOF 14
ENDMDL
MODEL 3
REMARK VINA RESULT:     -12.5      0.153      1.956
REMARK SMILES Cc1cc(C(=O)Nc2nc(CC(=O)NCCCCNC(=O)c3ccc(-c4c5nc(c(-c6c(F)c(F)c(F)c(F)c6F)c6ccc([nH]6)c(-c6c(F)c(F)c(F)c(F)c6F)c6nc(c(-c7c(F)c(F)c(F)c(F)c7F)c7ccc4[nH]7)C=C6)C=C5)cc3)cs2)sc1C
REMARK SMILES IDX 16 1 15 2 14 3 12 4 13 5 11 7 10 8 8 9 9 10 86 11 85 12 7 13
REMARK SMILES IDX 5 14 6 15 4 17 1 18 2 19 3 20 88 21 87 22 89 23 17 24 18 25
REMARK SMILES IDX 19 26 20 27 21 29 22 30 23 31 84 32 24 33 83 34 25 35 26 36
REMARK SMILES IDX 27 37 77 38 28 39 82 40 76 41 78 42 29 43 81 44 75 45 74 46
REMARK SMILES IDX 30 48 62 49 42 50 61 51 43 52 46 53 60 54 79 55 44 56 45 57
REMARK SMILES IDX 59 59 80 60 47 61 31 62 32 63 40 64 33 65 34 66 38 67 41 68
REMARK SMILES IDX 35 69 36 70 39 71 37 72 63 73 64 74 72 75 65 76 66 77 70 78
REMARK SMILES IDX 73 79 67 80 68 81 71 82 69 83 48 84 49 85 57 86 50 87 51 88
REMARK SMILES IDX 55 89 58 90 52 91 53 92 56 93 54 94
REMARK H PARENT 14 6 7 16 19 28 78 47 46 58
REMARK Flexibility Score: inf
ROOT
ATOM      1  C   UNL A   1      31.791  30.565  26.616  1.00  0.00     0.023 C 
ENDROOT
BRANCH   1   2
ATOM      2  C   UNL A   1      31.657  30.040  25.185  1.00  0.00     0.116 C 
BRANCH   2   3
ATOM      3  N   UNL A   1      32.949  29.692  24.621  1.00  0.00    -0.356 N 
ATOM      4  C   UNL A   1      33.221  28.815  23.609  1.00  0.00     0.226 C 
ATOM      5  O   UNL A   1      34.402  28.582  23.337  1.00  0.00    -0.275 OA
ATOM      6  H   UNL A   1      33.728  30.146  25.017  1.00  0.00     0.163 HD
BRANCH   4   7
ATOM      7  C   UNL A   1      32.092  28.190  22.817  1.00  0.00     0.157 C 
BRANCH   7   8
ATOM      8  C   UNL A   1      31.706  26.841  23.324  1.00  0.00     0.063 A 
ATOM      9  C   UNL A   1      31.419  25.405  24.972  1.00  0.00     0.189 A 
ATOM     10  N   UNL A   1      31.893  26.585  24.674  1.00  0.00    -0.224 NA
ATOM     11  S   UNL A   1      30.943  24.432  23.658  1.00  0.00    -0.105 S 
ATOM     12  C   UNL A   1      31.165  25.784  22.613  1.00  0.00     0.093 A 
BRANCH   9  13
ATOM     13  N   UNL A   1      31.252  24.852  26.203  1.00  0.00    -0.297 N 
ATOM     14  C   UNL A   1      31.853  23.707  26.680  1.00  0.00     0.267 C 
ATOM     15  O   UNL A   1      31.277  23.156  27.626  1.00  0.00    -0.268 OA
ATOM     16  H   UNL A   1      30.638  25.318  26.817  1.00  0.00     0.172 HD
BRANCH  14  17
ATOM     17  C   UNL A   1      33.145  23.210  26.195  1.00  0.00     0.093 A 
ATOM     18  C   UNL A   1      36.829  23.704  25.509  1.00  0.00     0.045 C 
ATOM     19  C   UNL A   1      35.450  23.158  25.664  1.00  0.00    -0.037 A 
ATOM     20  C   UNL A   1      34.345  23.907  26.198  1.00  0.00     0.029 A 
ATOM     21  C   UNL A   1      35.050  21.871  25.355  1.00  0.00     0.005 A 
ATOM     22  S   UNL A   1      33.350  21.768  25.294  1.00  0.00    -0.135 S 
ATOM     23  C   UNL A   1      35.865  20.673  25.001  1.00  0.00     0.056 C 
ENDBRANCH  14  17
ENDBRANCH   9  13
ENDBRANCH   7   8
ENDBRANCH   4   7
ENDBRANCH   2   3
ENDBRANCH   1   2
BRANCH   1  24
ATOM     24  C   UNL A   1      31.563  32.068  26.770  1.00  0.00     0.023 C 
BRANCH  24  25
ATOM     25  C   UNL A   1      32.777  32.852  27.240  1.00  0.00     0.116 C 
BRANCH  25  26
ATOM     26  N   UNL A   1      32.455  34.215  27.635  1.00  0.00    -0.352 N 
ATOM     27  C   UNL A   1      33.006  34.970  28.639  1.00  0.00     0.251 C 
ATOM     28  H   UNL A   1      31.746  34.654  27.111  1.00  0.00     0.163 HD
ATOM     29  O   UNL A   1      32.528  36.061  28.932  1.00  0.00    -0.269 OA
BRANCH  27  30
ATOM     30  C   UNL A   1      34.163  34.442  29.394  1.00  0.00     0.039 A 
ATOM     31  C   UNL A   1      33.935  33.796  30.610  1.00  0.00     0.014 A 
ATOM     32  C   UNL A   1      35.461  34.562  28.891  1.00  0.00     0.014 A 
ATOM     33  C   UNL A   1      35.004  33.218  31.294  1.00  0.00     0.010 A 
ATOM     34  C   UNL A   1      36.511  33.913  29.530  1.00  0.00     0.010 A 
ATOM     35  C   UNL A   1      36.296  33.242  30.743  1.00  0.00    -0.014 A 
BRANCH  35  36
ATOM     36  C   UNL A   1      37.437  32.584  31.427  1.00  0.00     0.031 A 
ATOM     37  C   UNL A   1      38.145  31.431  30.772  1.00  0.00     0.074 A 
ATOM     38  C   UNL A   1      37.798  32.986  32.662  1.00  0.00     0.049 A 
ATOM     39  N   UNL A   1      39.125  30.693  31.228  1.00  0.00    -0.248 NA
ATOM     40  C   UNL A   1      37.670  31.036  29.437  1.00  0.00     0.031 C 
ATOM     41  C   UNL A   1      37.156  34.059  33.423  1.00  0.00     0.029 A 
ATOM     42  N   UNL A   1      38.789  32.534  33.496  1.00  0.00    -0.354 N 
ATOM     43  C   UNL A   1      39.371  29.743  30.245  1.00  0.00     0.074 A 
ATOM     44  C   UNL A   1      38.399  29.957  29.197  1.00  0.00     0.031 C 
ATOM     45  C   UNL A   1      37.788  34.201  34.600  1.00  0.00     0.029 A 
ATOM     46  C   UNL A   1      38.850  33.205  34.692  1.00  0.00     0.049 A 
ATOM     47  H   UNL A   1      39.399  31.798  33.259  1.00  0.00     0.167 HD
ATOM     48  C   UNL A   1      40.340  28.796  30.208  1.00  0.00     0.037 A 
ATOM     49  C   UNL A   1      39.669  33.031  35.748  1.00  0.00     0.037 A 
ATOM     50  C   UNL A   1      41.318  28.601  31.245  1.00  0.00     0.049 A 
ATOM     51  C   UNL A   1      40.729  31.965  35.685  1.00  0.00     0.074 A 
ATOM     52  C   UNL A   1      42.373  27.707  31.277  1.00  0.00     0.029 A 
ATOM     53  N   UNL A   1      41.358  29.310  32.436  1.00  0.00    -0.354 N 
ATOM     54  N   UNL A   1      41.000  31.121  34.720  1.00  0.00    -0.248 NA
ATOM     55  C   UNL A   1      41.606  31.836  36.857  1.00  0.00     0.031 C 
ATOM     56  C   UNL A   1      43.019  27.838  32.511  1.00  0.00     0.029 A 
ATOM     57  C   UNL A   1      42.407  28.857  33.221  1.00  0.00     0.049 A 
ATOM     58  H   UNL A   1      40.735  30.030  32.687  1.00  0.00     0.167 HD
ATOM     59  C   UNL A   1      42.097  30.385  35.151  1.00  0.00     0.074 A 
ATOM     60  C   UNL A   1      42.449  30.893  36.460  1.00  0.00     0.031 C 
ATOM     61  C   UNL A   1      42.752  29.381  34.519  1.00  0.00     0.037 A 
BRANCH  48  62
ATOM     62  C   UNL A   1      40.386  27.900  29.003  1.00  0.00     0.064 A 
ATOM     63  C   UNL A   1      39.648  26.707  28.941  1.00  0.00     0.173 A 
ATOM     64  C   UNL A   1      41.157  28.250  27.883  1.00  0.00     0.173 A 
ATOM     65  F   UNL A   1      38.904  26.318  29.987  1.00  0.00    -0.203 F 
ATOM     66  C   UNL A   1      39.706  25.884  27.819  1.00  0.00     0.198 A 
ATOM     67  C   UNL A   1      41.185  27.442  26.750  1.00  0.00     0.198 A 
ATOM     68  F   UNL A   1      41.878  29.381  27.885  1.00  0.00    -0.203 F 
ATOM     69  F   UNL A   1      39.038  24.723  27.807  1.00  0.00    -0.200 F 
ATOM     70  C   UNL A   1      40.468  26.256  26.722  1.00  0.00     0.200 A 
ATOM     71  F   UNL A   1      41.910  27.810  25.684  1.00  0.00    -0.200 F 
ATOM     72  F   UNL A   1      40.518  25.465  25.640  1.00  0.00    -0.200 F 
ENDBRANCH  48  62
BRANCH  49  73
ATOM     73  C   UNL A   1      39.537  33.905  36.943  1.00  0.00     0.064 A 
ATOM     74  C   UNL A   1      38.747  33.518  38.035  1.00  0.00     0.173 A 
ATOM     75  C   UNL A   1      40.186  35.146  37.018  1.00  0.00     0.173 A 
ATOM     76  F   UNL A   1      38.089  32.349  38.004  1.00  0.00    -0.203 F 
ATOM     77  C   UNL A   1      38.592  34.347  39.143  1.00  0.00     0.198 A 
ATOM     78  C   UNL A   1      40.057  35.961  38.141  1.00  0.00     0.198 A 
ATOM     79  F   UNL A   1      40.959  35.561  36.004  1.00  0.00    -0.203 F 
ATOM     80  F   UNL A   1      37.790  33.975  40.151  1.00  0.00    -0.200 F 
ATOM     81  C   UNL A   1      39.251  35.566  39.198  1.00  0.00     0.200 A 
ATOM     82  F   UNL A   1      40.708  37.130  38.196  1.00  0.00    -0.200 F 
ATOM     83  F   UNL A   1      39.105  36.363  40.266  1.00  0.00    -0.200 F 
ENDBRANCH  49  73
BRANCH  61  84
ATOM     84  C   UNL A   1      43.948  28.793  35.213  1.00  0.00     0.064 A 
ATOM     85  C   UNL A   1      43.840  27.688  36.069  1.00  0.00     0.173 A 
ATOM     86  C   UNL A   1      45.227  29.326  34.989  1.00  0.00     0.173 A 
ATOM     87  F   UNL A   1      42.639  27.148  36.328  1.00  0.00    -0.203 F 
ATOM     88  C   UNL A   1      44.963  27.157  36.699  1.00  0.00     0.198 A 
ATOM     89  C   UNL A   1      46.352  28.772  35.593  1.00  0.00     0.198 A 
ATOM     90  F   UNL A   1      45.388  30.379  34.173  1.00  0.00    -0.203 F 
ATOM     91  F   UNL A   1      44.827  26.135  37.556  1.00  0.00    -0.200 F 
ATOM     92  C   UNL A   1      46.218  27.694  36.455  1.00  0.00     0.200 A 
ATOM     93  F   UNL A   1      47.565  29.282  35.342  1.00  0.00    -0.200 F 
ATOM     94  F   UNL A   1      47.298  27.177  37.056  1.00  0.00    -0.200 F 
ENDBRANCH  61  84
ENDBRANCH  35  36
ENDBRANCH  27  30
ENDBRANCH  25  26
ENDBRANCH  24  25
ENDBRANCH   1  24
TORSDOF 14
ENDMDL
