MODEL 1
REMARK VINA RESULT:     -12.6      0.000      0.000
REMARK SMILES Cc1ccc(C(=O)CC(C)(C)C(=O)NCCCCNC(=O)c2ccc(-c3c4nc(c(-c5c(F)c(F)c(F)c(F)c5F)c5ccc([nH]5)c(-c5c(F)c(F)c(F)c(F)c5F)c5nc(c(-c6c(F)c(F)c(F)c(F)c6F)c6ccc3[nH]6)C=C5)C=C4)cc2)cc1
REMARK SMILES IDX 16 1 15 2 14 3 12 4 13 5 9 7 10 8 11 9 8 10 6 11 7 12 5 13
REMARK SMILES IDX 1 14 2 15 3 16 86 17 4 18 85 19 17 20 18 21 19 22 20 23
REMARK SMILES IDX 21 25 22 26 23 27 84 28 24 29 83 30 25 31 26 32 27 33 77 34
REMARK SMILES IDX 28 35 82 36 76 37 78 38 29 39 81 40 75 41 74 42 30 44 62 45
REMARK SMILES IDX 42 46 61 47 43 48 46 49 60 50 79 51 44 52 45 53 59 55 80 56
REMARK SMILES IDX 47 57 31 58 32 59 40 60 33 61 34 62 38 63 41 64 35 65 36 66
REMARK SMILES IDX 39 67 37 68 63 69 64 70 72 71 65 72 66 73 70 74 73 75 67 76
REMARK SMILES IDX 68 77 71 78 69 79 48 80 49 81 57 82 50 83 51 84 55 85 58 86
REMARK SMILES IDX 52 87 53 88 56 89 54 90
REMARK H PARENT 14 6 19 24 78 43 46 54
REMARK Flexibility Score: inf
ROOT
ATOM      1  C   UNL A   1      32.822  27.951  26.899  1.00  0.00     0.023 C 
ENDROOT
BRANCH   1   2
ATOM      2  C   UNL A   1      31.726  27.204  26.133  1.00  0.00     0.116 C 
BRANCH   2   3
ATOM      3  N   UNL A   1      31.314  25.960  26.766  1.00  0.00    -0.356 N 
ATOM      4  C   UNL A   1      31.414  24.646  26.414  1.00  0.00     0.226 C 
ATOM      5  O   UNL A   1      30.999  23.842  27.251  1.00  0.00    -0.274 OA
ATOM      6  H   UNL A   1      30.866  26.097  27.632  1.00  0.00     0.163 HD
BRANCH   4   7
ATOM      7  C   UNL A   1      32.005  24.174  25.070  1.00  0.00     0.051 C 
ATOM      8  C   UNL A   1      31.057  24.507  23.913  1.00  0.00     0.022 C 
ATOM      9  C   UNL A   1      32.247  22.650  25.131  1.00  0.00     0.022 C 
BRANCH   7  10
ATOM     10  C   UNL A   1      33.423  24.800  24.826  1.00  0.00     0.097 C 
BRANCH  10  11
ATOM     11  C   UNL A   1      34.465  24.080  23.965  1.00  0.00     0.163 C 
ATOM     12  O   UNL A   1      34.407  24.106  22.736  1.00  0.00    -0.294 OA
BRANCH  11  13
ATOM     13  C   UNL A   1      35.638  23.411  24.590  1.00  0.00     0.018 A 
ATOM     14  C   UNL A   1      39.343  21.845  26.125  1.00  0.00     0.044 C 
ATOM     15  C   UNL A   1      38.026  22.366  25.629  1.00  0.00    -0.051 A 
ATOM     16  C   UNL A   1      37.493  23.553  26.142  1.00  0.00     0.004 A 
ATOM     17  C   UNL A   1      37.296  21.649  24.673  1.00  0.00     0.004 A 
ATOM     18  C   UNL A   1      36.309  24.078  25.620  1.00  0.00     0.012 A 
ATOM     19  C   UNL A   1      36.094  22.157  24.175  1.00  0.00     0.012 A 
ENDBRANCH  11  13
ENDBRANCH  10  11
ENDBRANCH   7  10
ENDBRANCH   4   7
ENDBRANCH   2   3
ENDBRANCH   1   2
BRANCH   1  20
ATOM     20  C   UNL A   1      32.486  29.384  27.311  1.00  0.00     0.023 C 
BRANCH  20  21
ATOM     21  C   UNL A   1      33.389  30.447  26.702  1.00  0.00     0.116 C 
BRANCH  21  22
ATOM     22  N   UNL A   1      33.858  31.471  27.623  1.00  0.00    -0.352 N 
ATOM     23  C   UNL A   1      34.886  31.433  28.552  1.00  0.00     0.251 C 
ATOM     24  H   UNL A   1      33.368  32.325  27.579  1.00  0.00     0.163 HD
ATOM     25  O   UNL A   1      35.028  32.372  29.323  1.00  0.00    -0.269 OA
BRANCH  23  26
ATOM     26  C   UNL A   1      35.901  30.340  28.532  1.00  0.00     0.039 A 
ATOM     27  C   UNL A   1      36.167  29.658  29.730  1.00  0.00     0.014 A 
ATOM     28  C   UNL A   1      36.703  30.099  27.424  1.00  0.00     0.014 A 
ATOM     29  C   UNL A   1      37.361  28.950  29.876  1.00  0.00     0.010 A 
ATOM     30  C   UNL A   1      37.938  29.512  27.598  1.00  0.00     0.010 A 
ATOM     31  C   UNL A   1      38.292  28.986  28.841  1.00  0.00    -0.014 A 
BRANCH  31  32
ATOM     32  C   UNL A   1      39.695  28.623  28.989  1.00  0.00     0.031 A 
ATOM     33  C   UNL A   1      40.187  27.290  28.581  1.00  0.00     0.074 A 
ATOM     34  C   UNL A   1      40.579  29.580  29.349  1.00  0.00     0.049 A 
ATOM     35  N   UNL A   1      41.252  26.742  29.064  1.00  0.00    -0.248 NA
ATOM     36  C   UNL A   1      39.506  26.454  27.597  1.00  0.00     0.031 C 
ATOM     37  C   UNL A   1      42.032  29.534  29.212  1.00  0.00     0.029 A 
ATOM     38  N   UNL A   1      40.333  30.765  30.064  1.00  0.00    -0.354 N 
ATOM     39  C   UNL A   1      41.547  25.648  28.285  1.00  0.00     0.074 A 
ATOM     40  C   UNL A   1      40.398  25.471  27.427  1.00  0.00     0.031 C 
ATOM     41  C   UNL A   1      42.576  30.447  30.031  1.00  0.00     0.029 A 
ATOM     42  C   UNL A   1      41.498  30.999  30.830  1.00  0.00     0.049 A 
ATOM     43  H   UNL A   1      39.519  31.316  30.037  1.00  0.00     0.167 HD
ATOM     44  C   UNL A   1      42.791  25.094  28.341  1.00  0.00     0.037 A 
ATOM     45  C   UNL A   1      41.468  31.006  32.194  1.00  0.00     0.037 A 
ATOM     46  C   UNL A   1      43.658  25.824  29.257  1.00  0.00     0.049 A 
ATOM     47  C   UNL A   1      42.375  29.983  32.833  1.00  0.00     0.074 A 
ATOM     48  C   UNL A   1      44.595  26.822  29.040  1.00  0.00     0.029 A 
ATOM     49  N   UNL A   1      43.405  25.809  30.624  1.00  0.00    -0.354 N 
ATOM     50  N   UNL A   1      42.810  28.921  32.217  1.00  0.00    -0.248 NA
ATOM     51  C   UNL A   1      42.831  30.054  34.218  1.00  0.00     0.031 C 
ATOM     52  C   UNL A   1      44.899  27.420  30.282  1.00  0.00     0.029 A 
ATOM     53  C   UNL A   1      44.152  26.783  31.258  1.00  0.00     0.049 A 
ATOM     54  H   UNL A   1      42.784  25.193  31.074  1.00  0.00     0.167 HD
ATOM     55  C   UNL A   1      43.555  28.164  33.084  1.00  0.00     0.074 A 
ATOM     56  C   UNL A   1      43.553  28.925  34.318  1.00  0.00     0.031 C 
ATOM     57  C   UNL A   1      44.093  26.969  32.698  1.00  0.00     0.037 A 
BRANCH  44  58
ATOM     58  C   UNL A   1      43.302  24.095  27.330  1.00  0.00     0.064 A 
ATOM     59  C   UNL A   1      44.146  24.492  26.270  1.00  0.00     0.173 A 
ATOM     60  C   UNL A   1      42.962  22.731  27.337  1.00  0.00     0.173 A 
ATOM     61  F   UNL A   1      44.643  25.734  26.192  1.00  0.00    -0.203 F 
ATOM     62  C   UNL A   1      44.511  23.627  25.236  1.00  0.00     0.198 A 
ATOM     63  C   UNL A   1      43.285  21.876  26.277  1.00  0.00     0.198 A 
ATOM     64  F   UNL A   1      42.337  22.181  28.388  1.00  0.00    -0.203 F 
ATOM     65  F   UNL A   1      45.301  24.069  24.248  1.00  0.00    -0.200 F 
ATOM     66  C   UNL A   1      44.047  22.328  25.220  1.00  0.00     0.200 A 
ATOM     67  F   UNL A   1      42.846  20.608  26.288  1.00  0.00    -0.200 F 
ATOM     68  F   UNL A   1      44.354  21.512  24.202  1.00  0.00    -0.200 F 
ENDBRANCH  44  58
BRANCH  45  69
ATOM     69  C   UNL A   1      40.159  31.432  32.748  1.00  0.00     0.064 A 
ATOM     70  C   UNL A   1      39.847  32.804  32.740  1.00  0.00     0.173 A 
ATOM     71  C   UNL A   1      39.102  30.525  32.893  1.00  0.00     0.173 A 
ATOM     72  F   UNL A   1      40.824  33.713  32.598  1.00  0.00    -0.203 F 
ATOM     73  C   UNL A   1      38.525  33.244  32.756  1.00  0.00     0.198 A 
ATOM     74  C   UNL A   1      37.780  30.970  32.917  1.00  0.00     0.198 A 
ATOM     75  F   UNL A   1      39.336  29.205  32.889  1.00  0.00    -0.203 F 
ATOM     76  F   UNL A   1      38.255  34.551  32.633  1.00  0.00    -0.200 F 
ATOM     77  C   UNL A   1      37.491  32.323  32.813  1.00  0.00     0.200 A 
ATOM     78  F   UNL A   1      36.778  30.080  32.942  1.00  0.00    -0.200 F 
ATOM     79  F   UNL A   1      36.219  32.737  32.728  1.00  0.00    -0.200 F 
ENDBRANCH  45  69
BRANCH  57  80
ATOM     80  C   UNL A   1      44.712  25.919  33.592  1.00  0.00     0.064 A 
ATOM     81  C   UNL A   1      43.975  25.022  34.380  1.00  0.00     0.173 A 
ATOM     82  C   UNL A   1      46.112  25.688  33.561  1.00  0.00     0.173 A 
ATOM     83  F   UNL A   1      42.637  25.051  34.409  1.00  0.00    -0.203 F 
ATOM     84  C   UNL A   1      44.592  24.012  35.128  1.00  0.00     0.198 A 
ATOM     85  C   UNL A   1      46.716  24.643  34.258  1.00  0.00     0.198 A 
ATOM     86  F   UNL A   1      46.935  26.451  32.829  1.00  0.00    -0.203 F 
ATOM     87  F   UNL A   1      43.844  23.208  35.897  1.00  0.00    -0.200 F 
ATOM     88  C   UNL A   1      45.957  23.814  35.055  1.00  0.00     0.200 A 
ATOM     89  F   UNL A   1      48.034  24.434  34.133  1.00  0.00    -0.200 F 
ATOM     90  F   UNL A   1      46.536  22.815  35.734  1.00  0.00    -0.200 F 
ENDBRANCH  57  80
ENDBRANCH  31  32
ENDBRANCH  23  26
ENDBRANCH  21  22
ENDBRANCH  20  21
ENDBRANCH   1  20
TORSDOF 14
ENDMDL
MODEL 2
REMARK VINA RESULT:     -12.5      3.434      9.744
REMARK SMILES Cc1ccc(C(=O)CC(C)(C)C(=O)NCCCCNC(=O)c2ccc(-c3c4nc(c(-c5c(F)c(F)c(F)c(F)c5F)c5ccc([nH]5)c(-c5c(F)c(F)c(F)c(F)c5F)c5nc(c(-c6c(F)c(F)c(F)c(F)c6F)c6ccc3[nH]6)C=C5)C=C4)cc2)cc1
REMARK SMILES IDX 16 1 15 2 14 3 12 4 13 5 9 7 10 8 11 9 8 10 6 11 7 12 5 13
REMARK SMILES IDX 1 14 2 15 3 16 86 17 4 18 85 19 17 20 18 21 19 22 20 23
REMARK SMILES IDX 21 25 22 26 23 27 84 28 24 29 83 30 25 31 26 32 27 33 77 34
REMARK SMILES IDX 28 35 82 36 76 37 78 38 29 39 81 40 75 41 74 42 30 44 62 45
REMARK SMILES IDX 42 46 61 47 43 48 46 49 60 50 79 51 44 52 45 53 59 55 80 56
REMARK SMILES IDX 47 57 31 58 32 59 40 60 33 61 34 62 38 63 41 64 35 65 36 66
REMARK SMILES IDX 39 67 37 68 63 69 64 70 72 71 65 72 66 73 70 74 73 75 67 76
REMARK SMILES IDX 68 77 71 78 69 79 48 80 49 81 57 82 50 83 51 84 55 85 58 86
REMARK SMILES IDX 52 87 53 88 56 89 54 90
REMARK H PARENT 14 6 19 24 78 43 46 54
REMARK Flexibility Score: inf
ROOT
ATOM      1  C   UNL A   1      36.994  21.325  24.698  1.00  0.00     0.023 C 
ENDROOT
BRANCH   1   2
ATOM      2  C   UNL A   1      35.635  20.814  25.183  1.00  0.00     0.116 C 
BRANCH   2   3
ATOM      3  N   UNL A   1      35.204  21.400  26.444  1.00  0.00    -0.356 N 
ATOM      4  C   UNL A   1      34.308  22.375  26.772  1.00  0.00     0.226 C 
ATOM      5  O   UNL A   1      34.155  22.567  27.980  1.00  0.00    -0.274 OA
ATOM      6  H   UNL A   1      35.658  21.011  27.226  1.00  0.00     0.163 HD
BRANCH   4   7
ATOM      7  C   UNL A   1      33.526  23.190  25.723  1.00  0.00     0.051 C 
ATOM      8  C   UNL A   1      32.713  22.265  24.811  1.00  0.00     0.022 C 
ATOM      9  C   UNL A   1      34.521  24.018  24.880  1.00  0.00     0.022 C 
BRANCH   7  10
ATOM     10  C   UNL A   1      32.598  24.253  26.410  1.00  0.00     0.097 C 
BRANCH  10  11
ATOM     11  C   UNL A   1      32.222  25.553  25.694  1.00  0.00     0.163 C 
ATOM     12  O   UNL A   1      31.529  25.544  24.677  1.00  0.00    -0.294 OA
BRANCH  11  13
ATOM     13  C   UNL A   1      32.600  26.874  26.265  1.00  0.00     0.018 A 
ATOM     14  C   UNL A   1      33.428  30.919  27.484  1.00  0.00     0.044 C 
ATOM     15  C   UNL A   1      33.150  29.493  27.108  1.00  0.00    -0.051 A 
ATOM     16  C   UNL A   1      31.877  28.943  27.296  1.00  0.00     0.004 A 
ATOM     17  C   UNL A   1      34.173  28.683  26.600  1.00  0.00     0.004 A 
ATOM     18  C   UNL A   1      31.600  27.643  26.869  1.00  0.00     0.012 A 
ATOM     19  C   UNL A   1      33.905  27.370  26.205  1.00  0.00     0.012 A 
ENDBRANCH  11  13
ENDBRANCH  10  11
ENDBRANCH   7  10
ENDBRANCH   4   7
ENDBRANCH   2   3
ENDBRANCH   1   2
BRANCH   1  20
ATOM     20  C   UNL A   1      38.045  21.549  25.784  1.00  0.00     0.023 C 
BRANCH  20  21
ATOM     21  C   UNL A   1      38.889  22.803  25.601  1.00  0.00     0.116 C 
BRANCH  21  22
ATOM     22  N   UNL A   1      40.191  22.781  26.250  1.00  0.00    -0.352 N 
ATOM     23  C   UNL A   1      40.919  23.811  26.826  1.00  0.00     0.251 C 
ATOM     24  H   UNL A   1      40.624  21.896  26.284  1.00  0.00     0.163 HD
ATOM     25  O   UNL A   1      42.062  23.594  27.203  1.00  0.00    -0.269 OA
BRANCH  23  26
ATOM     26  C   UNL A   1      40.285  25.128  27.122  1.00  0.00     0.039 A 
ATOM     27  C   UNL A   1      40.685  26.242  26.367  1.00  0.00     0.014 A 
ATOM     28  C   UNL A   1      39.456  25.318  28.220  1.00  0.00     0.014 A 
ATOM     29  C   UNL A   1      40.463  27.530  26.856  1.00  0.00     0.010 A 
ATOM     30  C   UNL A   1      39.345  26.575  28.774  1.00  0.00     0.010 A 
ATOM     31  C   UNL A   1      39.897  27.678  28.121  1.00  0.00    -0.014 A 
BRANCH  31  32
ATOM     32  C   UNL A   1      39.947  28.906  28.902  1.00  0.00     0.031 A 
ATOM     33  C   UNL A   1      38.884  29.927  28.791  1.00  0.00     0.074 A 
ATOM     34  C   UNL A   1      40.893  29.027  29.860  1.00  0.00     0.049 A 
ATOM     35  N   UNL A   1      39.058  31.174  29.077  1.00  0.00    -0.248 NA
ATOM     36  C   UNL A   1      37.532  29.626  28.332  1.00  0.00     0.031 C 
ATOM     37  C   UNL A   1      40.908  29.979  30.967  1.00  0.00     0.029 A 
ATOM     38  N   UNL A   1      42.140  28.383  29.936  1.00  0.00    -0.354 N 
ATOM     39  C   UNL A   1      37.820  31.770  29.112  1.00  0.00     0.074 A 
ATOM     40  C   UNL A   1      36.909  30.783  28.577  1.00  0.00     0.031 C 
ATOM     41  C   UNL A   1      42.161  30.076  31.440  1.00  0.00     0.029 A 
ATOM     42  C   UNL A   1      43.013  29.308  30.553  1.00  0.00     0.049 A 
ATOM     43  H   UNL A   1      42.359  27.476  29.625  1.00  0.00     0.167 HD
ATOM     44  C   UNL A   1      37.667  32.978  29.724  1.00  0.00     0.037 A 
ATOM     45  C   UNL A   1      44.105  29.805  29.903  1.00  0.00     0.037 A 
ATOM     46  C   UNL A   1      38.922  33.445  30.299  1.00  0.00     0.049 A 
ATOM     47  C   UNL A   1      44.106  31.307  29.766  1.00  0.00     0.074 A 
ATOM     48  C   UNL A   1      39.436  33.357  31.583  1.00  0.00     0.029 A 
ATOM     49  N   UNL A   1      39.980  33.807  29.473  1.00  0.00    -0.354 N 
ATOM     50  N   UNL A   1      43.031  32.039  29.843  1.00  0.00    -0.248 NA
ATOM     51  C   UNL A   1      45.303  32.097  29.494  1.00  0.00     0.031 C 
ATOM     52  C   UNL A   1      40.815  33.654  31.528  1.00  0.00     0.029 A 
ATOM     53  C   UNL A   1      41.141  33.932  30.212  1.00  0.00     0.049 A 
ATOM     54  H   UNL A   1      39.910  33.955  28.502  1.00  0.00     0.167 HD
ATOM     55  C   UNL A   1      43.355  33.351  29.612  1.00  0.00     0.074 A 
ATOM     56  C   UNL A   1      44.791  33.338  29.418  1.00  0.00     0.031 C 
ATOM     57  C   UNL A   1      42.396  34.324  29.593  1.00  0.00     0.037 A 
BRANCH  44  58
ATOM     58  C   UNL A   1      36.321  33.569  30.071  1.00  0.00     0.064 A 
ATOM     59  C   UNL A   1      35.434  34.011  29.065  1.00  0.00     0.173 A 
ATOM     60  C   UNL A   1      35.865  33.758  31.388  1.00  0.00     0.173 A 
ATOM     61  F   UNL A   1      35.681  33.801  27.766  1.00  0.00    -0.203 F 
ATOM     62  C   UNL A   1      34.253  34.699  29.355  1.00  0.00     0.198 A 
ATOM     63  C   UNL A   1      34.708  34.489  31.679  1.00  0.00     0.198 A 
ATOM     64  F   UNL A   1      36.510  33.207  32.427  1.00  0.00    -0.203 F 
ATOM     65  F   UNL A   1      33.461  35.109  28.355  1.00  0.00    -0.200 F 
ATOM     66  C   UNL A   1      33.911  34.973  30.662  1.00  0.00     0.200 A 
ATOM     67  F   UNL A   1      34.376  34.727  32.957  1.00  0.00    -0.200 F 
ATOM     68  F   UNL A   1      32.805  35.677  30.940  1.00  0.00    -0.200 F 
ENDBRANCH  44  58
BRANCH  45  69
ATOM     69  C   UNL A   1      44.663  28.868  28.896  1.00  0.00     0.064 A 
ATOM     70  C   UNL A   1      45.455  27.797  29.350  1.00  0.00     0.173 A 
ATOM     71  C   UNL A   1      44.117  28.774  27.611  1.00  0.00     0.173 A 
ATOM     72  F   UNL A   1      45.996  27.837  30.578  1.00  0.00    -0.203 F 
ATOM     73  C   UNL A   1      45.596  26.633  28.597  1.00  0.00     0.198 A 
ATOM     74  C   UNL A   1      44.267  27.609  26.856  1.00  0.00     0.198 A 
ATOM     75  F   UNL A   1      43.338  29.755  27.132  1.00  0.00    -0.203 F 
ATOM     76  F   UNL A   1      46.263  25.586  29.104  1.00  0.00    -0.200 F 
ATOM     77  C   UNL A   1      44.975  26.530  27.363  1.00  0.00     0.200 A 
ATOM     78  F   UNL A   1      43.642  27.496  25.676  1.00  0.00    -0.200 F 
ATOM     79  F   UNL A   1      45.025  25.376  26.682  1.00  0.00    -0.200 F 
ENDBRANCH  45  69
BRANCH  57  80
ATOM     80  C   UNL A   1      42.555  35.748  29.113  1.00  0.00     0.064 A 
ATOM     81  C   UNL A   1      41.927  36.269  27.971  1.00  0.00     0.173 A 
ATOM     82  C   UNL A   1      43.253  36.697  29.904  1.00  0.00     0.173 A 
ATOM     83  F   UNL A   1      41.140  35.511  27.197  1.00  0.00    -0.203 F 
ATOM     84  C   UNL A   1      42.039  37.617  27.613  1.00  0.00     0.198 A 
ATOM     85  C   UNL A   1      43.311  38.051  29.578  1.00  0.00     0.198 A 
ATOM     86  F   UNL A   1      43.878  36.345  31.038  1.00  0.00    -0.203 F 
ATOM     87  F   UNL A   1      41.454  38.054  26.489  1.00  0.00    -0.200 F 
ATOM     88  C   UNL A   1      42.717  38.509  28.423  1.00  0.00     0.200 A 
ATOM     89  F   UNL A   1      43.927  38.909  30.404  1.00  0.00    -0.200 F 
ATOM     90  F   UNL A   1      42.778  39.808  28.101  1.00  0.00    -0.200 F 
ENDBRANCH  57  80
ENDBRANCH  31  32
ENDBRANCH  23  26
ENDBRANCH  21  22
ENDBRANCH  20  21
ENDBRANCH   1  20
TORSDOF 14
ENDMDL
MODEL 3
REMARK VINA RESULT:     -12.3      1.538      3.576
REMARK SMILES Cc1ccc(C(=O)CC(C)(C)C(=O)NCCCCNC(=O)c2ccc(-c3c4nc(c(-c5c(F)c(F)c(F)c(F)c5F)c5ccc([nH]5)c(-c5c(F)c(F)c(F)c(F)c5F)c5nc(c(-c6c(F)c(F)c(F)c(F)c6F)c6ccc3[nH]6)C=C5)C=C4)cc2)cc1
REMARK SMILES IDX 16 1 15 2 14 3 12 4 13 5 9 7 10 8 11 9 8 10 6 11 7 12 5 13
REMARK SMILES IDX 1 14 2 15 3 16 86 17 4 18 85 19 17 20 18 21 19 22 20 23
REMARK SMILES IDX 21 25 22 26 23 27 84 28 24 29 83 30 25 31 26 32 27 33 77 34
REMARK SMILES IDX 28 35 82 36 76 37 78 38 29 39 81 40 75 41 74 42 30 44 62 45
REMARK SMILES IDX 42 46 61 47 43 48 46 49 60 50 79 51 44 52 45 53 59 55 80 56
REMARK SMILES IDX 47 57 31 58 32 59 40 60 33 61 34 62 38 63 41 64 35 65 36 66
REMARK SMILES IDX 39 67 37 68 63 69 64 70 72 71 65 72 66 73 70 74 73 75 67 76
REMARK SMILES IDX 68 77 71 78 69 79 48 80 49 81 57 82 50 83 51 84 55 85 58 86
REMARK SMILES IDX 52 87 53 88 56 89 54 90
REMARK H PARENT 14 6 19 24 78 43 46 54
REMARK Flexibility Score: inf
ROOT
ATOM      1  C   UNL A   1      31.467  30.344  25.716  1.00  0.00     0.023 C 
ENDROOT
BRANCH   1   2
ATOM      2  C   UNL A   1      32.169  28.994  25.542  1.00  0.00     0.116 C 
BRANCH   2   3
ATOM      3  N   UNL A   1      31.482  27.887  26.191  1.00  0.00    -0.356 N 
ATOM      4  C   UNL A   1      31.685  26.539  26.220  1.00  0.00     0.226 C 
ATOM      5  O   UNL A   1      30.920  25.904  26.948  1.00  0.00    -0.274 OA
ATOM      6  H   UNL A   1      30.703  28.174  26.722  1.00  0.00     0.163 HD
BRANCH   4   7
ATOM      7  C   UNL A   1      32.792  25.835  25.409  1.00  0.00     0.051 C 
ATOM      8  C   UNL A   1      32.847  24.341  25.748  1.00  0.00     0.022 C 
ATOM      9  C   UNL A   1      34.151  26.497  25.727  1.00  0.00     0.022 C 
BRANCH   7  10
ATOM     10  C   UNL A   1      32.588  26.050  23.868  1.00  0.00     0.097 C 
BRANCH  10  11
ATOM     11  C   UNL A   1      31.225  25.813  23.212  1.00  0.00     0.163 C 
ATOM     12  O   UNL A   1      30.863  24.683  22.883  1.00  0.00    -0.294 OA
BRANCH  11  13
ATOM     13  C   UNL A   1      30.255  26.928  23.046  1.00  0.00     0.018 A 
ATOM     14  C   UNL A   1      27.744  30.423  22.948  1.00  0.00     0.044 C 
ATOM     15  C   UNL A   1      28.599  29.191  22.935  1.00  0.00    -0.051 A 
ATOM     16  C   UNL A   1      29.853  29.202  22.313  1.00  0.00     0.004 A 
ATOM     17  C   UNL A   1      28.137  28.003  23.513  1.00  0.00     0.004 A 
ATOM     18  C   UNL A   1      30.680  28.079  22.375  1.00  0.00     0.012 A 
ATOM     19  C   UNL A   1      28.951  26.868  23.544  1.00  0.00     0.012 A 
ENDBRANCH  11  13
ENDBRANCH  10  11
ENDBRANCH   7  10
ENDBRANCH   4   7
ENDBRANCH   2   3
ENDBRANCH   1   2
BRANCH   1  20
ATOM     20  C   UNL A   1      32.001  31.229  26.841  1.00  0.00     0.023 C 
BRANCH  20  21
ATOM     21  C   UNL A   1      33.377  30.837  27.358  1.00  0.00     0.116 C 
BRANCH  21  22
ATOM     22  N   UNL A   1      34.012  31.803  28.242  1.00  0.00    -0.352 N 
ATOM     23  C   UNL A   1      35.144  31.679  29.034  1.00  0.00     0.251 C 
ATOM     24  H   UNL A   1      33.568  32.681  28.285  1.00  0.00     0.163 HD
ATOM     25  O   UNL A   1      35.431  32.582  29.808  1.00  0.00    -0.269 OA
BRANCH  23  26
ATOM     26  C   UNL A   1      36.086  30.538  28.855  1.00  0.00     0.039 A 
ATOM     27  C   UNL A   1      36.379  29.736  29.971  1.00  0.00     0.014 A 
ATOM     28  C   UNL A   1      36.807  30.353  27.683  1.00  0.00     0.014 A 
ATOM     29  C   UNL A   1      37.533  28.952  29.980  1.00  0.00     0.010 A 
ATOM     30  C   UNL A   1      38.012  29.685  27.728  1.00  0.00     0.010 A 
ATOM     31  C   UNL A   1      38.404  29.029  28.896  1.00  0.00    -0.014 A 
BRANCH  31  32
ATOM     32  C   UNL A   1      39.788  28.576  28.923  1.00  0.00     0.031 A 
ATOM     33  C   UNL A   1      40.152  27.205  28.508  1.00  0.00     0.074 A 
ATOM     34  C   UNL A   1      40.762  29.479  29.173  1.00  0.00     0.049 A 
ATOM     35  N   UNL A   1      41.220  26.597  28.906  1.00  0.00    -0.248 NA
ATOM     36  C   UNL A   1      39.330  26.395  27.615  1.00  0.00     0.031 C 
ATOM     37  C   UNL A   1      42.190  29.333  28.903  1.00  0.00     0.029 A 
ATOM     38  N   UNL A   1      40.662  30.693  29.875  1.00  0.00    -0.354 N 
ATOM     39  C   UNL A   1      41.369  25.470  28.133  1.00  0.00     0.074 A 
ATOM     40  C   UNL A   1      40.135  25.352  27.391  1.00  0.00     0.031 C 
ATOM     41  C   UNL A   1      42.866  30.225  29.644  1.00  0.00     0.029 A 
ATOM     42  C   UNL A   1      41.906  30.865  30.523  1.00  0.00     0.049 A 
ATOM     43  H   UNL A   1      39.886  31.297  29.908  1.00  0.00     0.167 HD
ATOM     44  C   UNL A   1      42.575  24.835  28.089  1.00  0.00     0.037 A 
ATOM     45  C   UNL A   1      42.006  30.904  31.884  1.00  0.00     0.037 A 
ATOM     46  C   UNL A   1      43.569  25.525  28.901  1.00  0.00     0.049 A 
ATOM     47  C   UNL A   1      42.900  29.837  32.464  1.00  0.00     0.074 A 
ATOM     48  C   UNL A   1      44.545  26.453  28.571  1.00  0.00     0.029 A 
ATOM     49  N   UNL A   1      43.446  25.556  30.285  1.00  0.00    -0.354 N 
ATOM     50  N   UNL A   1      43.206  28.734  31.840  1.00  0.00    -0.248 NA
ATOM     51  C   UNL A   1      43.488  29.906  33.798  1.00  0.00     0.031 C 
ATOM     52  C   UNL A   1      45.002  27.056  29.762  1.00  0.00     0.029 A 
ATOM     53  C   UNL A   1      44.311  26.492  30.820  1.00  0.00     0.049 A 
ATOM     54  H   UNL A   1      42.831  24.993  30.808  1.00  0.00     0.167 HD
ATOM     55  C   UNL A   1      43.978  27.948  32.655  1.00  0.00     0.074 A 
ATOM     56  C   UNL A   1      44.142  28.733  33.862  1.00  0.00     0.031 C 
ATOM     57  C   UNL A   1      44.399  26.712  32.254  1.00  0.00     0.037 A 
BRANCH  44  58
ATOM     58  C   UNL A   1      42.923  23.782  27.064  1.00  0.00     0.064 A 
ATOM     59  C   UNL A   1      42.614  22.420  27.278  1.00  0.00     0.173 A 
ATOM     60  C   UNL A   1      43.596  24.054  25.860  1.00  0.00     0.173 A 
ATOM     61  F   UNL A   1      41.880  22.021  28.324  1.00  0.00    -0.203 F 
ATOM     62  C   UNL A   1      43.055  21.407  26.424  1.00  0.00     0.198 A 
ATOM     63  C   UNL A   1      44.081  23.038  25.030  1.00  0.00     0.198 A 
ATOM     64  F   UNL A   1      43.771  25.315  25.437  1.00  0.00    -0.203 F 
ATOM     65  F   UNL A   1      42.744  20.132  26.690  1.00  0.00    -0.200 F 
ATOM     66  C   UNL A   1      43.823  21.714  25.320  1.00  0.00     0.200 A 
ATOM     67  F   UNL A   1      44.807  23.353  23.947  1.00  0.00    -0.200 F 
ATOM     68  F   UNL A   1      44.291  20.738  24.529  1.00  0.00    -0.200 F 
ENDBRANCH  44  58
BRANCH  45  69
ATOM     69  C   UNL A   1      40.784  31.428  32.544  1.00  0.00     0.064 A 
ATOM     70  C   UNL A   1      40.571  32.819  32.542  1.00  0.00     0.173 A 
ATOM     71  C   UNL A   1      39.683  30.602  32.796  1.00  0.00     0.173 A 
ATOM     72  F   UNL A   1      41.594  33.654  32.300  1.00  0.00    -0.203 F 
ATOM     73  C   UNL A   1      39.290  33.353  32.668  1.00  0.00     0.198 A 
ATOM     74  C   UNL A   1      38.403  31.141  32.929  1.00  0.00     0.198 A 
ATOM     75  F   UNL A   1      39.821  29.267  32.792  1.00  0.00    -0.203 F 
ATOM     76  F   UNL A   1      39.104  34.676  32.548  1.00  0.00    -0.200 F 
ATOM     77  C   UNL A   1      38.203  32.510  32.830  1.00  0.00     0.200 A 
ATOM     78  F   UNL A   1      37.346  30.326  33.057  1.00  0.00    -0.200 F 
ATOM     79  F   UNL A   1      36.961  33.014  32.851  1.00  0.00    -0.200 F 
ENDBRANCH  45  69
BRANCH  57  80
ATOM     80  C   UNL A   1      45.030  25.642  33.116  1.00  0.00     0.064 A 
ATOM     81  C   UNL A   1      46.393  25.309  33.086  1.00  0.00     0.173 A 
ATOM     82  C   UNL A   1      44.274  25.006  34.135  1.00  0.00     0.173 A 
ATOM     83  F   UNL A   1      47.245  25.919  32.253  1.00  0.00    -0.203 F 
ATOM     84  C   UNL A   1      46.946  24.369  33.963  1.00  0.00     0.198 A 
ATOM     85  C   UNL A   1      44.841  24.117  35.046  1.00  0.00     0.198 A 
ATOM     86  F   UNL A   1      42.966  25.251  34.298  1.00  0.00    -0.203 F 
ATOM     87  F   UNL A   1      48.245  24.056  33.863  1.00  0.00    -0.200 F 
ATOM     88  C   UNL A   1      46.175  23.785  34.950  1.00  0.00     0.200 A 
ATOM     89  F   UNL A   1      44.089  23.603  36.030  1.00  0.00    -0.200 F 
ATOM     90  F   UNL A   1      46.721  22.923  35.818  1.00  0.00    -0.200 F 
ENDBRANCH  57  80
ENDBRANCH  31  32
ENDBRANCH  23  26
ENDBRANCH  21  22
ENDBRANCH  20  21
ENDBRANCH   1  20
TORSDOF 14
ENDMDL
