MODEL 1
REMARK VINA RESULT:     -14.4      0.000      0.000
REMARK SMILES COc1cc([C@@H]2CC(=O)Nc3c(C(=O)NCCCCNC(=O)c4ccc(-c5c6nc(c(-c7c(F)c(F)c(F)c(F)c7F)c7ccc([nH]7)c(-c7c(F)c(F)c(F)c(F)c7F)c7nc(c(-c8c(F)c(F)c(F)c(F)c8F)c8ccc5[nH]8)C=C7)C=C6)cc4)cn(-c4ccccc4)c32)ccc1O
REMARK SMILES IDX 17 1 16 2 15 3 13 4 14 5 12 7 6 8 7 9 94 10 8 11 11 12 87 13
REMARK SMILES IDX 9 14 10 15 86 16 5 18 3 19 4 20 97 21 96 22 95 23 2 24 1 25
REMARK SMILES IDX 98 26 88 28 89 29 93 30 90 31 92 32 91 33 18 34 19 35 20 36
REMARK SMILES IDX 21 37 22 39 23 40 24 41 85 42 25 43 84 44 26 45 27 46 28 47
REMARK SMILES IDX 78 48 29 49 83 50 77 51 79 52 30 53 82 54 76 55 75 56 31 58
REMARK SMILES IDX 63 59 43 60 62 61 44 62 47 63 61 64 80 65 45 66 46 67 60 69
REMARK SMILES IDX 81 70 48 71 32 72 33 73 41 74 34 75 35 76 39 77 42 78 36 79
REMARK SMILES IDX 37 80 40 81 38 82 64 83 65 84 73 85 66 86 67 87 71 88 74 89
REMARK SMILES IDX 68 90 69 91 72 92 70 93 49 94 50 95 58 96 51 97 52 98 56 99
REMARK SMILES IDX 59 100 53 101 54 102 57 103 55 104
REMARK H PARENT 15 6 10 17 98 27 20 38 79 57 47 68
REMARK Flexibility Score: inf
ROOT
ATOM      1  C   UNL A   1      37.614  23.045  25.842  1.00  0.00     0.023 C 
ENDROOT
BRANCH   1   2
ATOM      2  C   UNL A   1      36.451  23.057  24.842  1.00  0.00     0.116 C 
BRANCH   2   3
ATOM      3  N   UNL A   1      35.206  22.709  25.479  1.00  0.00    -0.352 N 
ATOM      4  C   UNL A   1      34.005  23.345  25.637  1.00  0.00     0.254 C 
ATOM      5  O   UNL A   1      33.152  22.665  26.220  1.00  0.00    -0.269 OA
ATOM      6  H   UNL A   1      35.224  21.815  25.893  1.00  0.00     0.163 HD
BRANCH   4   7
ATOM      7  C   UNL A   1      33.670  24.696  25.157  1.00  0.00     0.081 A 
ATOM      8  C   UNL A   1      32.745  27.704  23.119  1.00  0.00     0.078 C 
ATOM      9  C   UNL A   1      33.293  27.246  21.763  1.00  0.00     0.115 C 
ATOM     10  C   UNL A   1      33.081  26.678  24.170  1.00  0.00     0.055 A 
ATOM     11  C   UNL A   1      33.158  25.757  21.534  1.00  0.00     0.225 C 
ATOM     12  C   UNL A   1      33.379  25.351  23.918  1.00  0.00     0.076 A 
ATOM     13  N   UNL A   1      33.245  26.915  25.514  1.00  0.00    -0.317 N 
ATOM     14  O   UNL A   1      33.024  25.274  20.411  1.00  0.00    -0.275 OA
ATOM     15  N   UNL A   1      33.336  24.929  22.611  1.00  0.00    -0.324 N 
ATOM     16  C   UNL A   1      33.651  25.739  26.091  1.00  0.00     0.107 A 
ATOM     17  H   UNL A   1      33.438  23.965  22.437  1.00  0.00     0.170 HD
BRANCH   8  18
ATOM     18  C   UNL A   1      31.257  28.025  23.029  1.00  0.00    -0.034 A 
ATOM     19  C   UNL A   1      29.493  29.585  22.380  1.00  0.00     0.160 A 
ATOM     20  C   UNL A   1      30.844  29.228  22.420  1.00  0.00     0.054 A 
ATOM     21  C   UNL A   1      28.543  28.703  22.894  1.00  0.00     0.157 A 
ATOM     22  C   UNL A   1      28.929  27.514  23.502  1.00  0.00     0.050 A 
ATOM     23  C   UNL A   1      30.279  27.168  23.560  1.00  0.00     0.008 A 
BRANCH  19  24
ATOM     24  O   UNL A   1      29.163  30.731  21.709  1.00  0.00    -0.493 OA
ATOM     25  C   UNL A   1      28.808  31.834  22.545  1.00  0.00     0.278 C 
ENDBRANCH  19  24
BRANCH  21  26
ATOM     26  O   UNL A   1      27.202  28.926  22.762  1.00  0.00    -0.504 OA
ATOM     27  H   UNL A   1      26.767  28.702  21.962  1.00  0.00     0.293 HD
ENDBRANCH  21  26
ENDBRANCH   8  18
BRANCH  13  28
ATOM     28  C   UNL A   1      33.118  28.153  26.182  1.00  0.00     0.045 A 
ATOM     29  C   UNL A   1      31.853  28.707  26.387  1.00  0.00     0.026 A 
ATOM     30  C   UNL A   1      34.266  28.852  26.561  1.00  0.00     0.026 A 
ATOM     31  C   UNL A   1      31.731  30.004  26.877  1.00  0.00     0.002 A 
ATOM     32  C   UNL A   1      34.137  30.153  27.053  1.00  0.00     0.002 A 
ATOM     33  C   UNL A   1      32.875  30.735  27.190  1.00  0.00     0.000 A 
ENDBRANCH  13  28
ENDBRANCH   4   7
ENDBRANCH   2   3
ENDBRANCH   1   2
BRANCH   1  34
ATOM     34  C   UNL A   1      38.619  21.904  25.649  1.00  0.00     0.023 C 
BRANCH  34  35
ATOM     35  C   UNL A   1      39.693  21.829  26.733  1.00  0.00     0.116 C 
BRANCH  35  36
ATOM     36  N   UNL A   1      41.046  21.924  26.198  1.00  0.00    -0.352 N 
ATOM     37  C   UNL A   1      41.765  23.070  25.924  1.00  0.00     0.251 C 
ATOM     38  H   UNL A   1      41.501  21.071  26.010  1.00  0.00     0.163 HD
ATOM     39  O   UNL A   1      42.653  23.074  25.086  1.00  0.00    -0.269 OA
BRANCH  37  40
ATOM     40  C   UNL A   1      41.450  24.298  26.676  1.00  0.00     0.039 A 
ATOM     41  C   UNL A   1      42.015  24.525  27.932  1.00  0.00     0.014 A 
ATOM     42  C   UNL A   1      40.582  25.228  26.099  1.00  0.00     0.014 A 
ATOM     43  C   UNL A   1      41.765  25.737  28.569  1.00  0.00     0.010 A 
ATOM     44  C   UNL A   1      40.406  26.463  26.686  1.00  0.00     0.010 A 
ATOM     45  C   UNL A   1      40.978  26.713  27.929  1.00  0.00    -0.014 A 
BRANCH  45  46
ATOM     46  C   UNL A   1      40.919  28.067  28.477  1.00  0.00     0.031 A 
ATOM     47  C   UNL A   1      41.976  28.964  27.934  1.00  0.00     0.074 A 
ATOM     48  C   UNL A   1      39.908  28.538  29.239  1.00  0.00     0.049 A 
ATOM     49  N   UNL A   1      42.996  29.443  28.565  1.00  0.00    -0.248 NA
ATOM     50  C   UNL A   1      42.002  29.230  26.486  1.00  0.00     0.031 C 
ATOM     51  C   UNL A   1      38.650  27.870  29.580  1.00  0.00     0.029 A 
ATOM     52  N   UNL A   1      39.755  29.768  29.811  1.00  0.00    -0.354 N 
ATOM     53  C   UNL A   1      43.678  30.242  27.652  1.00  0.00     0.074 A 
ATOM     54  C   UNL A   1      43.140  29.917  26.360  1.00  0.00     0.031 C 
ATOM     55  C   UNL A   1      37.783  28.769  30.102  1.00  0.00     0.029 A 
ATOM     56  C   UNL A   1      38.470  30.035  30.282  1.00  0.00     0.049 A 
ATOM     57  H   UNL A   1      40.493  30.416  29.884  1.00  0.00     0.167 HD
ATOM     58  C   UNL A   1      44.434  31.289  28.089  1.00  0.00     0.037 A 
ATOM     59  C   UNL A   1      38.005  31.215  30.768  1.00  0.00     0.037 A 
ATOM     60  C   UNL A   1      44.696  31.158  29.503  1.00  0.00     0.049 A 
ATOM     61  C   UNL A   1      39.185  32.024  31.151  1.00  0.00     0.074 A 
ATOM     62  C   UNL A   1      45.340  30.237  30.305  1.00  0.00     0.029 A 
ATOM     63  N   UNL A   1      43.903  31.901  30.341  1.00  0.00    -0.354 N 
ATOM     64  N   UNL A   1      39.967  31.740  32.153  1.00  0.00    -0.248 NA
ATOM     65  C   UNL A   1      39.745  32.920  30.154  1.00  0.00     0.031 C 
ATOM     66  C   UNL A   1      44.570  30.184  31.504  1.00  0.00     0.029 A 
ATOM     67  C   UNL A   1      43.547  31.130  31.412  1.00  0.00     0.049 A 
ATOM     68  H   UNL A   1      43.634  32.836  30.195  1.00  0.00     0.167 HD
ATOM     69  C   UNL A   1      41.240  32.024  31.687  1.00  0.00     0.074 A 
ATOM     70  C   UNL A   1      41.032  32.857  30.505  1.00  0.00     0.031 C 
ATOM     71  C   UNL A   1      42.311  31.309  32.136  1.00  0.00     0.037 A 
BRANCH  58  72
ATOM     72  C   UNL A   1      44.545  32.635  27.392  1.00  0.00     0.064 A 
ATOM     73  C   UNL A   1      45.691  32.891  26.604  1.00  0.00     0.173 A 
ATOM     74  C   UNL A   1      43.778  33.774  27.716  1.00  0.00     0.173 A 
ATOM     75  F   UNL A   1      46.501  31.890  26.227  1.00  0.00    -0.203 F 
ATOM     76  C   UNL A   1      46.098  34.188  26.281  1.00  0.00     0.198 A 
ATOM     77  C   UNL A   1      44.162  35.064  27.347  1.00  0.00     0.198 A 
ATOM     78  F   UNL A   1      42.689  33.716  28.488  1.00  0.00    -0.203 F 
ATOM     79  F   UNL A   1      47.273  34.382  25.665  1.00  0.00    -0.200 F 
ATOM     80  C   UNL A   1      45.340  35.275  26.665  1.00  0.00     0.200 A 
ATOM     81  F   UNL A   1      43.417  36.108  27.740  1.00  0.00    -0.200 F 
ATOM     82  F   UNL A   1      45.761  36.523  26.421  1.00  0.00    -0.200 F 
ENDBRANCH  58  72
BRANCH  59  83
ATOM     83  C   UNL A   1      36.652  31.819  30.699  1.00  0.00     0.064 A 
ATOM     84  C   UNL A   1      35.926  32.108  31.871  1.00  0.00     0.173 A 
ATOM     85  C   UNL A   1      36.179  32.414  29.515  1.00  0.00     0.173 A 
ATOM     86  F   UNL A   1      36.329  31.618  33.053  1.00  0.00    -0.203 F 
ATOM     87  C   UNL A   1      34.825  32.972  31.865  1.00  0.00     0.198 A 
ATOM     88  C   UNL A   1      35.076  33.272  29.508  1.00  0.00     0.198 A 
ATOM     89  F   UNL A   1      36.841  32.257  28.360  1.00  0.00    -0.203 F 
ATOM     90  F   UNL A   1      34.208  33.281  33.014  1.00  0.00    -0.200 F 
ATOM     91  C   UNL A   1      34.410  33.565  30.685  1.00  0.00     0.200 A 
ATOM     92  F   UNL A   1      34.709  33.871  28.367  1.00  0.00    -0.200 F 
ATOM     93  F   UNL A   1      33.403  34.449  30.687  1.00  0.00    -0.200 F 
ENDBRANCH  59  83
BRANCH  71  94
ATOM     94  C   UNL A   1      42.133  30.488  33.383  1.00  0.00     0.064 A 
ATOM     95  C   UNL A   1      42.183  30.992  34.694  1.00  0.00     0.173 A 
ATOM     96  C   UNL A   1      41.769  29.143  33.223  1.00  0.00     0.173 A 
ATOM     97  F   UNL A   1      42.433  32.287  34.930  1.00  0.00    -0.203 F 
ATOM     98  C   UNL A   1      41.921  30.173  35.792  1.00  0.00     0.198 A 
ATOM     99  C   UNL A   1      41.467  28.340  34.317  1.00  0.00     0.198 A 
ATOM    100  F   UNL A   1      41.661  28.619  31.992  1.00  0.00    -0.203 F 
ATOM    101  F   UNL A   1      41.993  30.670  37.036  1.00  0.00    -0.200 F 
ATOM    102  C   UNL A   1      41.553  28.851  35.601  1.00  0.00     0.200 A 
ATOM    103  F   UNL A   1      41.065  27.077  34.122  1.00  0.00    -0.200 F 
ATOM    104  F   UNL A   1      41.259  28.074  36.653  1.00  0.00    -0.200 F 
ENDBRANCH  71  94
ENDBRANCH  45  46
ENDBRANCH  37  40
ENDBRANCH  35  36
ENDBRANCH  34  35
ENDBRANCH   1  34
TORSDOF 15
ENDMDL
MODEL 2
REMARK VINA RESULT:     -14.4      3.348      9.161
REMARK SMILES COc1cc([C@@H]2CC(=O)Nc3c(C(=O)NCCCCNC(=O)c4ccc(-c5c6nc(c(-c7c(F)c(F)c(F)c(F)c7F)c7ccc([nH]7)c(-c7c(F)c(F)c(F)c(F)c7F)c7nc(c(-c8c(F)c(F)c(F)c(F)c8F)c8ccc5[nH]8)C=C7)C=C6)cc4)cn(-c4ccccc4)c32)ccc1O
REMARK SMILES IDX 17 1 16 2 15 3 13 4 14 5 12 7 6 8 7 9 94 10 8 11 11 12 87 13
REMARK SMILES IDX 9 14 10 15 86 16 5 18 3 19 4 20 97 21 96 22 95 23 2 24 1 25
REMARK SMILES IDX 98 26 88 28 89 29 93 30 90 31 92 32 91 33 18 34 19 35 20 36
REMARK SMILES IDX 21 37 22 39 23 40 24 41 85 42 25 43 84 44 26 45 27 46 28 47
REMARK SMILES IDX 78 48 29 49 83 50 77 51 79 52 30 53 82 54 76 55 75 56 31 58
REMARK SMILES IDX 63 59 43 60 62 61 44 62 47 63 61 64 80 65 45 66 46 67 60 69
REMARK SMILES IDX 81 70 48 71 32 72 33 73 41 74 34 75 35 76 39 77 42 78 36 79
REMARK SMILES IDX 37 80 40 81 38 82 64 83 65 84 73 85 66 86 67 87 71 88 74 89
REMARK SMILES IDX 68 90 69 91 72 92 70 93 49 94 50 95 58 96 51 97 52 98 56 99
REMARK SMILES IDX 59 100 53 101 54 102 57 103 55 104
REMARK H PARENT 15 6 10 17 98 27 20 38 79 57 47 68
REMARK Flexibility Score: inf
ROOT
ATOM      1  C   UNL A   1      34.389  29.967  27.123  1.00  0.00     0.023 C 
ENDROOT
BRANCH   1   2
ATOM      2  C   UNL A   1      33.543  28.692  27.017  1.00  0.00     0.116 C 
BRANCH   2   3
ATOM      3  N   UNL A   1      33.048  28.500  25.677  1.00  0.00    -0.352 N 
ATOM      4  C   UNL A   1      32.880  27.408  24.870  1.00  0.00     0.254 C 
ATOM      5  O   UNL A   1      32.364  27.670  23.776  1.00  0.00    -0.269 OA
ATOM      6  H   UNL A   1      32.770  29.341  25.247  1.00  0.00     0.163 HD
BRANCH   4   7
ATOM      7  C   UNL A   1      33.223  26.017  25.210  1.00  0.00     0.081 A 
ATOM      8  C   UNL A   1      33.204  22.437  26.322  1.00  0.00     0.078 C 
ATOM      9  C   UNL A   1      32.064  22.515  27.343  1.00  0.00     0.115 C 
ATOM     10  C   UNL A   1      33.485  23.813  25.776  1.00  0.00     0.055 A 
ATOM     11  C   UNL A   1      30.971  23.485  26.951  1.00  0.00     0.225 C 
ATOM     12  C   UNL A   1      32.593  24.870  25.790  1.00  0.00     0.076 A 
ATOM     13  N   UNL A   1      34.686  24.260  25.279  1.00  0.00    -0.317 N 
ATOM     14  O   UNL A   1      29.800  23.329  27.292  1.00  0.00    -0.275 OA
ATOM     15  N   UNL A   1      31.344  24.640  26.316  1.00  0.00    -0.324 N 
ATOM     16  C   UNL A   1      34.539  25.594  24.993  1.00  0.00     0.107 A 
ATOM     17  H   UNL A   1      30.671  25.353  26.228  1.00  0.00     0.170 HD
BRANCH   8  18
ATOM     18  C   UNL A   1      32.905  21.399  25.246  1.00  0.00    -0.034 A 
ATOM     19  C   UNL A   1      33.003  19.074  24.502  1.00  0.00     0.160 A 
ATOM     20  C   UNL A   1      33.202  20.042  25.491  1.00  0.00     0.054 A 
ATOM     21  C   UNL A   1      32.442  19.455  23.283  1.00  0.00     0.157 A 
ATOM     22  C   UNL A   1      32.145  20.787  23.020  1.00  0.00     0.050 A 
ATOM     23  C   UNL A   1      32.363  21.755  23.999  1.00  0.00     0.008 A 
BRANCH  19  24
ATOM     24  O   UNL A   1      33.246  17.770  24.838  1.00  0.00    -0.493 OA
ATOM     25  C   UNL A   1      34.486  17.248  24.356  1.00  0.00     0.278 C 
ENDBRANCH  19  24
BRANCH  21  26
ATOM     26  O   UNL A   1      32.093  18.541  22.330  1.00  0.00    -0.504 OA
ATOM     27  H   UNL A   1      31.380  17.953  22.484  1.00  0.00     0.293 HD
ENDBRANCH  21  26
ENDBRANCH   8  18
BRANCH  13  28
ATOM     28  C   UNL A   1      35.886  23.526  25.165  1.00  0.00     0.045 A 
ATOM     29  C   UNL A   1      36.019  22.560  24.166  1.00  0.00     0.026 A 
ATOM     30  C   UNL A   1      36.902  23.716  26.104  1.00  0.00     0.026 A 
ATOM     31  C   UNL A   1      37.121  21.709  24.160  1.00  0.00     0.002 A 
ATOM     32  C   UNL A   1      38.005  22.860  26.093  1.00  0.00     0.002 A 
ATOM     33  C   UNL A   1      38.104  21.846  25.138  1.00  0.00     0.000 A 
ENDBRANCH  13  28
ENDBRANCH   4   7
ENDBRANCH   2   3
ENDBRANCH   1   2
BRANCH   1  34
ATOM     34  C   UNL A   1      33.633  31.202  27.628  1.00  0.00     0.023 C 
BRANCH  34  35
ATOM     35  C   UNL A   1      34.533  32.388  27.967  1.00  0.00     0.116 C 
BRANCH  35  36
ATOM     36  N   UNL A   1      34.527  32.715  29.389  1.00  0.00    -0.352 N 
ATOM     37  C   UNL A   1      35.216  32.080  30.402  1.00  0.00     0.251 C 
ATOM     38  H   UNL A   1      33.966  33.479  29.657  1.00  0.00     0.163 HD
ATOM     39  O   UNL A   1      34.816  32.111  31.555  1.00  0.00    -0.269 OA
BRANCH  37  40
ATOM     40  C   UNL A   1      36.464  31.369  30.070  1.00  0.00     0.039 A 
ATOM     41  C   UNL A   1      37.622  32.081  29.751  1.00  0.00     0.014 A 
ATOM     42  C   UNL A   1      36.460  29.973  30.091  1.00  0.00     0.014 A 
ATOM     43  C   UNL A   1      38.802  31.375  29.533  1.00  0.00     0.010 A 
ATOM     44  C   UNL A   1      37.644  29.279  29.963  1.00  0.00     0.010 A 
ATOM     45  C   UNL A   1      38.812  29.973  29.665  1.00  0.00    -0.014 A 
BRANCH  45  46
ATOM     46  C   UNL A   1      40.087  29.258  29.682  1.00  0.00     0.031 A 
ATOM     47  C   UNL A   1      40.613  29.035  31.057  1.00  0.00     0.074 A 
ATOM     48  C   UNL A   1      40.650  28.675  28.601  1.00  0.00     0.049 A 
ATOM     49  N   UNL A   1      41.647  29.587  31.598  1.00  0.00    -0.248 NA
ATOM     50  C   UNL A   1      39.811  28.237  32.000  1.00  0.00     0.031 C 
ATOM     51  C   UNL A   1      40.085  28.536  27.257  1.00  0.00     0.029 A 
ATOM     52  N   UNL A   1      41.831  27.999  28.499  1.00  0.00    -0.354 N 
ATOM     53  C   UNL A   1      41.752  29.047  32.877  1.00  0.00     0.074 A 
ATOM     54  C   UNL A   1      40.502  28.386  33.133  1.00  0.00     0.031 C 
ATOM     55  C   UNL A   1      40.813  27.643  26.547  1.00  0.00     0.029 A 
ATOM     56  C   UNL A   1      41.981  27.267  27.322  1.00  0.00     0.049 A 
ATOM     57  H   UNL A   1      42.522  28.026  29.200  1.00  0.00     0.167 HD
ATOM     58  C   UNL A   1      42.966  28.972  33.492  1.00  0.00     0.037 A 
ATOM     59  C   UNL A   1      42.985  26.403  27.018  1.00  0.00     0.037 A 
ATOM     60  C   UNL A   1      43.915  29.834  32.826  1.00  0.00     0.049 A 
ATOM     61  C   UNL A   1      44.117  26.717  27.920  1.00  0.00     0.074 A 
ATOM     62  C   UNL A   1      44.016  31.190  32.586  1.00  0.00     0.029 A 
ATOM     63  N   UNL A   1      44.773  29.228  31.944  1.00  0.00    -0.354 N 
ATOM     64  N   UNL A   1      44.824  27.808  27.847  1.00  0.00    -0.248 NA
ATOM     65  C   UNL A   1      44.197  26.002  29.182  1.00  0.00     0.031 C 
ATOM     66  C   UNL A   1      44.588  31.295  31.284  1.00  0.00     0.029 A 
ATOM     67  C   UNL A   1      44.885  30.010  30.829  1.00  0.00     0.049 A 
ATOM     68  H   UNL A   1      45.233  28.370  32.090  1.00  0.00     0.167 HD
ATOM     69  C   UNL A   1      45.047  28.162  29.168  1.00  0.00     0.074 A 
ATOM     70  C   UNL A   1      44.746  26.957  29.937  1.00  0.00     0.031 C 
ATOM     71  C   UNL A   1      45.162  29.476  29.516  1.00  0.00     0.037 A 
BRANCH  58  72
ATOM     72  C   UNL A   1      43.432  27.819  34.365  1.00  0.00     0.064 A 
ATOM     73  C   UNL A   1      43.507  26.529  33.791  1.00  0.00     0.173 A 
ATOM     74  C   UNL A   1      43.481  27.847  35.775  1.00  0.00     0.173 A 
ATOM     75  F   UNL A   1      43.473  26.369  32.459  1.00  0.00    -0.203 F 
ATOM     76  C   UNL A   1      43.503  25.367  34.566  1.00  0.00     0.198 A 
ATOM     77  C   UNL A   1      43.529  26.684  36.546  1.00  0.00     0.198 A 
ATOM     78  F   UNL A   1      43.379  28.978  36.479  1.00  0.00    -0.203 F 
ATOM     79  F   UNL A   1      43.420  24.170  33.970  1.00  0.00    -0.200 F 
ATOM     80  C   UNL A   1      43.501  25.445  35.944  1.00  0.00     0.200 A 
ATOM     81  F   UNL A   1      43.513  26.782  37.883  1.00  0.00    -0.200 F 
ATOM     82  F   UNL A   1      43.424  24.336  36.692  1.00  0.00    -0.200 F 
ENDBRANCH  58  72
BRANCH  59  83
ATOM     83  C   UNL A   1      42.976  25.164  26.201  1.00  0.00     0.064 A 
ATOM     84  C   UNL A   1      43.983  24.918  25.248  1.00  0.00     0.173 A 
ATOM     85  C   UNL A   1      42.175  24.064  26.556  1.00  0.00     0.173 A 
ATOM     86  F   UNL A   1      44.821  25.898  24.881  1.00  0.00    -0.203 F 
ATOM     87  C   UNL A   1      44.202  23.642  24.717  1.00  0.00     0.198 A 
ATOM     88  C   UNL A   1      42.390  22.790  26.022  1.00  0.00     0.198 A 
ATOM     89  F   UNL A   1      41.235  24.180  27.505  1.00  0.00    -0.203 F 
ATOM     90  F   UNL A   1      45.219  23.433  23.870  1.00  0.00    -0.200 F 
ATOM     91  C   UNL A   1      43.414  22.575  25.116  1.00  0.00     0.200 A 
ATOM     92  F   UNL A   1      41.647  21.759  26.446  1.00  0.00    -0.200 F 
ATOM     93  F   UNL A   1      43.667  21.339  24.666  1.00  0.00    -0.200 F 
ENDBRANCH  59  83
BRANCH  71  94
ATOM     94  C   UNL A   1      45.410  30.473  28.419  1.00  0.00     0.064 A 
ATOM     95  C   UNL A   1      44.408  31.092  27.651  1.00  0.00     0.173 A 
ATOM     96  C   UNL A   1      46.729  30.911  28.230  1.00  0.00     0.173 A 
ATOM     97  F   UNL A   1      43.113  30.799  27.834  1.00  0.00    -0.203 F 
ATOM     98  C   UNL A   1      44.723  32.072  26.710  1.00  0.00     0.198 A 
ATOM     99  C   UNL A   1      47.035  31.918  27.322  1.00  0.00     0.198 A 
ATOM    100  F   UNL A   1      47.721  30.388  28.967  1.00  0.00    -0.203 F 
ATOM    101  F   UNL A   1      43.753  32.636  25.974  1.00  0.00    -0.200 F 
ATOM    102  C   UNL A   1      46.035  32.490  26.554  1.00  0.00     0.200 A 
ATOM    103  F   UNL A   1      48.298  32.351  27.212  1.00  0.00    -0.200 F 
ATOM    104  F   UNL A   1      46.334  33.462  25.681  1.00  0.00    -0.200 F 
ENDBRANCH  71  94
ENDBRANCH  45  46
ENDBRANCH  37  40
ENDBRANCH  35  36
ENDBRANCH  34  35
ENDBRANCH   1  34
TORSDOF 15
ENDMDL
MODEL 3
REMARK VINA RESULT:     -13.9      3.450      9.217
REMARK SMILES COc1cc([C@@H]2CC(=O)Nc3c(C(=O)NCCCCNC(=O)c4ccc(-c5c6nc(c(-c7c(F)c(F)c(F)c(F)c7F)c7ccc([nH]7)c(-c7c(F)c(F)c(F)c(F)c7F)c7nc(c(-c8c(F)c(F)c(F)c(F)c8F)c8ccc5[nH]8)C=C7)C=C6)cc4)cn(-c4ccccc4)c32)ccc1O
REMARK SMILES IDX 17 1 16 2 15 3 13 4 14 5 12 7 6 8 7 9 94 10 8 11 11 12 87 13
REMARK SMILES IDX 9 14 10 15 86 16 5 18 3 19 4 20 97 21 96 22 95 23 2 24 1 25
REMARK SMILES IDX 98 26 88 28 89 29 93 30 90 31 92 32 91 33 18 34 19 35 20 36
REMARK SMILES IDX 21 37 22 39 23 40 24 41 85 42 25 43 84 44 26 45 27 46 28 47
REMARK SMILES IDX 78 48 29 49 83 50 77 51 79 52 30 53 82 54 76 55 75 56 31 58
REMARK SMILES IDX 63 59 43 60 62 61 44 62 47 63 61 64 80 65 45 66 46 67 60 69
REMARK SMILES IDX 81 70 48 71 32 72 33 73 41 74 34 75 35 76 39 77 42 78 36 79
REMARK SMILES IDX 37 80 40 81 38 82 64 83 65 84 73 85 66 86 67 87 71 88 74 89
REMARK SMILES IDX 68 90 69 91 72 92 70 93 49 94 50 95 58 96 51 97 52 98 56 99
REMARK SMILES IDX 59 100 53 101 54 102 57 103 55 104
REMARK H PARENT 15 6 10 17 98 27 20 38 79 57 47 68
REMARK Flexibility Score: inf
ROOT
ATOM      1  C   UNL A   1      32.151  29.293  27.204  1.00  0.00     0.023 C 
ENDROOT
BRANCH   1   2
ATOM      2  C   UNL A   1      31.458  28.203  26.377  1.00  0.00     0.116 C 
BRANCH   2   3
ATOM      3  N   UNL A   1      31.990  28.141  25.039  1.00  0.00    -0.352 N 
ATOM      4  C   UNL A   1      32.662  27.188  24.323  1.00  0.00     0.254 C 
ATOM      5  O   UNL A   1      32.905  27.519  23.156  1.00  0.00    -0.269 OA
ATOM      6  H   UNL A   1      31.837  28.968  24.527  1.00  0.00     0.163 HD
BRANCH   4   7
ATOM      7  C   UNL A   1      33.064  25.859  24.812  1.00  0.00     0.081 A 
ATOM      8  C   UNL A   1      33.195  22.423  26.306  1.00  0.00     0.078 C 
ATOM      9  C   UNL A   1      32.047  22.561  27.312  1.00  0.00     0.115 C 
ATOM     10  C   UNL A   1      33.418  23.742  25.614  1.00  0.00     0.055 A 
ATOM     11  C   UNL A   1      30.915  23.433  26.816  1.00  0.00     0.225 C 
ATOM     12  C   UNL A   1      32.482  24.755  25.513  1.00  0.00     0.076 A 
ATOM     13  N   UNL A   1      34.601  24.185  25.072  1.00  0.00    -0.317 N 
ATOM     14  O   UNL A   1      29.750  23.264  27.171  1.00  0.00    -0.275 OA
ATOM     15  N   UNL A   1      31.241  24.528  26.059  1.00  0.00    -0.324 N 
ATOM     16  C   UNL A   1      34.398  25.473  24.644  1.00  0.00     0.107 A 
ATOM     17  H   UNL A   1      30.538  25.197  25.895  1.00  0.00     0.170 HD
BRANCH   8  18
ATOM     18  C   UNL A   1      32.948  21.262  25.349  1.00  0.00    -0.034 A 
ATOM     19  C   UNL A   1      33.227  18.893  24.822  1.00  0.00     0.160 A 
ATOM     20  C   UNL A   1      33.378  19.967  25.704  1.00  0.00     0.054 A 
ATOM     21  C   UNL A   1      32.583  19.102  23.603  1.00  0.00     0.157 A 
ATOM     22  C   UNL A   1      32.154  20.371  23.232  1.00  0.00     0.050 A 
ATOM     23  C   UNL A   1      32.324  21.446  24.103  1.00  0.00     0.008 A 
BRANCH  19  24
ATOM     24  O   UNL A   1      33.603  17.654  25.267  1.00  0.00    -0.493 OA
ATOM     25  C   UNL A   1      32.533  16.841  25.751  1.00  0.00     0.278 C 
ENDBRANCH  19  24
BRANCH  21  26
ATOM     26  O   UNL A   1      32.280  18.072  22.759  1.00  0.00    -0.504 OA
ATOM     27  H   UNL A   1      32.345  17.186  23.059  1.00  0.00     0.293 HD
ENDBRANCH  21  26
ENDBRANCH   8  18
BRANCH  13  28
ATOM     28  C   UNL A   1      35.833  23.497  25.040  1.00  0.00     0.045 A 
ATOM     29  C   UNL A   1      36.069  22.538  24.053  1.00  0.00     0.026 A 
ATOM     30  C   UNL A   1      36.777  23.724  26.044  1.00  0.00     0.026 A 
ATOM     31  C   UNL A   1      37.199  21.729  24.122  1.00  0.00     0.002 A 
ATOM     32  C   UNL A   1      37.909  22.910  26.108  1.00  0.00     0.002 A 
ATOM     33  C   UNL A   1      38.109  21.901  25.163  1.00  0.00     0.000 A 
ENDBRANCH  13  28
ENDBRANCH   4   7
ENDBRANCH   2   3
ENDBRANCH   1   2
BRANCH   1  34
ATOM     34  C   UNL A   1      33.337  29.973  26.510  1.00  0.00     0.023 C 
BRANCH  34  35
ATOM     35  C   UNL A   1      34.558  30.164  27.407  1.00  0.00     0.116 C 
BRANCH  35  36
ATOM     36  N   UNL A   1      34.537  31.433  28.129  1.00  0.00    -0.352 N 
ATOM     37  C   UNL A   1      35.176  31.738  29.314  1.00  0.00     0.251 C 
ATOM     38  H   UNL A   1      34.005  32.155  27.723  1.00  0.00     0.163 HD
ATOM     39  O   UNL A   1      34.754  32.613  30.053  1.00  0.00    -0.269 OA
BRANCH  37  40
ATOM     40  C   UNL A   1      36.398  30.994  29.670  1.00  0.00     0.039 A 
ATOM     41  C   UNL A   1      36.313  29.732  30.261  1.00  0.00     0.014 A 
ATOM     42  C   UNL A   1      37.637  31.578  29.394  1.00  0.00     0.014 A 
ATOM     43  C   UNL A   1      37.487  29.024  30.498  1.00  0.00     0.010 A 
ATOM     44  C   UNL A   1      38.793  30.843  29.546  1.00  0.00     0.010 A 
ATOM     45  C   UNL A   1      38.725  29.576  30.115  1.00  0.00    -0.014 A 
BRANCH  45  46
ATOM     46  C   UNL A   1      39.925  28.741  30.133  1.00  0.00     0.031 A 
ATOM     47  C   UNL A   1      40.472  28.533  31.502  1.00  0.00     0.074 A 
ATOM     48  C   UNL A   1      40.393  28.054  29.068  1.00  0.00     0.049 A 
ATOM     49  N   UNL A   1      41.572  29.006  31.985  1.00  0.00    -0.248 NA
ATOM     50  C   UNL A   1      39.628  27.864  32.507  1.00  0.00     0.031 C 
ATOM     51  C   UNL A   1      39.773  27.907  27.749  1.00  0.00     0.029 A 
ATOM     52  N   UNL A   1      41.499  27.262  28.967  1.00  0.00    -0.354 N 
ATOM     53  C   UNL A   1      41.667  28.521  33.286  1.00  0.00     0.074 A 
ATOM     54  C   UNL A   1      40.368  27.999  33.611  1.00  0.00     0.031 C 
ATOM     55  C   UNL A   1      40.387  26.913  27.065  1.00  0.00     0.029 A 
ATOM     56  C   UNL A   1      41.539  26.462  27.825  1.00  0.00     0.049 A 
ATOM     57  H   UNL A   1      42.212  27.255  29.646  1.00  0.00     0.167 HD
ATOM     58  C   UNL A   1      42.888  28.358  33.870  1.00  0.00     0.037 A 
ATOM     59  C   UNL A   1      42.444  25.491  27.538  1.00  0.00     0.037 A 
ATOM     60  C   UNL A   1      43.893  29.089  33.134  1.00  0.00     0.049 A 
ATOM     61  C   UNL A   1      43.631  25.735  28.390  1.00  0.00     0.074 A 
ATOM     62  C   UNL A   1      44.116  30.415  32.822  1.00  0.00     0.029 A 
ATOM     63  N   UNL A   1      44.659  28.360  32.260  1.00  0.00    -0.354 N 
ATOM     64  N   UNL A   1      44.437  26.747  28.241  1.00  0.00    -0.248 NA
ATOM     65  C   UNL A   1      43.683  25.077  29.684  1.00  0.00     0.031 C 
ATOM     66  C   UNL A   1      44.652  30.402  31.500  1.00  0.00     0.029 A 
ATOM     67  C   UNL A   1      44.809  29.073  31.104  1.00  0.00     0.049 A 
ATOM     68  H   UNL A   1      45.038  27.470  32.436  1.00  0.00     0.167 HD
ATOM     69  C   UNL A   1      44.736  27.140  29.535  1.00  0.00     0.074 A 
ATOM     70  C   UNL A   1      44.346  26.009  30.373  1.00  0.00     0.031 C 
ATOM     71  C   UNL A   1      44.989  28.452  29.813  1.00  0.00     0.037 A 
BRANCH  58  72
ATOM     72  C   UNL A   1      43.268  27.208  34.787  1.00  0.00     0.064 A 
ATOM     73  C   UNL A   1      43.569  27.498  36.138  1.00  0.00     0.173 A 
ATOM     74  C   UNL A   1      43.670  25.928  34.349  1.00  0.00     0.173 A 
ATOM     75  F   UNL A   1      43.236  28.681  36.677  1.00  0.00    -0.203 F 
ATOM     76  C   UNL A   1      44.319  26.630  36.937  1.00  0.00     0.198 A 
ATOM     77  C   UNL A   1      44.374  25.043  35.166  1.00  0.00     0.198 A 
ATOM     78  F   UNL A   1      43.501  25.510  33.091  1.00  0.00    -0.203 F 
ATOM     79  F   UNL A   1      44.707  27.019  38.159  1.00  0.00    -0.200 F 
ATOM     80  C   UNL A   1      44.732  25.408  36.446  1.00  0.00     0.200 A 
ATOM     81  F   UNL A   1      44.778  23.867  34.666  1.00  0.00    -0.200 F 
ATOM     82  F   UNL A   1      45.512  24.604  37.181  1.00  0.00    -0.200 F 
ENDBRANCH  58  72
BRANCH  59  83
ATOM     83  C   UNL A   1      42.289  24.221  26.785  1.00  0.00     0.064 A 
ATOM     84  C   UNL A   1      43.208  23.856  25.782  1.00  0.00     0.173 A 
ATOM     85  C   UNL A   1      41.436  23.202  27.246  1.00  0.00     0.173 A 
ATOM     86  F   UNL A   1      44.088  24.752  25.314  1.00  0.00    -0.203 F 
ATOM     87  C   UNL A   1      43.295  22.544  25.303  1.00  0.00     0.198 A 
ATOM     88  C   UNL A   1      41.520  21.893  26.763  1.00  0.00     0.198 A 
ATOM     89  F   UNL A   1      40.574  23.431  28.247  1.00  0.00    -0.203 F 
ATOM     90  F   UNL A   1      44.234  22.221  24.402  1.00  0.00    -0.200 F 
ATOM     91  C   UNL A   1      42.461  21.560  25.804  1.00  0.00     0.200 A 
ATOM     92  F   UNL A   1      40.734  20.941  27.285  1.00  0.00    -0.200 F 
ATOM     93  F   UNL A   1      42.591  20.289  25.401  1.00  0.00    -0.200 F 
ENDBRANCH  59  83
BRANCH  71  94
ATOM     94  C   UNL A   1      45.295  29.366  28.659  1.00  0.00     0.064 A 
ATOM     95  C   UNL A   1      44.336  30.082  27.922  1.00  0.00     0.173 A 
ATOM     96  C   UNL A   1      46.646  29.620  28.377  1.00  0.00     0.173 A 
ATOM     97  F   UNL A   1      43.028  29.968  28.190  1.00  0.00    -0.203 F 
ATOM     98  C   UNL A   1      44.716  30.976  26.921  1.00  0.00     0.198 A 
ATOM     99  C   UNL A   1      47.023  30.543  27.409  1.00  0.00     0.198 A 
ATOM    100  F   UNL A   1      47.606  28.999  29.081  1.00  0.00    -0.203 F 
ATOM    101  F   UNL A   1      43.784  31.634  26.216  1.00  0.00    -0.200 F 
ATOM    102  C   UNL A   1      46.059  31.212  26.673  1.00  0.00     0.200 A 
ATOM    103  F   UNL A   1      48.321  30.802  27.209  1.00  0.00    -0.200 F 
ATOM    104  F   UNL A   1      46.426  32.104  25.741  1.00  0.00    -0.200 F 
ENDBRANCH  71  94
ENDBRANCH  45  46
ENDBRANCH  37  40
ENDBRANCH  35  36
ENDBRANCH  34  35
ENDBRANCH   1  34
TORSDOF 15
ENDMDL
