MODEL 1
REMARK VINA RESULT:     -13.8      0.000      0.000
REMARK SMILES Cc1nn(C(C)C)c(C)c1S(=O)(=O)Nc1cccc(C(=O)NCCCCNC(=O)c2ccc(-c3c4nc(c(-c5c(F)c(F)c(F)c(F)c5F)c5ccc([nH]5)c(-c5c(F)c(F)c(F)c(F)c5F)c5nc(c(-c6c(F)c(F)c(F)c(F)c6F)c6ccc3[nH]6)C=C5)C=C4)cc2)c1C
REMARK SMILES IDX 23 1 22 2 20 3 21 4 19 6 15 7 16 8 93 9 17 10 94 11 18 12
REMARK SMILES IDX 14 13 11 15 12 16 13 17 10 18 1 19 2 20 3 21 4 22 8 23 9 24
REMARK SMILES IDX 5 25 6 26 7 27 24 28 25 29 26 30 27 31 28 32 29 34 30 35
REMARK SMILES IDX 31 36 92 37 32 38 91 39 33 40 34 41 35 42 85 43 36 44 90 45
REMARK SMILES IDX 84 46 86 47 37 48 89 49 83 50 82 51 38 53 70 54 50 55 69 56
REMARK SMILES IDX 51 57 54 58 68 59 87 60 52 61 53 62 67 64 88 65 55 66 39 67
REMARK SMILES IDX 40 68 48 69 41 70 42 71 46 72 49 73 43 74 44 75 47 76 45 77
REMARK SMILES IDX 71 78 72 79 80 80 73 81 74 82 78 83 81 84 75 85 76 86 79 87
REMARK SMILES IDX 77 88 56 89 57 90 65 91 58 92 59 93 63 94 66 95 60 96 61 97
REMARK SMILES IDX 64 98 62 99
REMARK H PARENT 22 5 14 14 27 33 86 52 54 63
REMARK Flexibility Score: inf
ROOT
ATOM      1  C   UNL A   1      32.136  29.589  25.105  1.00  0.00     0.116 C 
ENDROOT
BRANCH   1   2
ATOM      2  N   UNL A   1      30.950  29.660  24.270  1.00  0.00    -0.352 N 
ATOM      3  C   UNL A   1      30.325  28.828  23.376  1.00  0.00     0.251 C 
ATOM      4  O   UNL A   1      29.281  29.292  22.916  1.00  0.00    -0.269 OA
ATOM      5  H   UNL A   1      30.477  30.517  24.372  1.00  0.00     0.163 HD
BRANCH   3   6
ATOM      6  C   UNL A   1      30.789  27.441  23.002  1.00  0.00     0.044 A 
ATOM      7  C   UNL A   1      30.871  25.043  23.485  1.00  0.00     0.053 A 
ATOM      8  C   UNL A   1      31.902  24.872  22.566  1.00  0.00     0.027 A 
ATOM      9  C   UNL A   1      30.201  26.290  23.597  1.00  0.00    -0.014 A 
ATOM     10  C   UNL A   1      32.370  25.966  21.855  1.00  0.00     0.003 A 
ATOM     11  C   UNL A   1      28.931  26.347  24.419  1.00  0.00     0.047 C 
ATOM     12  C   UNL A   1      31.842  27.234  22.101  1.00  0.00     0.014 A 
BRANCH   7  13
ATOM     13  N   UNL A   1      30.484  24.019  24.397  1.00  0.00    -0.279 N 
ATOM     14  H   UNL A   1      29.656  23.526  24.195  1.00  0.00     0.180 HD
BRANCH  13  15
ATOM     15  S   UNL A   1      31.314  23.581  25.773  1.00  0.00     0.265 S 
ATOM     16  O   UNL A   1      31.107  22.167  26.002  1.00  0.00    -0.201 OA
ATOM     17  O   UNL A   1      30.910  24.546  26.778  1.00  0.00    -0.201 OA
BRANCH  15  18
ATOM     18  C   UNL A   1      33.030  23.744  25.723  1.00  0.00     0.131 A 
ATOM     19  C   UNL A   1      33.565  26.344  25.697  1.00  0.00     0.070 C 
ATOM     20  C   UNL A   1      33.853  24.893  25.644  1.00  0.00     0.080 A 
ATOM     21  N   UNL A   1      35.141  24.553  25.507  1.00  0.00    -0.176 NA
ATOM     22  N   UNL A   1      35.162  23.215  25.611  1.00  0.00    -0.266 N 
ATOM     23  C   UNL A   1      33.917  22.672  25.786  1.00  0.00     0.056 A 
ATOM     24  C   UNL A   1      33.681  21.222  26.007  1.00  0.00     0.068 C 
BRANCH  22  25
ATOM     25  C   UNL A   1      36.448  22.522  25.539  1.00  0.00     0.101 C 
ATOM     26  C   UNL A   1      36.628  21.849  24.179  1.00  0.00     0.033 C 
ATOM     27  C   UNL A   1      37.615  23.459  25.853  1.00  0.00     0.033 C 
ENDBRANCH  22  25
ENDBRANCH  15  18
ENDBRANCH  13  15
ENDBRANCH   7  13
ENDBRANCH   3   6
ENDBRANCH   1   2
BRANCH   1  28
ATOM     28  C   UNL A   1      31.800  29.294  26.575  1.00  0.00     0.023 C 
BRANCH  28  29
ATOM     29  C   UNL A   1      32.818  29.814  27.594  1.00  0.00     0.023 C 
BRANCH  29  30
ATOM     30  C   UNL A   1      33.691  30.948  27.081  1.00  0.00     0.116 C 
BRANCH  30  31
ATOM     31  N   UNL A   1      34.228  31.817  28.119  1.00  0.00    -0.352 N 
ATOM     32  C   UNL A   1      35.255  31.584  29.023  1.00  0.00     0.251 C 
ATOM     33  H   UNL A   1      33.799  32.700  28.190  1.00  0.00     0.163 HD
ATOM     34  O   UNL A   1      35.509  32.405  29.885  1.00  0.00    -0.269 OA
BRANCH  32  35
ATOM     35  C   UNL A   1      36.132  30.398  28.843  1.00  0.00     0.039 A 
ATOM     36  C   UNL A   1      36.414  29.618  29.972  1.00  0.00     0.014 A 
ATOM     37  C   UNL A   1      36.837  30.190  27.661  1.00  0.00     0.014 A 
ATOM     38  C   UNL A   1      37.570  28.843  29.996  1.00  0.00     0.010 A 
ATOM     39  C   UNL A   1      38.038  29.513  27.716  1.00  0.00     0.010 A 
ATOM     40  C   UNL A   1      38.442  28.911  28.912  1.00  0.00    -0.014 A 
BRANCH  40  41
ATOM     41  C   UNL A   1      39.841  28.509  28.977  1.00  0.00     0.031 A 
ATOM     42  C   UNL A   1      40.243  27.127  28.653  1.00  0.00     0.074 A 
ATOM     43  C   UNL A   1      40.786  29.448  29.218  1.00  0.00     0.049 A 
ATOM     44  N   UNL A   1      41.406  26.642  28.929  1.00  0.00    -0.248 NA
ATOM     45  C   UNL A   1      39.339  26.145  28.065  1.00  0.00     0.031 C 
ATOM     46  C   UNL A   1      42.228  29.337  29.007  1.00  0.00     0.029 A 
ATOM     47  N   UNL A   1      40.635  30.652  29.929  1.00  0.00    -0.354 N 
ATOM     48  C   UNL A   1      41.512  25.428  28.300  1.00  0.00     0.074 A 
ATOM     49  C   UNL A   1      40.162  25.101  27.915  1.00  0.00     0.031 C 
ATOM     50  C   UNL A   1      42.851  30.209  29.813  1.00  0.00     0.029 A 
ATOM     51  C   UNL A   1      41.838  30.794  30.670  1.00  0.00     0.049 A 
ATOM     52  H   UNL A   1      39.864  31.262  29.917  1.00  0.00     0.167 HD
ATOM     53  C   UNL A   1      42.760  24.926  28.076  1.00  0.00     0.037 A 
ATOM     54  C   UNL A   1      41.832  30.739  32.034  1.00  0.00     0.037 A 
ATOM     55  C   UNL A   1      43.764  25.633  28.880  1.00  0.00     0.049 A 
ATOM     56  C   UNL A   1      42.663  29.620  32.632  1.00  0.00     0.074 A 
ATOM     57  C   UNL A   1      44.809  26.504  28.626  1.00  0.00     0.029 A 
ATOM     58  N   UNL A   1      43.604  25.631  30.257  1.00  0.00    -0.354 N 
ATOM     59  N   UNL A   1      43.293  28.713  31.939  1.00  0.00    -0.248 NA
ATOM     60  C   UNL A   1      42.750  29.373  34.073  1.00  0.00     0.031 C 
ATOM     61  C   UNL A   1      45.255  27.038  29.877  1.00  0.00     0.029 A 
ATOM     62  C   UNL A   1      44.496  26.474  30.886  1.00  0.00     0.049 A 
ATOM     63  H   UNL A   1      42.931  25.091  30.732  1.00  0.00     0.167 HD
ATOM     64  C   UNL A   1      43.787  27.753  32.783  1.00  0.00     0.074 A 
ATOM     65  C   UNL A   1      43.425  28.212  34.111  1.00  0.00     0.031 C 
ATOM     66  C   UNL A   1      44.407  26.625  32.330  1.00  0.00     0.037 A 
BRANCH  53  67
ATOM     67  C   UNL A   1      43.124  23.883  27.033  1.00  0.00     0.064 A 
ATOM     68  C   UNL A   1      42.782  22.526  27.242  1.00  0.00     0.173 A 
ATOM     69  C   UNL A   1      43.904  24.110  25.878  1.00  0.00     0.173 A 
ATOM     70  F   UNL A   1      42.033  22.147  28.288  1.00  0.00    -0.203 F 
ATOM     71  C   UNL A   1      43.213  21.497  26.395  1.00  0.00     0.198 A 
ATOM     72  C   UNL A   1      44.293  23.087  25.007  1.00  0.00     0.198 A 
ATOM     73  F   UNL A   1      44.379  25.314  25.555  1.00  0.00    -0.203 F 
ATOM     74  F   UNL A   1      42.907  20.225  26.686  1.00  0.00    -0.200 F 
ATOM     75  C   UNL A   1      43.965  21.778  25.274  1.00  0.00     0.200 A 
ATOM     76  F   UNL A   1      45.020  23.388  23.921  1.00  0.00    -0.200 F 
ATOM     77  F   UNL A   1      44.383  20.797  24.466  1.00  0.00    -0.200 F 
ENDBRANCH  53  67
BRANCH  54  78
ATOM     78  C   UNL A   1      40.573  31.272  32.619  1.00  0.00     0.064 A 
ATOM     79  C   UNL A   1      40.355  32.665  32.587  1.00  0.00     0.173 A 
ATOM     80  C   UNL A   1      39.464  30.450  32.842  1.00  0.00     0.173 A 
ATOM     81  F   UNL A   1      41.385  33.500  32.370  1.00  0.00    -0.203 F 
ATOM     82  C   UNL A   1      39.070  33.198  32.644  1.00  0.00     0.198 A 
ATOM     83  C   UNL A   1      38.180  30.989  32.923  1.00  0.00     0.198 A 
ATOM     84  F   UNL A   1      39.599  29.116  32.858  1.00  0.00    -0.203 F 
ATOM     85  F   UNL A   1      38.885  34.515  32.479  1.00  0.00    -0.200 F 
ATOM     86  C   UNL A   1      37.981  32.356  32.785  1.00  0.00     0.200 A 
ATOM     87  F   UNL A   1      37.122  30.172  33.029  1.00  0.00    -0.200 F 
ATOM     88  F   UNL A   1      36.738  32.853  32.744  1.00  0.00    -0.200 F 
ENDBRANCH  54  78
BRANCH  66  89
ATOM     89  C   UNL A   1      44.942  25.544  33.231  1.00  0.00     0.064 A 
ATOM     90  C   UNL A   1      46.303  25.199  33.273  1.00  0.00     0.173 A 
ATOM     91  C   UNL A   1      44.080  24.742  34.012  1.00  0.00     0.173 A 
ATOM     92  F   UNL A   1      47.199  25.849  32.517  1.00  0.00    -0.203 F 
ATOM     93  C   UNL A   1      46.773  24.159  34.080  1.00  0.00     0.198 A 
ATOM     94  C   UNL A   1      44.545  23.671  34.773  1.00  0.00     0.198 A 
ATOM     95  F   UNL A   1      42.765  24.992  34.086  1.00  0.00    -0.203 F 
ATOM     96  F   UNL A   1      48.087  23.902  34.134  1.00  0.00    -0.200 F 
ATOM     97  C   UNL A   1      45.893  23.389  34.819  1.00  0.00     0.200 A 
ATOM     98  F   UNL A   1      43.675  22.922  35.466  1.00  0.00    -0.200 F 
ATOM     99  F   UNL A   1      46.344  22.379  35.576  1.00  0.00    -0.200 F 
ENDBRANCH  66  89
ENDBRANCH  40  41
ENDBRANCH  32  35
ENDBRANCH  30  31
ENDBRANCH  29  30
ENDBRANCH  28  29
ENDBRANCH   1  28
TORSDOF 15
ENDMDL
MODEL 2
REMARK VINA RESULT:     -13.6      1.289      1.965
REMARK SMILES Cc1nn(C(C)C)c(C)c1S(=O)(=O)Nc1cccc(C(=O)NCCCCNC(=O)c2ccc(-c3c4nc(c(-c5c(F)c(F)c(F)c(F)c5F)c5ccc([nH]5)c(-c5c(F)c(F)c(F)c(F)c5F)c5nc(c(-c6c(F)c(F)c(F)c(F)c6F)c6ccc3[nH]6)C=C5)C=C4)cc2)c1C
REMARK SMILES IDX 23 1 22 2 20 3 21 4 19 6 15 7 16 8 93 9 17 10 94 11 18 12
REMARK SMILES IDX 14 13 11 15 12 16 13 17 10 18 1 19 2 20 3 21 4 22 8 23 9 24
REMARK SMILES IDX 5 25 6 26 7 27 24 28 25 29 26 30 27 31 28 32 29 34 30 35
REMARK SMILES IDX 31 36 92 37 32 38 91 39 33 40 34 41 35 42 85 43 36 44 90 45
REMARK SMILES IDX 84 46 86 47 37 48 89 49 83 50 82 51 38 53 70 54 50 55 69 56
REMARK SMILES IDX 51 57 54 58 68 59 87 60 52 61 53 62 67 64 88 65 55 66 39 67
REMARK SMILES IDX 40 68 48 69 41 70 42 71 46 72 49 73 43 74 44 75 47 76 45 77
REMARK SMILES IDX 71 78 72 79 80 80 73 81 74 82 78 83 81 84 75 85 76 86 79 87
REMARK SMILES IDX 77 88 56 89 57 90 65 91 58 92 59 93 63 94 66 95 60 96 61 97
REMARK SMILES IDX 64 98 62 99
REMARK H PARENT 22 5 14 14 27 33 86 52 54 63
REMARK Flexibility Score: inf
ROOT
ATOM      1  C   UNL A   1      31.972  30.507  25.859  1.00  0.00     0.116 C 
ENDROOT
BRANCH   1   2
ATOM      2  N   UNL A   1      32.585  29.790  24.755  1.00  0.00    -0.352 N 
ATOM      3  C   UNL A   1      32.285  28.670  24.022  1.00  0.00     0.251 C 
ATOM      4  O   UNL A   1      33.089  28.442  23.117  1.00  0.00    -0.269 OA
ATOM      5  H   UNL A   1      33.424  30.213  24.460  1.00  0.00     0.163 HD
BRANCH   3   6
ATOM      6  C   UNL A   1      31.066  27.800  24.215  1.00  0.00     0.044 A 
ATOM      7  C   UNL A   1      30.056  25.749  25.088  1.00  0.00     0.053 A 
ATOM      8  C   UNL A   1      28.916  25.958  24.317  1.00  0.00     0.027 A 
ATOM      9  C   UNL A   1      31.069  26.741  25.165  1.00  0.00    -0.014 A 
ATOM     10  C   UNL A   1      28.835  27.082  23.510  1.00  0.00     0.003 A 
ATOM     11  C   UNL A   1      32.153  26.575  26.209  1.00  0.00     0.047 C 
ATOM     12  C   UNL A   1      29.912  27.966  23.437  1.00  0.00     0.014 A 
BRANCH   7  13
ATOM     13  N   UNL A   1      30.300  24.523  25.772  1.00  0.00    -0.279 N 
ATOM     14  H   UNL A   1      29.972  24.451  26.698  1.00  0.00     0.180 HD
BRANCH  13  15
ATOM     15  S   UNL A   1      31.089  23.199  25.140  1.00  0.00     0.265 S 
ATOM     16  O   UNL A   1      31.020  23.271  23.697  1.00  0.00    -0.201 OA
ATOM     17  O   UNL A   1      30.526  22.058  25.838  1.00  0.00    -0.201 OA
BRANCH  15  18
ATOM     18  C   UNL A   1      32.778  23.080  25.467  1.00  0.00     0.131 A 
ATOM     19  C   UNL A   1      33.028  22.222  27.967  1.00  0.00     0.070 C 
ATOM     20  C   UNL A   1      33.473  22.726  26.648  1.00  0.00     0.080 A 
ATOM     21  N   UNL A   1      34.794  22.881  26.492  1.00  0.00    -0.176 NA
ATOM     22  N   UNL A   1      34.957  23.217  25.203  1.00  0.00    -0.266 N 
ATOM     23  C   UNL A   1      33.773  23.311  24.522  1.00  0.00     0.056 A 
ATOM     24  C   UNL A   1      33.689  23.590  23.065  1.00  0.00     0.068 C 
BRANCH  22  25
ATOM     25  C   UNL A   1      36.312  23.427  24.694  1.00  0.00     0.101 C 
ATOM     26  C   UNL A   1      37.273  23.778  25.829  1.00  0.00     0.033 C 
ATOM     27  C   UNL A   1      36.811  22.219  23.898  1.00  0.00     0.033 C 
ENDBRANCH  22  25
ENDBRANCH  15  18
ENDBRANCH  13  15
ENDBRANCH   7  13
ENDBRANCH   3   6
ENDBRANCH   1   2
BRANCH   1  28
ATOM     28  C   UNL A   1      32.432  29.979  27.227  1.00  0.00     0.023 C 
BRANCH  28  29
ATOM     29  C   UNL A   1      33.938  29.738  27.361  1.00  0.00     0.023 C 
BRANCH  29  30
ATOM     30  C   UNL A   1      34.783  30.997  27.253  1.00  0.00     0.116 C 
BRANCH  30  31
ATOM     31  N   UNL A   1      35.176  31.575  28.531  1.00  0.00    -0.352 N 
ATOM     32  C   UNL A   1      36.046  31.083  29.494  1.00  0.00     0.251 C 
ATOM     33  H   UNL A   1      34.762  32.442  28.743  1.00  0.00     0.163 HD
ATOM     34  O   UNL A   1      36.185  31.671  30.550  1.00  0.00    -0.269 OA
BRANCH  32  35
ATOM     35  C   UNL A   1      36.913  29.920  29.170  1.00  0.00     0.039 A 
ATOM     36  C   UNL A   1      37.107  28.954  30.166  1.00  0.00     0.014 A 
ATOM     37  C   UNL A   1      37.688  29.892  28.015  1.00  0.00     0.014 A 
ATOM     38  C   UNL A   1      38.246  28.155  30.130  1.00  0.00     0.010 A 
ATOM     39  C   UNL A   1      38.871  29.183  28.028  1.00  0.00     0.010 A 
ATOM     40  C   UNL A   1      39.186  28.378  29.128  1.00  0.00    -0.014 A 
BRANCH  40  41
ATOM     41  C   UNL A   1      40.571  27.932  29.208  1.00  0.00     0.031 A 
ATOM     42  C   UNL A   1      40.962  26.596  28.720  1.00  0.00     0.074 A 
ATOM     43  C   UNL A   1      41.521  28.803  29.624  1.00  0.00     0.049 A 
ATOM     44  N   UNL A   1      42.097  26.046  28.986  1.00  0.00    -0.248 NA
ATOM     45  C   UNL A   1      40.071  25.729  27.957  1.00  0.00     0.031 C 
ATOM     46  C   UNL A   1      42.970  28.681  29.473  1.00  0.00     0.029 A 
ATOM     47  N   UNL A   1      41.357  29.903  30.485  1.00  0.00    -0.354 N 
ATOM     48  C   UNL A   1      42.213  24.926  28.203  1.00  0.00     0.074 A 
ATOM     49  C   UNL A   1      40.879  24.692  27.708  1.00  0.00     0.031 C 
ATOM     50  C   UNL A   1      43.566  29.417  30.423  1.00  0.00     0.029 A 
ATOM     51  C   UNL A   1      42.520  29.910  31.298  1.00  0.00     0.049 A 
ATOM     52  H   UNL A   1      40.600  30.531  30.516  1.00  0.00     0.167 HD
ATOM     53  C   UNL A   1      43.460  24.423  27.977  1.00  0.00     0.037 A 
ATOM     54  C   UNL A   1      42.438  29.671  32.640  1.00  0.00     0.037 A 
ATOM     55  C   UNL A   1      44.433  24.987  28.921  1.00  0.00     0.049 A 
ATOM     56  C   UNL A   1      43.211  28.458  33.121  1.00  0.00     0.074 A 
ATOM     57  C   UNL A   1      45.508  25.854  28.842  1.00  0.00     0.029 A 
ATOM     58  N   UNL A   1      44.198  24.803  30.274  1.00  0.00    -0.354 N 
ATOM     59  N   UNL A   1      43.860  27.635  32.344  1.00  0.00    -0.248 NA
ATOM     60  C   UNL A   1      43.215  28.016  34.517  1.00  0.00     0.031 C 
ATOM     61  C   UNL A   1      45.896  26.201  30.175  1.00  0.00     0.029 A 
ATOM     62  C   UNL A   1      45.072  25.528  31.057  1.00  0.00     0.049 A 
ATOM     63  H   UNL A   1      43.489  24.222  30.635  1.00  0.00     0.167 HD
ATOM     64  C   UNL A   1      44.286  26.557  33.073  1.00  0.00     0.074 A 
ATOM     65  C   UNL A   1      43.862  26.842  34.431  1.00  0.00     0.031 C 
ATOM     66  C   UNL A   1      44.907  25.484  32.502  1.00  0.00     0.037 A 
BRANCH  53  67
ATOM     67  C   UNL A   1      43.859  23.522  26.821  1.00  0.00     0.064 A 
ATOM     68  C   UNL A   1      43.393  22.187  26.775  1.00  0.00     0.173 A 
ATOM     69  C   UNL A   1      44.778  23.848  25.801  1.00  0.00     0.173 A 
ATOM     70  F   UNL A   1      42.505  21.724  27.666  1.00  0.00    -0.203 F 
ATOM     71  C   UNL A   1      43.838  21.263  25.820  1.00  0.00     0.198 A 
ATOM     72  C   UNL A   1      45.185  22.937  24.819  1.00  0.00     0.198 A 
ATOM     73  F   UNL A   1      45.377  25.038  25.724  1.00  0.00    -0.203 F 
ATOM     74  F   UNL A   1      43.406  19.994  25.871  1.00  0.00    -0.200 F 
ATOM     75  C   UNL A   1      44.730  21.639  24.839  1.00  0.00     0.200 A 
ATOM     76  F   UNL A   1      46.050  23.331  23.873  1.00  0.00    -0.200 F 
ATOM     77  F   UNL A   1      45.161  20.758  23.929  1.00  0.00    -0.200 F 
ENDBRANCH  53  67
BRANCH  54  78
ATOM     78  C   UNL A   1      41.160  30.155  33.227  1.00  0.00     0.064 A 
ATOM     79  C   UNL A   1      40.987  31.543  33.404  1.00  0.00     0.173 A 
ATOM     80  C   UNL A   1      40.015  29.352  33.250  1.00  0.00     0.173 A 
ATOM     81  F   UNL A   1      42.053  32.360  33.385  1.00  0.00    -0.203 F 
ATOM     82  C   UNL A   1      39.717  32.110  33.470  1.00  0.00     0.198 A 
ATOM     83  C   UNL A   1      38.745  29.923  33.339  1.00  0.00     0.198 A 
ATOM     84  F   UNL A   1      40.109  28.028  33.061  1.00  0.00    -0.203 F 
ATOM     85  F   UNL A   1      39.583  33.443  33.506  1.00  0.00    -0.200 F 
ATOM     86  C   UNL A   1      38.596  31.300  33.410  1.00  0.00     0.200 A 
ATOM     87  F   UNL A   1      37.659  29.142  33.251  1.00  0.00    -0.200 F 
ATOM     88  F   UNL A   1      37.374  31.847  33.375  1.00  0.00    -0.200 F 
ENDBRANCH  54  78
BRANCH  66  89
ATOM     89  C   UNL A   1      45.370  24.276  33.273  1.00  0.00     0.064 A 
ATOM     90  C   UNL A   1      44.530  23.185  33.546  1.00  0.00     0.173 A 
ATOM     91  C   UNL A   1      46.655  24.224  33.858  1.00  0.00     0.173 A 
ATOM     92  F   UNL A   1      43.266  23.163  33.098  1.00  0.00    -0.203 F 
ATOM     93  C   UNL A   1      44.963  22.094  34.306  1.00  0.00     0.198 A 
ATOM     94  C   UNL A   1      47.065  23.162  34.661  1.00  0.00     0.198 A 
ATOM     95  F   UNL A   1      47.563  25.188  33.645  1.00  0.00    -0.203 F 
ATOM     96  F   UNL A   1      44.148  21.047  34.491  1.00  0.00    -0.200 F 
ATOM     97  C   UNL A   1      46.225  22.089  34.872  1.00  0.00     0.200 A 
ATOM     98  F   UNL A   1      48.285  23.184  35.220  1.00  0.00    -0.200 F 
ATOM     99  F   UNL A   1      46.632  21.052  35.618  1.00  0.00    -0.200 F 
ENDBRANCH  66  89
ENDBRANCH  40  41
ENDBRANCH  32  35
ENDBRANCH  30  31
ENDBRANCH  29  30
ENDBRANCH  28  29
ENDBRANCH   1  28
TORSDOF 15
ENDMDL
MODEL 3
REMARK VINA RESULT:     -13.4      1.709      2.485
REMARK SMILES Cc1nn(C(C)C)c(C)c1S(=O)(=O)Nc1cccc(C(=O)NCCCCNC(=O)c2ccc(-c3c4nc(c(-c5c(F)c(F)c(F)c(F)c5F)c5ccc([nH]5)c(-c5c(F)c(F)c(F)c(F)c5F)c5nc(c(-c6c(F)c(F)c(F)c(F)c6F)c6ccc3[nH]6)C=C5)C=C4)cc2)c1C
REMARK SMILES IDX 23 1 22 2 20 3 21 4 19 6 15 7 16 8 93 9 17 10 94 11 18 12
REMARK SMILES IDX 14 13 11 15 12 16 13 17 10 18 1 19 2 20 3 21 4 22 8 23 9 24
REMARK SMILES IDX 5 25 6 26 7 27 24 28 25 29 26 30 27 31 28 32 29 34 30 35
REMARK SMILES IDX 31 36 92 37 32 38 91 39 33 40 34 41 35 42 85 43 36 44 90 45
REMARK SMILES IDX 84 46 86 47 37 48 89 49 83 50 82 51 38 53 70 54 50 55 69 56
REMARK SMILES IDX 51 57 54 58 68 59 87 60 52 61 53 62 67 64 88 65 55 66 39 67
REMARK SMILES IDX 40 68 48 69 41 70 42 71 46 72 49 73 43 74 44 75 47 76 45 77
REMARK SMILES IDX 71 78 72 79 80 80 73 81 74 82 78 83 81 84 75 85 76 86 79 87
REMARK SMILES IDX 77 88 56 89 57 90 65 91 58 92 59 93 63 94 66 95 60 96 61 97
REMARK SMILES IDX 64 98 62 99
REMARK H PARENT 22 5 14 14 27 33 86 52 54 63
REMARK Flexibility Score: inf
ROOT
ATOM      1  C   UNL A   1      31.544  29.737  25.078  1.00  0.00     0.116 C 
ENDROOT
BRANCH   1   2
ATOM      2  N   UNL A   1      32.688  29.495  24.218  1.00  0.00    -0.352 N 
ATOM      3  C   UNL A   1      33.203  28.414  23.547  1.00  0.00     0.251 C 
ATOM      4  O   UNL A   1      34.200  28.680  22.876  1.00  0.00    -0.269 OA
ATOM      5  H   UNL A   1      33.227  30.306  24.083  1.00  0.00     0.163 HD
BRANCH   3   6
ATOM      6  C   UNL A   1      32.608  27.026  23.539  1.00  0.00     0.044 A 
ATOM      7  C   UNL A   1      32.578  24.740  24.413  1.00  0.00     0.053 A 
ATOM      8  C   UNL A   1      31.791  24.321  23.344  1.00  0.00     0.027 A 
ATOM      9  C   UNL A   1      32.862  26.119  24.605  1.00  0.00    -0.014 A 
ATOM     10  C   UNL A   1      31.397  25.240  22.385  1.00  0.00     0.003 A 
ATOM     11  C   UNL A   1      33.499  26.541  25.911  1.00  0.00     0.047 C 
ATOM     12  C   UNL A   1      31.834  26.563  22.467  1.00  0.00     0.014 A 
BRANCH   7  13
ATOM     13  N   UNL A   1      33.191  23.823  25.314  1.00  0.00    -0.279 N 
ATOM     14  H   UNL A   1      32.669  23.551  26.104  1.00  0.00     0.180 HD
BRANCH  13  15
ATOM     15  S   UNL A   1      34.715  23.170  25.147  1.00  0.00     0.265 S 
ATOM     16  O   UNL A   1      35.462  23.437  26.357  1.00  0.00    -0.201 OA
ATOM     17  O   UNL A   1      35.197  23.664  23.871  1.00  0.00    -0.201 OA
BRANCH  15  18
ATOM     18  C   UNL A   1      34.804  21.456  24.977  1.00  0.00     0.131 A 
ATOM     19  C   UNL A   1      37.360  20.781  25.224  1.00  0.00     0.070 C 
ATOM     20  C   UNL A   1      35.915  20.579  24.971  1.00  0.00     0.080 A 
ATOM     21  N   UNL A   1      35.536  19.326  24.688  1.00  0.00    -0.176 NA
ATOM     22  N   UNL A   1      34.196  19.371  24.626  1.00  0.00    -0.266 N 
ATOM     23  C   UNL A   1      33.694  20.628  24.835  1.00  0.00     0.056 A 
ATOM     24  C   UNL A   1      32.240  20.927  24.897  1.00  0.00     0.068 C 
BRANCH  22  25
ATOM     25  C   UNL A   1      33.460  18.136  24.364  1.00  0.00     0.101 C 
ATOM     26  C   UNL A   1      32.526  18.301  23.166  1.00  0.00     0.033 C 
ATOM     27  C   UNL A   1      34.401  16.945  24.174  1.00  0.00     0.033 C 
ENDBRANCH  22  25
ENDBRANCH  15  18
ENDBRANCH  13  15
ENDBRANCH   7  13
ENDBRANCH   3   6
ENDBRANCH   1   2
BRANCH   1  28
ATOM     28  C   UNL A   1      31.891  30.637  26.274  1.00  0.00     0.023 C 
BRANCH  28  29
ATOM     29  C   UNL A   1      32.787  29.993  27.336  1.00  0.00     0.023 C 
BRANCH  29  30
ATOM     30  C   UNL A   1      34.265  30.313  27.183  1.00  0.00     0.116 C 
BRANCH  30  31
ATOM     31  N   UNL A   1      34.807  31.184  28.217  1.00  0.00    -0.352 N 
ATOM     32  C   UNL A   1      35.843  30.955  29.113  1.00  0.00     0.251 C 
ATOM     33  H   UNL A   1      34.374  32.064  28.293  1.00  0.00     0.163 HD
ATOM     34  O   UNL A   1      36.100  31.777  29.973  1.00  0.00    -0.269 OA
BRANCH  32  35
ATOM     35  C   UNL A   1      36.725  29.774  28.923  1.00  0.00     0.039 A 
ATOM     36  C   UNL A   1      36.979  28.965  30.038  1.00  0.00     0.014 A 
ATOM     37  C   UNL A   1      37.458  29.597  27.754  1.00  0.00     0.014 A 
ATOM     38  C   UNL A   1      38.135  28.190  30.070  1.00  0.00     0.010 A 
ATOM     39  C   UNL A   1      38.658  28.919  27.821  1.00  0.00     0.010 A 
ATOM     40  C   UNL A   1      39.033  28.286  29.011  1.00  0.00    -0.014 A 
BRANCH  40  41
ATOM     41  C   UNL A   1      40.430  27.882  29.099  1.00  0.00     0.031 A 
ATOM     42  C   UNL A   1      40.862  26.555  28.621  1.00  0.00     0.074 A 
ATOM     43  C   UNL A   1      41.351  28.783  29.512  1.00  0.00     0.049 A 
ATOM     44  N   UNL A   1      42.013  26.041  28.895  1.00  0.00    -0.248 NA
ATOM     45  C   UNL A   1      40.001  25.656  27.861  1.00  0.00     0.031 C 
ATOM     46  C   UNL A   1      42.804  28.704  29.368  1.00  0.00     0.029 A 
ATOM     47  N   UNL A   1      41.151  29.883  30.365  1.00  0.00    -0.354 N 
ATOM     48  C   UNL A   1      42.165  24.920  28.120  1.00  0.00     0.074 A 
ATOM     49  C   UNL A   1      40.840  24.643  27.621  1.00  0.00     0.031 C 
ATOM     50  C   UNL A   1      43.374  29.464  30.314  1.00  0.00     0.029 A 
ATOM     51  C   UNL A   1      42.311  29.931  31.183  1.00  0.00     0.049 A 
ATOM     52  H   UNL A   1      40.376  30.489  30.390  1.00  0.00     0.167 HD
ATOM     53  C   UNL A   1      43.427  24.453  27.901  1.00  0.00     0.037 A 
ATOM     54  C   UNL A   1      42.231  29.698  32.526  1.00  0.00     0.037 A 
ATOM     55  C   UNL A   1      44.379  25.052  28.844  1.00  0.00     0.049 A 
ATOM     56  C   UNL A   1      43.039  28.512  33.018  1.00  0.00     0.074 A 
ATOM     57  C   UNL A   1      45.428  25.951  28.764  1.00  0.00     0.029 A 
ATOM     58  N   UNL A   1      44.145  24.870  30.199  1.00  0.00    -0.354 N 
ATOM     59  N   UNL A   1      43.715  27.705  32.248  1.00  0.00    -0.248 NA
ATOM     60  C   UNL A   1      43.050  28.080  34.417  1.00  0.00     0.031 C 
ATOM     61  C   UNL A   1      45.801  26.318  30.096  1.00  0.00     0.029 A 
ATOM     62  C   UNL A   1      44.993  25.626  30.979  1.00  0.00     0.049 A 
ATOM     63  H   UNL A   1      43.452  24.271  30.561  1.00  0.00     0.167 HD
ATOM     64  C   UNL A   1      44.170  26.644  32.986  1.00  0.00     0.074 A 
ATOM     65  C   UNL A   1      43.733  26.925  34.340  1.00  0.00     0.031 C 
ATOM     66  C   UNL A   1      44.825  25.587  32.424  1.00  0.00     0.037 A 
BRANCH  53  67
ATOM     67  C   UNL A   1      43.857  23.557  26.753  1.00  0.00     0.064 A 
ATOM     68  C   UNL A   1      43.437  22.206  26.717  1.00  0.00     0.173 A 
ATOM     69  C   UNL A   1      44.766  23.905  25.730  1.00  0.00     0.173 A 
ATOM     70  F   UNL A   1      42.564  21.722  27.611  1.00  0.00    -0.203 F 
ATOM     71  C   UNL A   1      43.913  21.290  25.770  1.00  0.00     0.198 A 
ATOM     72  C   UNL A   1      45.203  23.002  24.756  1.00  0.00     0.198 A 
ATOM     73  F   UNL A   1      45.325  25.114  25.645  1.00  0.00    -0.203 F 
ATOM     74  F   UNL A   1      43.524  20.009  25.830  1.00  0.00    -0.200 F 
ATOM     75  C   UNL A   1      44.793  21.689  24.786  1.00  0.00     0.200 A 
ATOM     76  F   UNL A   1      46.056  23.417  23.808  1.00  0.00    -0.200 F 
ATOM     77  F   UNL A   1      45.254  20.815  23.883  1.00  0.00    -0.200 F 
ENDBRANCH  53  67
BRANCH  54  78
ATOM     78  C   UNL A   1      40.937  30.147  33.105  1.00  0.00     0.064 A 
ATOM     79  C   UNL A   1      40.702  31.532  33.229  1.00  0.00     0.173 A 
ATOM     80  C   UNL A   1      39.830  29.296  33.170  1.00  0.00     0.173 A 
ATOM     81  F   UNL A   1      41.730  32.395  33.167  1.00  0.00    -0.203 F 
ATOM     82  C   UNL A   1      39.408  32.044  33.284  1.00  0.00     0.198 A 
ATOM     83  C   UNL A   1      38.536  29.812  33.249  1.00  0.00     0.198 A 
ATOM     84  F   UNL A   1      39.982  27.971  33.033  1.00  0.00    -0.203 F 
ATOM     85  F   UNL A   1      39.214  33.370  33.268  1.00  0.00    -0.200 F 
ATOM     86  C   UNL A   1      38.325  31.183  33.266  1.00  0.00     0.200 A 
ATOM     87  F   UNL A   1      37.485  28.980  33.202  1.00  0.00    -0.200 F 
ATOM     88  F   UNL A   1      37.079  31.673  33.221  1.00  0.00    -0.200 F 
ENDBRANCH  54  78
BRANCH  66  89
ATOM     89  C   UNL A   1      45.321  24.399  33.205  1.00  0.00     0.064 A 
ATOM     90  C   UNL A   1      44.492  23.318  33.547  1.00  0.00     0.173 A 
ATOM     91  C   UNL A   1      46.633  24.357  33.729  1.00  0.00     0.173 A 
ATOM     92  F   UNL A   1      43.208  23.289  33.160  1.00  0.00    -0.203 F 
ATOM     93  C   UNL A   1      44.958  22.247  34.315  1.00  0.00     0.198 A 
ATOM     94  C   UNL A   1      47.078  23.315  34.540  1.00  0.00     0.198 A 
ATOM     95  F   UNL A   1      47.531  25.311  33.446  1.00  0.00    -0.203 F 
ATOM     96  F   UNL A   1      44.150  21.208  34.567  1.00  0.00    -0.200 F 
ATOM     97  C   UNL A   1      46.246  22.252  34.820  1.00  0.00     0.200 A 
ATOM     98  F   UNL A   1      48.323  23.347  35.040  1.00  0.00    -0.200 F 
ATOM     99  F   UNL A   1      46.685  21.234  35.574  1.00  0.00    -0.200 F 
ENDBRANCH  66  89
ENDBRANCH  40  41
ENDBRANCH  32  35
ENDBRANCH  30  31
ENDBRANCH  29  30
ENDBRANCH  28  29
ENDBRANCH   1  28
TORSDOF 15
ENDMDL
