MODEL 1
REMARK VINA RESULT:     -13.1      0.000      0.000
REMARK SMILES COc1ccc(NC(=O)[C@@H]2[C@@H](C(=O)NCCCCNC(=O)c3ccc(-c4c5nc(c(-c6c(F)c(F)c(F)c(F)c6F)c6ccc([nH]6)c(-c6c(F)c(F)c(F)c(F)c6F)c6nc(c(-c7c(F)c(F)c(F)c(F)c7F)c7ccc4[nH]7)C=C6)C=C5)cc3)[C@@H]3CC[C@H]2C3=C(C)C)cc1
REMARK SMILES IDX 16 1 15 2 14 3 12 4 13 5 11 7 10 8 88 9 85 10 87 11 89 12
REMARK SMILES IDX 86 13 90 14 91 15 92 16 8 17 7 18 9 20 6 21 3 22 4 23 94 24
REMARK SMILES IDX 5 25 93 26 2 27 1 28 17 29 18 30 19 31 20 32 21 34 22 35
REMARK SMILES IDX 23 36 84 37 24 38 83 39 25 40 26 41 27 42 77 43 28 44 82 45
REMARK SMILES IDX 76 46 78 47 29 48 81 49 75 50 74 51 30 53 62 54 42 55 61 56
REMARK SMILES IDX 43 57 46 58 60 59 79 60 44 61 45 62 59 64 80 65 47 66 31 67
REMARK SMILES IDX 32 68 40 69 33 70 34 71 38 72 41 73 35 74 36 75 39 76 37 77
REMARK SMILES IDX 63 78 64 79 72 80 65 81 66 82 70 83 73 84 67 85 68 86 71 87
REMARK SMILES IDX 69 88 48 89 49 90 57 91 50 92 51 93 55 94 58 95 52 96 53 97
REMARK SMILES IDX 56 98 54 99
REMARK H PARENT 14 6 7 19 19 33 78 52 46 63
REMARK Flexibility Score: inf
ROOT
ATOM      1  C   UNL A   1      31.789  30.617  26.157  1.00  0.00     0.023 C 
ENDROOT
BRANCH   1   2
ATOM      2  C   UNL A   1      31.857  29.603  27.291  1.00  0.00     0.116 C 
BRANCH   2   3
ATOM      3  N   UNL A   1      32.817  28.555  27.028  1.00  0.00    -0.356 N 
ATOM      4  C   UNL A   1      32.800  27.405  26.323  1.00  0.00     0.224 C 
ATOM      5  O   UNL A   1      33.886  26.803  26.312  1.00  0.00    -0.275 OA
ATOM      6  H   UNL A   1      33.684  28.719  27.464  1.00  0.00     0.163 HD
BRANCH   4   7
ATOM      7  C   UNL A   1      31.613  26.735  25.632  1.00  0.00     0.098 C 
ATOM      8  C   UNL A   1      31.511  25.209  25.306  1.00  0.00     0.099 C 
ATOM      9  C   UNL A   1      31.082  25.248  23.831  1.00  0.00     0.028 C 
ATOM     10  C   UNL A   1      31.366  27.435  24.258  1.00  0.00     0.028 C 
ATOM     11  C   UNL A   1      29.680  25.836  23.629  1.00  0.00     0.009 C 
ATOM     12  C   UNL A   1      31.898  26.398  23.320  1.00  0.00    -0.064 C 
ATOM     13  C   UNL A   1      29.876  27.333  23.901  1.00  0.00     0.009 C 
ATOM     14  C   UNL A   1      32.777  26.435  22.305  1.00  0.00    -0.077 C 
ATOM     15  C   UNL A   1      33.397  27.706  21.799  1.00  0.00     0.039 C 
ATOM     16  C   UNL A   1      33.265  25.179  21.624  1.00  0.00     0.039 C 
BRANCH   8  17
ATOM     17  C   UNL A   1      30.597  24.493  26.319  1.00  0.00     0.228 C 
ATOM     18  N   UNL A   1      30.843  23.247  26.830  1.00  0.00    -0.326 N 
ATOM     19  H   UNL A   1      30.181  22.926  27.484  1.00  0.00     0.169 HD
ATOM     20  O   UNL A   1      29.574  25.055  26.731  1.00  0.00    -0.274 OA
BRANCH  18  21
ATOM     21  C   UNL A   1      31.891  22.362  26.564  1.00  0.00     0.041 A 
ATOM     22  C   UNL A   1      34.148  21.054  25.593  1.00  0.00     0.119 A 
ATOM     23  C   UNL A   1      34.170  21.641  26.859  1.00  0.00     0.048 A 
ATOM     24  C   UNL A   1      32.943  20.968  24.897  1.00  0.00     0.048 A 
ATOM     25  C   UNL A   1      33.035  22.293  27.353  1.00  0.00     0.030 A 
ATOM     26  C   UNL A   1      31.803  21.601  25.397  1.00  0.00     0.030 A 
BRANCH  22  27
ATOM     27  O   UNL A   1      35.356  20.614  25.125  1.00  0.00    -0.497 OA
ATOM     28  C   UNL A   1      36.479  21.420  25.481  1.00  0.00     0.278 C 
ENDBRANCH  22  27
ENDBRANCH  18  21
ENDBRANCH   8  17
ENDBRANCH   4   7
ENDBRANCH   2   3
ENDBRANCH   1   2
BRANCH   1  29
ATOM     29  C   UNL A   1      31.507  32.058  26.576  1.00  0.00     0.023 C 
BRANCH  29  30
ATOM     30  C   UNL A   1      32.640  32.736  27.328  1.00  0.00     0.116 C 
BRANCH  30  31
ATOM     31  N   UNL A   1      32.358  34.119  27.681  1.00  0.00    -0.352 N 
ATOM     32  C   UNL A   1      32.985  34.925  28.607  1.00  0.00     0.251 C 
ATOM     33  H   UNL A   1      31.615  34.539  27.190  1.00  0.00     0.163 HD
ATOM     34  O   UNL A   1      32.558  36.036  28.855  1.00  0.00    -0.269 OA
BRANCH  32  35
ATOM     35  C   UNL A   1      34.163  34.393  29.326  1.00  0.00     0.039 A 
ATOM     36  C   UNL A   1      33.960  33.596  30.454  1.00  0.00     0.014 A 
ATOM     37  C   UNL A   1      35.453  34.629  28.848  1.00  0.00     0.014 A 
ATOM     38  C   UNL A   1      35.053  32.972  31.056  1.00  0.00     0.010 A 
ATOM     39  C   UNL A   1      36.521  33.919  29.377  1.00  0.00     0.010 A 
ATOM     40  C   UNL A   1      36.335  33.093  30.495  1.00  0.00    -0.014 A 
BRANCH  40  41
ATOM     41  C   UNL A   1      37.500  32.381  31.075  1.00  0.00     0.031 A 
ATOM     42  C   UNL A   1      37.991  32.744  32.449  1.00  0.00     0.074 A 
ATOM     43  C   UNL A   1      38.151  31.459  30.341  1.00  0.00     0.049 A 
ATOM     44  N   UNL A   1      39.014  32.271  33.116  1.00  0.00    -0.248 NA
ATOM     45  C   UNL A   1      37.261  33.808  33.157  1.00  0.00     0.031 C 
ATOM     46  C   UNL A   1      37.818  31.079  28.965  1.00  0.00     0.029 A 
ATOM     47  N   UNL A   1      39.232  30.671  30.648  1.00  0.00    -0.354 N 
ATOM     48  C   UNL A   1      39.057  32.993  34.301  1.00  0.00     0.074 A 
ATOM     49  C   UNL A   1      38.009  33.985  34.234  1.00  0.00     0.031 C 
ATOM     50  C   UNL A   1      38.648  30.104  28.565  1.00  0.00     0.029 A 
ATOM     51  C   UNL A   1      39.590  29.811  29.639  1.00  0.00     0.049 A 
ATOM     52  H   UNL A   1      39.704  30.718  31.510  1.00  0.00     0.167 HD
ATOM     53  C   UNL A   1      39.875  32.821  35.367  1.00  0.00     0.037 A 
ATOM     54  C   UNL A   1      40.566  28.884  29.595  1.00  0.00     0.037 A 
ATOM     55  C   UNL A   1      40.888  31.805  35.444  1.00  0.00     0.049 A 
ATOM     56  C   UNL A   1      41.436  28.686  30.806  1.00  0.00     0.074 A 
ATOM     57  C   UNL A   1      41.725  31.496  36.501  1.00  0.00     0.029 A 
ATOM     58  N   UNL A   1      41.198  30.925  34.416  1.00  0.00    -0.354 N 
ATOM     59  N   UNL A   1      41.414  29.319  31.955  1.00  0.00    -0.248 NA
ATOM     60  C   UNL A   1      42.458  27.634  30.721  1.00  0.00     0.031 C 
ATOM     61  C   UNL A   1      42.569  30.455  36.100  1.00  0.00     0.029 A 
ATOM     62  C   UNL A   1      42.224  30.081  34.810  1.00  0.00     0.049 A 
ATOM     63  H   UNL A   1      40.755  30.903  33.538  1.00  0.00     0.167 HD
ATOM     64  C   UNL A   1      42.397  28.727  32.736  1.00  0.00     0.074 A 
ATOM     65  C   UNL A   1      42.982  27.670  31.936  1.00  0.00     0.031 C 
ATOM     66  C   UNL A   1      42.786  29.033  33.999  1.00  0.00     0.037 A 
BRANCH  53  67
ATOM     67  C   UNL A   1      39.685  33.742  36.538  1.00  0.00     0.064 A 
ATOM     68  C   UNL A   1      38.878  33.386  37.631  1.00  0.00     0.173 A 
ATOM     69  C   UNL A   1      40.330  34.986  36.579  1.00  0.00     0.173 A 
ATOM     70  F   UNL A   1      38.226  32.213  37.635  1.00  0.00    -0.203 F 
ATOM     71  C   UNL A   1      38.695  34.257  38.701  1.00  0.00     0.198 A 
ATOM     72  C   UNL A   1      40.171  35.840  37.668  1.00  0.00     0.198 A 
ATOM     73  F   UNL A   1      41.116  35.376  35.563  1.00  0.00    -0.203 F 
ATOM     74  F   UNL A   1      37.872  33.919  39.704  1.00  0.00    -0.200 F 
ATOM     75  C   UNL A   1      39.347  35.479  38.722  1.00  0.00     0.200 A 
ATOM     76  F   UNL A   1      40.811  37.018  37.692  1.00  0.00    -0.200 F 
ATOM     77  F   UNL A   1      39.173  36.315  39.756  1.00  0.00    -0.200 F 
ENDBRANCH  53  67
BRANCH  54  78
ATOM     78  C   UNL A   1      40.738  28.039  28.384  1.00  0.00     0.064 A 
ATOM     79  C   UNL A   1      40.107  26.789  28.287  1.00  0.00     0.173 A 
ATOM     80  C   UNL A   1      41.532  28.454  27.307  1.00  0.00     0.173 A 
ATOM     81  F   UNL A   1      39.352  26.341  29.300  1.00  0.00    -0.203 F 
ATOM     82  C   UNL A   1      40.285  25.978  27.168  1.00  0.00     0.198 A 
ATOM     83  C   UNL A   1      41.686  27.654  26.175  1.00  0.00     0.198 A 
ATOM     84  F   UNL A   1      42.149  29.644  27.346  1.00  0.00    -0.203 F 
ATOM     85  F   UNL A   1      39.711  24.768  27.123  1.00  0.00    -0.200 F 
ATOM     86  C   UNL A   1      41.070  26.413  26.112  1.00  0.00     0.200 A 
ATOM     87  F   UNL A   1      42.433  28.084  25.149  1.00  0.00    -0.200 F 
ATOM     88  F   UNL A   1      41.239  25.633  25.034  1.00  0.00    -0.200 F 
ENDBRANCH  54  78
BRANCH  66  89
ATOM     89  C   UNL A   1      43.872  28.190  34.600  1.00  0.00     0.064 A 
ATOM     90  C   UNL A   1      45.221  28.566  34.527  1.00  0.00     0.173 A 
ATOM     91  C   UNL A   1      43.555  27.004  35.280  1.00  0.00     0.173 A 
ATOM     92  F   UNL A   1      45.576  29.684  33.876  1.00  0.00    -0.203 F 
ATOM     93  C   UNL A   1      46.217  27.768  35.083  1.00  0.00     0.198 A 
ATOM     94  C   UNL A   1      44.550  26.225  35.863  1.00  0.00     0.198 A 
ATOM     95  F   UNL A   1      42.279  26.605  35.385  1.00  0.00    -0.203 F 
ATOM     96  F   UNL A   1      47.504  28.117  34.952  1.00  0.00    -0.200 F 
ATOM     97  C   UNL A   1      45.880  26.602  35.755  1.00  0.00     0.200 A 
ATOM     98  F   UNL A   1      44.222  25.106  36.523  1.00  0.00    -0.200 F 
ATOM     99  F   UNL A   1      46.839  25.836  36.292  1.00  0.00    -0.200 F 
ENDBRANCH  66  89
ENDBRANCH  40  41
ENDBRANCH  32  35
ENDBRANCH  30  31
ENDBRANCH  29  30
ENDBRANCH   1  29
TORSDOF 14
ENDMDL
MODEL 2
REMARK VINA RESULT:     -13.1      5.385      9.350
REMARK SMILES COc1ccc(NC(=O)[C@@H]2[C@@H](C(=O)NCCCCNC(=O)c3ccc(-c4c5nc(c(-c6c(F)c(F)c(F)c(F)c6F)c6ccc([nH]6)c(-c6c(F)c(F)c(F)c(F)c6F)c6nc(c(-c7c(F)c(F)c(F)c(F)c7F)c7ccc4[nH]7)C=C6)C=C5)cc3)[C@@H]3CC[C@H]2C3=C(C)C)cc1
REMARK SMILES IDX 16 1 15 2 14 3 12 4 13 5 11 7 10 8 88 9 85 10 87 11 89 12
REMARK SMILES IDX 86 13 90 14 91 15 92 16 8 17 7 18 9 20 6 21 3 22 4 23 94 24
REMARK SMILES IDX 5 25 93 26 2 27 1 28 17 29 18 30 19 31 20 32 21 34 22 35
REMARK SMILES IDX 23 36 84 37 24 38 83 39 25 40 26 41 27 42 77 43 28 44 82 45
REMARK SMILES IDX 76 46 78 47 29 48 81 49 75 50 74 51 30 53 62 54 42 55 61 56
REMARK SMILES IDX 43 57 46 58 60 59 79 60 44 61 45 62 59 64 80 65 47 66 31 67
REMARK SMILES IDX 32 68 40 69 33 70 34 71 38 72 41 73 35 74 36 75 39 76 37 77
REMARK SMILES IDX 63 78 64 79 72 80 65 81 66 82 70 83 73 84 67 85 68 86 71 87
REMARK SMILES IDX 69 88 48 89 49 90 57 91 50 92 51 93 55 94 58 95 52 96 53 97
REMARK SMILES IDX 56 98 54 99
REMARK H PARENT 14 6 7 19 19 33 78 52 46 63
REMARK Flexibility Score: inf
ROOT
ATOM      1  C   UNL A   1      36.756  20.795  25.367  1.00  0.00     0.023 C 
ENDROOT
BRANCH   1   2
ATOM      2  C   UNL A   1      36.595  22.288  25.117  1.00  0.00     0.116 C 
BRANCH   2   3
ATOM      3  N   UNL A   1      35.742  22.561  23.982  1.00  0.00    -0.356 N 
ATOM      4  C   UNL A   1      34.650  23.325  23.776  1.00  0.00     0.224 C 
ATOM      5  O   UNL A   1      34.241  23.318  22.603  1.00  0.00    -0.275 OA
ATOM      6  H   UNL A   1      36.025  22.079  23.172  1.00  0.00     0.163 HD
BRANCH   4   7
ATOM      7  C   UNL A   1      33.829  24.102  24.806  1.00  0.00     0.098 C 
ATOM      8  C   UNL A   1      32.276  24.019  24.960  1.00  0.00     0.099 C 
ATOM      9  C   UNL A   1      31.901  25.509  24.996  1.00  0.00     0.028 C 
ATOM     10  C   UNL A   1      34.114  25.628  24.632  1.00  0.00     0.028 C 
ATOM     11  C   UNL A   1      32.429  26.232  26.242  1.00  0.00     0.009 C 
ATOM     12  C   UNL A   1      32.845  26.073  23.976  1.00  0.00    -0.064 C 
ATOM     13  C   UNL A   1      33.939  26.330  25.986  1.00  0.00     0.009 C 
ATOM     14  C   UNL A   1      32.578  26.785  22.869  1.00  0.00    -0.077 C 
ATOM     15  C   UNL A   1      33.644  27.429  22.028  1.00  0.00     0.039 C 
ATOM     16  C   UNL A   1      31.173  26.946  22.341  1.00  0.00     0.039 C 
BRANCH   8  17
ATOM     17  C   UNL A   1      31.891  23.136  26.162  1.00  0.00     0.228 C 
ATOM     18  N   UNL A   1      32.025  21.774  26.189  1.00  0.00    -0.326 N 
ATOM     19  H   UNL A   1      31.757  21.345  27.034  1.00  0.00     0.169 HD
ATOM     20  O   UNL A   1      31.445  23.656  27.193  1.00  0.00    -0.274 OA
BRANCH  18  21
ATOM     21  C   UNL A   1      32.482  20.900  25.200  1.00  0.00     0.041 A 
ATOM     22  C   UNL A   1      32.986  18.735  23.523  1.00  0.00     0.119 A 
ATOM     23  C   UNL A   1      32.235  19.818  23.062  1.00  0.00     0.048 A 
ATOM     24  C   UNL A   1      33.630  18.822  24.756  1.00  0.00     0.048 A 
ATOM     25  C   UNL A   1      31.986  20.910  23.900  1.00  0.00     0.030 A 
ATOM     26  C   UNL A   1      33.400  19.922  25.586  1.00  0.00     0.030 A 
BRANCH  22  27
ATOM     27  O   UNL A   1      33.010  17.640  22.703  1.00  0.00    -0.497 OA
ATOM     28  C   UNL A   1      34.016  16.673  23.004  1.00  0.00     0.278 C 
ENDBRANCH  22  27
ENDBRANCH  18  21
ENDBRANCH   8  17
ENDBRANCH   4   7
ENDBRANCH   2   3
ENDBRANCH   1   2
BRANCH   1  29
ATOM     29  C   UNL A   1      38.095  20.196  24.943  1.00  0.00     0.023 C 
BRANCH  29  30
ATOM     30  C   UNL A   1      39.208  20.337  25.967  1.00  0.00     0.116 C 
BRANCH  30  31
ATOM     31  N   UNL A   1      40.152  19.229  25.958  1.00  0.00    -0.352 N 
ATOM     32  C   UNL A   1      41.523  19.254  26.093  1.00  0.00     0.251 C 
ATOM     33  H   UNL A   1      39.755  18.336  25.837  1.00  0.00     0.163 HD
ATOM     34  O   UNL A   1      42.181  18.240  25.960  1.00  0.00    -0.269 OA
BRANCH  32  35
ATOM     35  C   UNL A   1      42.185  20.550  26.359  1.00  0.00     0.039 A 
ATOM     36  C   UNL A   1      42.606  21.326  25.279  1.00  0.00     0.014 A 
ATOM     37  C   UNL A   1      42.327  21.019  27.667  1.00  0.00     0.014 A 
ATOM     38  C   UNL A   1      43.100  22.610  25.510  1.00  0.00     0.010 A 
ATOM     39  C   UNL A   1      42.710  22.334  27.885  1.00  0.00     0.010 A 
ATOM     40  C   UNL A   1      43.114  23.140  26.811  1.00  0.00    -0.014 A 
BRANCH  40  41
ATOM     41  C   UNL A   1      43.567  24.527  27.072  1.00  0.00     0.031 A 
ATOM     42  C   UNL A   1      42.600  25.540  27.621  1.00  0.00     0.074 A 
ATOM     43  C   UNL A   1      44.825  24.890  26.756  1.00  0.00     0.049 A 
ATOM     44  N   UNL A   1      42.787  26.810  27.879  1.00  0.00    -0.248 NA
ATOM     45  C   UNL A   1      41.227  25.076  27.877  1.00  0.00     0.031 C 
ATOM     46  C   UNL A   1      45.831  24.018  26.144  1.00  0.00     0.029 A 
ATOM     47  N   UNL A   1      45.475  26.089  26.905  1.00  0.00    -0.354 N 
ATOM     48  C   UNL A   1      41.555  27.292  28.304  1.00  0.00     0.074 A 
ATOM     49  C   UNL A   1      40.612  26.203  28.200  1.00  0.00     0.031 C 
ATOM     50  C   UNL A   1      46.980  24.698  26.010  1.00  0.00     0.029 A 
ATOM     51  C   UNL A   1      46.785  26.059  26.495  1.00  0.00     0.049 A 
ATOM     52  H   UNL A   1      45.043  26.893  27.272  1.00  0.00     0.167 HD
ATOM     53  C   UNL A   1      41.247  28.524  28.776  1.00  0.00     0.037 A 
ATOM     54  C   UNL A   1      47.724  27.025  26.520  1.00  0.00     0.037 A 
ATOM     55  C   UNL A   1      42.200  29.590  28.917  1.00  0.00     0.049 A 
ATOM     56  C   UNL A   1      47.367  28.373  27.083  1.00  0.00     0.074 A 
ATOM     57  C   UNL A   1      42.012  30.854  29.446  1.00  0.00     0.029 A 
ATOM     58  N   UNL A   1      43.530  29.512  28.526  1.00  0.00    -0.354 N 
ATOM     59  N   UNL A   1      46.219  28.794  27.561  1.00  0.00    -0.248 NA
ATOM     60  C   UNL A   1      48.438  29.376  27.125  1.00  0.00     0.031 C 
ATOM     61  C   UNL A   1      43.219  31.555  29.341  1.00  0.00     0.029 A 
ATOM     62  C   UNL A   1      44.171  30.711  28.791  1.00  0.00     0.049 A 
ATOM     63  H   UNL A   1      43.955  28.722  28.121  1.00  0.00     0.167 HD
ATOM     64  C   UNL A   1      46.437  30.098  27.982  1.00  0.00     0.074 A 
ATOM     65  C   UNL A   1      47.833  30.391  27.724  1.00  0.00     0.031 C 
ATOM     66  C   UNL A   1      45.562  30.977  28.530  1.00  0.00     0.037 A 
BRANCH  53  67
ATOM     67  C   UNL A   1      39.824  28.768  29.189  1.00  0.00     0.064 A 
ATOM     68  C   UNL A   1      39.393  28.547  30.508  1.00  0.00     0.173 A 
ATOM     69  C   UNL A   1      38.884  29.244  28.264  1.00  0.00     0.173 A 
ATOM     70  F   UNL A   1      40.249  28.077  31.428  1.00  0.00    -0.203 F 
ATOM     71  C   UNL A   1      38.067  28.758  30.874  1.00  0.00     0.198 A 
ATOM     72  C   UNL A   1      37.565  29.486  28.644  1.00  0.00     0.198 A 
ATOM     73  F   UNL A   1      39.242  29.475  26.992  1.00  0.00    -0.203 F 
ATOM     74  F   UNL A   1      37.667  28.483  32.124  1.00  0.00    -0.200 F 
ATOM     75  C   UNL A   1      37.156  29.234  29.944  1.00  0.00     0.200 A 
ATOM     76  F   UNL A   1      36.688  29.958  27.747  1.00  0.00    -0.200 F 
ATOM     77  F   UNL A   1      35.881  29.442  30.300  1.00  0.00    -0.200 F 
ENDBRANCH  53  67
BRANCH  54  78
ATOM     78  C   UNL A   1      49.103  26.736  26.045  1.00  0.00     0.064 A 
ATOM     79  C   UNL A   1      49.496  27.069  24.740  1.00  0.00     0.173 A 
ATOM     80  C   UNL A   1      50.051  26.121  26.874  1.00  0.00     0.173 A 
ATOM     81  F   UNL A   1      48.620  27.642  23.903  1.00  0.00    -0.203 F 
ATOM     82  C   UNL A   1      50.777  26.776  24.276  1.00  0.00     0.198 A 
ATOM     83  C   UNL A   1      51.342  25.855  26.419  1.00  0.00     0.198 A 
ATOM     84  F   UNL A   1      49.728  25.791  28.133  1.00  0.00    -0.203 F 
ATOM     85  F   UNL A   1      51.111  27.061  23.011  1.00  0.00    -0.200 F 
ATOM     86  C   UNL A   1      51.700  26.174  25.118  1.00  0.00     0.200 A 
ATOM     87  F   UNL A   1      52.235  25.286  27.240  1.00  0.00    -0.200 F 
ATOM     88  F   UNL A   1      52.933  25.894  24.673  1.00  0.00    -0.200 F 
ENDBRANCH  54  78
BRANCH  66  89
ATOM     89  C   UNL A   1      46.100  32.324  28.914  1.00  0.00     0.064 A 
ATOM     90  C   UNL A   1      46.081  33.406  28.021  1.00  0.00     0.173 A 
ATOM     91  C   UNL A   1      46.617  32.541  30.199  1.00  0.00     0.173 A 
ATOM     92  F   UNL A   1      45.608  33.246  26.775  1.00  0.00    -0.203 F 
ATOM     93  C   UNL A   1      46.591  34.647  28.390  1.00  0.00     0.198 A 
ATOM     94  C   UNL A   1      47.097  33.792  30.577  1.00  0.00     0.198 A 
ATOM     95  F   UNL A   1      46.650  31.542  31.093  1.00  0.00    -0.203 F 
ATOM     96  F   UNL A   1      46.615  35.651  27.503  1.00  0.00    -0.200 F 
ATOM     97  C   UNL A   1      47.094  34.840  29.669  1.00  0.00     0.200 A 
ATOM     98  F   UNL A   1      47.570  33.981  31.816  1.00  0.00    -0.200 F 
ATOM     99  F   UNL A   1      47.583  36.036  30.024  1.00  0.00    -0.200 F 
ENDBRANCH  66  89
ENDBRANCH  40  41
ENDBRANCH  32  35
ENDBRANCH  30  31
ENDBRANCH  29  30
ENDBRANCH   1  29
TORSDOF 14
ENDMDL
MODEL 3
REMARK VINA RESULT:     -13.0      5.137     10.395
REMARK SMILES COc1ccc(NC(=O)[C@@H]2[C@@H](C(=O)NCCCCNC(=O)c3ccc(-c4c5nc(c(-c6c(F)c(F)c(F)c(F)c6F)c6ccc([nH]6)c(-c6c(F)c(F)c(F)c(F)c6F)c6nc(c(-c7c(F)c(F)c(F)c(F)c7F)c7ccc4[nH]7)C=C6)C=C5)cc3)[C@@H]3CC[C@H]2C3=C(C)C)cc1
REMARK SMILES IDX 16 1 15 2 14 3 12 4 13 5 11 7 10 8 88 9 85 10 87 11 89 12
REMARK SMILES IDX 86 13 90 14 91 15 92 16 8 17 7 18 9 20 6 21 3 22 4 23 94 24
REMARK SMILES IDX 5 25 93 26 2 27 1 28 17 29 18 30 19 31 20 32 21 34 22 35
REMARK SMILES IDX 23 36 84 37 24 38 83 39 25 40 26 41 27 42 77 43 28 44 82 45
REMARK SMILES IDX 76 46 78 47 29 48 81 49 75 50 74 51 30 53 62 54 42 55 61 56
REMARK SMILES IDX 43 57 46 58 60 59 79 60 44 61 45 62 59 64 80 65 47 66 31 67
REMARK SMILES IDX 32 68 40 69 33 70 34 71 38 72 41 73 35 74 36 75 39 76 37 77
REMARK SMILES IDX 63 78 64 79 72 80 65 81 66 82 70 83 73 84 67 85 68 86 71 87
REMARK SMILES IDX 69 88 48 89 49 90 57 91 50 92 51 93 55 94 58 95 52 96 53 97
REMARK SMILES IDX 56 98 54 99
REMARK H PARENT 14 6 7 19 19 33 78 52 46 63
REMARK Flexibility Score: inf
ROOT
ATOM      1  C   UNL A   1      36.669  20.756  25.323  1.00  0.00     0.023 C 
ENDROOT
BRANCH   1   2
ATOM      2  C   UNL A   1      36.308  22.233  25.392  1.00  0.00     0.116 C 
BRANCH   2   3
ATOM      3  N   UNL A   1      35.631  22.684  24.197  1.00  0.00    -0.356 N 
ATOM      4  C   UNL A   1      34.654  23.578  23.938  1.00  0.00     0.224 C 
ATOM      5  O   UNL A   1      34.393  23.706  22.731  1.00  0.00    -0.275 OA
ATOM      6  H   UNL A   1      35.960  22.237  23.385  1.00  0.00     0.163 HD
BRANCH   4   7
ATOM      7  C   UNL A   1      33.797  24.360  24.934  1.00  0.00     0.098 C 
ATOM      8  C   UNL A   1      32.243  24.247  25.059  1.00  0.00     0.099 C 
ATOM      9  C   UNL A   1      31.836  25.729  25.054  1.00  0.00     0.028 C 
ATOM     10  C   UNL A   1      34.053  25.887  24.730  1.00  0.00     0.028 C 
ATOM     11  C   UNL A   1      32.324  26.490  26.293  1.00  0.00     0.009 C 
ATOM     12  C   UNL A   1      32.788  26.290  24.040  1.00  0.00    -0.064 C 
ATOM     13  C   UNL A   1      33.836  26.616  26.064  1.00  0.00     0.009 C 
ATOM     14  C   UNL A   1      32.528  26.971  22.912  1.00  0.00    -0.077 C 
ATOM     15  C   UNL A   1      33.596  27.618  22.077  1.00  0.00     0.039 C 
ATOM     16  C   UNL A   1      31.130  27.089  22.353  1.00  0.00     0.039 C 
BRANCH   8  17
ATOM     17  C   UNL A   1      31.854  23.382  26.274  1.00  0.00     0.228 C 
ATOM     18  N   UNL A   1      31.973  22.019  26.317  1.00  0.00    -0.326 N 
ATOM     19  H   UNL A   1      31.704  21.604  27.168  1.00  0.00     0.169 HD
ATOM     20  O   UNL A   1      31.417  23.921  27.299  1.00  0.00    -0.274 OA
BRANCH  18  21
ATOM     21  C   UNL A   1      32.417  21.128  25.338  1.00  0.00     0.041 A 
ATOM     22  C   UNL A   1      32.846  18.958  23.647  1.00  0.00     0.119 A 
ATOM     23  C   UNL A   1      32.212  20.105  23.167  1.00  0.00     0.048 A 
ATOM     24  C   UNL A   1      33.423  18.974  24.916  1.00  0.00     0.048 A 
ATOM     25  C   UNL A   1      32.000  21.200  24.012  1.00  0.00     0.030 A 
ATOM     26  C   UNL A   1      33.231  20.074  25.755  1.00  0.00     0.030 A 
BRANCH  22  27
ATOM     27  O   UNL A   1      32.832  17.879  22.806  1.00  0.00    -0.497 OA
ATOM     28  C   UNL A   1      33.807  16.874  23.086  1.00  0.00     0.278 C 
ENDBRANCH  22  27
ENDBRANCH  18  21
ENDBRANCH   8  17
ENDBRANCH   4   7
ENDBRANCH   2   3
ENDBRANCH   1   2
BRANCH   1  29
ATOM     29  C   UNL A   1      38.114  20.448  24.934  1.00  0.00     0.023 C 
BRANCH  29  30
ATOM     30  C   UNL A   1      39.094  20.423  26.093  1.00  0.00     0.116 C 
BRANCH  30  31
ATOM     31  N   UNL A   1      40.101  19.378  25.982  1.00  0.00    -0.352 N 
ATOM     32  C   UNL A   1      41.473  19.481  26.062  1.00  0.00     0.251 C 
ATOM     33  H   UNL A   1      39.753  18.470  25.829  1.00  0.00     0.163 HD
ATOM     34  O   UNL A   1      42.183  18.518  25.844  1.00  0.00    -0.269 OA
BRANCH  32  35
ATOM     35  C   UNL A   1      42.067  20.799  26.373  1.00  0.00     0.039 A 
ATOM     36  C   UNL A   1      42.298  21.697  25.330  1.00  0.00     0.014 A 
ATOM     37  C   UNL A   1      42.332  21.165  27.694  1.00  0.00     0.014 A 
ATOM     38  C   UNL A   1      42.723  22.993  25.624  1.00  0.00     0.010 A 
ATOM     39  C   UNL A   1      42.644  22.483  27.991  1.00  0.00     0.010 A 
ATOM     40  C   UNL A   1      42.857  23.408  26.959  1.00  0.00    -0.014 A 
BRANCH  40  41
ATOM     41  C   UNL A   1      43.237  24.801  27.298  1.00  0.00     0.031 A 
ATOM     42  C   UNL A   1      44.640  25.278  27.042  1.00  0.00     0.074 A 
ATOM     43  C   UNL A   1      42.341  25.612  27.894  1.00  0.00     0.049 A 
ATOM     44  N   UNL A   1      45.182  26.440  27.304  1.00  0.00    -0.248 NA
ATOM     45  C   UNL A   1      45.573  24.307  26.448  1.00  0.00     0.031 C 
ATOM     46  C   UNL A   1      40.974  25.237  28.267  1.00  0.00     0.029 A 
ATOM     47  N   UNL A   1      42.445  26.920  28.293  1.00  0.00    -0.354 N 
ATOM     48  C   UNL A   1      46.514  26.328  26.927  1.00  0.00     0.074 A 
ATOM     49  C   UNL A   1      46.720  24.967  26.489  1.00  0.00     0.031 C 
ATOM     50  C   UNL A   1      40.356  26.303  28.799  1.00  0.00     0.029 A 
ATOM     51  C   UNL A   1      41.289  27.424  28.835  1.00  0.00     0.049 A 
ATOM     52  H   UNL A   1      43.271  27.448  28.198  1.00  0.00     0.167 HD
ATOM     53  C   UNL A   1      47.472  27.285  26.913  1.00  0.00     0.037 A 
ATOM     54  C   UNL A   1      41.013  28.658  29.300  1.00  0.00     0.037 A 
ATOM     55  C   UNL A   1      47.249  28.649  27.310  1.00  0.00     0.049 A 
ATOM     56  C   UNL A   1      42.083  29.713  29.237  1.00  0.00     0.074 A 
ATOM     57  C   UNL A   1      48.128  29.716  27.270  1.00  0.00     0.029 A 
ATOM     58  N   UNL A   1      46.052  29.133  27.820  1.00  0.00    -0.354 N 
ATOM     59  N   UNL A   1      43.317  29.619  28.801  1.00  0.00    -0.248 NA
ATOM     60  C   UNL A   1      41.718  31.052  29.718  1.00  0.00     0.031 C 
ATOM     61  C   UNL A   1      47.475  30.838  27.791  1.00  0.00     0.029 A 
ATOM     62  C   UNL A   1      46.174  30.482  28.110  1.00  0.00     0.049 A 
ATOM     63  H   UNL A   1      45.237  28.598  27.954  1.00  0.00     0.167 HD
ATOM     64  C   UNL A   1      43.865  30.886  28.930  1.00  0.00     0.074 A 
ATOM     65  C   UNL A   1      42.823  31.738  29.466  1.00  0.00     0.031 C 
ATOM     66  C   UNL A   1      45.121  31.310  28.637  1.00  0.00     0.037 A 
BRANCH  53  67
ATOM     67  C   UNL A   1      48.837  26.888  26.432  1.00  0.00     0.064 A 
ATOM     68  C   UNL A   1      49.219  27.043  25.089  1.00  0.00     0.173 A 
ATOM     69  C   UNL A   1      49.783  26.362  27.324  1.00  0.00     0.173 A 
ATOM     70  F   UNL A   1      48.347  27.527  24.191  1.00  0.00    -0.203 F 
ATOM     71  C   UNL A   1      50.481  26.652  24.652  1.00  0.00     0.198 A 
ATOM     72  C   UNL A   1      51.057  26.003  26.888  1.00  0.00     0.198 A 
ATOM     73  F   UNL A   1      49.474  26.195  28.618  1.00  0.00    -0.203 F 
ATOM     74  F   UNL A   1      50.799  26.754  23.353  1.00  0.00    -0.200 F 
ATOM     75  C   UNL A   1      51.401  26.140  25.552  1.00  0.00     0.200 A 
ATOM     76  F   UNL A   1      51.950  25.519  27.762  1.00  0.00    -0.200 F 
ATOM     77  F   UNL A   1      52.618  25.768  25.130  1.00  0.00    -0.200 F 
ENDBRANCH  53  67
BRANCH  54  78
ATOM     78  C   UNL A   1      39.655  28.975  29.814  1.00  0.00     0.064 A 
ATOM     79  C   UNL A   1      39.333  28.767  31.164  1.00  0.00     0.173 A 
ATOM     80  C   UNL A   1      38.654  29.484  28.977  1.00  0.00     0.173 A 
ATOM     81  F   UNL A   1      40.252  28.264  32.001  1.00  0.00    -0.203 F 
ATOM     82  C   UNL A   1      38.054  29.033  31.649  1.00  0.00     0.198 A 
ATOM     83  C   UNL A   1      37.383  29.779  29.470  1.00  0.00     0.198 A 
ATOM     84  F   UNL A   1      38.913  29.710  27.681  1.00  0.00    -0.203 F 
ATOM     85  F   UNL A   1      37.761  28.780  32.931  1.00  0.00    -0.200 F 
ATOM     86  C   UNL A   1      37.082  29.544  30.803  1.00  0.00     0.200 A 
ATOM     87  F   UNL A   1      36.450  30.286  28.652  1.00  0.00    -0.200 F 
ATOM     88  F   UNL A   1      35.853  29.803  31.270  1.00  0.00    -0.200 F 
ENDBRANCH  54  78
BRANCH  66  89
ATOM     89  C   UNL A   1      45.419  32.763  28.861  1.00  0.00     0.064 A 
ATOM     90  C   UNL A   1      45.988  33.222  30.058  1.00  0.00     0.173 A 
ATOM     91  C   UNL A   1      45.155  33.703  27.854  1.00  0.00     0.173 A 
ATOM     92  F   UNL A   1      46.246  32.363  31.056  1.00  0.00    -0.203 F 
ATOM     93  C   UNL A   1      46.251  34.575  30.252  1.00  0.00     0.198 A 
ATOM     94  C   UNL A   1      45.450  35.051  28.038  1.00  0.00     0.198 A 
ATOM     95  F   UNL A   1      44.620  33.315  26.687  1.00  0.00    -0.203 F 
ATOM     96  F   UNL A   1      46.742  34.999  31.424  1.00  0.00    -0.200 F 
ATOM     97  C   UNL A   1      45.987  35.488  29.240  1.00  0.00     0.200 A 
ATOM     98  F   UNL A   1      45.207  35.930  27.056  1.00  0.00    -0.200 F 
ATOM     99  F   UNL A   1      46.243  36.789  29.427  1.00  0.00    -0.200 F 
ENDBRANCH  66  89
ENDBRANCH  40  41
ENDBRANCH  32  35
ENDBRANCH  30  31
ENDBRANCH  29  30
ENDBRANCH   1  29
TORSDOF 14
ENDMDL
