MODEL 1
REMARK VINA RESULT:     -13.2      0.000      0.000
REMARK SMILES COc1ccc(-n2c(=S)[nH]cc(CC(=O)NCCCCNC(=O)c3ccc(-c4c5nc(c(-c6c(F)c(F)c(F)c(F)c6F)c6ccc([nH]6)c(-c6c(F)c(F)c(F)c(F)c6F)c6nc(c(-c7c(F)c(F)c(F)c(F)c7F)c7ccc4[nH]7)C=C6)C=C5)cc3)c2=O)cc1Cl
REMARK SMILES IDX 18 1 17 2 16 3 14 4 15 5 13 7 12 8 7 9 8 10 87 11 9 12 10 13
REMARK SMILES IDX 88 14 11 15 6 17 3 18 4 19 90 20 5 21 89 22 91 23 2 24 1 25
REMARK SMILES IDX 19 26 20 27 21 28 22 29 23 31 24 32 25 33 86 34 26 35 85 36
REMARK SMILES IDX 27 37 28 38 29 39 79 40 30 41 84 42 78 43 80 44 31 45 83 46
REMARK SMILES IDX 77 47 76 48 32 50 64 51 44 52 63 53 45 54 48 55 62 56 81 57
REMARK SMILES IDX 46 58 47 59 61 61 82 62 49 63 33 64 34 65 42 66 35 67 36 68
REMARK SMILES IDX 40 69 43 70 37 71 38 72 41 73 39 74 65 75 66 76 74 77 67 78
REMARK SMILES IDX 68 79 72 80 75 81 69 82 70 83 73 84 71 85 50 86 51 87 59 88
REMARK SMILES IDX 52 89 53 90 57 91 60 92 54 93 55 94 58 95 56 96
REMARK H PARENT 16 6 10 16 21 30 80 49 48 60
REMARK Flexibility Score: inf
ROOT
ATOM      1  C   UNL A   1      31.269  28.963  24.308  1.00  0.00     0.023 C 
ENDROOT
BRANCH   1   2
ATOM      2  C   UNL A   1      31.293  28.744  22.792  1.00  0.00     0.116 C 
BRANCH   2   3
ATOM      3  N   UNL A   1      32.552  28.180  22.342  1.00  0.00    -0.356 N 
ATOM      4  C   UNL A   1      32.817  26.918  21.892  1.00  0.00     0.224 C 
ATOM      5  O   UNL A   1      33.986  26.613  21.649  1.00  0.00    -0.275 OA
ATOM      6  H   UNL A   1      33.323  28.792  22.365  1.00  0.00     0.163 HD
BRANCH   4   7
ATOM      7  C   UNL A   1      31.686  25.913  21.722  1.00  0.00     0.142 C 
BRANCH   7   8
ATOM      8  C   UNL A   1      31.470  25.121  22.980  1.00  0.00     0.043 A 
ATOM      9  N   UNL A   1      31.951  23.069  24.271  1.00  0.00    -0.253 N 
ATOM     10  C   UNL A   1      30.968  23.435  25.209  1.00  0.00     0.184 A 
ATOM     11  C   UNL A   1      32.276  23.880  23.172  1.00  0.00     0.262 A 
ATOM     12  S   UNL A   1      30.523  22.664  26.635  1.00  0.00    -0.040 S 
ATOM     13  N   UNL A   1      30.316  24.619  24.962  1.00  0.00    -0.338 N 
ATOM     14  O   UNL A   1      33.131  23.609  22.327  1.00  0.00    -0.269 OA
ATOM     15  C   UNL A   1      30.551  25.429  23.899  1.00  0.00     0.095 A 
ATOM     16  H   UNL A   1      29.627  24.902  25.605  1.00  0.00     0.168 HD
BRANCH   9  17
ATOM     17  C   UNL A   1      32.705  21.850  24.420  1.00  0.00     0.053 A 
ATOM     18  C   UNL A   1      34.205  19.464  24.556  1.00  0.00     0.137 A 
ATOM     19  C   UNL A   1      32.874  19.439  24.139  1.00  0.00     0.050 A 
ATOM     20  C   UNL A   1      34.786  20.681  24.927  1.00  0.00     0.085 A 
ATOM     21  C   UNL A   1      32.124  20.618  24.088  1.00  0.00     0.031 A 
ATOM     22  C   UNL A   1      34.032  21.862  24.874  1.00  0.00     0.051 A 
ATOM     23  Cl  UNL A   1      36.441  20.819  25.395  1.00  0.00    -0.080 Cl
BRANCH  18  24
ATOM     24  O   UNL A   1      34.880  18.277  24.449  1.00  0.00    -0.495 OA
ATOM     25  C   UNL A   1      34.110  17.236  23.852  1.00  0.00     0.278 C 
ENDBRANCH  18  24
ENDBRANCH   9  17
ENDBRANCH   7   8
ENDBRANCH   4   7
ENDBRANCH   2   3
ENDBRANCH   1   2
BRANCH   1  26
ATOM     26  C   UNL A   1      32.627  29.284  24.936  1.00  0.00     0.023 C 
BRANCH  26  27
ATOM     27  C   UNL A   1      32.593  29.601  26.425  1.00  0.00     0.116 C 
BRANCH  27  28
ATOM     28  N   UNL A   1      32.367  31.009  26.719  1.00  0.00    -0.352 N 
ATOM     29  C   UNL A   1      33.211  31.903  27.338  1.00  0.00     0.251 C 
ATOM     30  H   UNL A   1      31.495  31.369  26.436  1.00  0.00     0.163 HD
ATOM     31  O   UNL A   1      32.831  33.041  27.594  1.00  0.00    -0.269 OA
BRANCH  29  32
ATOM     32  C   UNL A   1      34.563  31.463  27.747  1.00  0.00     0.039 A 
ATOM     33  C   UNL A   1      34.826  30.118  28.007  1.00  0.00     0.014 A 
ATOM     34  C   UNL A   1      35.562  32.422  27.930  1.00  0.00     0.014 A 
ATOM     35  C   UNL A   1      36.016  29.759  28.628  1.00  0.00     0.010 A 
ATOM     36  C   UNL A   1      36.792  32.046  28.477  1.00  0.00     0.010 A 
ATOM     37  C   UNL A   1      37.004  30.722  28.891  1.00  0.00    -0.014 A 
BRANCH  37  38
ATOM     38  C   UNL A   1      38.223  30.322  29.642  1.00  0.00     0.031 A 
ATOM     39  C   UNL A   1      38.429  30.775  31.063  1.00  0.00     0.074 A 
ATOM     40  C   UNL A   1      39.102  29.477  29.073  1.00  0.00     0.049 A 
ATOM     41  N   UNL A   1      39.395  30.473  31.895  1.00  0.00    -0.248 NA
ATOM     42  C   UNL A   1      37.422  31.688  31.629  1.00  0.00     0.031 C 
ATOM     43  C   UNL A   1      39.005  28.956  27.710  1.00  0.00     0.029 A 
ATOM     44  N   UNL A   1      40.229  28.878  29.580  1.00  0.00    -0.354 N 
ATOM     45  C   UNL A   1      39.120  31.164  33.067  1.00  0.00     0.074 A 
ATOM     46  C   UNL A   1      37.917  31.931  32.834  1.00  0.00     0.031 C 
ATOM     47  C   UNL A   1      39.988  28.066  27.509  1.00  0.00     0.029 A 
ATOM     48  C   UNL A   1      40.819  27.997  28.708  1.00  0.00     0.049 A 
ATOM     49  H   UNL A   1      40.579  29.063  30.481  1.00  0.00     0.167 HD
ATOM     50  C   UNL A   1      39.800  31.147  34.239  1.00  0.00     0.037 A 
ATOM     51  C   UNL A   1      41.907  27.219  28.856  1.00  0.00     0.037 A 
ATOM     52  C   UNL A   1      40.981  30.362  34.484  1.00  0.00     0.049 A 
ATOM     53  C   UNL A   1      42.671  27.258  30.149  1.00  0.00     0.074 A 
ATOM     54  C   UNL A   1      41.716  30.253  35.652  1.00  0.00     0.029 A 
ATOM     55  N   UNL A   1      41.596  29.549  33.545  1.00  0.00    -0.354 N 
ATOM     56  N   UNL A   1      42.395  27.909  31.251  1.00  0.00    -0.248 NA
ATOM     57  C   UNL A   1      43.907  26.467  30.211  1.00  0.00     0.031 C 
ATOM     58  C   UNL A   1      42.801  29.404  35.408  1.00  0.00     0.029 A 
ATOM     59  C   UNL A   1      42.720  28.955  34.099  1.00  0.00     0.049 A 
ATOM     60  H   UNL A   1      41.283  29.414  32.621  1.00  0.00     0.167 HD
ATOM     61  C   UNL A   1      43.418  27.610  32.138  1.00  0.00     0.074 A 
ATOM     62  C   UNL A   1      44.310  26.696  31.454  1.00  0.00     0.031 C 
ATOM     63  C   UNL A   1      43.605  28.060  33.401  1.00  0.00     0.037 A 
BRANCH  50  64
ATOM     64  C   UNL A   1      39.286  32.008  35.357  1.00  0.00     0.064 A 
ATOM     65  C   UNL A   1      38.443  31.490  36.351  1.00  0.00     0.173 A 
ATOM     66  C   UNL A   1      39.690  33.346  35.467  1.00  0.00     0.173 A 
ATOM     67  F   UNL A   1      38.020  30.219  36.283  1.00  0.00    -0.203 F 
ATOM     68  C   UNL A   1      38.009  32.289  37.407  1.00  0.00     0.198 A 
ATOM     69  C   UNL A   1      39.274  34.134  36.536  1.00  0.00     0.198 A 
ATOM     70  F   UNL A   1      40.502  33.887  34.545  1.00  0.00    -0.203 F 
ATOM     71  F   UNL A   1      37.177  31.784  38.328  1.00  0.00    -0.200 F 
ATOM     72  C   UNL A   1      38.431  33.606  37.502  1.00  0.00     0.200 A 
ATOM     73  F   UNL A   1      39.691  35.405  36.635  1.00  0.00    -0.200 F 
ATOM     74  F   UNL A   1      38.021  34.369  38.525  1.00  0.00    -0.200 F 
ENDBRANCH  50  64
BRANCH  51  75
ATOM     75  C   UNL A   1      42.326  26.332  27.743  1.00  0.00     0.064 A 
ATOM     76  C   UNL A   1      41.718  25.084  27.552  1.00  0.00     0.173 A 
ATOM     77  C   UNL A   1      43.314  26.726  26.829  1.00  0.00     0.173 A 
ATOM     78  F   UNL A   1      40.784  24.657  28.414  1.00  0.00    -0.203 F 
ATOM     79  C   UNL A   1      42.080  24.265  26.486  1.00  0.00     0.198 A 
ATOM     80  C   UNL A   1      43.658  25.917  25.749  1.00  0.00     0.198 A 
ATOM     81  F   UNL A   1      43.924  27.912  26.970  1.00  0.00    -0.203 F 
ATOM     82  F   UNL A   1      41.499  23.067  26.337  1.00  0.00    -0.200 F 
ATOM     83  C   UNL A   1      43.043  24.686  25.580  1.00  0.00     0.200 A 
ATOM     84  F   UNL A   1      44.577  26.334  24.868  1.00  0.00    -0.200 F 
ATOM     85  F   UNL A   1      43.378  23.904  24.544  1.00  0.00    -0.200 F 
ENDBRANCH  51  75
BRANCH  63  86
ATOM     86  C   UNL A   1      44.828  27.587  34.129  1.00  0.00     0.064 A 
ATOM     87  C   UNL A   1      46.012  28.337  34.117  1.00  0.00     0.173 A 
ATOM     88  C   UNL A   1      44.794  26.416  34.901  1.00  0.00     0.173 A 
ATOM     89  F   UNL A   1      46.095  29.455  33.381  1.00  0.00    -0.203 F 
ATOM     90  C   UNL A   1      47.124  27.927  34.846  1.00  0.00     0.198 A 
ATOM     91  C   UNL A   1      45.900  26.021  35.647  1.00  0.00     0.198 A 
ATOM     92  F   UNL A   1      43.681  25.669  34.948  1.00  0.00    -0.203 F 
ATOM     93  F   UNL A   1      48.255  28.644  34.800  1.00  0.00    -0.200 F 
ATOM     94  C   UNL A   1      47.065  26.775  35.618  1.00  0.00     0.200 A 
ATOM     95  F   UNL A   1      45.839  24.915  36.401  1.00  0.00    -0.200 F 
ATOM     96  F   UNL A   1      48.132  26.390  36.331  1.00  0.00    -0.200 F 
ENDBRANCH  63  86
ENDBRANCH  37  38
ENDBRANCH  29  32
ENDBRANCH  27  28
ENDBRANCH  26  27
ENDBRANCH   1  26
TORSDOF 14
ENDMDL
MODEL 2
REMARK VINA RESULT:     -13.0      1.091      2.418
REMARK SMILES COc1ccc(-n2c(=S)[nH]cc(CC(=O)NCCCCNC(=O)c3ccc(-c4c5nc(c(-c6c(F)c(F)c(F)c(F)c6F)c6ccc([nH]6)c(-c6c(F)c(F)c(F)c(F)c6F)c6nc(c(-c7c(F)c(F)c(F)c(F)c7F)c7ccc4[nH]7)C=C6)C=C5)cc3)c2=O)cc1Cl
REMARK SMILES IDX 18 1 17 2 16 3 14 4 15 5 13 7 12 8 7 9 8 10 87 11 9 12 10 13
REMARK SMILES IDX 88 14 11 15 6 17 3 18 4 19 90 20 5 21 89 22 91 23 2 24 1 25
REMARK SMILES IDX 19 26 20 27 21 28 22 29 23 31 24 32 25 33 86 34 26 35 85 36
REMARK SMILES IDX 27 37 28 38 29 39 79 40 30 41 84 42 78 43 80 44 31 45 83 46
REMARK SMILES IDX 77 47 76 48 32 50 64 51 44 52 63 53 45 54 48 55 62 56 81 57
REMARK SMILES IDX 46 58 47 59 61 61 82 62 49 63 33 64 34 65 42 66 35 67 36 68
REMARK SMILES IDX 40 69 43 70 37 71 38 72 41 73 39 74 65 75 66 76 74 77 67 78
REMARK SMILES IDX 68 79 72 80 75 81 69 82 70 83 73 84 71 85 50 86 51 87 59 88
REMARK SMILES IDX 52 89 53 90 57 91 60 92 54 93 55 94 58 95 56 96
REMARK H PARENT 16 6 10 16 21 30 80 49 48 60
REMARK Flexibility Score: inf
ROOT
ATOM      1  C   UNL A   1      33.253  28.864  24.709  1.00  0.00     0.023 C 
ENDROOT
BRANCH   1   2
ATOM      2  C   UNL A   1      32.983  29.024  23.210  1.00  0.00     0.116 C 
BRANCH   2   3
ATOM      3  N   UNL A   1      31.577  29.257  22.932  1.00  0.00    -0.356 N 
ATOM      4  C   UNL A   1      30.661  28.416  22.367  1.00  0.00     0.224 C 
ATOM      5  O   UNL A   1      29.533  28.849  22.129  1.00  0.00    -0.275 OA
ATOM      6  H   UNL A   1      31.237  30.146  23.185  1.00  0.00     0.163 HD
BRANCH   4   7
ATOM      7  C   UNL A   1      31.048  26.984  22.023  1.00  0.00     0.142 C 
BRANCH   7   8
ATOM      8  C   UNL A   1      31.140  26.135  23.258  1.00  0.00     0.043 A 
ATOM      9  N   UNL A   1      32.389  24.427  24.538  1.00  0.00    -0.253 N 
ATOM     10  C   UNL A   1      31.312  24.323  25.438  1.00  0.00     0.184 A 
ATOM     11  C   UNL A   1      32.383  25.335  23.467  1.00  0.00     0.262 A 
ATOM     12  S   UNL A   1      31.183  23.392  26.832  1.00  0.00    -0.040 S 
ATOM     13  N   UNL A   1      30.235  25.136  25.181  1.00  0.00    -0.338 N 
ATOM     14  O   UNL A   1      33.300  25.471  22.655  1.00  0.00    -0.269 OA
ATOM     15  C   UNL A   1      30.146  26.004  24.141  1.00  0.00     0.095 A 
ATOM     16  H   UNL A   1      29.470  25.086  25.798  1.00  0.00     0.168 HD
BRANCH   9  17
ATOM     17  C   UNL A   1      33.577  23.628  24.701  1.00  0.00     0.053 A 
ATOM     18  C   UNL A   1      35.882  22.072  25.176  1.00  0.00     0.137 A 
ATOM     19  C   UNL A   1      35.924  23.459  25.321  1.00  0.00     0.050 A 
ATOM     20  C   UNL A   1      34.691  21.459  24.773  1.00  0.00     0.085 A 
ATOM     21  C   UNL A   1      34.787  24.233  25.069  1.00  0.00     0.031 A 
ATOM     22  C   UNL A   1      33.552  22.237  24.522  1.00  0.00     0.051 A 
ATOM     23  Cl  UNL A   1      34.527  19.747  24.628  1.00  0.00    -0.080 Cl
BRANCH  18  24
ATOM     24  O   UNL A   1      37.011  21.403  25.568  1.00  0.00    -0.495 OA
ATOM     25  C   UNL A   1      38.141  22.252  25.750  1.00  0.00     0.278 C 
ENDBRANCH  18  24
ENDBRANCH   9  17
ENDBRANCH   7   8
ENDBRANCH   4   7
ENDBRANCH   2   3
ENDBRANCH   1   2
BRANCH   1  26
ATOM     26  C   UNL A   1      32.085  29.245  25.622  1.00  0.00     0.023 C 
BRANCH  26  27
ATOM     27  C   UNL A   1      32.480  29.786  26.989  1.00  0.00     0.116 C 
BRANCH  27  28
ATOM     28  N   UNL A   1      32.402  31.237  27.090  1.00  0.00    -0.352 N 
ATOM     29  C   UNL A   1      33.369  32.121  27.514  1.00  0.00     0.251 C 
ATOM     30  H   UNL A   1      31.545  31.638  26.818  1.00  0.00     0.163 HD
ATOM     31  O   UNL A   1      33.112  33.315  27.626  1.00  0.00    -0.269 OA
BRANCH  29  32
ATOM     32  C   UNL A   1      34.706  31.611  27.889  1.00  0.00     0.039 A 
ATOM     33  C   UNL A   1      34.901  30.257  28.162  1.00  0.00     0.014 A 
ATOM     34  C   UNL A   1      35.763  32.515  28.027  1.00  0.00     0.014 A 
ATOM     35  C   UNL A   1      36.088  29.841  28.753  1.00  0.00     0.010 A 
ATOM     36  C   UNL A   1      36.986  32.079  28.543  1.00  0.00     0.010 A 
ATOM     37  C   UNL A   1      37.136  30.751  28.972  1.00  0.00    -0.014 A 
BRANCH  37  38
ATOM     38  C   UNL A   1      38.353  30.294  29.692  1.00  0.00     0.031 A 
ATOM     39  C   UNL A   1      38.600  30.712  31.117  1.00  0.00     0.074 A 
ATOM     40  C   UNL A   1      39.191  29.429  29.092  1.00  0.00     0.049 A 
ATOM     41  N   UNL A   1      39.570  30.360  31.925  1.00  0.00    -0.248 NA
ATOM     42  C   UNL A   1      37.637  31.649  31.718  1.00  0.00     0.031 C 
ATOM     43  C   UNL A   1      39.050  28.937  27.721  1.00  0.00     0.029 A 
ATOM     44  N   UNL A   1      40.304  28.781  29.567  1.00  0.00    -0.354 N 
ATOM     45  C   UNL A   1      39.341  31.038  33.115  1.00  0.00     0.074 A 
ATOM     46  C   UNL A   1      38.162  31.851  32.918  1.00  0.00     0.031 C 
ATOM     47  C   UNL A   1      39.997  28.017  27.486  1.00  0.00     0.029 A 
ATOM     48  C   UNL A   1      40.847  27.896  28.668  1.00  0.00     0.049 A 
ATOM     49  H   UNL A   1      40.677  28.936  30.464  1.00  0.00     0.167 HD
ATOM     50  C   UNL A   1      40.040  30.975  34.273  1.00  0.00     0.037 A 
ATOM     51  C   UNL A   1      41.909  27.078  28.782  1.00  0.00     0.037 A 
ATOM     52  C   UNL A   1      41.197  30.144  34.482  1.00  0.00     0.049 A 
ATOM     53  C   UNL A   1      42.697  27.064  30.060  1.00  0.00     0.074 A 
ATOM     54  C   UNL A   1      41.949  29.987  35.633  1.00  0.00     0.029 A 
ATOM     55  N   UNL A   1      41.766  29.328  33.517  1.00  0.00    -0.354 N 
ATOM     56  N   UNL A   1      42.464  27.705  31.179  1.00  0.00    -0.248 NA
ATOM     57  C   UNL A   1      43.905  26.229  30.085  1.00  0.00     0.031 C 
ATOM     58  C   UNL A   1      42.997  29.105  35.354  1.00  0.00     0.029 A 
ATOM     59  C   UNL A   1      42.877  28.684  34.039  1.00  0.00     0.049 A 
ATOM     60  H   UNL A   1      41.431  29.221  32.597  1.00  0.00     0.167 HD
ATOM     61  C   UNL A   1      43.492  27.352  32.041  1.00  0.00     0.074 A 
ATOM     62  C   UNL A   1      44.338  26.421  31.324  1.00  0.00     0.031 C 
ATOM     63  C   UNL A   1      43.718  27.771  33.309  1.00  0.00     0.037 A 
BRANCH  50  64
ATOM     64  C   UNL A   1      39.578  31.832  35.416  1.00  0.00     0.064 A 
ATOM     65  C   UNL A   1      40.028  33.151  35.571  1.00  0.00     0.173 A 
ATOM     66  C   UNL A   1      38.630  31.348  36.329  1.00  0.00     0.173 A 
ATOM     67  F   UNL A   1      40.943  33.655  34.729  1.00  0.00    -0.203 F 
ATOM     68  C   UNL A   1      39.557  33.949  36.611  1.00  0.00     0.198 A 
ATOM     69  C   UNL A   1      38.145  32.156  37.353  1.00  0.00     0.198 A 
ATOM     70  F   UNL A   1      38.164  30.094  36.221  1.00  0.00    -0.203 F 
ATOM     71  F   UNL A   1      40.025  35.197  36.760  1.00  0.00    -0.200 F 
ATOM     72  C   UNL A   1      38.611  33.454  37.496  1.00  0.00     0.200 A 
ATOM     73  F   UNL A   1      37.221  31.681  38.202  1.00  0.00    -0.200 F 
ATOM     74  F   UNL A   1      38.152  34.228  38.489  1.00  0.00    -0.200 F 
ENDBRANCH  50  64
BRANCH  51  75
ATOM     75  C   UNL A   1      42.276  26.197  27.644  1.00  0.00     0.064 A 
ATOM     76  C   UNL A   1      43.256  26.587  26.722  1.00  0.00     0.173 A 
ATOM     77  C   UNL A   1      41.684  24.937  27.477  1.00  0.00     0.173 A 
ATOM     78  F   UNL A   1      43.833  27.793  26.830  1.00  0.00    -0.203 F 
ATOM     79  C   UNL A   1      43.632  25.749  25.676  1.00  0.00     0.198 A 
ATOM     80  C   UNL A   1      42.079  24.089  26.446  1.00  0.00     0.198 A 
ATOM     81  F   UNL A   1      40.743  24.519  28.336  1.00  0.00    -0.203 F 
ATOM     82  F   UNL A   1      44.556  26.153  24.795  1.00  0.00    -0.200 F 
ATOM     83  C   UNL A   1      43.050  24.495  25.545  1.00  0.00     0.200 A 
ATOM     84  F   UNL A   1      41.526  22.874  26.332  1.00  0.00    -0.200 F 
ATOM     85  F   UNL A   1      43.425  23.682  24.549  1.00  0.00    -0.200 F 
ENDBRANCH  51  75
BRANCH  63  86
ATOM     86  C   UNL A   1      44.935  27.242  34.005  1.00  0.00     0.064 A 
ATOM     87  C   UNL A   1      44.904  26.014  34.683  1.00  0.00     0.173 A 
ATOM     88  C   UNL A   1      46.156  27.927  33.935  1.00  0.00     0.173 A 
ATOM     89  F   UNL A   1      43.755  25.330  34.789  1.00  0.00    -0.203 F 
ATOM     90  C   UNL A   1      46.052  25.497  35.274  1.00  0.00     0.198 A 
ATOM     91  C   UNL A   1      47.308  27.396  34.508  1.00  0.00     0.198 A 
ATOM     92  F   UNL A   1      46.236  29.103  33.293  1.00  0.00    -0.203 F 
ATOM     93  F   UNL A   1      45.996  24.335  35.940  1.00  0.00    -0.200 F 
ATOM     94  C   UNL A   1      47.255  26.182  35.178  1.00  0.00     0.200 A 
ATOM     95  F   UNL A   1      48.471  28.053  34.405  1.00  0.00    -0.200 F 
ATOM     96  F   UNL A   1      48.363  25.674  35.735  1.00  0.00    -0.200 F 
ENDBRANCH  63  86
ENDBRANCH  37  38
ENDBRANCH  29  32
ENDBRANCH  27  28
ENDBRANCH  26  27
ENDBRANCH   1  26
TORSDOF 14
ENDMDL
MODEL 3
REMARK VINA RESULT:     -12.9      1.899      3.052
REMARK SMILES COc1ccc(-n2c(=S)[nH]cc(CC(=O)NCCCCNC(=O)c3ccc(-c4c5nc(c(-c6c(F)c(F)c(F)c(F)c6F)c6ccc([nH]6)c(-c6c(F)c(F)c(F)c(F)c6F)c6nc(c(-c7c(F)c(F)c(F)c(F)c7F)c7ccc4[nH]7)C=C6)C=C5)cc3)c2=O)cc1Cl
REMARK SMILES IDX 18 1 17 2 16 3 14 4 15 5 13 7 12 8 7 9 8 10 87 11 9 12 10 13
REMARK SMILES IDX 88 14 11 15 6 17 3 18 4 19 90 20 5 21 89 22 91 23 2 24 1 25
REMARK SMILES IDX 19 26 20 27 21 28 22 29 23 31 24 32 25 33 86 34 26 35 85 36
REMARK SMILES IDX 27 37 28 38 29 39 79 40 30 41 84 42 78 43 80 44 31 45 83 46
REMARK SMILES IDX 77 47 76 48 32 50 64 51 44 52 63 53 45 54 48 55 62 56 81 57
REMARK SMILES IDX 46 58 47 59 61 61 82 62 49 63 33 64 34 65 42 66 35 67 36 68
REMARK SMILES IDX 40 69 43 70 37 71 38 72 41 73 39 74 65 75 66 76 74 77 67 78
REMARK SMILES IDX 68 79 72 80 75 81 69 82 70 83 73 84 71 85 50 86 51 87 59 88
REMARK SMILES IDX 52 89 53 90 57 91 60 92 54 93 55 94 58 95 56 96
REMARK H PARENT 16 6 10 16 21 30 80 49 48 60
REMARK Flexibility Score: inf
ROOT
ATOM      1  C   UNL A   1      32.191  30.121  26.524  1.00  0.00     0.023 C 
ENDROOT
BRANCH   1   2
ATOM      2  C   UNL A   1      32.098  29.660  25.066  1.00  0.00     0.116 C 
BRANCH   2   3
ATOM      3  N   UNL A   1      30.794  29.935  24.489  1.00  0.00    -0.356 N 
ATOM      4  C   UNL A   1      30.147  29.284  23.478  1.00  0.00     0.224 C 
ATOM      5  O   UNL A   1      29.078  29.743  23.072  1.00  0.00    -0.275 OA
ATOM      6  H   UNL A   1      30.309  30.697  24.882  1.00  0.00     0.163 HD
BRANCH   4   7
ATOM      7  C   UNL A   1      30.757  28.034  22.860  1.00  0.00     0.142 C 
BRANCH   7   8
ATOM      8  C   UNL A   1      30.767  26.894  23.838  1.00  0.00     0.043 A 
ATOM      9  N   UNL A   1      31.909  24.871  24.684  1.00  0.00    -0.253 N 
ATOM     10  C   UNL A   1      30.789  24.580  25.485  1.00  0.00     0.184 A 
ATOM     11  C   UNL A   1      31.978  26.022  23.882  1.00  0.00     0.262 A 
ATOM     12  S   UNL A   1      30.569  23.330  26.586  1.00  0.00    -0.040 S 
ATOM     13  N   UNL A   1      29.747  25.472  25.403  1.00  0.00    -0.338 N 
ATOM     14  O   UNL A   1      32.936  26.325  23.169  1.00  0.00    -0.269 OA
ATOM     15  C   UNL A   1      29.731  26.579  24.619  1.00  0.00     0.095 A 
ATOM     16  H   UNL A   1      28.953  25.295  25.957  1.00  0.00     0.168 HD
BRANCH   9  17
ATOM     17  C   UNL A   1      33.066  24.012  24.682  1.00  0.00     0.053 A 
ATOM     18  C   UNL A   1      35.375  22.395  24.541  1.00  0.00     0.137 A 
ATOM     19  C   UNL A   1      34.239  22.072  23.797  1.00  0.00     0.050 A 
ATOM     20  C   UNL A   1      35.353  23.518  25.374  1.00  0.00     0.085 A 
ATOM     21  C   UNL A   1      33.088  22.863  23.880  1.00  0.00     0.031 A 
ATOM     22  C   UNL A   1      34.199  24.309  25.455  1.00  0.00     0.051 A 
ATOM     23  Cl  UNL A   1      36.729  24.030  26.282  1.00  0.00    -0.080 Cl
BRANCH  18  24
ATOM     24  O   UNL A   1      36.482  21.629  24.291  1.00  0.00    -0.495 OA
ATOM     25  C   UNL A   1      36.465  20.369  24.958  1.00  0.00     0.278 C 
ENDBRANCH  18  24
ENDBRANCH   9  17
ENDBRANCH   7   8
ENDBRANCH   4   7
ENDBRANCH   2   3
ENDBRANCH   1   2
BRANCH   1  26
ATOM     26  C   UNL A   1      31.765  31.569  26.773  1.00  0.00     0.023 C 
BRANCH  26  27
ATOM     27  C   UNL A   1      32.865  32.489  27.286  1.00  0.00     0.116 C 
BRANCH  27  28
ATOM     28  N   UNL A   1      32.408  33.840  27.582  1.00  0.00    -0.352 N 
ATOM     29  C   UNL A   1      32.927  34.743  28.481  1.00  0.00     0.251 C 
ATOM     30  H   UNL A   1      31.625  34.147  27.069  1.00  0.00     0.163 HD
ATOM     31  O   UNL A   1      32.365  35.816  28.678  1.00  0.00    -0.269 OA
BRANCH  29  32
ATOM     32  C   UNL A   1      34.136  34.386  29.254  1.00  0.00     0.039 A 
ATOM     33  C   UNL A   1      35.409  34.642  28.744  1.00  0.00     0.014 A 
ATOM     34  C   UNL A   1      33.989  33.732  30.480  1.00  0.00     0.014 A 
ATOM     35  C   UNL A   1      36.521  34.078  29.359  1.00  0.00     0.010 A 
ATOM     36  C   UNL A   1      35.117  33.238  31.142  1.00  0.00     0.010 A 
ATOM     37  C   UNL A   1      36.385  33.350  30.552  1.00  0.00    -0.014 A 
BRANCH  37  38
ATOM     38  C   UNL A   1      37.579  32.680  31.130  1.00  0.00     0.031 A 
ATOM     39  C   UNL A   1      38.049  33.021  32.519  1.00  0.00     0.074 A 
ATOM     40  C   UNL A   1      38.188  31.699  30.438  1.00  0.00     0.049 A 
ATOM     41  N   UNL A   1      39.029  32.495  33.213  1.00  0.00    -0.248 NA
ATOM     42  C   UNL A   1      37.331  34.094  33.226  1.00  0.00     0.031 C 
ATOM     43  C   UNL A   1      37.817  31.267  29.091  1.00  0.00     0.029 A 
ATOM     44  N   UNL A   1      39.221  30.864  30.784  1.00  0.00    -0.354 N 
ATOM     45  C   UNL A   1      39.050  33.177  34.422  1.00  0.00     0.074 A 
ATOM     46  C   UNL A   1      38.011  34.180  34.360  1.00  0.00     0.031 C 
ATOM     47  C   UNL A   1      38.563  30.206  28.749  1.00  0.00     0.029 A 
ATOM     48  C   UNL A   1      39.504  29.919  29.828  1.00  0.00     0.049 A 
ATOM     49  H   UNL A   1      39.711  30.936  31.634  1.00  0.00     0.167 HD
ATOM     50  C   UNL A   1      39.852  32.973  35.495  1.00  0.00     0.037 A 
ATOM     51  C   UNL A   1      40.419  28.933  29.821  1.00  0.00     0.037 A 
ATOM     52  C   UNL A   1      40.867  31.955  35.571  1.00  0.00     0.049 A 
ATOM     53  C   UNL A   1      41.329  28.761  31.003  1.00  0.00     0.074 A 
ATOM     54  C   UNL A   1      41.704  31.651  36.631  1.00  0.00     0.029 A 
ATOM     55  N   UNL A   1      41.180  31.075  34.547  1.00  0.00    -0.354 N 
ATOM     56  N   UNL A   1      41.332  29.407  32.142  1.00  0.00    -0.248 NA
ATOM     57  C   UNL A   1      42.374  27.734  30.891  1.00  0.00     0.031 C 
ATOM     58  C   UNL A   1      42.551  30.611  36.234  1.00  0.00     0.029 A 
ATOM     59  C   UNL A   1      42.217  30.244  34.940  1.00  0.00     0.049 A 
ATOM     60  H   UNL A   1      40.733  31.045  33.670  1.00  0.00     0.167 HD
ATOM     61  C   UNL A   1      42.374  28.870  32.883  1.00  0.00     0.074 A 
ATOM     62  C   UNL A   1      42.967  27.824  32.074  1.00  0.00     0.031 C 
ATOM     63  C   UNL A   1      42.806  29.218  34.118  1.00  0.00     0.037 A 
BRANCH  50  64
ATOM     64  C   UNL A   1      39.670  33.871  36.684  1.00  0.00     0.064 A 
ATOM     65  C   UNL A   1      38.861  33.497  37.766  1.00  0.00     0.173 A 
ATOM     66  C   UNL A   1      40.360  35.089  36.767  1.00  0.00     0.173 A 
ATOM     67  F   UNL A   1      38.171  32.347  37.729  1.00  0.00    -0.203 F 
ATOM     68  C   UNL A   1      38.735  34.321  38.883  1.00  0.00     0.198 A 
ATOM     69  C   UNL A   1      40.250  35.899  37.894  1.00  0.00     0.198 A 
ATOM     70  F   UNL A   1      41.152  35.489  35.760  1.00  0.00    -0.203 F 
ATOM     71  F   UNL A   1      37.930  33.961  39.892  1.00  0.00    -0.200 F 
ATOM     72  C   UNL A   1      39.435  35.516  38.949  1.00  0.00     0.200 A 
ATOM     73  F   UNL A   1      40.937  37.048  37.963  1.00  0.00    -0.200 F 
ATOM     74  F   UNL A   1      39.322  36.301  40.029  1.00  0.00    -0.200 F 
ENDBRANCH  50  64
BRANCH  51  75
ATOM     75  C   UNL A   1      40.504  28.026  28.648  1.00  0.00     0.064 A 
ATOM     76  C   UNL A   1      41.242  28.390  27.513  1.00  0.00     0.173 A 
ATOM     77  C   UNL A   1      39.884  26.769  28.651  1.00  0.00     0.173 A 
ATOM     78  F   UNL A   1      41.834  29.592  27.457  1.00  0.00    -0.203 F 
ATOM     79  C   UNL A   1      41.358  27.527  26.426  1.00  0.00     0.198 A 
ATOM     80  C   UNL A   1      40.021  25.897  27.574  1.00  0.00     0.198 A 
ATOM     81  F   UNL A   1      39.168  26.377  29.715  1.00  0.00    -0.203 F 
ATOM     82  F   UNL A   1      42.051  27.906  25.344  1.00  0.00    -0.200 F 
ATOM     83  C   UNL A   1      40.755  26.278  26.462  1.00  0.00     0.200 A 
ATOM     84  F   UNL A   1      39.451  24.686  27.619  1.00  0.00    -0.200 F 
ATOM     85  F   UNL A   1      40.882  25.441  25.422  1.00  0.00    -0.200 F 
ENDBRANCH  51  75
BRANCH  63  86
ATOM     86  C   UNL A   1      43.985  28.477  34.673  1.00  0.00     0.064 A 
ATOM     87  C   UNL A   1      43.821  27.266  35.361  1.00  0.00     0.173 A 
ATOM     88  C   UNL A   1      45.291  28.942  34.455  1.00  0.00     0.173 A 
ATOM     89  F   UNL A   1      42.591  26.791  35.605  1.00  0.00    -0.203 F 
ATOM     90  C   UNL A   1      44.923  26.551  35.818  1.00  0.00     0.198 A 
ATOM     91  C   UNL A   1      46.391  28.212  34.894  1.00  0.00     0.198 A 
ATOM     92  F   UNL A   1      45.498  30.093  33.797  1.00  0.00    -0.203 F 
ATOM     93  F   UNL A   1      44.743  25.408  36.496  1.00  0.00    -0.200 F 
ATOM     94  C   UNL A   1      46.206  27.018  35.577  1.00  0.00     0.200 A 
ATOM     95  F   UNL A   1      47.631  28.659  34.651  1.00  0.00    -0.200 F 
ATOM     96  F   UNL A   1      47.267  26.319  36.005  1.00  0.00    -0.200 F 
ENDBRANCH  63  86
ENDBRANCH  37  38
ENDBRANCH  29  32
ENDBRANCH  27  28
ENDBRANCH  26  27
ENDBRANCH   1  26
TORSDOF 14
ENDMDL
