MODEL 1
REMARK VINA RESULT:     -15.1      0.000      0.000
REMARK SMILES Cc1cccc(-c2ncc(C[NH+]3CCC4(CC3)NC(=O)C[C@H]4C(=O)NCCCCNC(=O)c3ccc(-c4c5nc(c(-c6c(F)c(F)c(F)c(F)c6F)c6ccc([nH]6)c(-c6c(F)c(F)c(F)c(F)c6F)c6nc(c(-c7c(F)c(F)c(F)c(F)c7F)c7ccc4[nH]7)C=C6)C=C5)cc3)cn2)c1
REMARK SMILES IDX 27 1 26 2 25 3 23 4 24 5 22 7 12 8 13 9 17 10 14 12 16 13
REMARK SMILES IDX 15 14 18 15 19 16 21 18 20 19 11 20 10 21 7 22 8 23 97 24
REMARK SMILES IDX 9 25 96 26 6 27 1 28 2 29 3 30 98 31 4 32 5 33 28 34 29 35
REMARK SMILES IDX 30 36 31 37 32 39 33 40 34 41 95 42 35 43 94 44 36 45 37 46
REMARK SMILES IDX 38 47 88 48 39 49 93 50 87 51 89 52 40 53 92 54 86 55 85 56
REMARK SMILES IDX 41 58 73 59 53 60 72 61 54 62 57 63 71 64 90 65 55 66 56 67
REMARK SMILES IDX 70 69 91 70 58 71 42 72 43 73 51 74 44 75 45 76 49 77 52 78
REMARK SMILES IDX 46 79 47 80 50 81 48 82 74 83 75 84 83 85 76 86 77 87 81 88
REMARK SMILES IDX 84 89 78 90 79 91 82 92 80 93 59 94 60 95 68 96 61 97 62 98
REMARK SMILES IDX 66 99 69 100 63 101 64 102 67 103 65 104
REMARK H PARENT 25 6 12 11 18 17 30 38 89 57 57 68
REMARK Flexibility Score: inf
ROOT
ATOM      1  C   UNL A   1      32.255  30.918  26.062  1.00  0.00     0.023 C 
ENDROOT
BRANCH   1   2
ATOM      2  C   UNL A   1      31.194  29.888  25.622  1.00  0.00     0.116 C 
BRANCH   2   3
ATOM      3  N   UNL A   1      31.013  29.690  24.183  1.00  0.00    -0.356 N 
ATOM      4  C   UNL A   1      31.502  28.837  23.242  1.00  0.00     0.226 C 
ATOM      5  O   UNL A   1      30.982  28.926  22.122  1.00  0.00    -0.275 OA
ATOM      6  H   UNL A   1      30.378  30.336  23.800  1.00  0.00     0.163 HD
BRANCH   4   7
ATOM      7  C   UNL A   1      32.654  27.839  23.426  1.00  0.00     0.114 C 
ATOM      8  N   UNL A   1      31.832  25.244  26.615  1.00  0.00    -0.331 N 
ATOM      9  C   UNL A   1      33.204  25.398  26.158  1.00  0.00     0.264 C 
ATOM     10  C   UNL A   1      31.000  26.328  26.132  1.00  0.00     0.264 C 
ATOM     11  H   UNL A   1      31.894  25.339  27.629  1.00  0.00     0.348 HD
ATOM     12  C   UNL A   1      33.413  25.675  24.665  1.00  0.00     0.091 C 
ATOM     13  C   UNL A   1      30.926  26.363  24.618  1.00  0.00     0.091 C 
ATOM     14  C   UNL A   1      32.278  26.413  23.886  1.00  0.00     0.063 C 
ATOM     15  N   UNL A   1      32.231  25.740  22.592  1.00  0.00    -0.349 N 
ATOM     16  C   UNL A   1      33.013  26.335  21.622  1.00  0.00     0.221 C 
ATOM     17  H   UNL A   1      31.690  24.935  22.425  1.00  0.00     0.164 HD
ATOM     18  C   UNL A   1      33.467  27.672  22.141  1.00  0.00     0.116 C 
ATOM     19  O   UNL A   1      33.276  25.857  20.542  1.00  0.00    -0.275 OA
BRANCH   8  20
ATOM     20  C   UNL A   1      31.231  23.899  26.652  1.00  0.00     0.302 C 
BRANCH  20  21
ATOM     21  C   UNL A   1      31.976  22.782  25.979  1.00  0.00     0.043 A 
ATOM     22  C   UNL A   1      32.953  20.489  24.882  1.00  0.00     0.159 A 
ATOM     23  N   UNL A   1      32.158  21.271  24.125  1.00  0.00    -0.236 NA
ATOM     24  N   UNL A   1      33.368  20.808  26.124  1.00  0.00    -0.236 NA
ATOM     25  C   UNL A   1      31.730  22.422  24.676  1.00  0.00     0.124 A 
ATOM     26  C   UNL A   1      32.870  21.955  26.641  1.00  0.00     0.124 A 
BRANCH  22  27
ATOM     27  C   UNL A   1      33.233  19.139  24.371  1.00  0.00     0.019 A 
ATOM     28  C   UNL A   1      35.387  16.144  25.374  1.00  0.00     0.044 C 
ATOM     29  C   UNL A   1      34.416  16.993  24.607  1.00  0.00    -0.050 A 
ATOM     30  C   UNL A   1      33.789  16.526  23.451  1.00  0.00     0.003 A 
ATOM     31  C   UNL A   1      34.113  18.282  25.065  1.00  0.00     0.015 A 
ATOM     32  C   UNL A   1      32.919  17.354  22.740  1.00  0.00     0.001 A 
ATOM     33  C   UNL A   1      32.656  18.654  23.188  1.00  0.00     0.012 A 
ENDBRANCH  22  27
ENDBRANCH  20  21
ENDBRANCH   8  20
ENDBRANCH   4   7
ENDBRANCH   2   3
ENDBRANCH   1   2
BRANCH   1  34
ATOM     34  C   UNL A   1      32.946  30.659  27.404  1.00  0.00     0.023 C 
BRANCH  34  35
ATOM     35  C   UNL A   1      34.463  30.721  27.317  1.00  0.00     0.116 C 
BRANCH  35  36
ATOM     36  N   UNL A   1      35.112  31.600  28.289  1.00  0.00    -0.352 N 
ATOM     37  C   UNL A   1      36.170  31.315  29.142  1.00  0.00     0.251 C 
ATOM     38  H   UNL A   1      34.752  32.514  28.347  1.00  0.00     0.163 HD
ATOM     39  O   UNL A   1      36.569  32.138  29.958  1.00  0.00    -0.269 OA
BRANCH  37  40
ATOM     40  C   UNL A   1      36.902  30.040  28.958  1.00  0.00     0.039 A 
ATOM     41  C   UNL A   1      37.107  29.232  30.082  1.00  0.00     0.014 A 
ATOM     42  C   UNL A   1      37.622  29.823  27.789  1.00  0.00     0.014 A 
ATOM     43  C   UNL A   1      38.228  28.409  30.125  1.00  0.00     0.010 A 
ATOM     44  C   UNL A   1      38.799  29.111  27.876  1.00  0.00     0.010 A 
ATOM     45  C   UNL A   1      39.138  28.465  29.071  1.00  0.00    -0.014 A 
BRANCH  45  46
ATOM     46  C   UNL A   1      40.505  27.964  29.160  1.00  0.00     0.031 A 
ATOM     47  C   UNL A   1      40.815  26.593  28.711  1.00  0.00     0.074 A 
ATOM     48  C   UNL A   1      41.499  28.793  29.550  1.00  0.00     0.049 A 
ATOM     49  N   UNL A   1      41.861  25.929  29.067  1.00  0.00    -0.248 NA
ATOM     50  C   UNL A   1      39.921  25.836  27.846  1.00  0.00     0.031 C 
ATOM     51  C   UNL A   1      42.939  28.578  29.427  1.00  0.00     0.029 A 
ATOM     52  N   UNL A   1      41.390  29.938  30.353  1.00  0.00    -0.354 N 
ATOM     53  C   UNL A   1      41.928  24.797  28.285  1.00  0.00     0.074 A 
ATOM     54  C   UNL A   1      40.663  24.755  27.592  1.00  0.00     0.031 C 
ATOM     55  C   UNL A   1      43.570  29.330  30.344  1.00  0.00     0.029 A 
ATOM     56  C   UNL A   1      42.543  29.932  31.174  1.00  0.00     0.049 A 
ATOM     57  H   UNL A   1      40.666  30.605  30.347  1.00  0.00     0.167 HD
ATOM     58  C   UNL A   1      43.105  24.107  28.225  1.00  0.00     0.037 A 
ATOM     59  C   UNL A   1      42.456  29.814  32.533  1.00  0.00     0.037 A 
ATOM     60  C   UNL A   1      44.083  24.668  29.157  1.00  0.00     0.049 A 
ATOM     61  C   UNL A   1      43.223  28.638  33.087  1.00  0.00     0.074 A 
ATOM     62  C   UNL A   1      45.138  25.551  28.995  1.00  0.00     0.029 A 
ATOM     63  N   UNL A   1      43.852  24.578  30.526  1.00  0.00    -0.354 N 
ATOM     64  N   UNL A   1      43.569  27.605  32.371  1.00  0.00    -0.248 NA
ATOM     65  C   UNL A   1      43.625  28.509  34.484  1.00  0.00     0.031 C 
ATOM     66  C   UNL A   1      45.511  26.032  30.274  1.00  0.00     0.029 A 
ATOM     67  C   UNL A   1      44.699  25.422  31.215  1.00  0.00     0.049 A 
ATOM     68  H   UNL A   1      43.180  23.994  30.945  1.00  0.00     0.167 HD
ATOM     69  C   UNL A   1      44.210  26.692  33.166  1.00  0.00     0.074 A 
ATOM     70  C   UNL A   1      44.230  27.308  34.478  1.00  0.00     0.031 C 
ATOM     71  C   UNL A   1      44.655  25.501  32.666  1.00  0.00     0.037 A 
BRANCH  58  72
ATOM     72  C   UNL A   1      43.475  23.129  27.125  1.00  0.00     0.064 A 
ATOM     73  C   UNL A   1      42.837  21.871  27.038  1.00  0.00     0.173 A 
ATOM     74  C   UNL A   1      44.489  23.330  26.171  1.00  0.00     0.173 A 
ATOM     75  F   UNL A   1      41.770  21.570  27.789  1.00  0.00    -0.203 F 
ATOM     76  C   UNL A   1      43.269  20.863  26.169  1.00  0.00     0.198 A 
ATOM     77  C   UNL A   1      44.959  22.308  25.340  1.00  0.00     0.198 A 
ATOM     78  F   UNL A   1      45.015  24.539  25.952  1.00  0.00    -0.203 F 
ATOM     79  F   UNL A   1      42.629  19.686  26.145  1.00  0.00    -0.200 F 
ATOM     80  C   UNL A   1      44.358  21.068  25.349  1.00  0.00     0.200 A 
ATOM     81  F   UNL A   1      45.998  22.540  24.524  1.00  0.00    -0.200 F 
ATOM     82  F   UNL A   1      44.803  20.090  24.548  1.00  0.00    -0.200 F 
ENDBRANCH  58  72
BRANCH  59  83
ATOM     83  C   UNL A   1      41.171  30.338  33.077  1.00  0.00     0.064 A 
ATOM     84  C   UNL A   1      40.960  31.730  33.033  1.00  0.00     0.173 A 
ATOM     85  C   UNL A   1      40.048  29.520  33.243  1.00  0.00     0.173 A 
ATOM     86  F   UNL A   1      42.003  32.564  32.882  1.00  0.00    -0.203 F 
ATOM     87  C   UNL A   1      39.676  32.259  32.978  1.00  0.00     0.198 A 
ATOM     88  C   UNL A   1      38.762  30.066  33.246  1.00  0.00     0.198 A 
ATOM     89  F   UNL A   1      40.178  28.186  33.281  1.00  0.00    -0.203 F 
ATOM     90  F   UNL A   1      39.504  33.561  32.726  1.00  0.00    -0.200 F 
ATOM     91  C   UNL A   1      38.577  31.429  33.071  1.00  0.00     0.200 A 
ATOM     92  F   UNL A   1      37.694  29.258  33.296  1.00  0.00    -0.200 F 
ATOM     93  F   UNL A   1      37.342  31.933  32.933  1.00  0.00    -0.200 F 
ENDBRANCH  59  83
BRANCH  71  94
ATOM     94  C   UNL A   1      45.162  24.325  33.464  1.00  0.00     0.064 A 
ATOM     95  C   UNL A   1      44.386  23.199  33.782  1.00  0.00     0.173 A 
ATOM     96  C   UNL A   1      46.538  24.230  33.794  1.00  0.00     0.173 A 
ATOM     97  F   UNL A   1      43.096  23.121  33.431  1.00  0.00    -0.203 F 
ATOM     98  C   UNL A   1      44.934  22.081  34.419  1.00  0.00     0.198 A 
ATOM     99  C   UNL A   1      47.092  23.091  34.374  1.00  0.00     0.198 A 
ATOM    100  F   UNL A   1      47.392  25.230  33.532  1.00  0.00    -0.203 F 
ATOM    101  F   UNL A   1      44.144  21.044  34.730  1.00  0.00    -0.200 F 
ATOM    102  C   UNL A   1      46.287  22.020  34.699  1.00  0.00     0.200 A 
ATOM    103  F   UNL A   1      48.412  23.030  34.593  1.00  0.00    -0.200 F 
ATOM    104  F   UNL A   1      46.816  20.923  35.258  1.00  0.00    -0.200 F 
ENDBRANCH  71  94
ENDBRANCH  45  46
ENDBRANCH  37  40
ENDBRANCH  35  36
ENDBRANCH  34  35
ENDBRANCH   1  34
TORSDOF 14
ENDMDL
MODEL 2
REMARK VINA RESULT:     -14.0      3.712     10.174
REMARK SMILES Cc1cccc(-c2ncc(C[NH+]3CCC4(CC3)NC(=O)C[C@H]4C(=O)NCCCCNC(=O)c3ccc(-c4c5nc(c(-c6c(F)c(F)c(F)c(F)c6F)c6ccc([nH]6)c(-c6c(F)c(F)c(F)c(F)c6F)c6nc(c(-c7c(F)c(F)c(F)c(F)c7F)c7ccc4[nH]7)C=C6)C=C5)cc3)cn2)c1
REMARK SMILES IDX 27 1 26 2 25 3 23 4 24 5 22 7 12 8 13 9 17 10 14 12 16 13
REMARK SMILES IDX 15 14 18 15 19 16 21 18 20 19 11 20 10 21 7 22 8 23 97 24
REMARK SMILES IDX 9 25 96 26 6 27 1 28 2 29 3 30 98 31 4 32 5 33 28 34 29 35
REMARK SMILES IDX 30 36 31 37 32 39 33 40 34 41 95 42 35 43 94 44 36 45 37 46
REMARK SMILES IDX 38 47 88 48 39 49 93 50 87 51 89 52 40 53 92 54 86 55 85 56
REMARK SMILES IDX 41 58 73 59 53 60 72 61 54 62 57 63 71 64 90 65 55 66 56 67
REMARK SMILES IDX 70 69 91 70 58 71 42 72 43 73 51 74 44 75 45 76 49 77 52 78
REMARK SMILES IDX 46 79 47 80 50 81 48 82 74 83 75 84 83 85 76 86 77 87 81 88
REMARK SMILES IDX 84 89 78 90 79 91 82 92 80 93 59 94 60 95 68 96 61 97 62 98
REMARK SMILES IDX 66 99 69 100 63 101 64 102 67 103 65 104
REMARK H PARENT 25 6 12 11 18 17 30 38 89 57 57 68
REMARK Flexibility Score: inf
ROOT
ATOM      1  C   UNL A   1      36.671  20.455  25.087  1.00  0.00     0.023 C 
ENDROOT
BRANCH   1   2
ATOM      2  C   UNL A   1      35.340  21.099  25.527  1.00  0.00     0.116 C 
BRANCH   2   3
ATOM      3  N   UNL A   1      34.194  20.939  24.631  1.00  0.00    -0.356 N 
ATOM      4  C   UNL A   1      33.587  21.690  23.671  1.00  0.00     0.226 C 
ATOM      5  O   UNL A   1      32.688  21.118  23.039  1.00  0.00    -0.275 OA
ATOM      6  H   UNL A   1      33.750  20.069  24.753  1.00  0.00     0.163 HD
BRANCH   4   7
ATOM      7  C   UNL A   1      33.869  23.165  23.353  1.00  0.00     0.114 C 
ATOM      8  N   UNL A   1      30.270  25.269  22.908  1.00  0.00    -0.331 N 
ATOM      9  C   UNL A   1      31.493  25.826  22.353  1.00  0.00     0.264 C 
ATOM     10  C   UNL A   1      30.429  23.859  23.201  1.00  0.00     0.264 C 
ATOM     11  H   UNL A   1      29.594  25.346  22.148  1.00  0.00     0.348 HD
ATOM     12  C   UNL A   1      32.797  25.527  23.103  1.00  0.00     0.091 C 
ATOM     13  C   UNL A   1      31.502  23.606  24.242  1.00  0.00     0.091 C 
ATOM     14  C   UNL A   1      32.885  24.206  23.932  1.00  0.00     0.063 C 
ATOM     15  N   UNL A   1      33.606  24.585  25.142  1.00  0.00    -0.349 N 
ATOM     16  C   UNL A   1      34.972  24.394  25.062  1.00  0.00     0.221 C 
ATOM     17  H   UNL A   1      33.161  24.944  25.942  1.00  0.00     0.164 HD
ATOM     18  C   UNL A   1      35.262  23.587  23.826  1.00  0.00     0.116 C 
ATOM     19  O   UNL A   1      35.785  24.804  25.859  1.00  0.00    -0.275 OA
BRANCH   8  20
ATOM     20  C   UNL A   1      29.480  26.070  23.860  1.00  0.00     0.302 C 
BRANCH  20  21
ATOM     21  C   UNL A   1      30.214  27.061  24.716  1.00  0.00     0.043 A 
ATOM     22  C   UNL A   1      31.934  28.699  26.049  1.00  0.00     0.159 A 
ATOM     23  N   UNL A   1      31.429  29.123  24.873  1.00  0.00    -0.236 NA
ATOM     24  N   UNL A   1      31.578  27.549  26.654  1.00  0.00    -0.236 NA
ATOM     25  C   UNL A   1      30.544  28.316  24.261  1.00  0.00     0.124 A 
ATOM     26  C   UNL A   1      30.719  26.759  25.971  1.00  0.00     0.124 A 
BRANCH  22  27
ATOM     27  C   UNL A   1      33.061  29.467  26.600  1.00  0.00     0.019 A 
ATOM     28  C   UNL A   1      33.628  32.938  28.100  1.00  0.00     0.044 C 
ATOM     29  C   UNL A   1      33.904  31.544  27.619  1.00  0.00    -0.050 A 
ATOM     30  C   UNL A   1      35.179  30.982  27.694  1.00  0.00     0.003 A 
ATOM     31  C   UNL A   1      32.858  30.773  27.096  1.00  0.00     0.015 A 
ATOM     32  C   UNL A   1      35.411  29.696  27.204  1.00  0.00     0.001 A 
ATOM     33  C   UNL A   1      34.363  28.952  26.648  1.00  0.00     0.012 A 
ENDBRANCH  22  27
ENDBRANCH  20  21
ENDBRANCH   8  20
ENDBRANCH   4   7
ENDBRANCH   2   3
ENDBRANCH   1   2
BRANCH   1  34
ATOM     34  C   UNL A   1      37.779  21.411  24.633  1.00  0.00     0.023 C 
BRANCH  34  35
ATOM     35  C   UNL A   1      38.298  22.299  25.753  1.00  0.00     0.116 C 
BRANCH  35  36
ATOM     36  N   UNL A   1      39.728  22.182  26.035  1.00  0.00    -0.352 N 
ATOM     37  C   UNL A   1      40.608  23.164  26.469  1.00  0.00     0.251 C 
ATOM     38  H   UNL A   1      40.119  21.289  25.899  1.00  0.00     0.163 HD
ATOM     39  O   UNL A   1      41.805  22.935  26.600  1.00  0.00    -0.269 OA
BRANCH  37  40
ATOM     40  C   UNL A   1      40.053  24.468  26.903  1.00  0.00     0.039 A 
ATOM     41  C   UNL A   1      40.392  25.606  26.162  1.00  0.00     0.014 A 
ATOM     42  C   UNL A   1      39.488  24.588  28.168  1.00  0.00     0.014 A 
ATOM     43  C   UNL A   1      40.435  26.839  26.805  1.00  0.00     0.010 A 
ATOM     44  C   UNL A   1      39.653  25.780  28.840  1.00  0.00     0.010 A 
ATOM     45  C   UNL A   1      40.198  26.886  28.178  1.00  0.00    -0.014 A 
BRANCH  45  46
ATOM     46  C   UNL A   1      40.579  28.012  29.022  1.00  0.00     0.031 A 
ATOM     47  C   UNL A   1      39.600  29.077  29.312  1.00  0.00     0.074 A 
ATOM     48  C   UNL A   1      41.789  28.020  29.624  1.00  0.00     0.049 A 
ATOM     49  N   UNL A   1      39.909  30.260  29.719  1.00  0.00    -0.248 NA
ATOM     50  C   UNL A   1      38.169  28.895  29.112  1.00  0.00     0.031 C 
ATOM     51  C   UNL A   1      42.239  28.884  30.713  1.00  0.00     0.029 A 
ATOM     52  N   UNL A   1      42.956  27.362  29.205  1.00  0.00    -0.354 N 
ATOM     53  C   UNL A   1      38.746  30.894  30.096  1.00  0.00     0.074 A 
ATOM     54  C   UNL A   1      37.689  30.026  29.634  1.00  0.00     0.031 C 
ATOM     55  C   UNL A   1      43.580  28.955  30.687  1.00  0.00     0.029 A 
ATOM     56  C   UNL A   1      44.015  28.256  29.491  1.00  0.00     0.049 A 
ATOM     57  H   UNL A   1      43.023  26.467  28.798  1.00  0.00     0.167 HD
ATOM     58  C   UNL A   1      38.828  32.016  30.871  1.00  0.00     0.037 A 
ATOM     59  C   UNL A   1      44.789  28.791  28.501  1.00  0.00     0.037 A 
ATOM     60  C   UNL A   1      40.223  32.419  31.052  1.00  0.00     0.049 A 
ATOM     61  C   UNL A   1      44.791  30.300  28.485  1.00  0.00     0.074 A 
ATOM     62  C   UNL A   1      41.134  32.217  32.076  1.00  0.00     0.029 A 
ATOM     63  N   UNL A   1      40.955  32.862  29.956  1.00  0.00    -0.354 N 
ATOM     64  N   UNL A   1      43.858  31.025  29.037  1.00  0.00    -0.248 NA
ATOM     65  C   UNL A   1      45.808  31.109  27.821  1.00  0.00     0.031 C 
ATOM     66  C   UNL A   1      42.430  32.496  31.575  1.00  0.00     0.029 A 
ATOM     67  C   UNL A   1      42.303  32.889  30.254  1.00  0.00     0.049 A 
ATOM     68  H   UNL A   1      40.567  33.121  29.089  1.00  0.00     0.167 HD
ATOM     69  C   UNL A   1      44.118  32.351  28.814  1.00  0.00     0.074 A 
ATOM     70  C   UNL A   1      45.355  32.354  28.058  1.00  0.00     0.031 C 
ATOM     71  C   UNL A   1      43.276  33.327  29.267  1.00  0.00     0.037 A 
BRANCH  58  72
ATOM     72  C   UNL A   1      37.689  32.572  31.705  1.00  0.00     0.064 A 
ATOM     73  C   UNL A   1      36.655  33.323  31.101  1.00  0.00     0.173 A 
ATOM     74  C   UNL A   1      37.586  32.467  33.104  1.00  0.00     0.173 A 
ATOM     75  F   UNL A   1      36.538  33.414  29.770  1.00  0.00    -0.203 F 
ATOM     76  C   UNL A   1      35.692  34.016  31.843  1.00  0.00     0.198 A 
ATOM     77  C   UNL A   1      36.658  33.201  33.851  1.00  0.00     0.198 A 
ATOM     78  F   UNL A   1      38.326  31.597  33.798  1.00  0.00    -0.203 F 
ATOM     79  F   UNL A   1      34.746  34.722  31.208  1.00  0.00    -0.200 F 
ATOM     80  C   UNL A   1      35.719  33.988  33.220  1.00  0.00     0.200 A 
ATOM     81  F   UNL A   1      36.680  33.132  35.190  1.00  0.00    -0.200 F 
ATOM     82  F   UNL A   1      34.826  34.687  33.934  1.00  0.00    -0.200 F 
ENDBRANCH  58  72
BRANCH  59  83
ATOM     83  C   UNL A   1      44.873  27.917  27.296  1.00  0.00     0.064 A 
ATOM     84  C   UNL A   1      45.642  26.741  27.392  1.00  0.00     0.173 A 
ATOM     85  C   UNL A   1      43.936  27.993  26.259  1.00  0.00     0.173 A 
ATOM     86  F   UNL A   1      46.561  26.616  28.365  1.00  0.00    -0.203 F 
ATOM     87  C   UNL A   1      45.360  25.633  26.602  1.00  0.00     0.198 A 
ATOM     88  C   UNL A   1      43.700  26.893  25.430  1.00  0.00     0.198 A 
ATOM     89  F   UNL A   1      43.164  29.080  26.119  1.00  0.00    -0.203 F 
ATOM     90  F   UNL A   1      45.961  24.466  26.854  1.00  0.00    -0.200 F 
ATOM     91  C   UNL A   1      44.382  25.703  25.630  1.00  0.00     0.200 A 
ATOM     92  F   UNL A   1      42.723  26.947  24.513  1.00  0.00    -0.200 F 
ATOM     93  F   UNL A   1      44.055  24.609  24.927  1.00  0.00    -0.200 F 
ENDBRANCH  59  83
BRANCH  71  94
ATOM     94  C   UNL A   1      43.317  34.790  28.900  1.00  0.00     0.064 A 
ATOM     95  C   UNL A   1      42.991  35.291  27.629  1.00  0.00     0.173 A 
ATOM     96  C   UNL A   1      43.533  35.769  29.903  1.00  0.00     0.173 A 
ATOM     97  F   UNL A   1      42.665  34.472  26.621  1.00  0.00    -0.203 F 
ATOM     98  C   UNL A   1      42.927  36.663  27.371  1.00  0.00     0.198 A 
ATOM     99  C   UNL A   1      43.409  37.134  29.656  1.00  0.00     0.198 A 
ATOM    100  F   UNL A   1      43.838  35.425  31.163  1.00  0.00    -0.203 F 
ATOM    101  F   UNL A   1      42.643  37.091  26.133  1.00  0.00    -0.200 F 
ATOM    102  C   UNL A   1      43.119  37.582  28.385  1.00  0.00     0.200 A 
ATOM    103  F   UNL A   1      43.549  38.008  30.662  1.00  0.00    -0.200 F 
ATOM    104  F   UNL A   1      43.000  38.895  28.144  1.00  0.00    -0.200 F 
ENDBRANCH  71  94
ENDBRANCH  45  46
ENDBRANCH  37  40
ENDBRANCH  35  36
ENDBRANCH  34  35
ENDBRANCH   1  34
TORSDOF 14
ENDMDL
MODEL 3
REMARK VINA RESULT:     -13.9      3.776     10.448
REMARK SMILES Cc1cccc(-c2ncc(C[NH+]3CCC4(CC3)NC(=O)C[C@H]4C(=O)NCCCCNC(=O)c3ccc(-c4c5nc(c(-c6c(F)c(F)c(F)c(F)c6F)c6ccc([nH]6)c(-c6c(F)c(F)c(F)c(F)c6F)c6nc(c(-c7c(F)c(F)c(F)c(F)c7F)c7ccc4[nH]7)C=C6)C=C5)cc3)cn2)c1
REMARK SMILES IDX 27 1 26 2 25 3 23 4 24 5 22 7 12 8 13 9 17 10 14 12 16 13
REMARK SMILES IDX 15 14 18 15 19 16 21 18 20 19 11 20 10 21 7 22 8 23 97 24
REMARK SMILES IDX 9 25 96 26 6 27 1 28 2 29 3 30 98 31 4 32 5 33 28 34 29 35
REMARK SMILES IDX 30 36 31 37 32 39 33 40 34 41 95 42 35 43 94 44 36 45 37 46
REMARK SMILES IDX 38 47 88 48 39 49 93 50 87 51 89 52 40 53 92 54 86 55 85 56
REMARK SMILES IDX 41 58 73 59 53 60 72 61 54 62 57 63 71 64 90 65 55 66 56 67
REMARK SMILES IDX 70 69 91 70 58 71 42 72 43 73 51 74 44 75 45 76 49 77 52 78
REMARK SMILES IDX 46 79 47 80 50 81 48 82 74 83 75 84 83 85 76 86 77 87 81 88
REMARK SMILES IDX 84 89 78 90 79 91 82 92 80 93 59 94 60 95 68 96 61 97 62 98
REMARK SMILES IDX 66 99 69 100 63 101 64 102 67 103 65 104
REMARK H PARENT 25 6 12 11 18 17 30 38 89 57 57 68
REMARK Flexibility Score: inf
ROOT
ATOM      1  C   UNL A   1      36.777  20.756  25.077  1.00  0.00     0.023 C 
ENDROOT
BRANCH   1   2
ATOM      2  C   UNL A   1      35.687  21.360  25.986  1.00  0.00     0.116 C 
BRANCH   2   3
ATOM      3  N   UNL A   1      34.397  20.670  26.030  1.00  0.00    -0.356 N 
ATOM      4  C   UNL A   1      33.275  20.636  25.259  1.00  0.00     0.226 C 
ATOM      5  O   UNL A   1      32.427  19.797  25.590  1.00  0.00    -0.275 OA
ATOM      6  H   UNL A   1      34.321  20.081  26.815  1.00  0.00     0.163 HD
BRANCH   4   7
ATOM      7  C   UNL A   1      32.951  21.566  24.081  1.00  0.00     0.114 C 
ATOM      8  N   UNL A   1      30.102  24.420  25.227  1.00  0.00    -0.331 N 
ATOM      9  C   UNL A   1      30.305  24.145  23.814  1.00  0.00     0.264 C 
ATOM     10  C   UNL A   1      30.659  23.363  26.046  1.00  0.00     0.264 C 
ATOM     11  H   UNL A   1      29.088  24.390  25.343  1.00  0.00     0.348 HD
ATOM     12  C   UNL A   1      31.723  23.754  23.378  1.00  0.00     0.091 C 
ATOM     13  C   UNL A   1      32.159  23.230  25.868  1.00  0.00     0.091 C 
ATOM     14  C   UNL A   1      32.644  23.042  24.419  1.00  0.00     0.063 C 
ATOM     15  N   UNL A   1      33.961  23.627  24.197  1.00  0.00    -0.349 N 
ATOM     16  C   UNL A   1      34.747  22.917  23.311  1.00  0.00     0.221 C 
ATOM     17  H   UNL A   1      34.263  24.453  24.640  1.00  0.00     0.164 HD
ATOM     18  C   UNL A   1      34.085  21.592  23.054  1.00  0.00     0.116 C 
ATOM     19  O   UNL A   1      35.791  23.303  22.835  1.00  0.00    -0.275 OA
BRANCH   8  20
ATOM     20  C   UNL A   1      30.243  25.801  25.721  1.00  0.00     0.302 C 
BRANCH  20  21
ATOM     21  C   UNL A   1      30.054  26.918  24.736  1.00  0.00     0.043 A 
ATOM     22  C   UNL A   1      29.500  29.171  23.310  1.00  0.00     0.159 A 
ATOM     23  N   UNL A   1      30.655  29.121  24.003  1.00  0.00    -0.236 NA
ATOM     24  N   UNL A   1      28.635  28.143  23.206  1.00  0.00    -0.236 NA
ATOM     25  C   UNL A   1      30.926  27.978  24.658  1.00  0.00     0.124 A 
ATOM     26  C   UNL A   1      28.939  27.036  23.921  1.00  0.00     0.124 A 
BRANCH  22  27
ATOM     27  C   UNL A   1      29.099  30.486  22.786  1.00  0.00     0.019 A 
ATOM     28  C   UNL A   1      27.687  31.901  19.527  1.00  0.00     0.044 C 
ATOM     29  C   UNL A   1      28.199  31.839  20.937  1.00  0.00    -0.050 A 
ATOM     30  C   UNL A   1      28.290  32.979  21.735  1.00  0.00     0.003 A 
ATOM     31  C   UNL A   1      28.582  30.605  21.479  1.00  0.00     0.015 A 
ATOM     32  C   UNL A   1      28.805  32.893  23.029  1.00  0.00     0.001 A 
ATOM     33  C   UNL A   1      29.220  31.659  23.544  1.00  0.00     0.012 A 
ENDBRANCH  22  27
ENDBRANCH  20  21
ENDBRANCH   8  20
ENDBRANCH   4   7
ENDBRANCH   2   3
ENDBRANCH   1   2
BRANCH   1  34
ATOM     34  C   UNL A   1      38.047  21.589  24.883  1.00  0.00     0.023 C 
BRANCH  34  35
ATOM     35  C   UNL A   1      38.488  22.309  26.148  1.00  0.00     0.116 C 
BRANCH  35  36
ATOM     36  N   UNL A   1      39.929  22.309  26.400  1.00  0.00    -0.352 N 
ATOM     37  C   UNL A   1      40.750  23.379  26.726  1.00  0.00     0.251 C 
ATOM     38  H   UNL A   1      40.375  21.434  26.330  1.00  0.00     0.163 HD
ATOM     39  O   UNL A   1      41.962  23.238  26.844  1.00  0.00    -0.269 OA
BRANCH  37  40
ATOM     40  C   UNL A   1      40.120  24.677  27.062  1.00  0.00     0.039 A 
ATOM     41  C   UNL A   1      40.481  25.799  26.308  1.00  0.00     0.014 A 
ATOM     42  C   UNL A   1      39.449  24.823  28.272  1.00  0.00     0.014 A 
ATOM     43  C   UNL A   1      40.432  27.056  26.904  1.00  0.00     0.010 A 
ATOM     44  C   UNL A   1      39.520  26.043  28.908  1.00  0.00     0.010 A 
ATOM     45  C   UNL A   1      40.082  27.143  28.249  1.00  0.00    -0.014 A 
BRANCH  45  46
ATOM     46  C   UNL A   1      40.356  28.312  29.078  1.00  0.00     0.031 A 
ATOM     47  C   UNL A   1      39.356  29.392  29.176  1.00  0.00     0.074 A 
ATOM     48  C   UNL A   1      41.474  28.350  29.836  1.00  0.00     0.049 A 
ATOM     49  N   UNL A   1      39.618  30.595  29.559  1.00  0.00    -0.248 NA
ATOM     50  C   UNL A   1      37.963  29.203  28.795  1.00  0.00     0.031 C 
ATOM     51  C   UNL A   1      41.781  29.270  30.929  1.00  0.00     0.029 A 
ATOM     52  N   UNL A   1      42.680  27.668  29.614  1.00  0.00    -0.354 N 
ATOM     53  C   UNL A   1      38.420  31.251  29.741  1.00  0.00     0.074 A 
ATOM     54  C   UNL A   1      37.428  30.361  29.187  1.00  0.00     0.031 C 
ATOM     55  C   UNL A   1      43.113  29.336  31.080  1.00  0.00     0.029 A 
ATOM     56  C   UNL A   1      43.699  28.574  29.993  1.00  0.00     0.049 A 
ATOM     57  H   UNL A   1      42.794  26.753  29.267  1.00  0.00     0.167 HD
ATOM     58  C   UNL A   1      38.408  32.412  30.460  1.00  0.00     0.037 A 
ATOM     59  C   UNL A   1      44.604  29.054  29.089  1.00  0.00     0.037 A 
ATOM     60  C   UNL A   1      39.769  32.821  30.807  1.00  0.00     0.049 A 
ATOM     61  C   UNL A   1      44.622  30.561  28.995  1.00  0.00     0.074 A 
ATOM     62  C   UNL A   1      40.532  32.672  31.954  1.00  0.00     0.029 A 
ATOM     63  N   UNL A   1      40.646  33.204  29.798  1.00  0.00    -0.354 N 
ATOM     64  N   UNL A   1      43.629  31.315  29.377  1.00  0.00    -0.248 NA
ATOM     65  C   UNL A   1      45.726  31.332  28.433  1.00  0.00     0.031 C 
ATOM     66  C   UNL A   1      41.886  32.921  31.618  1.00  0.00     0.029 A 
ATOM     67  C   UNL A   1      41.942  33.245  30.273  1.00  0.00     0.049 A 
ATOM     68  H   UNL A   1      40.381  33.417  28.875  1.00  0.00     0.167 HD
ATOM     69  C   UNL A   1      43.929  32.627  29.122  1.00  0.00     0.074 A 
ATOM     70  C   UNL A   1      45.257  32.588  28.541  1.00  0.00     0.031 C 
ATOM     71  C   UNL A   1      43.043  33.628  29.405  1.00  0.00     0.037 A 
BRANCH  58  72
ATOM     72  C   UNL A   1      37.172  33.013  31.103  1.00  0.00     0.064 A 
ATOM     73  C   UNL A   1      36.920  32.835  32.483  1.00  0.00     0.173 A 
ATOM     74  C   UNL A   1      36.162  33.712  30.417  1.00  0.00     0.173 A 
ATOM     75  F   UNL A   1      37.836  32.302  33.301  1.00  0.00    -0.203 F 
ATOM     76  C   UNL A   1      35.710  33.201  33.083  1.00  0.00     0.198 A 
ATOM     77  C   UNL A   1      34.931  34.029  31.001  1.00  0.00     0.198 A 
ATOM     78  F   UNL A   1      36.351  34.180  29.179  1.00  0.00    -0.203 F 
ATOM     79  F   UNL A   1      35.529  32.991  34.395  1.00  0.00    -0.200 F 
ATOM     80  C   UNL A   1      34.699  33.760  32.333  1.00  0.00     0.200 A 
ATOM     81  F   UNL A   1      33.973  34.605  30.260  1.00  0.00    -0.200 F 
ATOM     82  F   UNL A   1      33.523  34.070  32.895  1.00  0.00    -0.200 F 
ENDBRANCH  58  72
BRANCH  59  83
ATOM     83  C   UNL A   1      44.842  28.118  27.955  1.00  0.00     0.064 A 
ATOM     84  C   UNL A   1      45.550  26.930  28.222  1.00  0.00     0.173 A 
ATOM     85  C   UNL A   1      44.075  28.162  26.785  1.00  0.00     0.173 A 
ATOM     86  F   UNL A   1      46.307  26.834  29.328  1.00  0.00    -0.203 F 
ATOM     87  C   UNL A   1      45.357  25.790  27.452  1.00  0.00     0.198 A 
ATOM     88  C   UNL A   1      43.933  27.027  25.982  1.00  0.00     0.198 A 
ATOM     89  F   UNL A   1      43.367  29.258  26.477  1.00  0.00    -0.203 F 
ATOM     90  F   UNL A   1      45.876  24.624  27.848  1.00  0.00    -0.200 F 
ATOM     91  C   UNL A   1      44.539  25.832  26.340  1.00  0.00     0.200 A 
ATOM     92  F   UNL A   1      43.108  27.056  24.925  1.00  0.00    -0.200 F 
ATOM     93  F   UNL A   1      44.288  24.711  25.649  1.00  0.00    -0.200 F 
ENDBRANCH  59  83
BRANCH  71  94
ATOM     94  C   UNL A   1      43.146  35.069  28.971  1.00  0.00     0.064 A 
ATOM     95  C   UNL A   1      42.870  35.519  27.670  1.00  0.00     0.173 A 
ATOM     96  C   UNL A   1      43.372  36.086  29.933  1.00  0.00     0.173 A 
ATOM     97  F   UNL A   1      42.540  34.664  26.693  1.00  0.00    -0.203 F 
ATOM     98  C   UNL A   1      42.863  36.879  27.346  1.00  0.00     0.198 A 
ATOM     99  C   UNL A   1      43.304  37.442  29.619  1.00  0.00     0.198 A 
ATOM    100  F   UNL A   1      43.633  35.794  31.215  1.00  0.00    -0.203 F 
ATOM    101  F   UNL A   1      42.625  37.256  26.082  1.00  0.00    -0.200 F 
ATOM    102  C   UNL A   1      43.062  37.839  28.321  1.00  0.00     0.200 A 
ATOM    103  F   UNL A   1      43.450  38.358  30.585  1.00  0.00    -0.200 F 
ATOM    104  F   UNL A   1      42.997  39.142  28.014  1.00  0.00    -0.200 F 
ENDBRANCH  71  94
ENDBRANCH  45  46
ENDBRANCH  37  40
ENDBRANCH  35  36
ENDBRANCH  34  35
ENDBRANCH   1  34
TORSDOF 14
ENDMDL
