MODEL 1
REMARK VINA RESULT:     -11.6      0.000      0.000
REMARK SMILES O=C(NCCCCNC(=O)[C@@H]1C=C[C@@H]([NH+]2CC3(CC3)C2)C1)c1ccc(-c2c3nc(c(-c4c(F)c(F)c(F)c(F)c4F)c4ccc([nH]4)c(-c4c(F)c(F)c(F)c(F)c4F)c4nc(c(-c5c(F)c(F)c(F)c(F)c5F)c5ccc2[nH]5)C=C4)C=C3)cc1
REMARK SMILES IDX 5 1 4 2 3 3 1 4 2 5 22 7 23 8 84 9 24 10 83 11 25 12 26 13
REMARK SMILES IDX 27 14 77 15 28 16 82 17 76 18 78 19 29 20 81 21 75 22 74 23
REMARK SMILES IDX 30 25 62 26 42 27 61 28 43 29 46 30 60 31 79 32 44 33 45 34
REMARK SMILES IDX 59 36 80 37 47 38 31 39 32 40 40 41 33 42 34 43 38 44 41 45
REMARK SMILES IDX 35 46 36 47 39 48 37 49 63 50 64 51 72 52 65 53 66 54 70 55
REMARK SMILES IDX 73 56 67 57 68 58 71 59 69 60 48 61 49 62 57 63 50 64 51 65
REMARK SMILES IDX 55 66 58 67 52 68 53 69 56 70 54 71 6 72 7 73 8 74 9 75
REMARK SMILES IDX 10 77 11 78 12 79 21 80 13 81 14 82 15 83 16 84 20 85 17 87
REMARK SMILES IDX 18 88 19 89
REMARK H PARENT 3 6 78 24 46 35 8 76 15 86
REMARK Flexibility Score: inf
ROOT
ATOM      1  C   UNL A   1      32.874  27.571  25.838  1.00  0.00     0.023 C 
ENDROOT
BRANCH   1   2
ATOM      2  C   UNL A   1      33.957  28.162  26.730  1.00  0.00     0.116 C 
BRANCH   2   3
ATOM      3  N   UNL A   1      33.700  29.548  27.085  1.00  0.00    -0.352 N 
ATOM      4  O   UNL A   1      34.045  31.514  28.137  1.00  0.00    -0.269 OA
ATOM      5  C   UNL A   1      34.487  30.421  27.795  1.00  0.00     0.251 C 
ATOM      6  H   UNL A   1      32.839  29.912  26.773  1.00  0.00     0.163 HD
BRANCH   5   7
ATOM      7  C   UNL A   1      35.864  30.033  28.166  1.00  0.00     0.039 A 
ATOM      8  C   UNL A   1      36.912  30.170  27.253  1.00  0.00     0.014 A 
ATOM      9  C   UNL A   1      36.110  29.541  29.451  1.00  0.00     0.014 A 
ATOM     10  C   UNL A   1      38.180  29.701  27.578  1.00  0.00     0.010 A 
ATOM     11  C   UNL A   1      37.403  29.148  29.806  1.00  0.00     0.010 A 
ATOM     12  C   UNL A   1      38.444  29.209  28.866  1.00  0.00    -0.014 A 
BRANCH  12  13
ATOM     13  C   UNL A   1      39.837  28.867  29.244  1.00  0.00     0.031 A 
ATOM     14  C   UNL A   1      40.687  29.817  30.037  1.00  0.00     0.074 A 
ATOM     15  C   UNL A   1      40.332  27.680  28.845  1.00  0.00     0.049 A 
ATOM     16  N   UNL A   1      41.934  29.687  30.413  1.00  0.00    -0.248 NA
ATOM     17  C   UNL A   1      40.064  31.081  30.459  1.00  0.00     0.031 C 
ATOM     18  C   UNL A   1      39.599  26.688  28.055  1.00  0.00     0.029 A 
ATOM     19  N   UNL A   1      41.562  27.104  29.039  1.00  0.00    -0.354 N 
ATOM     20  C   UNL A   1      42.253  30.854  31.093  1.00  0.00     0.074 A 
ATOM     21  C   UNL A   1      41.073  31.692  31.067  1.00  0.00     0.031 C 
ATOM     22  C   UNL A   1      40.382  25.620  27.850  1.00  0.00     0.029 A 
ATOM     23  C   UNL A   1      41.693  25.880  28.433  1.00  0.00     0.049 A 
ATOM     24  H   UNL A   1      42.279  27.528  29.563  1.00  0.00     0.167 HD
ATOM     25  C   UNL A   1      43.426  31.187  31.683  1.00  0.00     0.037 A 
ATOM     26  C   UNL A   1      42.761  25.070  28.323  1.00  0.00     0.037 A 
ATOM     27  C   UNL A   1      44.585  30.333  31.722  1.00  0.00     0.049 A 
ATOM     28  C   UNL A   1      44.056  25.486  28.958  1.00  0.00     0.074 A 
ATOM     29  C   UNL A   1      45.792  30.546  32.367  1.00  0.00     0.029 A 
ATOM     30  N   UNL A   1      44.690  29.109  31.077  1.00  0.00    -0.354 N 
ATOM     31  N   UNL A   1      44.324  26.561  29.658  1.00  0.00    -0.248 NA
ATOM     32  C   UNL A   1      45.201  24.582  28.782  1.00  0.00     0.031 C 
ATOM     33  C   UNL A   1      46.646  29.483  32.061  1.00  0.00     0.029 A 
ATOM     34  C   UNL A   1      45.955  28.578  31.271  1.00  0.00     0.049 A 
ATOM     35  H   UNL A   1      43.970  28.680  30.558  1.00  0.00     0.167 HD
ATOM     36  C   UNL A   1      45.659  26.458  30.017  1.00  0.00     0.074 A 
ATOM     37  C   UNL A   1      46.142  25.204  29.478  1.00  0.00     0.031 C 
ATOM     38  C   UNL A   1      46.420  27.330  30.723  1.00  0.00     0.037 A 
BRANCH  25  39
ATOM     39  C   UNL A   1      43.539  32.540  32.324  1.00  0.00     0.064 A 
ATOM     40  C   UNL A   1      43.939  33.673  31.603  1.00  0.00     0.173 A 
ATOM     41  C   UNL A   1      43.153  32.719  33.662  1.00  0.00     0.173 A 
ATOM     42  F   UNL A   1      44.324  33.556  30.322  1.00  0.00    -0.203 F 
ATOM     43  C   UNL A   1      43.962  34.932  32.199  1.00  0.00     0.198 A 
ATOM     44  C   UNL A   1      43.151  33.982  34.248  1.00  0.00     0.198 A 
ATOM     45  F   UNL A   1      42.752  31.669  34.396  1.00  0.00    -0.203 F 
ATOM     46  F   UNL A   1      44.374  35.998  31.497  1.00  0.00    -0.200 F 
ATOM     47  C   UNL A   1      43.559  35.087  33.518  1.00  0.00     0.200 A 
ATOM     48  F   UNL A   1      42.748  34.131  35.517  1.00  0.00    -0.200 F 
ATOM     49  F   UNL A   1      43.564  36.302  34.084  1.00  0.00    -0.200 F 
ENDBRANCH  25  39
BRANCH  26  50
ATOM     50  C   UNL A   1      42.655  23.808  27.547  1.00  0.00     0.064 A 
ATOM     51  C   UNL A   1      42.983  23.763  26.185  1.00  0.00     0.173 A 
ATOM     52  C   UNL A   1      42.221  22.618  28.152  1.00  0.00     0.173 A 
ATOM     53  F   UNL A   1      43.386  24.877  25.557  1.00  0.00    -0.203 F 
ATOM     54  C   UNL A   1      42.861  22.583  25.455  1.00  0.00     0.198 A 
ATOM     55  C   UNL A   1      42.132  21.432  27.430  1.00  0.00     0.198 A 
ATOM     56  F   UNL A   1      41.899  22.605  29.454  1.00  0.00    -0.203 F 
ATOM     57  F   UNL A   1      43.134  22.579  24.143  1.00  0.00    -0.200 F 
ATOM     58  C   UNL A   1      42.442  21.417  26.078  1.00  0.00     0.200 A 
ATOM     59  F   UNL A   1      41.744  20.304  28.041  1.00  0.00    -0.200 F 
ATOM     60  F   UNL A   1      42.330  20.282  25.376  1.00  0.00    -0.200 F 
ENDBRANCH  26  50
BRANCH  38  61
ATOM     61  C   UNL A   1      47.851  26.949  30.963  1.00  0.00     0.064 A 
ATOM     62  C   UNL A   1      48.214  26.094  32.013  1.00  0.00     0.173 A 
ATOM     63  C   UNL A   1      48.864  27.410  30.108  1.00  0.00     0.173 A 
ATOM     64  F   UNL A   1      47.283  25.644  32.869  1.00  0.00    -0.203 F 
ATOM     65  C   UNL A   1      49.542  25.727  32.211  1.00  0.00     0.198 A 
ATOM     66  C   UNL A   1      50.187  27.016  30.290  1.00  0.00     0.198 A 
ATOM     67  F   UNL A   1      48.568  28.227  29.086  1.00  0.00    -0.203 F 
ATOM     68  F   UNL A   1      49.872  24.944  33.246  1.00  0.00    -0.200 F 
ATOM     69  C   UNL A   1      50.525  26.181  31.343  1.00  0.00     0.200 A 
ATOM     70  F   UNL A   1      51.133  27.445  29.443  1.00  0.00    -0.200 F 
ATOM     71  F   UNL A   1      51.802  25.819  31.528  1.00  0.00    -0.200 F 
ENDBRANCH  38  61
ENDBRANCH  12  13
ENDBRANCH   5   7
ENDBRANCH   2   3
ENDBRANCH   1   2
BRANCH   1  72
ATOM     72  C   UNL A   1      31.583  27.182  26.554  1.00  0.00     0.023 C 
BRANCH  72  73
ATOM     73  C   UNL A   1      30.620  26.326  25.737  1.00  0.00     0.116 C 
BRANCH  73  74
ATOM     74  N   UNL A   1      30.074  25.218  26.499  1.00  0.00    -0.356 N 
ATOM     75  C   UNL A   1      30.537  23.933  26.600  1.00  0.00     0.227 C 
ATOM     76  H   UNL A   1      29.259  25.416  27.014  1.00  0.00     0.163 HD
ATOM     77  O   UNL A   1      29.927  23.158  27.335  1.00  0.00    -0.274 OA
BRANCH  75  78
ATOM     78  C   UNL A   1      31.757  23.531  25.768  1.00  0.00     0.107 C 
ATOM     79  C   UNL A   1      31.551  22.274  24.984  1.00  0.00    -0.012 C 
ATOM     80  C   UNL A   1      32.978  23.207  26.646  1.00  0.00     0.087 C 
ATOM     81  C   UNL A   1      32.375  21.293  25.363  1.00  0.00     0.033 C 
ATOM     82  C   UNL A   1      33.279  21.701  26.484  1.00  0.00     0.208 C 
BRANCH  82  83
ATOM     83  N   UNL A   1      34.662  21.266  26.270  1.00  0.00    -0.328 N 
ATOM     84  C   UNL A   1      34.941  20.791  24.911  1.00  0.00     0.275 C 
ATOM     85  C   UNL A   1      35.591  22.392  26.133  1.00  0.00     0.275 C 
ATOM     86  H   UNL A   1      34.767  20.610  27.043  1.00  0.00     0.348 HD
ATOM     87  C   UNL A   1      35.782  21.992  24.723  1.00  0.00     0.068 C 
ATOM     88  C   UNL A   1      35.810  22.896  23.528  1.00  0.00     0.020 C 
ATOM     89  C   UNL A   1      37.028  22.096  23.904  1.00  0.00     0.020 C 
ENDBRANCH  82  83
ENDBRANCH  75  78
ENDBRANCH  73  74
ENDBRANCH  72  73
ENDBRANCH   1  72
TORSDOF 12
ENDMDL
MODEL 2
REMARK VINA RESULT:     -11.6      0.190      1.174
REMARK SMILES O=C(NCCCCNC(=O)[C@@H]1C=C[C@@H]([NH+]2CC3(CC3)C2)C1)c1ccc(-c2c3nc(c(-c4c(F)c(F)c(F)c(F)c4F)c4ccc([nH]4)c(-c4c(F)c(F)c(F)c(F)c4F)c4nc(c(-c5c(F)c(F)c(F)c(F)c5F)c5ccc2[nH]5)C=C4)C=C3)cc1
REMARK SMILES IDX 5 1 4 2 3 3 1 4 2 5 22 7 23 8 84 9 24 10 83 11 25 12 26 13
REMARK SMILES IDX 27 14 77 15 28 16 82 17 76 18 78 19 29 20 81 21 75 22 74 23
REMARK SMILES IDX 30 25 62 26 42 27 61 28 43 29 46 30 60 31 79 32 44 33 45 34
REMARK SMILES IDX 59 36 80 37 47 38 31 39 32 40 40 41 33 42 34 43 38 44 41 45
REMARK SMILES IDX 35 46 36 47 39 48 37 49 63 50 64 51 72 52 65 53 66 54 70 55
REMARK SMILES IDX 73 56 67 57 68 58 71 59 69 60 48 61 49 62 57 63 50 64 51 65
REMARK SMILES IDX 55 66 58 67 52 68 53 69 56 70 54 71 6 72 7 73 8 74 9 75
REMARK SMILES IDX 10 77 11 78 12 79 21 80 13 81 14 82 15 83 16 84 20 85 17 87
REMARK SMILES IDX 18 88 19 89
REMARK H PARENT 3 6 78 24 46 35 8 76 15 86
REMARK Flexibility Score: inf
ROOT
ATOM      1  C   UNL A   1      32.991  27.629  25.781  1.00  0.00     0.023 C 
ENDROOT
BRANCH   1   2
ATOM      2  C   UNL A   1      34.060  28.205  26.699  1.00  0.00     0.116 C 
BRANCH   2   3
ATOM      3  N   UNL A   1      33.775  29.571  27.107  1.00  0.00    -0.352 N 
ATOM      4  O   UNL A   1      34.073  31.496  28.246  1.00  0.00    -0.269 OA
ATOM      5  C   UNL A   1      34.537  30.425  27.866  1.00  0.00     0.251 C 
ATOM      6  H   UNL A   1      32.914  29.935  26.796  1.00  0.00     0.163 HD
BRANCH   5   7
ATOM      7  C   UNL A   1      35.914  30.042  28.244  1.00  0.00     0.039 A 
ATOM      8  C   UNL A   1      36.971  30.220  27.349  1.00  0.00     0.014 A 
ATOM      9  C   UNL A   1      36.149  29.516  29.517  1.00  0.00     0.014 A 
ATOM     10  C   UNL A   1      38.241  29.756  27.677  1.00  0.00     0.010 A 
ATOM     11  C   UNL A   1      37.442  29.128  29.877  1.00  0.00     0.010 A 
ATOM     12  C   UNL A   1      38.494  29.229  28.953  1.00  0.00    -0.014 A 
BRANCH  12  13
ATOM     13  C   UNL A   1      39.886  28.893  29.340  1.00  0.00     0.031 A 
ATOM     14  C   UNL A   1      40.716  29.832  30.166  1.00  0.00     0.074 A 
ATOM     15  C   UNL A   1      40.399  27.722  28.918  1.00  0.00     0.049 A 
ATOM     16  N   UNL A   1      41.961  29.706  30.554  1.00  0.00    -0.248 NA
ATOM     17  C   UNL A   1      40.074  31.078  30.611  1.00  0.00     0.031 C 
ATOM     18  C   UNL A   1      39.686  26.741  28.094  1.00  0.00     0.029 A 
ATOM     19  N   UNL A   1      41.633  27.154  29.113  1.00  0.00    -0.354 N 
ATOM     20  C   UNL A   1      42.259  30.860  31.266  1.00  0.00     0.074 A 
ATOM     21  C   UNL A   1      41.070  31.685  31.247  1.00  0.00     0.031 C 
ATOM     22  C   UNL A   1      40.483  25.687  27.873  1.00  0.00     0.029 A 
ATOM     23  C   UNL A   1      41.785  25.947  28.478  1.00  0.00     0.049 A 
ATOM     24  H   UNL A   1      42.339  27.573  29.655  1.00  0.00     0.167 HD
ATOM     25  C   UNL A   1      43.421  31.190  31.878  1.00  0.00     0.037 A 
ATOM     26  C   UNL A   1      42.863  25.151  28.361  1.00  0.00     0.037 A 
ATOM     27  C   UNL A   1      44.589  30.347  31.910  1.00  0.00     0.049 A 
ATOM     28  C   UNL A   1      44.146  25.565  29.022  1.00  0.00     0.074 A 
ATOM     29  C   UNL A   1      45.786  30.558  32.575  1.00  0.00     0.029 A 
ATOM     30  N   UNL A   1      44.714  29.141  31.237  1.00  0.00    -0.354 N 
ATOM     31  N   UNL A   1      44.394  26.625  29.751  1.00  0.00    -0.248 NA
ATOM     32  C   UNL A   1      45.302  24.678  28.838  1.00  0.00     0.031 C 
ATOM     33  C   UNL A   1      46.655  29.512  32.253  1.00  0.00     0.029 A 
ATOM     34  C   UNL A   1      45.983  28.619  31.432  1.00  0.00     0.049 A 
ATOM     35  H   UNL A   1      44.006  28.718  30.699  1.00  0.00     0.167 HD
ATOM     36  C   UNL A   1      45.725  26.528  30.123  1.00  0.00     0.074 A 
ATOM     37  C   UNL A   1      46.228  25.292  29.560  1.00  0.00     0.031 C 
ATOM     38  C   UNL A   1      46.469  27.390  30.860  1.00  0.00     0.037 A 
BRANCH  25  39
ATOM     39  C   UNL A   1      43.511  32.528  32.554  1.00  0.00     0.064 A 
ATOM     40  C   UNL A   1      43.912  33.682  31.866  1.00  0.00     0.173 A 
ATOM     41  C   UNL A   1      43.104  32.670  33.890  1.00  0.00     0.173 A 
ATOM     42  F   UNL A   1      44.316  33.600  30.589  1.00  0.00    -0.203 F 
ATOM     43  C   UNL A   1      43.914  34.926  32.493  1.00  0.00     0.198 A 
ATOM     44  C   UNL A   1      43.082  33.919  34.506  1.00  0.00     0.198 A 
ATOM     45  F   UNL A   1      42.703  31.600  34.592  1.00  0.00    -0.203 F 
ATOM     46  F   UNL A   1      44.326  36.012  31.823  1.00  0.00    -0.200 F 
ATOM     47  C   UNL A   1      43.490  35.045  33.809  1.00  0.00     0.200 A 
ATOM     48  F   UNL A   1      42.658  34.034  35.772  1.00  0.00    -0.200 F 
ATOM     49  F   UNL A   1      43.475  36.246  34.404  1.00  0.00    -0.200 F 
ENDBRANCH  25  39
BRANCH  26  50
ATOM     50  C   UNL A   1      42.779  23.907  27.553  1.00  0.00     0.064 A 
ATOM     51  C   UNL A   1      42.357  22.698  28.122  1.00  0.00     0.173 A 
ATOM     52  C   UNL A   1      43.122  23.902  26.191  1.00  0.00     0.173 A 
ATOM     53  F   UNL A   1      42.036  22.648  29.423  1.00  0.00    -0.203 F 
ATOM     54  C   UNL A   1      42.301  21.529  27.367  1.00  0.00     0.198 A 
ATOM     55  C   UNL A   1      43.033  22.742  25.429  1.00  0.00     0.198 A 
ATOM     56  F   UNL A   1      43.528  25.034  25.596  1.00  0.00    -0.203 F 
ATOM     57  F   UNL A   1      41.941  20.376  27.947  1.00  0.00    -0.200 F 
ATOM     58  C   UNL A   1      42.632  21.553  26.020  1.00  0.00     0.200 A 
ATOM     59  F   UNL A   1      43.336  22.774  24.125  1.00  0.00    -0.200 F 
ATOM     60  F   UNL A   1      42.573  20.429  25.293  1.00  0.00    -0.200 F 
ENDBRANCH  26  50
BRANCH  38  61
ATOM     61  C   UNL A   1      47.901  27.019  31.108  1.00  0.00     0.064 A 
ATOM     62  C   UNL A   1      48.260  26.143  32.141  1.00  0.00     0.173 A 
ATOM     63  C   UNL A   1      48.918  27.510  30.276  1.00  0.00     0.173 A 
ATOM     64  F   UNL A   1      47.325  25.663  32.976  1.00  0.00    -0.203 F 
ATOM     65  C   UNL A   1      49.590  25.785  32.346  1.00  0.00     0.198 A 
ATOM     66  C   UNL A   1      50.243  27.126  30.464  1.00  0.00     0.198 A 
ATOM     67  F   UNL A   1      48.625  28.348  29.270  1.00  0.00    -0.203 F 
ATOM     68  F   UNL A   1      49.916  24.981  33.366  1.00  0.00    -0.200 F 
ATOM     69  C   UNL A   1      50.578  26.270  31.501  1.00  0.00     0.200 A 
ATOM     70  F   UNL A   1      51.194  27.585  29.639  1.00  0.00    -0.200 F 
ATOM     71  F   UNL A   1      51.857  25.917  31.692  1.00  0.00    -0.200 F 
ENDBRANCH  38  61
ENDBRANCH  12  13
ENDBRANCH   5   7
ENDBRANCH   2   3
ENDBRANCH   1   2
BRANCH   1  72
ATOM     72  C   UNL A   1      31.667  27.286  26.460  1.00  0.00     0.023 C 
BRANCH  72  73
ATOM     73  C   UNL A   1      30.746  26.368  25.662  1.00  0.00     0.116 C 
BRANCH  73  74
ATOM     74  N   UNL A   1      30.201  25.289  26.465  1.00  0.00    -0.356 N 
ATOM     75  C   UNL A   1      30.674  24.015  26.628  1.00  0.00     0.227 C 
ATOM     76  H   UNL A   1      29.377  25.502  26.960  1.00  0.00     0.163 HD
ATOM     77  O   UNL A   1      30.062  23.267  27.389  1.00  0.00    -0.274 OA
BRANCH  75  78
ATOM     78  C   UNL A   1      31.909  23.589  25.831  1.00  0.00     0.107 C 
ATOM     79  C   UNL A   1      31.664  22.410  24.943  1.00  0.00    -0.012 C 
ATOM     80  C   UNL A   1      33.055  23.117  26.742  1.00  0.00     0.087 C 
ATOM     81  C   UNL A   1      32.398  21.348  25.288  1.00  0.00     0.033 C 
ATOM     82  C   UNL A   1      33.263  21.609  26.481  1.00  0.00     0.208 C 
BRANCH  82  83
ATOM     83  N   UNL A   1      34.624  21.094  26.304  1.00  0.00    -0.328 N 
ATOM     84  C   UNL A   1      34.929  20.653  24.940  1.00  0.00     0.275 C 
ATOM     85  C   UNL A   1      35.627  22.162  26.250  1.00  0.00     0.275 C 
ATOM     86  H   UNL A   1      34.654  20.403  27.054  1.00  0.00     0.348 HD
ATOM     87  C   UNL A   1      35.851  21.804  24.834  1.00  0.00     0.068 C 
ATOM     88  C   UNL A   1      35.988  22.749  23.679  1.00  0.00     0.020 C 
ATOM     89  C   UNL A   1      37.136  21.858  24.070  1.00  0.00     0.020 C 
ENDBRANCH  82  83
ENDBRANCH  75  78
ENDBRANCH  73  74
ENDBRANCH  72  73
ENDBRANCH   1  72
TORSDOF 12
ENDMDL
MODEL 3
REMARK VINA RESULT:     -11.6      4.179      9.990
REMARK SMILES O=C(NCCCCNC(=O)[C@@H]1C=C[C@@H]([NH+]2CC3(CC3)C2)C1)c1ccc(-c2c3nc(c(-c4c(F)c(F)c(F)c(F)c4F)c4ccc([nH]4)c(-c4c(F)c(F)c(F)c(F)c4F)c4nc(c(-c5c(F)c(F)c(F)c(F)c5F)c5ccc2[nH]5)C=C4)C=C3)cc1
REMARK SMILES IDX 5 1 4 2 3 3 1 4 2 5 22 7 23 8 84 9 24 10 83 11 25 12 26 13
REMARK SMILES IDX 27 14 77 15 28 16 82 17 76 18 78 19 29 20 81 21 75 22 74 23
REMARK SMILES IDX 30 25 62 26 42 27 61 28 43 29 46 30 60 31 79 32 44 33 45 34
REMARK SMILES IDX 59 36 80 37 47 38 31 39 32 40 40 41 33 42 34 43 38 44 41 45
REMARK SMILES IDX 35 46 36 47 39 48 37 49 63 50 64 51 72 52 65 53 66 54 70 55
REMARK SMILES IDX 73 56 67 57 68 58 71 59 69 60 48 61 49 62 57 63 50 64 51 65
REMARK SMILES IDX 55 66 58 67 52 68 53 69 56 70 54 71 6 72 7 73 8 74 9 75
REMARK SMILES IDX 10 77 11 78 12 79 21 80 13 81 14 82 15 83 16 84 20 85 17 87
REMARK SMILES IDX 18 88 19 89
REMARK H PARENT 3 6 78 24 46 35 8 76 15 86
REMARK Flexibility Score: inf
ROOT
ATOM      1  C   UNL A   1      41.145  21.023  27.611  1.00  0.00     0.023 C 
ENDROOT
BRANCH   1   2
ATOM      2  C   UNL A   1      41.073  22.079  26.516  1.00  0.00     0.116 C 
BRANCH   2   3
ATOM      3  N   UNL A   1      39.731  22.244  25.981  1.00  0.00    -0.352 N 
ATOM      4  O   UNL A   1      37.690  23.180  25.763  1.00  0.00    -0.269 OA
ATOM      5  C   UNL A   1      38.845  23.276  26.167  1.00  0.00     0.251 C 
ATOM      6  H   UNL A   1      39.413  21.512  25.403  1.00  0.00     0.163 HD
BRANCH   5   7
ATOM      7  C   UNL A   1      39.280  24.498  26.877  1.00  0.00     0.039 A 
ATOM      8  C   UNL A   1      38.976  24.681  28.228  1.00  0.00     0.014 A 
ATOM      9  C   UNL A   1      40.016  25.463  26.183  1.00  0.00     0.014 A 
ATOM     10  C   UNL A   1      39.296  25.882  28.852  1.00  0.00     0.010 A 
ATOM     11  C   UNL A   1      40.411  26.633  26.836  1.00  0.00     0.010 A 
ATOM     12  C   UNL A   1      40.039  26.858  28.171  1.00  0.00    -0.014 A 
BRANCH  12  13
ATOM     13  C   UNL A   1      40.512  28.058  28.905  1.00  0.00     0.031 A 
ATOM     14  C   UNL A   1      41.913  28.150  29.432  1.00  0.00     0.074 A 
ATOM     15  C   UNL A   1      39.642  29.068  29.100  1.00  0.00     0.049 A 
ATOM     16  N   UNL A   1      42.469  29.110  30.128  1.00  0.00    -0.248 NA
ATOM     17  C   UNL A   1      42.810  27.017  29.153  1.00  0.00     0.031 C 
ATOM     18  C   UNL A   1      38.249  29.077  28.645  1.00  0.00     0.029 A 
ATOM     19  N   UNL A   1      39.790  30.277  29.732  1.00  0.00    -0.354 N 
ATOM     20  C   UNL A   1      43.767  28.692  30.389  1.00  0.00     0.074 A 
ATOM     21  C   UNL A   1      43.916  27.383  29.790  1.00  0.00     0.031 C 
ATOM     22  C   UNL A   1      37.678  30.238  28.992  1.00  0.00     0.029 A 
ATOM     23  C   UNL A   1      38.641  31.026  29.753  1.00  0.00     0.049 A 
ATOM     24  H   UNL A   1      40.639  30.576  30.130  1.00  0.00     0.167 HD
ATOM     25  C   UNL A   1      44.740  29.349  31.066  1.00  0.00     0.037 A 
ATOM     26  C   UNL A   1      38.375  32.201  30.351  1.00  0.00     0.037 A 
ATOM     27  C   UNL A   1      44.585  30.663  31.636  1.00  0.00     0.049 A 
ATOM     28  C   UNL A   1      39.465  32.885  31.124  1.00  0.00     0.074 A 
ATOM     29  C   UNL A   1      45.536  31.445  32.268  1.00  0.00     0.029 A 
ATOM     30  N   UNL A   1      43.399  31.382  31.658  1.00  0.00    -0.354 N 
ATOM     31  N   UNL A   1      40.708  32.512  31.304  1.00  0.00    -0.248 NA
ATOM     32  C   UNL A   1      39.115  34.149  31.785  1.00  0.00     0.031 C 
ATOM     33  C   UNL A   1      44.912  32.609  32.727  1.00  0.00     0.029 A 
ATOM     34  C   UNL A   1      43.583  32.578  32.333  1.00  0.00     0.049 A 
ATOM     35  H   UNL A   1      42.551  31.086  31.254  1.00  0.00     0.167 HD
ATOM     36  C   UNL A   1      41.292  33.496  32.085  1.00  0.00     0.074 A 
ATOM     37  C   UNL A   1      40.275  34.498  32.325  1.00  0.00     0.031 C 
ATOM     38  C   UNL A   1      42.558  33.562  32.567  1.00  0.00     0.037 A 
BRANCH  25  39
ATOM     39  C   UNL A   1      46.061  28.661  31.255  1.00  0.00     0.064 A 
ATOM     40  C   UNL A   1      46.311  27.821  32.348  1.00  0.00     0.173 A 
ATOM     41  C   UNL A   1      47.060  28.777  30.275  1.00  0.00     0.173 A 
ATOM     42  F   UNL A   1      45.392  27.679  33.315  1.00  0.00    -0.203 F 
ATOM     43  C   UNL A   1      47.517  27.132  32.462  1.00  0.00     0.198 A 
ATOM     44  C   UNL A   1      48.254  28.067  30.378  1.00  0.00     0.198 A 
ATOM     45  F   UNL A   1      46.868  29.561  29.204  1.00  0.00    -0.203 F 
ATOM     46  F   UNL A   1      47.746  26.354  33.530  1.00  0.00    -0.200 F 
ATOM     47  C   UNL A   1      48.483  27.249  31.472  1.00  0.00     0.200 A 
ATOM     48  F   UNL A   1      49.179  28.170  29.414  1.00  0.00    -0.200 F 
ATOM     49  F   UNL A   1      49.635  26.571  31.575  1.00  0.00    -0.200 F 
ENDBRANCH  25  39
BRANCH  26  50
ATOM     50  C   UNL A   1      37.008  32.778  30.273  1.00  0.00     0.064 A 
ATOM     51  C   UNL A   1      36.616  33.572  29.187  1.00  0.00     0.173 A 
ATOM     52  C   UNL A   1      36.064  32.547  31.286  1.00  0.00     0.173 A 
ATOM     53  F   UNL A   1      37.488  33.837  28.203  1.00  0.00    -0.203 F 
ATOM     54  C   UNL A   1      35.341  34.130  29.128  1.00  0.00     0.198 A 
ATOM     55  C   UNL A   1      34.779  33.076  31.209  1.00  0.00     0.198 A 
ATOM     56  F   UNL A   1      36.386  31.789  32.345  1.00  0.00    -0.203 F 
ATOM     57  F   UNL A   1      35.008  34.925  28.102  1.00  0.00    -0.200 F 
ATOM     58  C   UNL A   1      34.422  33.876  30.134  1.00  0.00     0.200 A 
ATOM     59  F   UNL A   1      33.889  32.813  32.175  1.00  0.00    -0.200 F 
ATOM     60  F   UNL A   1      33.194  34.408  30.074  1.00  0.00    -0.200 F 
ENDBRANCH  26  50
BRANCH  38  61
ATOM     61  C   UNL A   1      42.913  34.763  33.393  1.00  0.00     0.064 A 
ATOM     62  C   UNL A   1      42.862  34.729  34.793  1.00  0.00     0.173 A 
ATOM     63  C   UNL A   1      43.350  35.946  32.777  1.00  0.00     0.173 A 
ATOM     64  F   UNL A   1      42.431  33.626  35.426  1.00  0.00    -0.203 F 
ATOM     65  C   UNL A   1      43.218  35.842  35.549  1.00  0.00     0.198 A 
ATOM     66  C   UNL A   1      43.735  37.047  33.538  1.00  0.00     0.198 A 
ATOM     67  F   UNL A   1      43.420  36.028  31.440  1.00  0.00    -0.203 F 
ATOM     68  F   UNL A   1      43.121  35.801  36.884  1.00  0.00    -0.200 F 
ATOM     69  C   UNL A   1      43.664  36.996  34.921  1.00  0.00     0.200 A 
ATOM     70  F   UNL A   1      44.177  38.156  32.929  1.00  0.00    -0.200 F 
ATOM     71  F   UNL A   1      44.017  38.063  35.650  1.00  0.00    -0.200 F 
ENDBRANCH  38  61
ENDBRANCH  12  13
ENDBRANCH   5   7
ENDBRANCH   2   3
ENDBRANCH   1   2
BRANCH   1  72
ATOM     72  C   UNL A   1      41.937  19.768  27.252  1.00  0.00     0.023 C 
BRANCH  72  73
ATOM     73  C   UNL A   1      42.132  19.528  25.758  1.00  0.00     0.116 C 
BRANCH  73  74
ATOM     74  N   UNL A   1      43.491  19.140  25.429  1.00  0.00    -0.356 N 
ATOM     75  C   UNL A   1      44.558  19.935  25.107  1.00  0.00     0.227 C 
ATOM     76  H   UNL A   1      43.670  18.172  25.436  1.00  0.00     0.163 HD
ATOM     77  O   UNL A   1      45.639  19.387  24.890  1.00  0.00    -0.274 OA
BRANCH  75  78
ATOM     78  C   UNL A   1      44.336  21.445  25.002  1.00  0.00     0.107 C 
ATOM     79  C   UNL A   1      45.065  22.073  23.856  1.00  0.00    -0.012 C 
ATOM     80  C   UNL A   1      44.881  22.200  26.227  1.00  0.00     0.087 C 
ATOM     81  C   UNL A   1      45.986  22.954  24.256  1.00  0.00     0.033 C 
ATOM     82  C   UNL A   1      46.060  23.073  25.746  1.00  0.00     0.208 C 
BRANCH  82  83
ATOM     83  N   UNL A   1      46.146  24.467  26.189  1.00  0.00    -0.328 N 
ATOM     84  C   UNL A   1      45.994  25.452  25.114  1.00  0.00     0.275 C 
ATOM     85  C   UNL A   1      44.924  24.920  26.862  1.00  0.00     0.275 C 
ATOM     86  H   UNL A   1      47.029  24.441  26.700  1.00  0.00     0.348 HD
ATOM     87  C   UNL A   1      44.697  25.828  25.718  1.00  0.00     0.068 C 
ATOM     88  C   UNL A   1      43.402  26.065  25.002  1.00  0.00     0.020 C 
ATOM     89  C   UNL A   1      44.079  27.189  25.741  1.00  0.00     0.020 C 
ENDBRANCH  82  83
ENDBRANCH  75  78
ENDBRANCH  73  74
ENDBRANCH  72  73
ENDBRANCH   1  72
TORSDOF 12
ENDMDL
