MODEL 1
REMARK VINA RESULT:     -12.7      0.000      0.000
REMARK SMILES CC(=O)N1CCC[C@@H](Cc2nccnc2C(=O)NCCCCNC(=O)c2ccc(-c3c4nc(c(-c5c(F)c(F)c(F)c(F)c5F)c5ccc([nH]5)c(-c5c(F)c(F)c(F)c(F)c5F)c5nc(c(-c6c(F)c(F)c(F)c(F)c6F)c6ccc3[nH]6)C=C5)C=C4)cc2)C1
REMARK SMILES IDX 20 1 19 2 18 3 16 4 17 5 15 7 10 8 11 9 12 10 14 11 13 12
REMARK SMILES IDX 9 13 8 14 4 15 5 16 89 17 6 18 7 19 2 20 1 21 3 22 21 23
REMARK SMILES IDX 22 24 23 25 24 26 25 28 26 29 27 30 88 31 28 32 87 33 29 34
REMARK SMILES IDX 30 35 31 36 81 37 32 38 86 39 80 40 82 41 33 42 85 43 79 44
REMARK SMILES IDX 78 45 34 47 66 48 46 49 65 50 47 51 50 52 64 53 83 54 48 55
REMARK SMILES IDX 49 56 63 58 84 59 51 60 35 61 36 62 44 63 37 64 38 65 42 66
REMARK SMILES IDX 45 67 39 68 40 69 43 70 41 71 67 72 68 73 76 74 69 75 70 76
REMARK SMILES IDX 74 77 77 78 71 79 72 80 75 81 73 82 52 83 53 84 61 85 54 86
REMARK SMILES IDX 55 87 59 88 62 89 56 90 57 91 60 92 58 93
REMARK H PARENT 18 6 23 27 82 46 50 57
REMARK Flexibility Score: inf
ROOT
ATOM      1  C   UNL A   1      32.584  30.406  26.222  1.00  0.00     0.023 C 
ENDROOT
BRANCH   1   2
ATOM      2  C   UNL A   1      33.086  29.278  27.141  1.00  0.00     0.116 C 
BRANCH   2   3
ATOM      3  N   UNL A   1      32.120  28.196  27.141  1.00  0.00    -0.351 N 
ATOM      4  C   UNL A   1      31.736  27.193  26.283  1.00  0.00     0.271 C 
ATOM      5  O   UNL A   1      30.740  26.569  26.678  1.00  0.00    -0.267 OA
ATOM      6  H   UNL A   1      31.600  28.174  27.978  1.00  0.00     0.163 HD
BRANCH   4   7
ATOM      7  C   UNL A   1      32.381  26.721  24.995  1.00  0.00     0.149 A 
ATOM      8  C   UNL A   1      32.313  27.254  23.697  1.00  0.00     0.072 A 
ATOM      9  N   UNL A   1      32.813  26.580  22.613  1.00  0.00    -0.257 NA
ATOM     10  C   UNL A   1      33.352  25.366  22.840  1.00  0.00     0.131 A 
ATOM     11  N   UNL A   1      32.968  25.495  25.184  1.00  0.00    -0.248 NA
ATOM     12  C   UNL A   1      33.433  24.837  24.104  1.00  0.00     0.132 A 
BRANCH   8  13
ATOM     13  C   UNL A   1      31.788  28.595  23.324  1.00  0.00     0.064 C 
BRANCH  13  14
ATOM     14  C   UNL A   1      30.291  28.893  23.385  1.00  0.00     0.015 C 
ATOM     15  N   UNL A   1      28.432  30.308  22.715  1.00  0.00    -0.343 N 
ATOM     16  C   UNL A   1      27.508  29.182  22.585  1.00  0.00     0.119 C 
ATOM     17  C   UNL A   1      29.835  29.992  22.423  1.00  0.00     0.123 C 
ATOM     18  C   UNL A   1      27.940  28.015  23.472  1.00  0.00     0.022 C 
ATOM     19  C   UNL A   1      29.406  27.646  23.232  1.00  0.00     0.007 C 
BRANCH  15  20
ATOM     20  C   UNL A   1      27.962  31.526  23.182  1.00  0.00     0.219 C 
ATOM     21  C   UNL A   1      28.755  32.758  22.824  1.00  0.00     0.114 C 
ATOM     22  O   UNL A   1      26.944  31.630  23.867  1.00  0.00    -0.275 OA
ENDBRANCH  15  20
ENDBRANCH  13  14
ENDBRANCH   8  13
ENDBRANCH   4   7
ENDBRANCH   2   3
ENDBRANCH   1   2
BRANCH   1  23
ATOM     23  C   UNL A   1      31.970  31.612  26.914  1.00  0.00     0.023 C 
BRANCH  23  24
ATOM     24  C   UNL A   1      32.992  32.562  27.508  1.00  0.00     0.116 C 
BRANCH  24  25
ATOM     25  N   UNL A   1      32.498  33.921  27.711  1.00  0.00    -0.352 N 
ATOM     26  C   UNL A   1      32.990  34.887  28.557  1.00  0.00     0.251 C 
ATOM     27  H   UNL A   1      31.713  34.177  27.176  1.00  0.00     0.163 HD
ATOM     28  O   UNL A   1      32.440  35.978  28.656  1.00  0.00    -0.269 OA
BRANCH  26  29
ATOM     29  C   UNL A   1      34.161  34.561  29.391  1.00  0.00     0.039 A 
ATOM     30  C   UNL A   1      33.954  34.049  30.673  1.00  0.00     0.014 A 
ATOM     31  C   UNL A   1      35.447  34.644  28.853  1.00  0.00     0.014 A 
ATOM     32  C   UNL A   1      35.034  33.527  31.382  1.00  0.00     0.010 A 
ATOM     33  C   UNL A   1      36.499  34.031  29.515  1.00  0.00     0.010 A 
ATOM     34  C   UNL A   1      36.304  33.466  30.785  1.00  0.00    -0.014 A 
BRANCH  34  35
ATOM     35  C   UNL A   1      37.451  32.816  31.460  1.00  0.00     0.031 A 
ATOM     36  C   UNL A   1      38.152  31.670  30.792  1.00  0.00     0.074 A 
ATOM     37  C   UNL A   1      37.782  33.180  32.714  1.00  0.00     0.049 A 
ATOM     38  N   UNL A   1      39.093  30.890  31.257  1.00  0.00    -0.248 NA
ATOM     39  C   UNL A   1      37.697  31.319  29.438  1.00  0.00     0.031 C 
ATOM     40  C   UNL A   1      37.110  34.213  33.504  1.00  0.00     0.029 A 
ATOM     41  N   UNL A   1      38.755  32.701  33.553  1.00  0.00    -0.354 N 
ATOM     42  C   UNL A   1      39.305  29.932  30.274  1.00  0.00     0.074 A 
ATOM     43  C   UNL A   1      38.362  30.198  29.211  1.00  0.00     0.031 C 
ATOM     44  C   UNL A   1      37.706  34.307  34.704  1.00  0.00     0.029 A 
ATOM     45  C   UNL A   1      38.783  33.324  34.776  1.00  0.00     0.049 A 
ATOM     46  H   UNL A   1      39.376  31.979  33.302  1.00  0.00     0.167 HD
ATOM     47  C   UNL A   1      40.222  28.938  30.251  1.00  0.00     0.037 A 
ATOM     48  C   UNL A   1      39.591  33.124  35.834  1.00  0.00     0.037 A 
ATOM     49  C   UNL A   1      41.205  28.726  31.278  1.00  0.00     0.049 A 
ATOM     50  C   UNL A   1      40.670  32.084  35.743  1.00  0.00     0.074 A 
ATOM     51  C   UNL A   1      42.256  27.829  31.297  1.00  0.00     0.029 A 
ATOM     52  N   UNL A   1      41.258  29.436  32.468  1.00  0.00    -0.354 N 
ATOM     53  N   UNL A   1      40.926  31.243  34.770  1.00  0.00    -0.248 NA
ATOM     54  C   UNL A   1      41.581  31.971  36.891  1.00  0.00     0.031 C 
ATOM     55  C   UNL A   1      42.933  27.978  32.513  1.00  0.00     0.029 A 
ATOM     56  C   UNL A   1      42.320  28.989  33.237  1.00  0.00     0.049 A 
ATOM     57  H   UNL A   1      40.634  30.152  32.729  1.00  0.00     0.167 HD
ATOM     58  C   UNL A   1      42.032  30.512  35.178  1.00  0.00     0.074 A 
ATOM     59  C   UNL A   1      42.410  31.020  36.482  1.00  0.00     0.031 C 
ATOM     60  C   UNL A   1      42.677  29.510  34.532  1.00  0.00     0.037 A 
BRANCH  47  61
ATOM     61  C   UNL A   1      40.205  28.018  29.066  1.00  0.00     0.064 A 
ATOM     62  C   UNL A   1      39.499  26.806  29.084  1.00  0.00     0.173 A 
ATOM     63  C   UNL A   1      40.916  28.347  27.903  1.00  0.00     0.173 A 
ATOM     64  F   UNL A   1      38.818  26.437  30.180  1.00  0.00    -0.203 F 
ATOM     65  C   UNL A   1      39.539  25.937  27.997  1.00  0.00     0.198 A 
ATOM     66  C   UNL A   1      40.928  27.490  26.805  1.00  0.00     0.198 A 
ATOM     67  F   UNL A   1      41.607  29.495  27.833  1.00  0.00    -0.203 F 
ATOM     68  F   UNL A   1      38.911  24.755  28.063  1.00  0.00    -0.200 F 
ATOM     69  C   UNL A   1      40.250  26.281  26.857  1.00  0.00     0.200 A 
ATOM     70  F   UNL A   1      41.612  27.826  25.703  1.00  0.00    -0.200 F 
ATOM     71  F   UNL A   1      40.294  25.441  25.814  1.00  0.00    -0.200 F 
ENDBRANCH  47  61
BRANCH  48  72
ATOM     72  C   UNL A   1      39.433  33.968  37.045  1.00  0.00     0.064 A 
ATOM     73  C   UNL A   1      38.729  33.492  38.160  1.00  0.00     0.173 A 
ATOM     74  C   UNL A   1      40.009  35.242  37.126  1.00  0.00     0.173 A 
ATOM     75  F   UNL A   1      38.148  32.285  38.119  1.00  0.00    -0.203 F 
ATOM     76  C   UNL A   1      38.597  34.268  39.310  1.00  0.00     0.198 A 
ATOM     77  C   UNL A   1      39.894  36.008  38.285  1.00  0.00     0.198 A 
ATOM     78  F   UNL A   1      40.700  35.736  36.089  1.00  0.00    -0.203 F 
ATOM     79  F   UNL A   1      37.898  33.800  40.353  1.00  0.00    -0.200 F 
ATOM     80  C   UNL A   1      39.185  35.522  39.375  1.00  0.00     0.200 A 
ATOM     81  F   UNL A   1      40.473  37.215  38.349  1.00  0.00    -0.200 F 
ATOM     82  F   UNL A   1      39.067  36.263  40.485  1.00  0.00    -0.200 F 
ENDBRANCH  48  72
BRANCH  60  83
ATOM     83  C   UNL A   1      43.862  28.904  35.219  1.00  0.00     0.064 A 
ATOM     84  C   UNL A   1      43.721  27.811  36.086  1.00  0.00     0.173 A 
ATOM     85  C   UNL A   1      45.153  29.391  34.969  1.00  0.00     0.173 A 
ATOM     86  F   UNL A   1      42.503  27.324  36.366  1.00  0.00    -0.203 F 
ATOM     87  C   UNL A   1      44.834  27.235  36.691  1.00  0.00     0.198 A 
ATOM     88  C   UNL A   1      46.265  28.797  35.559  1.00  0.00     0.198 A 
ATOM     89  F   UNL A   1      45.336  30.431  34.143  1.00  0.00    -0.203 F 
ATOM     90  F   UNL A   1      44.677  26.211  37.542  1.00  0.00    -0.200 F 
ATOM     91  C   UNL A   1      46.104  27.724  36.422  1.00  0.00     0.200 A 
ATOM     92  F   UNL A   1      47.493  29.263  35.291  1.00  0.00    -0.200 F 
ATOM     93  F   UNL A   1      47.176  27.161  36.999  1.00  0.00    -0.200 F 
ENDBRANCH  60  83
ENDBRANCH  34  35
ENDBRANCH  26  29
ENDBRANCH  24  25
ENDBRANCH  23  24
ENDBRANCH   1  23
TORSDOF 14
ENDMDL
MODEL 2
REMARK VINA RESULT:     -12.6      1.074      2.069
REMARK SMILES CC(=O)N1CCC[C@@H](Cc2nccnc2C(=O)NCCCCNC(=O)c2ccc(-c3c4nc(c(-c5c(F)c(F)c(F)c(F)c5F)c5ccc([nH]5)c(-c5c(F)c(F)c(F)c(F)c5F)c5nc(c(-c6c(F)c(F)c(F)c(F)c6F)c6ccc3[nH]6)C=C5)C=C4)cc2)C1
REMARK SMILES IDX 20 1 19 2 18 3 16 4 17 5 15 7 10 8 11 9 12 10 14 11 13 12
REMARK SMILES IDX 9 13 8 14 4 15 5 16 89 17 6 18 7 19 2 20 1 21 3 22 21 23
REMARK SMILES IDX 22 24 23 25 24 26 25 28 26 29 27 30 88 31 28 32 87 33 29 34
REMARK SMILES IDX 30 35 31 36 81 37 32 38 86 39 80 40 82 41 33 42 85 43 79 44
REMARK SMILES IDX 78 45 34 47 66 48 46 49 65 50 47 51 50 52 64 53 83 54 48 55
REMARK SMILES IDX 49 56 63 58 84 59 51 60 35 61 36 62 44 63 37 64 38 65 42 66
REMARK SMILES IDX 45 67 39 68 40 69 43 70 41 71 67 72 68 73 76 74 69 75 70 76
REMARK SMILES IDX 74 77 77 78 71 79 72 80 75 81 73 82 52 83 53 84 61 85 54 86
REMARK SMILES IDX 55 87 59 88 62 89 56 90 57 91 60 92 58 93
REMARK H PARENT 18 6 23 27 82 46 50 57
REMARK Flexibility Score: inf
ROOT
ATOM      1  C   UNL A   1      32.365  29.948  27.068  1.00  0.00     0.023 C 
ENDROOT
BRANCH   1   2
ATOM      2  C   UNL A   1      33.708  29.394  26.557  1.00  0.00     0.116 C 
BRANCH   2   3
ATOM      3  N   UNL A   1      33.732  29.462  25.109  1.00  0.00    -0.351 N 
ATOM      4  C   UNL A   1      33.173  28.768  24.062  1.00  0.00     0.271 C 
ATOM      5  O   UNL A   1      33.604  29.126  22.956  1.00  0.00    -0.267 OA
ATOM      6  H   UNL A   1      34.301  30.200  24.790  1.00  0.00     0.163 HD
BRANCH   4   7
ATOM      7  C   UNL A   1      32.091  27.706  24.071  1.00  0.00     0.149 A 
ATOM      8  C   UNL A   1      30.866  27.652  23.386  1.00  0.00     0.072 A 
ATOM      9  N   UNL A   1      29.925  26.695  23.664  1.00  0.00    -0.257 NA
ATOM     10  C   UNL A   1      30.213  25.819  24.646  1.00  0.00     0.131 A 
ATOM     11  N   UNL A   1      32.356  26.773  25.041  1.00  0.00    -0.248 NA
ATOM     12  C   UNL A   1      31.410  25.854  25.318  1.00  0.00     0.132 A 
BRANCH   8  13
ATOM     13  C   UNL A   1      30.452  28.528  22.257  1.00  0.00     0.064 C 
BRANCH  13  14
ATOM     14  C   UNL A   1      29.812  29.890  22.519  1.00  0.00     0.015 C 
ATOM     15  N   UNL A   1      28.025  31.466  22.038  1.00  0.00    -0.343 N 
ATOM     16  C   UNL A   1      27.934  31.921  23.425  1.00  0.00     0.119 C 
ATOM     17  C   UNL A   1      28.436  30.067  21.873  1.00  0.00     0.123 C 
ATOM     18  C   UNL A   1      29.260  31.712  24.157  1.00  0.00     0.022 C 
ATOM     19  C   UNL A   1      29.758  30.272  24.006  1.00  0.00     0.007 C 
BRANCH  15  20
ATOM     20  C   UNL A   1      27.823  32.372  21.008  1.00  0.00     0.219 C 
ATOM     21  C   UNL A   1      27.875  31.842  19.598  1.00  0.00     0.114 C 
ATOM     22  O   UNL A   1      27.611  33.570  21.205  1.00  0.00    -0.275 OA
ENDBRANCH  15  20
ENDBRANCH  13  14
ENDBRANCH   8  13
ENDBRANCH   4   7
ENDBRANCH   2   3
ENDBRANCH   1   2
BRANCH   1  23
ATOM     23  C   UNL A   1      32.098  31.419  26.794  1.00  0.00     0.023 C 
BRANCH  23  24
ATOM     24  C   UNL A   1      33.081  32.355  27.470  1.00  0.00     0.116 C 
BRANCH  24  25
ATOM     25  N   UNL A   1      32.581  33.714  27.658  1.00  0.00    -0.352 N 
ATOM     26  C   UNL A   1      33.061  34.688  28.501  1.00  0.00     0.251 C 
ATOM     27  H   UNL A   1      31.801  33.964  27.112  1.00  0.00     0.163 HD
ATOM     28  O   UNL A   1      32.506  35.778  28.585  1.00  0.00    -0.269 OA
BRANCH  26  29
ATOM     29  C   UNL A   1      34.223  34.372  29.351  1.00  0.00     0.039 A 
ATOM     30  C   UNL A   1      34.006  33.796  30.603  1.00  0.00     0.014 A 
ATOM     31  C   UNL A   1      35.517  34.530  28.852  1.00  0.00     0.014 A 
ATOM     32  C   UNL A   1      35.089  33.286  31.317  1.00  0.00     0.010 A 
ATOM     33  C   UNL A   1      36.577  33.931  29.514  1.00  0.00     0.010 A 
ATOM     34  C   UNL A   1      36.375  33.303  30.752  1.00  0.00    -0.014 A 
BRANCH  34  35
ATOM     35  C   UNL A   1      37.530  32.670  31.428  1.00  0.00     0.031 A 
ATOM     36  C   UNL A   1      38.242  31.527  30.765  1.00  0.00     0.074 A 
ATOM     37  C   UNL A   1      37.860  33.045  32.678  1.00  0.00     0.049 A 
ATOM     38  N   UNL A   1      39.193  30.760  31.233  1.00  0.00    -0.248 NA
ATOM     39  C   UNL A   1      37.786  31.162  29.415  1.00  0.00     0.031 C 
ATOM     40  C   UNL A   1      37.181  34.077  33.463  1.00  0.00     0.029 A 
ATOM     41  N   UNL A   1      38.842  32.583  33.517  1.00  0.00    -0.354 N 
ATOM     42  C   UNL A   1      39.411  29.798  30.257  1.00  0.00     0.074 A 
ATOM     43  C   UNL A   1      38.463  30.046  29.194  1.00  0.00     0.031 C 
ATOM     44  C   UNL A   1      37.779  34.185  34.661  1.00  0.00     0.029 A 
ATOM     45  C   UNL A   1      38.866  33.215  34.737  1.00  0.00     0.049 A 
ATOM     46  H   UNL A   1      39.469  31.866  33.270  1.00  0.00     0.167 HD
ATOM     47  C   UNL A   1      40.339  28.813  30.237  1.00  0.00     0.037 A 
ATOM     48  C   UNL A   1      39.679  33.030  35.794  1.00  0.00     0.037 A 
ATOM     49  C   UNL A   1      41.327  28.619  31.263  1.00  0.00     0.049 A 
ATOM     50  C   UNL A   1      40.769  32.001  35.707  1.00  0.00     0.074 A 
ATOM     51  C   UNL A   1      42.388  27.734  31.285  1.00  0.00     0.029 A 
ATOM     52  N   UNL A   1      41.376  29.338  32.448  1.00  0.00    -0.354 N 
ATOM     53  N   UNL A   1      41.032  31.157  34.739  1.00  0.00    -0.248 NA
ATOM     54  C   UNL A   1      41.685  31.906  36.852  1.00  0.00     0.031 C 
ATOM     55  C   UNL A   1      43.066  27.898  32.498  1.00  0.00     0.029 A 
ATOM     56  C   UNL A   1      42.445  28.907  33.217  1.00  0.00     0.049 A 
ATOM     57  H   UNL A   1      40.746  30.048  32.706  1.00  0.00     0.167 HD
ATOM     58  C   UNL A   1      42.146  30.441  35.148  1.00  0.00     0.074 A 
ATOM     59  C   UNL A   1      42.523  30.961  36.448  1.00  0.00     0.031 C 
ATOM     60  C   UNL A   1      42.800  29.441  34.507  1.00  0.00     0.037 A 
BRANCH  47  61
ATOM     61  C   UNL A   1      40.328  27.885  29.059  1.00  0.00     0.064 A 
ATOM     62  C   UNL A   1      41.035  28.177  27.883  1.00  0.00     0.173 A 
ATOM     63  C   UNL A   1      39.589  26.694  29.102  1.00  0.00     0.173 A 
ATOM     64  F   UNL A   1      41.743  29.313  27.786  1.00  0.00    -0.203 F 
ATOM     65  C   UNL A   1      40.969  27.333  26.778  1.00  0.00     0.198 A 
ATOM     66  C   UNL A   1      39.550  25.836  28.006  1.00  0.00     0.198 A 
ATOM     67  F   UNL A   1      38.896  26.366  30.203  1.00  0.00    -0.203 F 
ATOM     68  F   UNL A   1      41.599  27.667  25.644  1.00  0.00    -0.200 F 
ATOM     69  C   UNL A   1      40.230  26.161  26.842  1.00  0.00     0.200 A 
ATOM     70  F   UNL A   1      38.840  24.701  28.070  1.00  0.00    -0.200 F 
ATOM     71  F   UNL A   1      40.162  25.353  25.776  1.00  0.00    -0.200 F 
ENDBRANCH  47  61
BRANCH  48  72
ATOM     72  C   UNL A   1      39.516  33.881  36.999  1.00  0.00     0.064 A 
ATOM     73  C   UNL A   1      40.086  35.160  37.052  1.00  0.00     0.173 A 
ATOM     74  C   UNL A   1      38.762  33.451  38.099  1.00  0.00     0.173 A 
ATOM     75  F   UNL A   1      40.828  35.605  36.029  1.00  0.00    -0.203 F 
ATOM     76  C   UNL A   1      39.917  35.976  38.169  1.00  0.00     0.198 A 
ATOM     77  C   UNL A   1      38.577  34.276  39.208  1.00  0.00     0.198 A 
ATOM     78  F   UNL A   1      38.190  32.239  38.090  1.00  0.00    -0.203 F 
ATOM     79  F   UNL A   1      40.494  37.185  38.206  1.00  0.00    -0.200 F 
ATOM     80  C   UNL A   1      39.157  35.536  39.243  1.00  0.00     0.200 A 
ATOM     81  F   UNL A   1      37.833  33.854  40.238  1.00  0.00    -0.200 F 
ATOM     82  F   UNL A   1      38.986  36.325  40.312  1.00  0.00    -0.200 F 
ENDBRANCH  48  72
BRANCH  60  83
ATOM     83  C   UNL A   1      43.993  28.853  35.195  1.00  0.00     0.064 A 
ATOM     84  C   UNL A   1      43.867  27.766  36.071  1.00  0.00     0.173 A 
ATOM     85  C   UNL A   1      45.278  29.349  34.936  1.00  0.00     0.173 A 
ATOM     86  F   UNL A   1      42.654  27.269  36.360  1.00  0.00    -0.203 F 
ATOM     87  C   UNL A   1      44.987  27.206  36.677  1.00  0.00     0.198 A 
ATOM     88  C   UNL A   1      46.398  28.771  35.526  1.00  0.00     0.198 A 
ATOM     89  F   UNL A   1      45.449  30.384  34.101  1.00  0.00    -0.203 F 
ATOM     90  F   UNL A   1      44.843  26.188  37.538  1.00  0.00    -0.200 F 
ATOM     91  C   UNL A   1      46.252  27.704  36.399  1.00  0.00     0.200 A 
ATOM     92  F   UNL A   1      47.621  29.247  35.250  1.00  0.00    -0.200 F 
ATOM     93  F   UNL A   1      47.330  27.157  36.977  1.00  0.00    -0.200 F 
ENDBRANCH  60  83
ENDBRANCH  34  35
ENDBRANCH  26  29
ENDBRANCH  24  25
ENDBRANCH  23  24
ENDBRANCH   1  23
TORSDOF 14
ENDMDL
MODEL 3
REMARK VINA RESULT:     -12.5      2.122      7.888
REMARK SMILES CC(=O)N1CCC[C@@H](Cc2nccnc2C(=O)NCCCCNC(=O)c2ccc(-c3c4nc(c(-c5c(F)c(F)c(F)c(F)c5F)c5ccc([nH]5)c(-c5c(F)c(F)c(F)c(F)c5F)c5nc(c(-c6c(F)c(F)c(F)c(F)c6F)c6ccc3[nH]6)C=C5)C=C4)cc2)C1
REMARK SMILES IDX 20 1 19 2 18 3 16 4 17 5 15 7 10 8 11 9 12 10 14 11 13 12
REMARK SMILES IDX 9 13 8 14 4 15 5 16 89 17 6 18 7 19 2 20 1 21 3 22 21 23
REMARK SMILES IDX 22 24 23 25 24 26 25 28 26 29 27 30 88 31 28 32 87 33 29 34
REMARK SMILES IDX 30 35 31 36 81 37 32 38 86 39 80 40 82 41 33 42 85 43 79 44
REMARK SMILES IDX 78 45 34 47 66 48 46 49 65 50 47 51 50 52 64 53 83 54 48 55
REMARK SMILES IDX 49 56 63 58 84 59 51 60 35 61 36 62 44 63 37 64 38 65 42 66
REMARK SMILES IDX 45 67 39 68 40 69 43 70 41 71 67 72 68 73 76 74 69 75 70 76
REMARK SMILES IDX 74 77 77 78 71 79 72 80 75 81 73 82 52 83 53 84 61 85 54 86
REMARK SMILES IDX 55 87 59 88 62 89 56 90 57 91 60 92 58 93
REMARK H PARENT 18 6 23 27 82 46 50 57
REMARK Flexibility Score: inf
ROOT
ATOM      1  C   UNL A   1      32.018  27.976  27.424  1.00  0.00     0.023 C 
ENDROOT
BRANCH   1   2
ATOM      2  C   UNL A   1      32.327  26.783  26.500  1.00  0.00     0.116 C 
BRANCH   2   3
ATOM      3  N   UNL A   1      31.601  25.617  26.966  1.00  0.00    -0.351 N 
ATOM      4  C   UNL A   1      31.329  24.352  26.502  1.00  0.00     0.271 C 
ATOM      5  O   UNL A   1      30.529  23.733  27.218  1.00  0.00    -0.267 OA
ATOM      6  H   UNL A   1      31.194  25.773  27.850  1.00  0.00     0.163 HD
BRANCH   4   7
ATOM      7  C   UNL A   1      31.904  23.614  25.310  1.00  0.00     0.149 A 
ATOM      8  C   UNL A   1      31.516  23.626  23.960  1.00  0.00     0.072 A 
ATOM      9  N   UNL A   1      32.039  22.744  23.050  1.00  0.00    -0.257 NA
ATOM     10  C   UNL A   1      32.926  21.840  23.511  1.00  0.00     0.131 A 
ATOM     11  N   UNL A   1      32.837  22.698  25.729  1.00  0.00    -0.248 NA
ATOM     12  C   UNL A   1      33.322  21.823  24.826  1.00  0.00     0.132 A 
BRANCH   8  13
ATOM     13  C   UNL A   1      30.586  24.596  23.322  1.00  0.00     0.064 C 
BRANCH  13  14
ATOM     14  C   UNL A   1      31.058  26.000  22.947  1.00  0.00     0.015 C 
ATOM     15  N   UNL A   1      30.832  28.405  23.222  1.00  0.00    -0.343 N 
ATOM     16  C   UNL A   1      32.273  28.638  23.137  1.00  0.00     0.119 C 
ATOM     17  C   UNL A   1      30.450  27.112  23.803  1.00  0.00     0.123 C 
ATOM     18  C   UNL A   1      32.962  27.524  22.348  1.00  0.00     0.022 C 
ATOM     19  C   UNL A   1      32.587  26.143  22.892  1.00  0.00     0.007 C 
BRANCH  15  20
ATOM     20  C   UNL A   1      29.957  29.334  22.681  1.00  0.00     0.219 C 
ATOM     21  C   UNL A   1      29.533  30.482  23.561  1.00  0.00     0.114 C 
ATOM     22  O   UNL A   1      29.522  29.250  21.531  1.00  0.00    -0.275 OA
ENDBRANCH  15  20
ENDBRANCH  13  14
ENDBRANCH   8  13
ENDBRANCH   4   7
ENDBRANCH   2   3
ENDBRANCH   1   2
BRANCH   1  23
ATOM     23  C   UNL A   1      31.622  29.273  26.736  1.00  0.00     0.023 C 
BRANCH  23  24
ATOM     24  C   UNL A   1      32.801  30.159  26.379  1.00  0.00     0.116 C 
BRANCH  24  25
ATOM     25  N   UNL A   1      32.666  31.541  26.828  1.00  0.00    -0.352 N 
ATOM     26  C   UNL A   1      33.563  32.292  27.552  1.00  0.00     0.251 C 
ATOM     27  H   UNL A   1      31.827  31.994  26.581  1.00  0.00     0.163 HD
ATOM     28  O   UNL A   1      33.292  33.436  27.898  1.00  0.00    -0.269 OA
BRANCH  26  29
ATOM     29  C   UNL A   1      34.835  31.668  27.958  1.00  0.00     0.039 A 
ATOM     30  C   UNL A   1      35.969  32.471  28.089  1.00  0.00     0.014 A 
ATOM     31  C   UNL A   1      34.866  30.321  28.326  1.00  0.00     0.014 A 
ATOM     32  C   UNL A   1      37.113  31.944  28.686  1.00  0.00     0.010 A 
ATOM     33  C   UNL A   1      35.966  29.832  29.012  1.00  0.00     0.010 A 
ATOM     34  C   UNL A   1      37.100  30.637  29.199  1.00  0.00    -0.014 A 
BRANCH  34  35
ATOM     35  C   UNL A   1      38.256  30.081  29.940  1.00  0.00     0.031 A 
ATOM     36  C   UNL A   1      38.502  30.509  31.358  1.00  0.00     0.074 A 
ATOM     37  C   UNL A   1      39.139  29.289  29.304  1.00  0.00     0.049 A 
ATOM     38  N   UNL A   1      39.515  30.238  32.141  1.00  0.00    -0.248 NA
ATOM     39  C   UNL A   1      37.503  31.406  31.958  1.00  0.00     0.031 C 
ATOM     40  C   UNL A   1      39.059  28.884  27.900  1.00  0.00     0.029 A 
ATOM     41  N   UNL A   1      40.294  28.702  29.754  1.00  0.00    -0.354 N 
ATOM     42  C   UNL A   1      39.296  30.968  33.301  1.00  0.00     0.074 A 
ATOM     43  C   UNL A   1      38.083  31.731  33.102  1.00  0.00     0.031 C 
ATOM     44  C   UNL A   1      40.107  28.096  27.609  1.00  0.00     0.029 A 
ATOM     45  C   UNL A   1      40.944  27.962  28.797  1.00  0.00     0.049 A 
ATOM     46  H   UNL A   1      40.626  28.802  30.675  1.00  0.00     0.167 HD
ATOM     47  C   UNL A   1      40.026  30.979  34.440  1.00  0.00     0.037 A 
ATOM     48  C   UNL A   1      42.086  27.253  28.875  1.00  0.00     0.037 A 
ATOM     49  C   UNL A   1      41.188  30.162  34.657  1.00  0.00     0.049 A 
ATOM     50  C   UNL A   1      42.823  27.196  30.181  1.00  0.00     0.074 A 
ATOM     51  C   UNL A   1      41.930  30.003  35.813  1.00  0.00     0.029 A 
ATOM     52  N   UNL A   1      41.769  29.354  33.691  1.00  0.00    -0.354 N 
ATOM     53  N   UNL A   1      42.558  27.815  31.307  1.00  0.00    -0.248 NA
ATOM     54  C   UNL A   1      44.012  26.333  30.236  1.00  0.00     0.031 C 
ATOM     55  C   UNL A   1      42.978  29.117  35.538  1.00  0.00     0.029 A 
ATOM     56  C   UNL A   1      42.870  28.702  34.221  1.00  0.00     0.049 A 
ATOM     57  H   UNL A   1      41.448  29.259  32.765  1.00  0.00     0.167 HD
ATOM     58  C   UNL A   1      43.533  27.409  32.205  1.00  0.00     0.074 A 
ATOM     59  C   UNL A   1      44.389  26.476  31.499  1.00  0.00     0.031 C 
ATOM     60  C   UNL A   1      43.706  27.777  33.498  1.00  0.00     0.037 A 
BRANCH  47  61
ATOM     61  C   UNL A   1      39.574  31.898  35.535  1.00  0.00     0.064 A 
ATOM     62  C   UNL A   1      38.621  31.500  36.486  1.00  0.00     0.173 A 
ATOM     63  C   UNL A   1      40.089  33.199  35.627  1.00  0.00     0.173 A 
ATOM     64  F   UNL A   1      38.085  30.271  36.429  1.00  0.00    -0.203 F 
ATOM     65  C   UNL A   1      38.170  32.384  37.462  1.00  0.00     0.198 A 
ATOM     66  C   UNL A   1      39.658  34.071  36.625  1.00  0.00     0.198 A 
ATOM     67  F   UNL A   1      41.003  33.630  34.745  1.00  0.00    -0.203 F 
ATOM     68  F   UNL A   1      37.211  32.002  38.316  1.00  0.00    -0.200 F 
ATOM     69  C   UNL A   1      38.691  33.667  37.533  1.00  0.00     0.200 A 
ATOM     70  F   UNL A   1      40.167  35.308  36.696  1.00  0.00    -0.200 F 
ATOM     71  F   UNL A   1      38.251  34.518  38.469  1.00  0.00    -0.200 F 
ENDBRANCH  47  61
BRANCH  48  72
ATOM     72  C   UNL A   1      42.562  26.501  27.687  1.00  0.00     0.064 A 
ATOM     73  C   UNL A   1      43.488  27.074  26.803  1.00  0.00     0.173 A 
ATOM     74  C   UNL A   1      42.135  25.191  27.432  1.00  0.00     0.173 A 
ATOM     75  F   UNL A   1      43.911  28.331  27.001  1.00  0.00    -0.203 F 
ATOM     76  C   UNL A   1      43.960  26.367  25.700  1.00  0.00     0.198 A 
ATOM     77  C   UNL A   1      42.624  24.478  26.339  1.00  0.00     0.198 A 
ATOM     78  F   UNL A   1      41.258  24.598  28.254  1.00  0.00    -0.203 F 
ATOM     79  F   UNL A   1      44.825  26.947  24.856  1.00  0.00    -0.200 F 
ATOM     80  C   UNL A   1      43.534  25.067  25.472  1.00  0.00     0.200 A 
ATOM     81  F   UNL A   1      42.220  23.218  26.128  1.00  0.00    -0.200 F 
ATOM     82  F   UNL A   1      43.996  24.384  24.417  1.00  0.00    -0.200 F 
ENDBRANCH  48  72
BRANCH  60  83
ATOM     83  C   UNL A   1      44.855  27.162  34.236  1.00  0.00     0.064 A 
ATOM     84  C   UNL A   1      46.106  27.793  34.294  1.00  0.00     0.173 A 
ATOM     85  C   UNL A   1      44.689  25.956  34.932  1.00  0.00     0.173 A 
ATOM     86  F   UNL A   1      46.314  28.940  33.629  1.00  0.00    -0.203 F 
ATOM     87  C   UNL A   1      47.156  27.229  35.011  1.00  0.00     0.198 A 
ATOM     88  C   UNL A   1      45.735  25.407  35.667  1.00  0.00     0.198 A 
ATOM     89  F   UNL A   1      43.509  25.319  34.910  1.00  0.00    -0.203 F 
ATOM     90  F   UNL A   1      48.353  27.831  35.028  1.00  0.00    -0.200 F 
ATOM     91  C   UNL A   1      46.968  26.041  35.703  1.00  0.00     0.200 A 
ATOM     92  F   UNL A   1      45.551  24.265  36.343  1.00  0.00    -0.200 F 
ATOM     93  F   UNL A   1      47.978  25.504  36.401  1.00  0.00    -0.200 F 
ENDBRANCH  60  83
ENDBRANCH  34  35
ENDBRANCH  26  29
ENDBRANCH  24  25
ENDBRANCH  23  24
ENDBRANCH   1  23
TORSDOF 14
ENDMDL
