MODEL 1
REMARK VINA RESULT:     -12.2      0.000      0.000
REMARK SMILES COc1ccc(-c2sc(C(=O)NCCCCNC(=O)c3ccc(-c4c5nc(c(-c6c(F)c(F)c(F)c(F)c6F)c6ccc([nH]6)c(-c6c(F)c(F)c(F)c(F)c6F)c6nc(c(-c7c(F)c(F)c(F)c(F)c7F)c7ccc4[nH]7)C=C6)C=C5)cc3)cc2C)c(OC)c1
REMARK SMILES IDX 14 1 13 2 12 3 10 4 11 5 9 7 7 8 8 9 84 10 83 11 85 12 6 13
REMARK SMILES IDX 3 14 4 15 89 16 5 17 86 18 2 19 1 20 87 21 88 22 15 23 16 24
REMARK SMILES IDX 17 25 18 26 19 28 20 29 21 30 82 31 22 32 81 33 23 34 24 35
REMARK SMILES IDX 25 36 75 37 26 38 80 39 74 40 76 41 27 42 79 43 73 44 72 45
REMARK SMILES IDX 28 47 60 48 40 49 59 50 41 51 44 52 58 53 77 54 42 55 43 56
REMARK SMILES IDX 57 58 78 59 45 60 29 61 30 62 38 63 31 64 32 65 36 66 39 67
REMARK SMILES IDX 33 68 34 69 37 70 35 71 61 72 62 73 70 74 63 75 64 76 68 77
REMARK SMILES IDX 71 78 65 79 66 80 69 81 67 82 46 83 47 84 55 85 48 86 49 87
REMARK SMILES IDX 53 88 56 89 50 90 51 91 54 92 52 93
REMARK H PARENT 12 6 17 27 76 46 44 57
REMARK Flexibility Score: inf
ROOT
ATOM      1  C   UNL A   1      31.808  30.457  26.772  1.00  0.00     0.023 C 
ENDROOT
BRANCH   1   2
ATOM      2  C   UNL A   1      32.384  29.916  25.463  1.00  0.00     0.116 C 
BRANCH   2   3
ATOM      3  N   UNL A   1      31.334  29.440  24.585  1.00  0.00    -0.351 N 
ATOM      4  C   UNL A   1      30.934  28.186  24.185  1.00  0.00     0.261 C 
ATOM      5  O   UNL A   1      29.944  28.184  23.444  1.00  0.00    -0.268 OA
ATOM      6  H   UNL A   1      30.793  30.164  24.194  1.00  0.00     0.163 HD
BRANCH   4   7
ATOM      7  C   UNL A   1      31.566  26.940  24.603  1.00  0.00     0.093 A 
ATOM      8  C   UNL A   1      33.009  24.960  25.032  1.00  0.00     0.042 A 
ATOM      9  S   UNL A   1      32.948  26.241  23.902  1.00  0.00    -0.130 S 
ATOM     10  C   UNL A   1      31.896  24.952  25.852  1.00  0.00    -0.031 A 
ATOM     11  C   UNL A   1      31.075  26.102  25.595  1.00  0.00     0.029 A 
ATOM     12  C   UNL A   1      31.559  23.917  26.874  1.00  0.00     0.046 C 
BRANCH   8  13
ATOM     13  C   UNL A   1      34.154  24.046  24.962  1.00  0.00     0.034 A 
ATOM     14  C   UNL A   1      36.433  22.419  24.752  1.00  0.00     0.122 A 
ATOM     15  C   UNL A   1      36.496  23.622  25.451  1.00  0.00     0.047 A 
ATOM     16  C   UNL A   1      35.220  22.004  24.191  1.00  0.00     0.093 A 
ATOM     17  C   UNL A   1      35.368  24.435  25.551  1.00  0.00     0.017 A 
ATOM     18  C   UNL A   1      34.075  22.807  24.296  1.00  0.00     0.131 A 
BRANCH  14  19
ATOM     19  O   UNL A   1      37.609  21.721  24.706  1.00  0.00    -0.497 OA
ATOM     20  C   UNL A   1      38.537  21.985  25.753  1.00  0.00     0.278 C 
ENDBRANCH  14  19
BRANCH  18  21
ATOM     21  O   UNL A   1      32.849  22.484  23.771  1.00  0.00    -0.496 OA
ATOM     22  C   UNL A   1      32.193  21.332  24.278  1.00  0.00     0.278 C 
ENDBRANCH  18  21
ENDBRANCH   8  13
ENDBRANCH   4   7
ENDBRANCH   2   3
ENDBRANCH   1   2
BRANCH   1  23
ATOM     23  C   UNL A   1      31.595  31.976  26.779  1.00  0.00     0.023 C 
BRANCH  23  24
ATOM     24  C   UNL A   1      32.783  32.799  27.272  1.00  0.00     0.116 C 
BRANCH  24  25
ATOM     25  N   UNL A   1      32.435  34.167  27.626  1.00  0.00    -0.352 N 
ATOM     26  C   UNL A   1      33.008  34.975  28.578  1.00  0.00     0.251 C 
ATOM     27  H   UNL A   1      31.692  34.564  27.117  1.00  0.00     0.163 HD
ATOM     28  O   UNL A   1      32.534  36.080  28.825  1.00  0.00    -0.269 OA
BRANCH  26  29
ATOM     29  C   UNL A   1      34.178  34.486  29.334  1.00  0.00     0.039 A 
ATOM     30  C   UNL A   1      33.973  33.915  30.591  1.00  0.00     0.014 A 
ATOM     31  C   UNL A   1      35.463  34.561  28.790  1.00  0.00     0.014 A 
ATOM     32  C   UNL A   1      35.052  33.351  31.276  1.00  0.00     0.010 A 
ATOM     33  C   UNL A   1      36.523  33.940  29.442  1.00  0.00     0.010 A 
ATOM     34  C   UNL A   1      36.327  33.327  30.689  1.00  0.00    -0.014 A 
BRANCH  34  35
ATOM     35  C   UNL A   1      37.469  32.658  31.360  1.00  0.00     0.031 A 
ATOM     36  C   UNL A   1      38.166  31.507  30.694  1.00  0.00     0.074 A 
ATOM     37  C   UNL A   1      37.830  33.044  32.599  1.00  0.00     0.049 A 
ATOM     38  N   UNL A   1      39.129  30.746  31.148  1.00  0.00    -0.248 NA
ATOM     39  C   UNL A   1      37.699  31.143  29.347  1.00  0.00     0.031 C 
ATOM     40  C   UNL A   1      37.199  34.116  33.370  1.00  0.00     0.029 A 
ATOM     41  N   UNL A   1      38.813  32.570  33.434  1.00  0.00    -0.354 N 
ATOM     42  C   UNL A   1      39.373  29.810  30.152  1.00  0.00     0.074 A 
ATOM     43  C   UNL A   1      38.421  30.063  29.091  1.00  0.00     0.031 C 
ATOM     44  C   UNL A   1      37.822  34.233  34.554  1.00  0.00     0.029 A 
ATOM     45  C   UNL A   1      38.872  33.222  34.640  1.00  0.00     0.049 A 
ATOM     46  H   UNL A   1      39.417  31.831  33.190  1.00  0.00     0.167 HD
ATOM     47  C   UNL A   1      40.320  28.843  30.115  1.00  0.00     0.037 A 
ATOM     48  C   UNL A   1      39.680  33.023  35.699  1.00  0.00     0.037 A 
ATOM     49  C   UNL A   1      41.282  28.612  31.160  1.00  0.00     0.049 A 
ATOM     50  C   UNL A   1      40.725  31.943  35.630  1.00  0.00     0.074 A 
ATOM     51  C   UNL A   1      42.314  27.690  31.197  1.00  0.00     0.029 A 
ATOM     52  N   UNL A   1      41.329  29.313  32.357  1.00  0.00    -0.354 N 
ATOM     53  N   UNL A   1      40.988  31.106  34.656  1.00  0.00    -0.248 NA
ATOM     54  C   UNL A   1      41.593  31.785  36.807  1.00  0.00     0.031 C 
ATOM     55  C   UNL A   1      42.962  27.808  32.430  1.00  0.00     0.029 A 
ATOM     56  C   UNL A   1      42.365  28.834  33.143  1.00  0.00     0.049 A 
ATOM     57  H   UNL A   1      40.718  30.041  32.610  1.00  0.00     0.167 HD
ATOM     58  C   UNL A   1      42.068  30.347  35.087  1.00  0.00     0.074 A 
ATOM     59  C   UNL A   1      42.420  30.831  36.406  1.00  0.00     0.031 C 
ATOM     60  C   UNL A   1      42.712  29.341  34.446  1.00  0.00     0.037 A 
BRANCH  47  61
ATOM     61  C   UNL A   1      40.369  27.967  28.898  1.00  0.00     0.064 A 
ATOM     62  C   UNL A   1      39.632  26.774  28.824  1.00  0.00     0.173 A 
ATOM     63  C   UNL A   1      41.129  28.338  27.779  1.00  0.00     0.173 A 
ATOM     64  F   UNL A   1      38.899  26.367  29.871  1.00  0.00    -0.203 F 
ATOM     65  C   UNL A   1      39.679  25.973  27.686  1.00  0.00     0.198 A 
ATOM     66  C   UNL A   1      41.148  27.550  26.631  1.00  0.00     0.198 A 
ATOM     67  F   UNL A   1      41.847  29.471  27.795  1.00  0.00    -0.203 F 
ATOM     68  F   UNL A   1      39.004  24.814  27.657  1.00  0.00    -0.200 F 
ATOM     69  C   UNL A   1      40.430  26.365  26.589  1.00  0.00     0.200 A 
ATOM     70  F   UNL A   1      41.865  27.936  25.567  1.00  0.00    -0.200 F 
ATOM     71  F   UNL A   1      40.467  25.597  25.491  1.00  0.00    -0.200 F 
ENDBRANCH  47  61
BRANCH  48  72
ATOM     72  C   UNL A   1      39.558  33.886  36.903  1.00  0.00     0.064 A 
ATOM     73  C   UNL A   1      38.783  33.482  38.000  1.00  0.00     0.173 A 
ATOM     74  C   UNL A   1      40.197  35.131  36.979  1.00  0.00     0.173 A 
ATOM     75  F   UNL A   1      38.136  32.308  37.965  1.00  0.00    -0.203 F 
ATOM     76  C   UNL A   1      38.633  34.301  39.116  1.00  0.00     0.198 A 
ATOM     77  C   UNL A   1      40.068  35.938  38.108  1.00  0.00     0.198 A 
ATOM     78  F   UNL A   1      40.954  35.562  35.958  1.00  0.00    -0.203 F 
ATOM     79  F   UNL A   1      37.847  33.911  40.129  1.00  0.00    -0.200 F 
ATOM     80  C   UNL A   1      39.280  35.526  39.172  1.00  0.00     0.200 A 
ATOM     81  F   UNL A   1      40.705  37.116  38.164  1.00  0.00    -0.200 F 
ATOM     82  F   UNL A   1      39.135  36.314  40.246  1.00  0.00    -0.200 F 
ENDBRANCH  48  72
BRANCH  60  83
ATOM     83  C   UNL A   1      43.892  28.728  35.140  1.00  0.00     0.064 A 
ATOM     84  C   UNL A   1      43.756  27.618  35.987  1.00  0.00     0.173 A 
ATOM     85  C   UNL A   1      45.183  29.233  34.919  1.00  0.00     0.173 A 
ATOM     86  F   UNL A   1      42.542  27.108  36.240  1.00  0.00    -0.203 F 
ATOM     87  C   UNL A   1      44.867  27.052  36.607  1.00  0.00     0.198 A 
ATOM     88  C   UNL A   1      46.294  28.648  35.518  1.00  0.00     0.198 A 
ATOM     89  F   UNL A   1      45.367  30.289  34.113  1.00  0.00    -0.203 F 
ATOM     90  F   UNL A   1      44.708  26.020  37.448  1.00  0.00    -0.200 F 
ATOM     91  C   UNL A   1      46.134  27.562  36.367  1.00  0.00     0.200 A 
ATOM     92  F   UNL A   1      47.519  29.132  35.275  1.00  0.00    -0.200 F 
ATOM     93  F   UNL A   1      47.203  27.011  36.959  1.00  0.00    -0.200 F 
ENDBRANCH  60  83
ENDBRANCH  34  35
ENDBRANCH  26  29
ENDBRANCH  24  25
ENDBRANCH  23  24
ENDBRANCH   1  23
TORSDOF 14
ENDMDL
MODEL 2
REMARK VINA RESULT:     -12.2      0.564      7.501
REMARK SMILES COc1ccc(-c2sc(C(=O)NCCCCNC(=O)c3ccc(-c4c5nc(c(-c6c(F)c(F)c(F)c(F)c6F)c6ccc([nH]6)c(-c6c(F)c(F)c(F)c(F)c6F)c6nc(c(-c7c(F)c(F)c(F)c(F)c7F)c7ccc4[nH]7)C=C6)C=C5)cc3)cc2C)c(OC)c1
REMARK SMILES IDX 14 1 13 2 12 3 10 4 11 5 9 7 7 8 8 9 84 10 83 11 85 12 6 13
REMARK SMILES IDX 3 14 4 15 89 16 5 17 86 18 2 19 1 20 87 21 88 22 15 23 16 24
REMARK SMILES IDX 17 25 18 26 19 28 20 29 21 30 82 31 22 32 81 33 23 34 24 35
REMARK SMILES IDX 25 36 75 37 26 38 80 39 74 40 76 41 27 42 79 43 73 44 72 45
REMARK SMILES IDX 28 47 60 48 40 49 59 50 41 51 44 52 58 53 77 54 42 55 43 56
REMARK SMILES IDX 57 58 78 59 45 60 29 61 30 62 38 63 31 64 32 65 36 66 39 67
REMARK SMILES IDX 33 68 34 69 37 70 35 71 61 72 62 73 70 74 63 75 64 76 68 77
REMARK SMILES IDX 71 78 65 79 66 80 69 81 67 82 46 83 47 84 55 85 48 86 49 87
REMARK SMILES IDX 53 88 56 89 50 90 51 91 54 92 52 93
REMARK H PARENT 12 6 17 27 76 46 44 57
REMARK Flexibility Score: inf
ROOT
ATOM      1  C   UNL A   1      31.747  30.499  26.828  1.00  0.00     0.023 C 
ENDROOT
BRANCH   1   2
ATOM      2  C   UNL A   1      32.705  30.058  25.722  1.00  0.00     0.116 C 
BRANCH   2   3
ATOM      3  N   UNL A   1      31.984  29.671  24.525  1.00  0.00    -0.351 N 
ATOM      4  C   UNL A   1      31.766  28.463  23.904  1.00  0.00     0.261 C 
ATOM      5  O   UNL A   1      31.044  28.535  22.902  1.00  0.00    -0.268 OA
ATOM      6  H   UNL A   1      31.561  30.430  24.062  1.00  0.00     0.163 HD
BRANCH   4   7
ATOM      7  C   UNL A   1      32.285  27.183  24.370  1.00  0.00     0.093 A 
ATOM      8  C   UNL A   1      33.552  25.106  24.886  1.00  0.00     0.042 A 
ATOM      9  S   UNL A   1      33.619  26.354  23.719  1.00  0.00    -0.130 S 
ATOM     10  C   UNL A   1      32.426  25.212  25.681  1.00  0.00    -0.031 A 
ATOM     11  C   UNL A   1      31.708  26.418  25.374  1.00  0.00     0.029 A 
ATOM     12  C   UNL A   1      31.986  24.239  26.724  1.00  0.00     0.046 C 
BRANCH   8  13
ATOM     13  C   UNL A   1      34.620  24.100  24.866  1.00  0.00     0.034 A 
ATOM     14  C   UNL A   1      36.767  22.292  24.767  1.00  0.00     0.122 A 
ATOM     15  C   UNL A   1      36.866  23.454  25.530  1.00  0.00     0.047 A 
ATOM     16  C   UNL A   1      35.578  22.009  24.085  1.00  0.00     0.093 A 
ATOM     17  C   UNL A   1      35.805  24.356  25.575  1.00  0.00     0.017 A 
ATOM     18  C   UNL A   1      34.499  22.903  24.133  1.00  0.00     0.131 A 
BRANCH  14  19
ATOM     19  O   UNL A   1      37.880  21.498  24.786  1.00  0.00    -0.497 OA
ATOM     20  C   UNL A   1      38.765  21.683  25.885  1.00  0.00     0.278 C 
ENDBRANCH  14  19
BRANCH  18  21
ATOM     21  O   UNL A   1      33.302  22.710  23.490  1.00  0.00    -0.496 OA
ATOM     22  C   UNL A   1      32.428  21.713  23.998  1.00  0.00     0.278 C 
ENDBRANCH  18  21
ENDBRANCH   8  13
ENDBRANCH   4   7
ENDBRANCH   2   3
ENDBRANCH   1   2
BRANCH   1  23
ATOM     23  C   UNL A   1      31.516  32.014  26.884  1.00  0.00     0.023 C 
BRANCH  23  24
ATOM     24  C   UNL A   1      32.758  32.853  27.175  1.00  0.00     0.116 C 
BRANCH  24  25
ATOM     25  N   UNL A   1      32.455  34.205  27.621  1.00  0.00    -0.352 N 
ATOM     26  C   UNL A   1      33.055  34.929  28.623  1.00  0.00     0.251 C 
ATOM     27  H   UNL A   1      31.725  34.659  27.142  1.00  0.00     0.163 HD
ATOM     28  O   UNL A   1      32.618  36.029  28.945  1.00  0.00    -0.269 OA
BRANCH  26  29
ATOM     29  C   UNL A   1      34.210  34.353  29.341  1.00  0.00     0.039 A 
ATOM     30  C   UNL A   1      33.972  33.540  30.451  1.00  0.00     0.014 A 
ATOM     31  C   UNL A   1      35.514  34.586  28.899  1.00  0.00     0.014 A 
ATOM     32  C   UNL A   1      35.043  32.901  31.079  1.00  0.00     0.010 A 
ATOM     33  C   UNL A   1      36.572  33.896  29.484  1.00  0.00     0.010 A 
ATOM     34  C   UNL A   1      36.346  33.045  30.576  1.00  0.00    -0.014 A 
BRANCH  34  35
ATOM     35  C   UNL A   1      37.486  32.308  31.175  1.00  0.00     0.031 A 
ATOM     36  C   UNL A   1      37.992  32.682  32.538  1.00  0.00     0.074 A 
ATOM     37  C   UNL A   1      38.107  31.349  30.460  1.00  0.00     0.049 A 
ATOM     38  N   UNL A   1      39.019  32.211  33.199  1.00  0.00    -0.248 NA
ATOM     39  C   UNL A   1      37.263  33.748  33.243  1.00  0.00     0.031 C 
ATOM     40  C   UNL A   1      37.739  30.929  29.108  1.00  0.00     0.029 A 
ATOM     41  N   UNL A   1      39.187  30.560  30.771  1.00  0.00    -0.354 N 
ATOM     42  C   UNL A   1      39.067  32.930  34.386  1.00  0.00     0.074 A 
ATOM     43  C   UNL A   1      37.999  33.906  34.333  1.00  0.00     0.031 C 
ATOM     44  C   UNL A   1      38.564  29.947  28.712  1.00  0.00     0.029 A 
ATOM     45  C   UNL A   1      39.540  29.691  29.768  1.00  0.00     0.049 A 
ATOM     46  H   UNL A   1      39.664  30.613  31.631  1.00  0.00     0.167 HD
ATOM     47  C   UNL A   1      39.909  32.775  35.434  1.00  0.00     0.037 A 
ATOM     48  C   UNL A   1      40.542  28.793  29.706  1.00  0.00     0.037 A 
ATOM     49  C   UNL A   1      40.953  31.786  35.494  1.00  0.00     0.049 A 
ATOM     50  C   UNL A   1      41.462  28.640  30.887  1.00  0.00     0.074 A 
ATOM     51  C   UNL A   1      41.828  31.514  36.531  1.00  0.00     0.029 A 
ATOM     52  N   UNL A   1      41.262  30.903  34.469  1.00  0.00    -0.354 N 
ATOM     53  N   UNL A   1      41.457  29.282  32.029  1.00  0.00    -0.248 NA
ATOM     54  C   UNL A   1      42.524  27.629  30.771  1.00  0.00     0.031 C 
ATOM     55  C   UNL A   1      42.690  30.492  36.121  1.00  0.00     0.029 A 
ATOM     56  C   UNL A   1      42.323  30.095  34.846  1.00  0.00     0.049 A 
ATOM     57  H   UNL A   1      40.797  30.858  33.603  1.00  0.00     0.167 HD
ATOM     58  C   UNL A   1      42.488  28.732  32.780  1.00  0.00     0.074 A 
ATOM     59  C   UNL A   1      43.091  27.696  31.966  1.00  0.00     0.031 C 
ATOM     60  C   UNL A   1      42.897  29.056  34.030  1.00  0.00     0.037 A 
BRANCH  47  61
ATOM     61  C   UNL A   1      39.730  33.691  36.609  1.00  0.00     0.064 A 
ATOM     62  C   UNL A   1      40.372  34.937  36.671  1.00  0.00     0.173 A 
ATOM     63  C   UNL A   1      38.880  33.338  37.667  1.00  0.00     0.173 A 
ATOM     64  F   UNL A   1      41.206  35.318  35.691  1.00  0.00    -0.203 F 
ATOM     65  C   UNL A   1      40.192  35.783  37.763  1.00  0.00     0.198 A 
ATOM     66  C   UNL A   1      38.678  34.200  38.743  1.00  0.00     0.198 A 
ATOM     67  F   UNL A   1      38.237  32.161  37.656  1.00  0.00    -0.203 F 
ATOM     68  F   UNL A   1      40.854  36.948  37.821  1.00  0.00    -0.200 F 
ATOM     69  C   UNL A   1      39.340  35.417  38.792  1.00  0.00     0.200 A 
ATOM     70  F   UNL A   1      37.845  33.850  39.732  1.00  0.00    -0.200 F 
ATOM     71  F   UNL A   1      39.161  36.236  39.839  1.00  0.00    -0.200 F 
ENDBRANCH  47  61
BRANCH  48  72
ATOM     72  C   UNL A   1      40.708  27.944  28.498  1.00  0.00     0.064 A 
ATOM     73  C   UNL A   1      41.483  28.382  27.415  1.00  0.00     0.173 A 
ATOM     74  C   UNL A   1      40.090  26.690  28.394  1.00  0.00     0.173 A 
ATOM     75  F   UNL A   1      42.077  29.584  27.459  1.00  0.00    -0.203 F 
ATOM     76  C   UNL A   1      41.614  27.609  26.263  1.00  0.00     0.198 A 
ATOM     77  C   UNL A   1      40.244  25.905  27.252  1.00  0.00     0.198 A 
ATOM     78  F   UNL A   1      39.342  26.223  29.404  1.00  0.00    -0.203 F 
ATOM     79  F   UNL A   1      42.320  28.074  25.224  1.00  0.00    -0.200 F 
ATOM     80  C   UNL A   1      40.998  26.369  26.185  1.00  0.00     0.200 A 
ATOM     81  F   UNL A   1      39.659  24.702  27.185  1.00  0.00    -0.200 F 
ATOM     82  F   UNL A   1      41.124  25.626  25.077  1.00  0.00    -0.200 F 
ENDBRANCH  48  72
BRANCH  60  83
ATOM     83  C   UNL A   1      44.020  28.252  34.617  1.00  0.00     0.064 A 
ATOM     84  C   UNL A   1      45.356  28.663  34.513  1.00  0.00     0.173 A 
ATOM     85  C   UNL A   1      43.747  27.073  35.329  1.00  0.00     0.173 A 
ATOM     86  F   UNL A   1      45.668  29.774  33.829  1.00  0.00    -0.203 F 
ATOM     87  C   UNL A   1      46.381  27.911  35.080  1.00  0.00     0.198 A 
ATOM     88  C   UNL A   1      44.771  26.339  35.919  1.00  0.00     0.198 A 
ATOM     89  F   UNL A   1      42.484  26.640  35.463  1.00  0.00    -0.203 F 
ATOM     90  F   UNL A   1      47.655  28.299  34.930  1.00  0.00    -0.200 F 
ATOM     91  C   UNL A   1      46.088  26.755  35.788  1.00  0.00     0.200 A 
ATOM     92  F   UNL A   1      44.485  25.230  36.614  1.00  0.00    -0.200 F 
ATOM     93  F   UNL A   1      47.076  26.037  36.340  1.00  0.00    -0.200 F 
ENDBRANCH  60  83
ENDBRANCH  34  35
ENDBRANCH  26  29
ENDBRANCH  24  25
ENDBRANCH  23  24
ENDBRANCH   1  23
TORSDOF 14
ENDMDL
MODEL 3
REMARK VINA RESULT:     -12.1      0.330      1.978
REMARK SMILES COc1ccc(-c2sc(C(=O)NCCCCNC(=O)c3ccc(-c4c5nc(c(-c6c(F)c(F)c(F)c(F)c6F)c6ccc([nH]6)c(-c6c(F)c(F)c(F)c(F)c6F)c6nc(c(-c7c(F)c(F)c(F)c(F)c7F)c7ccc4[nH]7)C=C6)C=C5)cc3)cc2C)c(OC)c1
REMARK SMILES IDX 14 1 13 2 12 3 10 4 11 5 9 7 7 8 8 9 84 10 83 11 85 12 6 13
REMARK SMILES IDX 3 14 4 15 89 16 5 17 86 18 2 19 1 20 87 21 88 22 15 23 16 24
REMARK SMILES IDX 17 25 18 26 19 28 20 29 21 30 82 31 22 32 81 33 23 34 24 35
REMARK SMILES IDX 25 36 75 37 26 38 80 39 74 40 76 41 27 42 79 43 73 44 72 45
REMARK SMILES IDX 28 47 60 48 40 49 59 50 41 51 44 52 58 53 77 54 42 55 43 56
REMARK SMILES IDX 57 58 78 59 45 60 29 61 30 62 38 63 31 64 32 65 36 66 39 67
REMARK SMILES IDX 33 68 34 69 37 70 35 71 61 72 62 73 70 74 63 75 64 76 68 77
REMARK SMILES IDX 71 78 65 79 66 80 69 81 67 82 46 83 47 84 55 85 48 86 49 87
REMARK SMILES IDX 53 88 56 89 50 90 51 91 54 92 52 93
REMARK H PARENT 12 6 17 27 76 46 44 57
REMARK Flexibility Score: inf
ROOT
ATOM      1  C   UNL A   1      31.803  30.550  26.666  1.00  0.00     0.023 C 
ENDROOT
BRANCH   1   2
ATOM      2  C   UNL A   1      32.381  30.028  25.351  1.00  0.00     0.116 C 
BRANCH   2   3
ATOM      3  N   UNL A   1      31.330  29.624  24.439  1.00  0.00    -0.351 N 
ATOM      4  C   UNL A   1      30.897  28.401  23.980  1.00  0.00     0.261 C 
ATOM      5  O   UNL A   1      29.919  28.463  23.226  1.00  0.00    -0.268 OA
ATOM      6  H   UNL A   1      30.819  30.381  24.071  1.00  0.00     0.163 HD
BRANCH   4   7
ATOM      7  C   UNL A   1      31.482  27.119  24.354  1.00  0.00     0.093 A 
ATOM      8  C   UNL A   1      32.889  25.120  24.811  1.00  0.00     0.042 A 
ATOM      9  S   UNL A   1      33.007  26.543  23.872  1.00  0.00    -0.130 S 
ATOM     10  C   UNL A   1      31.633  24.983  25.372  1.00  0.00    -0.031 A 
ATOM     11  C   UNL A   1      30.834  26.146  25.102  1.00  0.00     0.029 A 
ATOM     12  C   UNL A   1      31.137  23.813  26.157  1.00  0.00     0.046 C 
BRANCH   8  13
ATOM     13  C   UNL A   1      34.063  24.241  24.863  1.00  0.00     0.034 A 
ATOM     14  C   UNL A   1      36.404  22.692  24.927  1.00  0.00     0.122 A 
ATOM     15  C   UNL A   1      36.256  23.771  25.796  1.00  0.00     0.047 A 
ATOM     16  C   UNL A   1      35.364  22.357  24.052  1.00  0.00     0.093 A 
ATOM     17  C   UNL A   1      35.098  24.546  25.761  1.00  0.00     0.017 A 
ATOM     18  C   UNL A   1      34.188  23.122  24.018  1.00  0.00     0.131 A 
BRANCH  14  19
ATOM     19  O   UNL A   1      37.591  22.022  25.042  1.00  0.00    -0.497 OA
ATOM     20  C   UNL A   1      37.549  20.621  24.797  1.00  0.00     0.278 C 
ENDBRANCH  14  19
BRANCH  18  21
ATOM     21  O   UNL A   1      33.124  22.871  23.188  1.00  0.00    -0.496 OA
ATOM     22  C   UNL A   1      32.407  21.660  23.375  1.00  0.00     0.278 C 
ENDBRANCH  18  21
ENDBRANCH   8  13
ENDBRANCH   4   7
ENDBRANCH   2   3
ENDBRANCH   1   2
BRANCH   1  23
ATOM     23  C   UNL A   1      31.619  32.072  26.706  1.00  0.00     0.023 C 
BRANCH  23  24
ATOM     24  C   UNL A   1      32.773  32.851  27.332  1.00  0.00     0.116 C 
BRANCH  24  25
ATOM     25  N   UNL A   1      32.427  34.221  27.682  1.00  0.00    -0.352 N 
ATOM     26  C   UNL A   1      33.000  35.032  28.631  1.00  0.00     0.251 C 
ATOM     27  H   UNL A   1      31.686  34.618  27.170  1.00  0.00     0.163 HD
ATOM     28  O   UNL A   1      32.528  36.138  28.875  1.00  0.00    -0.269 OA
BRANCH  26  29
ATOM     29  C   UNL A   1      34.169  34.543  29.391  1.00  0.00     0.039 A 
ATOM     30  C   UNL A   1      33.958  33.941  30.633  1.00  0.00     0.014 A 
ATOM     31  C   UNL A   1      35.458  34.649  28.864  1.00  0.00     0.014 A 
ATOM     32  C   UNL A   1      35.036  33.378  31.317  1.00  0.00     0.010 A 
ATOM     33  C   UNL A   1      36.520  34.030  29.515  1.00  0.00     0.010 A 
ATOM     34  C   UNL A   1      36.319  33.386  30.745  1.00  0.00    -0.014 A 
BRANCH  34  35
ATOM     35  C   UNL A   1      37.462  32.719  31.415  1.00  0.00     0.031 A 
ATOM     36  C   UNL A   1      38.147  31.555  30.758  1.00  0.00     0.074 A 
ATOM     37  C   UNL A   1      37.837  33.119  32.646  1.00  0.00     0.049 A 
ATOM     38  N   UNL A   1      39.110  30.795  31.213  1.00  0.00    -0.248 NA
ATOM     39  C   UNL A   1      37.666  31.177  29.419  1.00  0.00     0.031 C 
ATOM     40  C   UNL A   1      37.219  34.205  33.408  1.00  0.00     0.029 A 
ATOM     41  N   UNL A   1      38.824  32.649  33.478  1.00  0.00    -0.354 N 
ATOM     42  C   UNL A   1      39.340  29.844  30.227  1.00  0.00     0.074 A 
ATOM     43  C   UNL A   1      38.380  30.089  29.172  1.00  0.00     0.031 C 
ATOM     44  C   UNL A   1      37.852  34.333  34.585  1.00  0.00     0.029 A 
ATOM     45  C   UNL A   1      38.898  33.317  34.675  1.00  0.00     0.049 A 
ATOM     46  H   UNL A   1      39.422  31.905  33.238  1.00  0.00     0.167 HD
ATOM     47  C   UNL A   1      40.280  28.872  30.195  1.00  0.00     0.037 A 
ATOM     48  C   UNL A   1      39.714  33.127  35.730  1.00  0.00     0.037 A 
ATOM     49  C   UNL A   1      41.250  28.648  31.235  1.00  0.00     0.049 A 
ATOM     50  C   UNL A   1      40.752  32.040  35.665  1.00  0.00     0.074 A 
ATOM     51  C   UNL A   1      42.277  27.721  31.274  1.00  0.00     0.029 A 
ATOM     52  N   UNL A   1      41.312  29.364  32.422  1.00  0.00    -0.354 N 
ATOM     53  N   UNL A   1      41.001  31.189  34.701  1.00  0.00    -0.248 NA
ATOM     54  C   UNL A   1      41.629  31.892  36.837  1.00  0.00     0.031 C 
ATOM     55  C   UNL A   1      42.937  27.851  32.500  1.00  0.00     0.029 A 
ATOM     56  C   UNL A   1      42.352  28.890  33.205  1.00  0.00     0.049 A 
ATOM     57  H   UNL A   1      40.707  30.099  32.670  1.00  0.00     0.167 HD
ATOM     58  C   UNL A   1      42.081  30.429  35.131  1.00  0.00     0.074 A 
ATOM     59  C   UNL A   1      42.447  30.928  36.441  1.00  0.00     0.031 C 
ATOM     60  C   UNL A   1      42.713  29.411  34.498  1.00  0.00     0.037 A 
BRANCH  47  61
ATOM     61  C   UNL A   1      40.314  27.979  28.989  1.00  0.00     0.064 A 
ATOM     62  C   UNL A   1      41.068  28.312  27.852  1.00  0.00     0.173 A 
ATOM     63  C   UNL A   1      39.616  26.763  28.980  1.00  0.00     0.173 A 
ATOM     64  F   UNL A   1      41.743  29.470  27.804  1.00  0.00    -0.203 F 
ATOM     65  C   UNL A   1      41.098  27.472  26.741  1.00  0.00     0.198 A 
ATOM     66  C   UNL A   1      39.674  25.911  27.880  1.00  0.00     0.198 A 
ATOM     67  F   UNL A   1      38.885  26.394  30.042  1.00  0.00    -0.203 F 
ATOM     68  F   UNL A   1      41.787  27.834  25.649  1.00  0.00    -0.200 F 
ATOM     69  C   UNL A   1      40.408  26.270  26.760  1.00  0.00     0.200 A 
ATOM     70  F   UNL A   1      39.017  24.744  27.903  1.00  0.00    -0.200 F 
ATOM     71  F   UNL A   1      40.445  25.459  25.693  1.00  0.00    -0.200 F 
ENDBRANCH  47  61
BRANCH  48  72
ATOM     72  C   UNL A   1      39.607  34.006  36.923  1.00  0.00     0.064 A 
ATOM     73  C   UNL A   1      40.280  35.234  36.973  1.00  0.00     0.173 A 
ATOM     74  C   UNL A   1      38.845  33.634  38.040  1.00  0.00     0.173 A 
ATOM     75  F   UNL A   1      41.039  35.623  35.937  1.00  0.00    -0.203 F 
ATOM     76  C   UNL A   1      40.216  36.046  38.102  1.00  0.00     0.198 A 
ATOM     77  C   UNL A   1      38.758  34.461  39.159  1.00  0.00     0.198 A 
ATOM     78  F   UNL A   1      38.176  32.471  38.041  1.00  0.00    -0.203 F 
ATOM     79  F   UNL A   1      40.909  37.192  38.141  1.00  0.00    -0.200 F 
ATOM     80  C   UNL A   1      39.450  35.661  39.192  1.00  0.00     0.200 A 
ATOM     81  F   UNL A   1      38.007  34.091  40.205  1.00  0.00    -0.200 F 
ATOM     82  F   UNL A   1      39.388  36.443  40.279  1.00  0.00    -0.200 F 
ENDBRANCH  48  72
BRANCH  60  83
ATOM     83  C   UNL A   1      43.896  28.800  35.190  1.00  0.00     0.064 A 
ATOM     84  C   UNL A   1      45.197  29.284  34.994  1.00  0.00     0.173 A 
ATOM     85  C   UNL A   1      43.716  27.741  36.094  1.00  0.00     0.173 A 
ATOM     86  F   UNL A   1      45.421  30.284  34.129  1.00  0.00    -0.203 F 
ATOM     87  C   UNL A   1      46.279  28.714  35.660  1.00  0.00     0.198 A 
ATOM     88  C   UNL A   1      44.795  27.193  36.780  1.00  0.00     0.198 A 
ATOM     89  F   UNL A   1      42.490  27.246  36.321  1.00  0.00    -0.203 F 
ATOM     90  F   UNL A   1      47.519  29.162  35.424  1.00  0.00    -0.200 F 
ATOM     91  C   UNL A   1      46.077  27.675  36.557  1.00  0.00     0.200 A 
ATOM     92  F   UNL A   1      44.597  26.199  37.655  1.00  0.00    -0.200 F 
ATOM     93  F   UNL A   1      47.119  27.133  37.202  1.00  0.00    -0.200 F 
ENDBRANCH  60  83
ENDBRANCH  34  35
ENDBRANCH  26  29
ENDBRANCH  24  25
ENDBRANCH  23  24
ENDBRANCH   1  23
TORSDOF 14
ENDMDL
