MODEL 1
REMARK VINA RESULT:     -12.0      0.000      0.000
REMARK SMILES CC[NH+](CC)[C@](C)(C(=O)NCCCCNC(=O)c1ccc(-c2c3nc(c(-c4c(F)c(F)c(F)c(F)c4F)c4ccc([nH]4)c(-c4c(F)c(F)c(F)c(F)c4F)c4nc(c(-c5c(F)c(F)c(F)c(F)c5F)c5ccc2[nH]5)C=C4)C=C3)cc1)c1cc(F)c(C)cc1F
REMARK SMILES IDX 12 1 11 2 10 3 8 4 9 5 6 7 7 8 3 9 2 11 1 12 4 13 5 14 81 15
REMARK SMILES IDX 82 16 88 17 83 18 87 19 89 20 84 21 85 22 86 23 13 24 14 25
REMARK SMILES IDX 15 26 16 27 17 29 18 30 19 31 80 32 20 33 79 34 21 35 22 36
REMARK SMILES IDX 23 37 73 38 24 39 78 40 72 41 74 42 25 43 77 44 71 45 70 46
REMARK SMILES IDX 26 48 58 49 38 50 57 51 39 52 42 53 56 54 75 55 40 56 41 57
REMARK SMILES IDX 55 59 76 60 43 61 27 62 28 63 36 64 29 65 30 66 34 67 37 68
REMARK SMILES IDX 31 69 32 70 35 71 33 72 59 73 60 74 68 75 61 76 62 77 66 78
REMARK SMILES IDX 69 79 63 80 64 81 67 82 65 83 44 84 45 85 53 86 46 87 47 88
REMARK SMILES IDX 51 89 54 90 48 91 49 92 52 93 50 94
REMARK H PARENT 10 6 3 10 15 28 74 47 42 58
REMARK Flexibility Score: inf
ROOT
ATOM      1  C   UNL A   1      31.701  30.768  26.038  1.00  0.00     0.023 C 
ENDROOT
BRANCH   1   2
ATOM      2  C   UNL A   1      33.010  30.070  26.378  1.00  0.00     0.116 C 
BRANCH   2   3
ATOM      3  N   UNL A   1      33.699  29.510  25.233  1.00  0.00    -0.350 N 
ATOM      4  C   UNL A   1      33.500  28.341  24.540  1.00  0.00     0.286 C 
ATOM      5  O   UNL A   1      33.977  28.339  23.395  1.00  0.00    -0.267 OA
ATOM      6  H   UNL A   1      34.438  30.064  24.892  1.00  0.00     0.163 HD
BRANCH   4   7
ATOM      7  C   UNL A   1      32.721  27.083  25.128  1.00  0.00     0.202 C 
ATOM      8  C   UNL A   1      32.755  27.103  26.686  1.00  0.00     0.096 C 
BRANCH   7   9
ATOM      9  N   UNL A   1      31.306  26.943  24.560  1.00  0.00    -0.319 N 
ATOM     10  H   UNL A   1      31.493  26.382  23.728  1.00  0.00     0.349 HD
BRANCH   9  11
ATOM     11  C   UNL A   1      30.639  28.140  24.026  1.00  0.00     0.259 C 
ATOM     12  C   UNL A   1      30.236  28.120  22.553  1.00  0.00     0.071 C 
ENDBRANCH   9  11
BRANCH   9  13
ATOM     13  C   UNL A   1      30.394  26.241  25.502  1.00  0.00     0.259 C 
ATOM     14  C   UNL A   1      30.314  24.729  25.287  1.00  0.00     0.071 C 
ENDBRANCH   9  13
ENDBRANCH   7   9
BRANCH   7  15
ATOM     15  C   UNL A   1      33.580  25.812  24.764  1.00  0.00     0.060 A 
ATOM     16  C   UNL A   1      34.563  25.275  25.616  1.00  0.00     0.053 A 
ATOM     17  C   UNL A   1      33.467  25.229  23.486  1.00  0.00     0.133 A 
ATOM     18  C   UNL A   1      35.456  24.304  25.156  1.00  0.00     0.126 A 
ATOM     19  C   UNL A   1      34.341  24.235  23.038  1.00  0.00     0.046 A 
ATOM     20  F   UNL A   1      32.539  25.671  22.624  1.00  0.00    -0.206 F 
ATOM     21  F   UNL A   1      36.446  23.905  25.969  1.00  0.00    -0.207 F 
ATOM     22  C   UNL A   1      35.373  23.785  23.865  1.00  0.00    -0.012 A 
ATOM     23  C   UNL A   1      36.420  22.847  23.351  1.00  0.00     0.047 C 
ENDBRANCH   7  15
ENDBRANCH   4   7
ENDBRANCH   2   3
ENDBRANCH   1   2
BRANCH   1  24
ATOM     24  C   UNL A   1      31.445  32.065  26.803  1.00  0.00     0.023 C 
BRANCH  24  25
ATOM     25  C   UNL A   1      32.689  32.821  27.265  1.00  0.00     0.116 C 
BRANCH  25  26
ATOM     26  N   UNL A   1      32.425  34.209  27.621  1.00  0.00    -0.352 N 
ATOM     27  C   UNL A   1      33.012  34.996  28.585  1.00  0.00     0.251 C 
ATOM     28  H   UNL A   1      31.720  34.649  27.093  1.00  0.00     0.163 HD
ATOM     29  O   UNL A   1      32.583  36.117  28.819  1.00  0.00    -0.269 OA
BRANCH  27  30
ATOM     30  C   UNL A   1      34.144  34.459  29.369  1.00  0.00     0.039 A 
ATOM     31  C   UNL A   1      33.881  33.817  30.581  1.00  0.00     0.014 A 
ATOM     32  C   UNL A   1      35.449  34.544  28.880  1.00  0.00     0.014 A 
ATOM     33  C   UNL A   1      34.918  33.170  31.256  1.00  0.00     0.010 A 
ATOM     34  C   UNL A   1      36.464  33.835  29.512  1.00  0.00     0.010 A 
ATOM     35  C   UNL A   1      36.205  33.129  30.699  1.00  0.00    -0.014 A 
BRANCH  35  36
ATOM     36  C   UNL A   1      37.298  32.335  31.316  1.00  0.00     0.031 A 
ATOM     37  C   UNL A   1      37.813  32.702  32.679  1.00  0.00     0.074 A 
ATOM     38  C   UNL A   1      37.894  31.354  30.610  1.00  0.00     0.049 A 
ATOM     39  N   UNL A   1      38.849  32.234  33.327  1.00  0.00    -0.248 NA
ATOM     40  C   UNL A   1      37.082  33.760  33.394  1.00  0.00     0.031 C 
ATOM     41  C   UNL A   1      37.517  30.932  29.260  1.00  0.00     0.029 A 
ATOM     42  N   UNL A   1      38.963  30.550  30.922  1.00  0.00    -0.354 N 
ATOM     43  C   UNL A   1      38.909  32.957  34.510  1.00  0.00     0.074 A 
ATOM     44  C   UNL A   1      37.832  33.923  34.473  1.00  0.00     0.031 C 
ATOM     45  C   UNL A   1      38.332  29.940  28.865  1.00  0.00     0.029 A 
ATOM     46  C   UNL A   1      39.316  29.686  29.913  1.00  0.00     0.049 A 
ATOM     47  H   UNL A   1      39.432  30.587  31.787  1.00  0.00     0.167 HD
ATOM     48  C   UNL A   1      39.774  32.814  35.543  1.00  0.00     0.037 A 
ATOM     49  C   UNL A   1      40.329  28.802  29.835  1.00  0.00     0.037 A 
ATOM     50  C   UNL A   1      40.821  31.828  35.592  1.00  0.00     0.049 A 
ATOM     51  C   UNL A   1      41.276  28.663  30.996  1.00  0.00     0.074 A 
ATOM     52  C   UNL A   1      41.702  31.559  36.623  1.00  0.00     0.029 A 
ATOM     53  N   UNL A   1      41.125  30.949  34.564  1.00  0.00    -0.354 N 
ATOM     54  N   UNL A   1      41.286  29.309  32.136  1.00  0.00    -0.248 NA
ATOM     55  C   UNL A   1      42.352  27.671  30.860  1.00  0.00     0.031 C 
ATOM     56  C   UNL A   1      42.567  30.542  36.204  1.00  0.00     0.029 A 
ATOM     57  C   UNL A   1      42.194  30.148  34.929  1.00  0.00     0.049 A 
ATOM     58  H   UNL A   1      40.651  30.901  33.701  1.00  0.00     0.167 HD
ATOM     59  C   UNL A   1      42.345  28.784  32.863  1.00  0.00     0.074 A 
ATOM     60  C   UNL A   1      42.952  27.760  32.039  1.00  0.00     0.031 C 
ATOM     61  C   UNL A   1      42.775  29.121  34.103  1.00  0.00     0.037 A 
BRANCH  48  62
ATOM     62  C   UNL A   1      39.621  33.745  36.709  1.00  0.00     0.064 A 
ATOM     63  C   UNL A   1      40.236  35.006  36.728  1.00  0.00     0.173 A 
ATOM     64  C   UNL A   1      38.821  33.387  37.805  1.00  0.00     0.173 A 
ATOM     65  F   UNL A   1      41.020  35.389  35.710  1.00  0.00    -0.203 F 
ATOM     66  C   UNL A   1      40.077  35.863  37.814  1.00  0.00     0.198 A 
ATOM     67  C   UNL A   1      38.641  34.258  38.875  1.00  0.00     0.198 A 
ATOM     68  F   UNL A   1      38.207  32.195  37.833  1.00  0.00    -0.203 F 
ATOM     69  F   UNL A   1      40.712  37.043  37.831  1.00  0.00    -0.200 F 
ATOM     70  C   UNL A   1      39.275  35.492  38.882  1.00  0.00     0.200 A 
ATOM     71  F   UNL A   1      37.856  33.904  39.901  1.00  0.00    -0.200 F 
ATOM     72  F   UNL A   1      39.118  36.322  39.923  1.00  0.00    -0.200 F 
ENDBRANCH  48  62
BRANCH  49  73
ATOM     73  C   UNL A   1      40.492  27.967  28.617  1.00  0.00     0.064 A 
ATOM     74  C   UNL A   1      41.256  28.421  27.534  1.00  0.00     0.173 A 
ATOM     75  C   UNL A   1      39.889  26.706  28.508  1.00  0.00     0.173 A 
ATOM     76  F   UNL A   1      41.836  29.630  27.583  1.00  0.00    -0.203 F 
ATOM     77  C   UNL A   1      41.398  27.653  26.380  1.00  0.00     0.198 A 
ATOM     78  C   UNL A   1      40.052  25.928  27.364  1.00  0.00     0.198 A 
ATOM     79  F   UNL A   1      39.150  26.225  29.519  1.00  0.00    -0.203 F 
ATOM     80  F   UNL A   1      42.100  28.129  25.343  1.00  0.00    -0.200 F 
ATOM     81  C   UNL A   1      40.799  26.404  26.298  1.00  0.00     0.200 A 
ATOM     82  F   UNL A   1      39.483  24.717  27.294  1.00  0.00    -0.200 F 
ATOM     83  F   UNL A   1      40.939  25.665  25.190  1.00  0.00    -0.200 F 
ENDBRANCH  49  73
BRANCH  61  84
ATOM     84  C   UNL A   1      43.931  28.350  34.668  1.00  0.00     0.064 A 
ATOM     85  C   UNL A   1      43.743  27.145  35.360  1.00  0.00     0.173 A 
ATOM     86  C   UNL A   1      45.246  28.793  34.458  1.00  0.00     0.173 A 
ATOM     87  F   UNL A   1      42.504  26.690  35.598  1.00  0.00    -0.203 F 
ATOM     88  C   UNL A   1      44.832  26.417  35.834  1.00  0.00     0.198 A 
ATOM     89  C   UNL A   1      46.332  28.050  34.911  1.00  0.00     0.198 A 
ATOM     90  F   UNL A   1      45.477  29.937  33.798  1.00  0.00    -0.203 F 
ATOM     91  F   UNL A   1      44.630  25.286  36.522  1.00  0.00    -0.200 F 
ATOM     92  C   UNL A   1      46.124  26.866  35.601  1.00  0.00     0.200 A 
ATOM     93  F   UNL A   1      47.580  28.478  34.675  1.00  0.00    -0.200 F 
ATOM     94  F   UNL A   1      47.170  26.156  36.047  1.00  0.00    -0.200 F 
ENDBRANCH  61  84
ENDBRANCH  35  36
ENDBRANCH  27  30
ENDBRANCH  25  26
ENDBRANCH  24  25
ENDBRANCH   1  24
TORSDOF 15
ENDMDL
MODEL 2
REMARK VINA RESULT:     -11.8      0.526      7.234
REMARK SMILES CC[NH+](CC)[C@](C)(C(=O)NCCCCNC(=O)c1ccc(-c2c3nc(c(-c4c(F)c(F)c(F)c(F)c4F)c4ccc([nH]4)c(-c4c(F)c(F)c(F)c(F)c4F)c4nc(c(-c5c(F)c(F)c(F)c(F)c5F)c5ccc2[nH]5)C=C4)C=C3)cc1)c1cc(F)c(C)cc1F
REMARK SMILES IDX 12 1 11 2 10 3 8 4 9 5 6 7 7 8 3 9 2 11 1 12 4 13 5 14 81 15
REMARK SMILES IDX 82 16 88 17 83 18 87 19 89 20 84 21 85 22 86 23 13 24 14 25
REMARK SMILES IDX 15 26 16 27 17 29 18 30 19 31 80 32 20 33 79 34 21 35 22 36
REMARK SMILES IDX 23 37 73 38 24 39 78 40 72 41 74 42 25 43 77 44 71 45 70 46
REMARK SMILES IDX 26 48 58 49 38 50 57 51 39 52 42 53 56 54 75 55 40 56 41 57
REMARK SMILES IDX 55 59 76 60 43 61 27 62 28 63 36 64 29 65 30 66 34 67 37 68
REMARK SMILES IDX 31 69 32 70 35 71 33 72 59 73 60 74 68 75 61 76 62 77 66 78
REMARK SMILES IDX 69 79 63 80 64 81 67 82 65 83 44 84 45 85 53 86 46 87 47 88
REMARK SMILES IDX 51 89 54 90 48 91 49 92 52 93 50 94
REMARK H PARENT 10 6 3 10 15 28 74 47 42 58
REMARK Flexibility Score: inf
ROOT
ATOM      1  C   UNL A   1      31.975  30.704  25.945  1.00  0.00     0.023 C 
ENDROOT
BRANCH   1   2
ATOM      2  C   UNL A   1      33.143  29.779  26.257  1.00  0.00     0.116 C 
BRANCH   2   3
ATOM      3  N   UNL A   1      33.781  29.213  25.086  1.00  0.00    -0.350 N 
ATOM      4  C   UNL A   1      33.573  28.028  24.425  1.00  0.00     0.286 C 
ATOM      5  O   UNL A   1      33.986  28.015  23.256  1.00  0.00    -0.267 OA
ATOM      6  H   UNL A   1      34.487  29.778  24.695  1.00  0.00     0.163 HD
BRANCH   4   7
ATOM      7  C   UNL A   1      32.858  26.763  25.078  1.00  0.00     0.202 C 
ATOM      8  C   UNL A   1      32.933  26.839  26.632  1.00  0.00     0.096 C 
BRANCH   7   9
ATOM      9  N   UNL A   1      31.434  26.552  24.555  1.00  0.00    -0.319 N 
ATOM     10  H   UNL A   1      31.622  26.000  23.718  1.00  0.00     0.349 HD
BRANCH   9  11
ATOM     11  C   UNL A   1      30.691  27.714  24.042  1.00  0.00     0.259 C 
ATOM     12  C   UNL A   1      30.466  27.791  22.533  1.00  0.00     0.071 C 
ENDBRANCH   9  11
BRANCH   9  13
ATOM     13  C   UNL A   1      30.588  25.808  25.525  1.00  0.00     0.259 C 
ATOM     14  C   UNL A   1      30.652  24.288  25.375  1.00  0.00     0.071 C 
ENDBRANCH   9  13
ENDBRANCH   7   9
BRANCH   7  15
ATOM     15  C   UNL A   1      33.753  25.512  24.733  1.00  0.00     0.060 A 
ATOM     16  C   UNL A   1      34.772  25.036  25.579  1.00  0.00     0.053 A 
ATOM     17  C   UNL A   1      33.635  24.888  23.475  1.00  0.00     0.133 A 
ATOM     18  C   UNL A   1      35.688  24.083  25.129  1.00  0.00     0.126 A 
ATOM     19  C   UNL A   1      34.533  23.912  23.038  1.00  0.00     0.046 A 
ATOM     20  F   UNL A   1      32.674  25.272  22.621  1.00  0.00    -0.206 F 
ATOM     21  F   UNL A   1      36.708  23.744  25.932  1.00  0.00    -0.207 F 
ATOM     22  C   UNL A   1      35.597  23.523  23.856  1.00  0.00    -0.012 A 
ATOM     23  C   UNL A   1      36.667  22.607  23.348  1.00  0.00     0.047 C 
ENDBRANCH   7  15
ENDBRANCH   4   7
ENDBRANCH   2   3
ENDBRANCH   1   2
BRANCH   1  24
ATOM     24  C   UNL A   1      31.685  31.758  27.012  1.00  0.00     0.023 C 
BRANCH  24  25
ATOM     25  C   UNL A   1      32.853  32.668  27.383  1.00  0.00     0.116 C 
BRANCH  25  26
ATOM     26  N   UNL A   1      32.452  34.039  27.670  1.00  0.00    -0.352 N 
ATOM     27  C   UNL A   1      32.973  34.936  28.575  1.00  0.00     0.251 C 
ATOM     28  H   UNL A   1      31.695  34.373  27.137  1.00  0.00     0.163 HD
ATOM     29  O   UNL A   1      32.433  36.017  28.760  1.00  0.00    -0.269 OA
BRANCH  27  30
ATOM     30  C   UNL A   1      34.169  34.563  29.358  1.00  0.00     0.039 A 
ATOM     31  C   UNL A   1      34.001  34.047  30.645  1.00  0.00     0.014 A 
ATOM     32  C   UNL A   1      35.445  34.677  28.801  1.00  0.00     0.014 A 
ATOM     33  C   UNL A   1      35.106  33.547  31.336  1.00  0.00     0.010 A 
ATOM     34  C   UNL A   1      36.531  34.109  29.457  1.00  0.00     0.010 A 
ATOM     35  C   UNL A   1      36.370  33.526  30.725  1.00  0.00    -0.014 A 
BRANCH  35  36
ATOM     36  C   UNL A   1      37.539  32.878  31.372  1.00  0.00     0.031 A 
ATOM     37  C   UNL A   1      38.202  31.701  30.716  1.00  0.00     0.074 A 
ATOM     38  C   UNL A   1      37.936  33.282  32.595  1.00  0.00     0.049 A 
ATOM     39  N   UNL A   1      39.135  30.909  31.181  1.00  0.00    -0.248 NA
ATOM     40  C   UNL A   1      37.731  31.349  29.367  1.00  0.00     0.031 C 
ATOM     41  C   UNL A   1      37.345  34.383  33.356  1.00  0.00     0.029 A 
ATOM     42  N   UNL A   1      38.918  32.795  33.423  1.00  0.00    -0.354 N 
ATOM     43  C   UNL A   1      39.341  29.953  30.196  1.00  0.00     0.074 A 
ATOM     44  C   UNL A   1      38.408  30.237  29.126  1.00  0.00     0.031 C 
ATOM     45  C   UNL A   1      37.982  34.496  34.534  1.00  0.00     0.029 A 
ATOM     46  C   UNL A   1      38.996  33.449  34.629  1.00  0.00     0.049 A 
ATOM     47  H   UNL A   1      39.510  32.048  33.177  1.00  0.00     0.167 HD
ATOM     48  C   UNL A   1      40.240  28.940  30.179  1.00  0.00     0.037 A 
ATOM     49  C   UNL A   1      39.782  33.219  35.698  1.00  0.00     0.037 A 
ATOM     50  C   UNL A   1      41.190  28.683  31.228  1.00  0.00     0.049 A 
ATOM     51  C   UNL A   1      40.773  32.087  35.653  1.00  0.00     0.074 A 
ATOM     52  C   UNL A   1      42.187  27.725  31.272  1.00  0.00     0.029 A 
ATOM     53  N   UNL A   1      41.259  29.388  32.420  1.00  0.00    -0.354 N 
ATOM     54  N   UNL A   1      41.002  31.227  34.691  1.00  0.00    -0.248 NA
ATOM     55  C   UNL A   1      41.616  31.895  36.842  1.00  0.00     0.031 C 
ATOM     56  C   UNL A   1      42.836  27.825  32.507  1.00  0.00     0.029 A 
ATOM     57  C   UNL A   1      42.271  28.875  33.214  1.00  0.00     0.049 A 
ATOM     58  H   UNL A   1      40.676  30.143  32.665  1.00  0.00     0.167 HD
ATOM     59  C   UNL A   1      42.031  30.414  35.144  1.00  0.00     0.074 A 
ATOM     60  C   UNL A   1      42.388  30.886  36.465  1.00  0.00     0.031 C 
ATOM     61  C   UNL A   1      42.625  29.369  34.519  1.00  0.00     0.037 A 
BRANCH  48  62
ATOM     62  C   UNL A   1      40.242  28.035  28.982  1.00  0.00     0.064 A 
ATOM     63  C   UNL A   1      40.968  28.350  27.825  1.00  0.00     0.173 A 
ATOM     64  C   UNL A   1      39.539  26.821  29.008  1.00  0.00     0.173 A 
ATOM     65  F   UNL A   1      41.647  29.505  27.746  1.00  0.00    -0.203 F 
ATOM     66  C   UNL A   1      40.968  27.496  26.725  1.00  0.00     0.198 A 
ATOM     67  C   UNL A   1      39.565  25.955  27.918  1.00  0.00     0.198 A 
ATOM     68  F   UNL A   1      38.833  26.471  30.094  1.00  0.00    -0.203 F 
ATOM     69  F   UNL A   1      41.632  27.839  25.612  1.00  0.00    -0.200 F 
ATOM     70  C   UNL A   1      40.273  26.297  26.775  1.00  0.00     0.200 A 
ATOM     71  F   UNL A   1      38.904  24.792  27.972  1.00  0.00    -0.200 F 
ATOM     72  F   UNL A   1      40.281  25.472  25.719  1.00  0.00    -0.200 F 
ENDBRANCH  48  62
BRANCH  49  73
ATOM     73  C   UNL A   1      39.676  34.089  36.898  1.00  0.00     0.064 A 
ATOM     74  C   UNL A   1      40.379  35.299  36.970  1.00  0.00     0.173 A 
ATOM     75  C   UNL A   1      38.877  33.731  37.993  1.00  0.00     0.173 A 
ATOM     76  F   UNL A   1      41.173  35.673  35.955  1.00  0.00    -0.203 F 
ATOM     77  C   UNL A   1      40.301  36.111  38.099  1.00  0.00     0.198 A 
ATOM     78  C   UNL A   1      38.779  34.557  39.111  1.00  0.00     0.198 A 
ATOM     79  F   UNL A   1      38.181  32.585  37.972  1.00  0.00    -0.203 F 
ATOM     80  F   UNL A   1      41.016  37.243  38.158  1.00  0.00    -0.200 F 
ATOM     81  C   UNL A   1      39.497  35.742  39.167  1.00  0.00     0.200 A 
ATOM     82  F   UNL A   1      37.991  34.203  40.136  1.00  0.00    -0.200 F 
ATOM     83  F   UNL A   1      39.419  36.526  40.251  1.00  0.00    -0.200 F 
ENDBRANCH  49  73
BRANCH  61  84
ATOM     84  C   UNL A   1      43.754  28.687  35.234  1.00  0.00     0.064 A 
ATOM     85  C   UNL A   1      43.535  27.588  36.077  1.00  0.00     0.173 A 
ATOM     86  C   UNL A   1      45.078  29.103  35.022  1.00  0.00     0.173 A 
ATOM     87  F   UNL A   1      42.287  27.165  36.322  1.00  0.00    -0.203 F 
ATOM     88  C   UNL A   1      44.601  26.938  36.693  1.00  0.00     0.198 A 
ATOM     89  C   UNL A   1      46.142  28.434  35.619  1.00  0.00     0.198 A 
ATOM     90  F   UNL A   1      45.339  30.146  34.221  1.00  0.00    -0.203 F 
ATOM     91  F   UNL A   1      44.368  25.911  37.521  1.00  0.00    -0.200 F 
ATOM     92  C   UNL A   1      45.904  27.355  36.456  1.00  0.00     0.200 A 
ATOM     93  F   UNL A   1      47.400  28.831  35.380  1.00  0.00    -0.200 F 
ATOM     94  F   UNL A   1      46.928  26.718  37.040  1.00  0.00    -0.200 F 
ENDBRANCH  61  84
ENDBRANCH  35  36
ENDBRANCH  27  30
ENDBRANCH  25  26
ENDBRANCH  24  25
ENDBRANCH   1  24
TORSDOF 15
ENDMDL
MODEL 3
REMARK VINA RESULT:     -11.8      1.080      2.813
REMARK SMILES CC[NH+](CC)[C@](C)(C(=O)NCCCCNC(=O)c1ccc(-c2c3nc(c(-c4c(F)c(F)c(F)c(F)c4F)c4ccc([nH]4)c(-c4c(F)c(F)c(F)c(F)c4F)c4nc(c(-c5c(F)c(F)c(F)c(F)c5F)c5ccc2[nH]5)C=C4)C=C3)cc1)c1cc(F)c(C)cc1F
REMARK SMILES IDX 12 1 11 2 10 3 8 4 9 5 6 7 7 8 3 9 2 11 1 12 4 13 5 14 81 15
REMARK SMILES IDX 82 16 88 17 83 18 87 19 89 20 84 21 85 22 86 23 13 24 14 25
REMARK SMILES IDX 15 26 16 27 17 29 18 30 19 31 80 32 20 33 79 34 21 35 22 36
REMARK SMILES IDX 23 37 73 38 24 39 78 40 72 41 74 42 25 43 77 44 71 45 70 46
REMARK SMILES IDX 26 48 58 49 38 50 57 51 39 52 42 53 56 54 75 55 40 56 41 57
REMARK SMILES IDX 55 59 76 60 43 61 27 62 28 63 36 64 29 65 30 66 34 67 37 68
REMARK SMILES IDX 31 69 32 70 35 71 33 72 59 73 60 74 68 75 61 76 62 77 66 78
REMARK SMILES IDX 69 79 63 80 64 81 67 82 65 83 44 84 45 85 53 86 46 87 47 88
REMARK SMILES IDX 51 89 54 90 48 91 49 92 52 93 50 94
REMARK H PARENT 10 6 3 10 15 28 74 47 42 58
REMARK Flexibility Score: inf
ROOT
ATOM      1  C   UNL A   1      31.630  30.804  26.118  1.00  0.00     0.023 C 
ENDROOT
BRANCH   1   2
ATOM      2  C   UNL A   1      32.499  29.787  26.844  1.00  0.00     0.116 C 
BRANCH   2   3
ATOM      3  N   UNL A   1      31.826  28.541  27.148  1.00  0.00    -0.350 N 
ATOM      4  C   UNL A   1      31.873  27.313  26.534  1.00  0.00     0.286 C 
ATOM      5  O   UNL A   1      31.508  26.370  27.250  1.00  0.00    -0.267 OA
ATOM      6  H   UNL A   1      31.231  28.581  27.931  1.00  0.00     0.163 HD
BRANCH   4   7
ATOM      7  C   UNL A   1      32.359  27.091  25.034  1.00  0.00     0.202 C 
ATOM      8  C   UNL A   1      33.533  28.059  24.694  1.00  0.00     0.096 C 
BRANCH   7   9
ATOM      9  N   UNL A   1      32.681  25.626  24.726  1.00  0.00    -0.319 N 
ATOM     10  H   UNL A   1      31.751  25.212  24.791  1.00  0.00     0.349 HD
BRANCH   9  11
ATOM     11  C   UNL A   1      33.470  24.857  25.701  1.00  0.00     0.259 C 
ATOM     12  C   UNL A   1      34.919  24.540  25.337  1.00  0.00     0.071 C 
ENDBRANCH   9  11
BRANCH   9  13
ATOM     13  C   UNL A   1      33.263  25.456  23.368  1.00  0.00     0.259 C 
ATOM     14  C   UNL A   1      32.367  24.691  22.393  1.00  0.00     0.071 C 
ENDBRANCH   9  13
ENDBRANCH   7   9
BRANCH   7  15
ATOM     15  C   UNL A   1      31.192  27.597  24.103  1.00  0.00     0.060 A 
ATOM     16  C   UNL A   1      31.293  28.743  23.293  1.00  0.00     0.053 A 
ATOM     17  C   UNL A   1      29.934  26.964  24.147  1.00  0.00     0.133 A 
ATOM     18  C   UNL A   1      30.163  29.284  22.674  1.00  0.00     0.126 A 
ATOM     19  C   UNL A   1      28.811  27.489  23.502  1.00  0.00     0.046 A 
ATOM     20  F   UNL A   1      29.763  25.854  24.880  1.00  0.00    -0.206 F 
ATOM     21  F   UNL A   1      30.289  30.440  22.004  1.00  0.00    -0.207 F 
ATOM     22  C   UNL A   1      28.910  28.682  22.782  1.00  0.00    -0.012 A 
ATOM     23  C   UNL A   1      27.693  29.352  22.225  1.00  0.00     0.047 C 
ENDBRANCH   7  15
ENDBRANCH   4   7
ENDBRANCH   2   3
ENDBRANCH   1   2
BRANCH   1  24
ATOM     24  C   UNL A   1      31.418  32.120  26.865  1.00  0.00     0.023 C 
BRANCH  24  25
ATOM     25  C   UNL A   1      32.687  32.856  27.288  1.00  0.00     0.116 C 
BRANCH  25  26
ATOM     26  N   UNL A   1      32.460  34.255  27.626  1.00  0.00    -0.352 N 
ATOM     27  C   UNL A   1      33.070  35.040  28.578  1.00  0.00     0.251 C 
ATOM     28  H   UNL A   1      31.766  34.707  27.093  1.00  0.00     0.163 HD
ATOM     29  O   UNL A   1      32.670  36.174  28.798  1.00  0.00    -0.269 OA
BRANCH  27  30
ATOM     30  C   UNL A   1      34.188  34.484  29.367  1.00  0.00     0.039 A 
ATOM     31  C   UNL A   1      33.908  33.834  30.571  1.00  0.00     0.014 A 
ATOM     32  C   UNL A   1      35.499  34.560  28.892  1.00  0.00     0.014 A 
ATOM     33  C   UNL A   1      34.932  33.170  31.249  1.00  0.00     0.010 A 
ATOM     34  C   UNL A   1      36.501  33.835  29.526  1.00  0.00     0.010 A 
ATOM     35  C   UNL A   1      36.224  33.120  30.703  1.00  0.00    -0.014 A 
BRANCH  35  36
ATOM     36  C   UNL A   1      37.303  32.310  31.323  1.00  0.00     0.031 A 
ATOM     37  C   UNL A   1      37.811  32.660  32.693  1.00  0.00     0.074 A 
ATOM     38  C   UNL A   1      37.894  31.328  30.614  1.00  0.00     0.049 A 
ATOM     39  N   UNL A   1      38.836  32.176  33.346  1.00  0.00    -0.248 NA
ATOM     40  C   UNL A   1      37.086  33.721  33.411  1.00  0.00     0.031 C 
ATOM     41  C   UNL A   1      37.522  30.921  29.258  1.00  0.00     0.029 A 
ATOM     42  N   UNL A   1      38.951  30.509  30.929  1.00  0.00    -0.354 N 
ATOM     43  C   UNL A   1      38.894  32.888  34.535  1.00  0.00     0.074 A 
ATOM     44  C   UNL A   1      37.829  33.867  34.497  1.00  0.00     0.031 C 
ATOM     45  C   UNL A   1      38.330  29.923  28.862  1.00  0.00     0.029 A 
ATOM     46  C   UNL A   1      39.302  29.649  29.916  1.00  0.00     0.049 A 
ATOM     47  H   UNL A   1      39.413  30.535  31.798  1.00  0.00     0.167 HD
ATOM     48  C   UNL A   1      39.749  32.728  35.573  1.00  0.00     0.037 A 
ATOM     49  C   UNL A   1      40.307  28.755  29.839  1.00  0.00     0.037 A 
ATOM     50  C   UNL A   1      40.785  31.730  35.623  1.00  0.00     0.049 A 
ATOM     51  C   UNL A   1      41.242  28.597  31.006  1.00  0.00     0.074 A 
ATOM     52  C   UNL A   1      41.655  31.443  36.659  1.00  0.00     0.029 A 
ATOM     53  N   UNL A   1      41.088  30.856  34.591  1.00  0.00    -0.354 N 
ATOM     54  N   UNL A   1      41.250  29.233  32.151  1.00  0.00    -0.248 NA
ATOM     55  C   UNL A   1      42.308  27.593  30.871  1.00  0.00     0.031 C 
ATOM     56  C   UNL A   1      42.512  30.420  36.239  1.00  0.00     0.029 A 
ATOM     57  C   UNL A   1      42.145  30.041  34.958  1.00  0.00     0.049 A 
ATOM     58  H   UNL A   1      40.620  30.819  33.724  1.00  0.00     0.167 HD
ATOM     59  C   UNL A   1      42.298  28.690  32.882  1.00  0.00     0.074 A 
ATOM     60  C   UNL A   1      42.900  27.666  32.056  1.00  0.00     0.031 C 
ATOM     61  C   UNL A   1      42.721  29.013  34.129  1.00  0.00     0.037 A 
BRANCH  48  62
ATOM     62  C   UNL A   1      39.598  33.652  36.745  1.00  0.00     0.064 A 
ATOM     63  C   UNL A   1      40.246  34.895  36.790  1.00  0.00     0.173 A 
ATOM     64  C   UNL A   1      38.766  33.305  37.821  1.00  0.00     0.173 A 
ATOM     65  F   UNL A   1      41.062  35.267  35.792  1.00  0.00    -0.203 F 
ATOM     66  C   UNL A   1      40.088  35.746  37.881  1.00  0.00     0.198 A 
ATOM     67  C   UNL A   1      38.587  34.171  38.896  1.00  0.00     0.198 A 
ATOM     68  F   UNL A   1      38.119  32.130  37.824  1.00  0.00    -0.203 F 
ATOM     69  F   UNL A   1      40.754  36.908  37.923  1.00  0.00    -0.200 F 
ATOM     70  C   UNL A   1      39.254  35.386  38.929  1.00  0.00     0.200 A 
ATOM     71  F   UNL A   1      37.772  33.828  39.902  1.00  0.00    -0.200 F 
ATOM     72  F   UNL A   1      39.097  36.210  39.975  1.00  0.00    -0.200 F 
ENDBRANCH  48  62
BRANCH  49  73
ATOM     73  C   UNL A   1      40.470  27.928  28.616  1.00  0.00     0.064 A 
ATOM     74  C   UNL A   1      41.241  28.385  27.538  1.00  0.00     0.173 A 
ATOM     75  C   UNL A   1      39.861  26.671  28.496  1.00  0.00     0.173 A 
ATOM     76  F   UNL A   1      41.826  29.591  27.599  1.00  0.00    -0.203 F 
ATOM     77  C   UNL A   1      41.383  27.624  26.380  1.00  0.00     0.198 A 
ATOM     78  C   UNL A   1      40.025  25.899  27.346  1.00  0.00     0.198 A 
ATOM     79  F   UNL A   1      39.116  26.186  29.500  1.00  0.00    -0.203 F 
ATOM     80  F   UNL A   1      42.092  28.104  25.349  1.00  0.00    -0.200 F 
ATOM     81  C   UNL A   1      40.778  26.380  26.287  1.00  0.00     0.200 A 
ATOM     82  F   UNL A   1      39.449  24.692  27.265  1.00  0.00    -0.200 F 
ATOM     83  F   UNL A   1      40.919  25.647  25.174  1.00  0.00    -0.200 F 
ENDBRANCH  49  73
BRANCH  61  84
ATOM     84  C   UNL A   1      43.864  28.225  34.696  1.00  0.00     0.064 A 
ATOM     85  C   UNL A   1      45.189  28.669  34.588  1.00  0.00     0.173 A 
ATOM     86  C   UNL A   1      43.620  27.043  35.412  1.00  0.00     0.173 A 
ATOM     87  F   UNL A   1      45.473  29.785  33.900  1.00  0.00    -0.203 F 
ATOM     88  C   UNL A   1      46.232  27.948  35.164  1.00  0.00     0.198 A 
ATOM     89  C   UNL A   1      44.663  26.340  36.008  1.00  0.00     0.198 A 
ATOM     90  F   UNL A   1      42.368  26.580  35.547  1.00  0.00    -0.203 F 
ATOM     91  F   UNL A   1      47.496  28.371  35.020  1.00  0.00    -0.200 F 
ATOM     92  C   UNL A   1      45.967  26.790  35.881  1.00  0.00     0.200 A 
ATOM     93  F   UNL A   1      44.403  25.228  36.711  1.00  0.00    -0.200 F 
ATOM     94  F   UNL A   1      46.972  26.107  36.446  1.00  0.00    -0.200 F 
ENDBRANCH  61  84
ENDBRANCH  35  36
ENDBRANCH  27  30
ENDBRANCH  25  26
ENDBRANCH  24  25
ENDBRANCH   1  24
TORSDOF 15
ENDMDL
