MODEL 1
REMARK VINA RESULT:     -13.1      0.000      0.000
REMARK SMILES C[C@@H](C(=O)NCCCCNC(=O)c1ccc(-c2c3nc(c(-c4c(F)c(F)c(F)c(F)c4F)c4ccc([nH]4)c(-c4c(F)c(F)c(F)c(F)c4F)c4nc(c(-c5c(F)c(F)c(F)c(F)c5F)c5ccc2[nH]5)C=C4)C=C3)cc1)c1ccccc1-c1ccn(C(F)F)c(=O)c1
REMARK SMILES IDX 7 1 6 2 5 3 3 4 4 5 2 7 1 8 76 9 77 10 81 11 78 12 80 13
REMARK SMILES IDX 79 14 82 15 83 16 91 17 84 18 89 19 85 20 90 21 86 22 87 23
REMARK SMILES IDX 88 24 8 25 9 26 10 27 11 28 12 30 13 31 14 32 75 33 15 34
REMARK SMILES IDX 74 35 16 36 17 37 18 38 68 39 19 40 73 41 67 42 69 43 20 44
REMARK SMILES IDX 72 45 66 46 65 47 21 49 53 50 33 51 52 52 34 53 37 54 51 55
REMARK SMILES IDX 70 56 35 57 36 58 50 60 71 61 38 62 22 63 23 64 31 65 24 66
REMARK SMILES IDX 25 67 29 68 32 69 26 70 27 71 30 72 28 73 54 74 55 75 63 76
REMARK SMILES IDX 56 77 57 78 61 79 64 80 58 81 59 82 62 83 60 84 39 85 40 86
REMARK SMILES IDX 48 87 41 88 42 89 46 90 49 91 43 92 44 93 47 94 45 95
REMARK H PARENT 5 6 10 29 69 48 37 59
REMARK Flexibility Score: inf
ROOT
ATOM      1  C   UNL A   1      31.468  30.949  26.270  1.00  0.00     0.023 C 
ENDROOT
BRANCH   1   2
ATOM      2  C   UNL A   1      32.675  30.243  26.883  1.00  0.00     0.116 C 
BRANCH   2   3
ATOM      3  N   UNL A   1      33.613  29.758  25.894  1.00  0.00    -0.356 N 
ATOM      4  C   UNL A   1      33.368  28.871  24.885  1.00  0.00     0.227 C 
ATOM      5  O   UNL A   1      33.880  29.156  23.798  1.00  0.00    -0.274 OA
ATOM      6  H   UNL A   1      34.532  30.107  25.955  1.00  0.00     0.163 HD
BRANCH   4   7
ATOM      7  C   UNL A   1      32.437  27.659  25.063  1.00  0.00     0.106 C 
ATOM      8  C   UNL A   1      32.614  26.794  26.318  1.00  0.00     0.023 C 
BRANCH   7   9
ATOM      9  C   UNL A   1      32.403  26.676  23.874  1.00  0.00    -0.028 A 
ATOM     10  C   UNL A   1      33.327  25.607  23.935  1.00  0.00     0.005 A 
ATOM     11  C   UNL A   1      31.623  26.823  22.695  1.00  0.00    -0.014 A 
ATOM     12  C   UNL A   1      33.494  24.721  22.871  1.00  0.00     0.000 A 
ATOM     13  C   UNL A   1      31.816  25.920  21.629  1.00  0.00     0.009 A 
ATOM     14  C   UNL A   1      32.745  24.883  21.715  1.00  0.00     0.001 A 
BRANCH  11  15
ATOM     15  C   UNL A   1      30.558  27.839  22.524  1.00  0.00    -0.011 A 
ATOM     16  C   UNL A   1      30.780  29.173  22.001  1.00  0.00     0.027 A 
ATOM     17  C   UNL A   1      29.331  27.516  22.975  1.00  0.00     0.080 A 
ATOM     18  C   UNL A   1      29.841  30.117  22.137  1.00  0.00     0.095 A 
ATOM     19  C   UNL A   1      28.257  28.540  23.079  1.00  0.00     0.255 A 
ATOM     20  N   UNL A   1      28.614  29.826  22.700  1.00  0.00    -0.258 N 
ATOM     21  O   UNL A   1      27.155  28.204  23.501  1.00  0.00    -0.269 OA
BRANCH  20  22
ATOM     22  C   UNL A   1      27.653  30.866  22.953  1.00  0.00     0.451 C 
ATOM     23  F   UNL A   1      27.649  31.248  24.251  1.00  0.00    -0.185 F 
ATOM     24  F   UNL A   1      27.914  31.958  22.189  1.00  0.00    -0.185 F 
ENDBRANCH  20  22
ENDBRANCH  11  15
ENDBRANCH   7   9
ENDBRANCH   4   7
ENDBRANCH   2   3
ENDBRANCH   1   2
BRANCH   1  25
ATOM     25  C   UNL A   1      31.403  32.460  26.501  1.00  0.00     0.023 C 
BRANCH  25  26
ATOM     26  C   UNL A   1      32.564  33.060  27.286  1.00  0.00     0.116 C 
BRANCH  26  27
ATOM     27  N   UNL A   1      32.326  34.437  27.691  1.00  0.00    -0.352 N 
ATOM     28  C   UNL A   1      32.951  35.182  28.661  1.00  0.00     0.251 C 
ATOM     29  H   UNL A   1      31.614  34.904  27.197  1.00  0.00     0.163 HD
ATOM     30  O   UNL A   1      32.528  36.299  28.945  1.00  0.00    -0.269 OA
BRANCH  28  31
ATOM     31  C   UNL A   1      34.107  34.624  29.394  1.00  0.00     0.039 A 
ATOM     32  C   UNL A   1      33.893  34.064  30.657  1.00  0.00     0.014 A 
ATOM     33  C   UNL A   1      35.390  34.635  28.840  1.00  0.00     0.014 A 
ATOM     34  C   UNL A   1      34.950  33.445  31.327  1.00  0.00     0.010 A 
ATOM     35  C   UNL A   1      36.424  33.952  29.475  1.00  0.00     0.010 A 
ATOM     36  C   UNL A   1      36.213  33.344  30.721  1.00  0.00    -0.014 A 
BRANCH  36  37
ATOM     37  C   UNL A   1      37.313  32.580  31.366  1.00  0.00     0.031 A 
ATOM     38  C   UNL A   1      37.797  32.955  32.739  1.00  0.00     0.074 A 
ATOM     39  C   UNL A   1      37.916  31.585  30.685  1.00  0.00     0.049 A 
ATOM     40  N   UNL A   1      38.782  32.445  33.436  1.00  0.00    -0.248 NA
ATOM     41  C   UNL A   1      37.102  34.066  33.407  1.00  0.00     0.031 C 
ATOM     42  C   UNL A   1      37.568  31.157  29.329  1.00  0.00     0.029 A 
ATOM     43  N   UNL A   1      38.956  30.760  31.034  1.00  0.00    -0.354 N 
ATOM     44  C   UNL A   1      38.828  33.176  34.616  1.00  0.00     0.074 A 
ATOM     45  C   UNL A   1      37.808  34.198  34.521  1.00  0.00     0.031 C 
ATOM     46  C   UNL A   1      38.364  30.137  28.971  1.00  0.00     0.029 A 
ATOM     47  C   UNL A   1      39.307  29.868  30.050  1.00  0.00     0.049 A 
ATOM     48  H   UNL A   1      39.408  30.803  31.908  1.00  0.00     0.167 HD
ATOM     49  C   UNL A   1      39.634  32.996  35.689  1.00  0.00     0.037 A 
ATOM     50  C   UNL A   1      40.287  28.944  30.018  1.00  0.00     0.037 A 
ATOM     51  C   UNL A   1      40.635  31.966  35.787  1.00  0.00     0.049 A 
ATOM     52  C   UNL A   1      41.180  28.780  31.219  1.00  0.00     0.074 A 
ATOM     53  C   UNL A   1      41.459  31.664  36.857  1.00  0.00     0.029 A 
ATOM     54  N   UNL A   1      40.954  31.074  34.774  1.00  0.00    -0.354 N 
ATOM     55  N   UNL A   1      41.161  29.425  32.360  1.00  0.00    -0.248 NA
ATOM     56  C   UNL A   1      42.228  27.754  31.129  1.00  0.00     0.031 C 
ATOM     57  C   UNL A   1      42.315  30.629  36.472  1.00  0.00     0.029 A 
ATOM     58  C   UNL A   1      41.983  30.241  35.185  1.00  0.00     0.049 A 
ATOM     59  H   UNL A   1      40.515  31.039  33.893  1.00  0.00     0.167 HD
ATOM     60  C   UNL A   1      42.168  28.864  33.133  1.00  0.00     0.074 A 
ATOM     61  C   UNL A   1      42.767  27.812  32.339  1.00  0.00     0.031 C 
ATOM     62  C   UNL A   1      42.563  29.191  34.388  1.00  0.00     0.037 A 
BRANCH  49  63
ATOM     63  C   UNL A   1      39.469  33.931  36.854  1.00  0.00     0.064 A 
ATOM     64  C   UNL A   1      38.693  33.585  37.970  1.00  0.00     0.173 A 
ATOM     65  C   UNL A   1      40.149  35.158  36.882  1.00  0.00     0.173 A 
ATOM     66  F   UNL A   1      38.015  32.428  37.990  1.00  0.00    -0.203 F 
ATOM     67  C   UNL A   1      38.585  34.444  39.061  1.00  0.00     0.198 A 
ATOM     68  C   UNL A   1      40.064  35.999  37.989  1.00  0.00     0.198 A 
ATOM     69  F   UNL A   1      40.911  35.535  35.845  1.00  0.00    -0.203 F 
ATOM     70  F   UNL A   1      37.805  34.111  40.099  1.00  0.00    -0.200 F 
ATOM     71  C   UNL A   1      39.278  35.644  39.075  1.00  0.00     0.200 A 
ATOM     72  F   UNL A   1      40.748  37.152  38.006  1.00  0.00    -0.200 F 
ATOM     73  F   UNL A   1      39.186  36.461  40.133  1.00  0.00    -0.200 F 
ENDBRANCH  49  63
BRANCH  50  74
ATOM     74  C   UNL A   1      40.476  28.094  28.811  1.00  0.00     0.064 A 
ATOM     75  C   UNL A   1      41.287  28.518  27.749  1.00  0.00     0.173 A 
ATOM     76  C   UNL A   1      39.829  26.856  28.681  1.00  0.00     0.173 A 
ATOM     77  F   UNL A   1      41.913  29.703  27.816  1.00  0.00    -0.203 F 
ATOM     78  C   UNL A   1      41.420  27.753  26.592  1.00  0.00     0.198 A 
ATOM     79  C   UNL A   1      39.989  26.076  27.538  1.00  0.00     0.198 A 
ATOM     80  F   UNL A   1      39.047  26.399  29.669  1.00  0.00    -0.203 F 
ATOM     81  F   UNL A   1      42.154  28.211  25.569  1.00  0.00    -0.200 F 
ATOM     82  C   UNL A   1      40.773  26.530  26.488  1.00  0.00     0.200 A 
ATOM     83  F   UNL A   1      39.377  24.887  27.450  1.00  0.00    -0.200 F 
ATOM     84  F   UNL A   1      40.900  25.795  25.376  1.00  0.00    -0.200 F 
ENDBRANCH  50  74
BRANCH  62  85
ATOM     85  C   UNL A   1      43.668  28.376  34.998  1.00  0.00     0.064 A 
ATOM     86  C   UNL A   1      45.011  28.774  34.918  1.00  0.00     0.173 A 
ATOM     87  C   UNL A   1      43.373  27.199  35.702  1.00  0.00     0.173 A 
ATOM     88  F   UNL A   1      45.348  29.883  34.243  1.00  0.00    -0.203 F 
ATOM     89  C   UNL A   1      46.020  28.007  35.495  1.00  0.00     0.198 A 
ATOM     90  C   UNL A   1      44.381  26.454  36.308  1.00  0.00     0.198 A 
ATOM     91  F   UNL A   1      42.105  26.777  35.815  1.00  0.00    -0.203 F 
ATOM     92  F   UNL A   1      47.300  28.378  35.359  1.00  0.00    -0.200 F 
ATOM     93  C   UNL A   1      45.703  26.854  36.197  1.00  0.00     0.200 A 
ATOM     94  F   UNL A   1      44.072  25.348  37.000  1.00  0.00    -0.200 F 
ATOM     95  F   UNL A   1      46.676  26.122  36.759  1.00  0.00    -0.200 F 
ENDBRANCH  62  85
ENDBRANCH  36  37
ENDBRANCH  28  31
ENDBRANCH  26  27
ENDBRANCH  25  26
ENDBRANCH   1  25
TORSDOF 14
ENDMDL
MODEL 2
REMARK VINA RESULT:     -13.1      0.778      7.358
REMARK SMILES C[C@@H](C(=O)NCCCCNC(=O)c1ccc(-c2c3nc(c(-c4c(F)c(F)c(F)c(F)c4F)c4ccc([nH]4)c(-c4c(F)c(F)c(F)c(F)c4F)c4nc(c(-c5c(F)c(F)c(F)c(F)c5F)c5ccc2[nH]5)C=C4)C=C3)cc1)c1ccccc1-c1ccn(C(F)F)c(=O)c1
REMARK SMILES IDX 7 1 6 2 5 3 3 4 4 5 2 7 1 8 76 9 77 10 81 11 78 12 80 13
REMARK SMILES IDX 79 14 82 15 83 16 91 17 84 18 89 19 85 20 90 21 86 22 87 23
REMARK SMILES IDX 88 24 8 25 9 26 10 27 11 28 12 30 13 31 14 32 75 33 15 34
REMARK SMILES IDX 74 35 16 36 17 37 18 38 68 39 19 40 73 41 67 42 69 43 20 44
REMARK SMILES IDX 72 45 66 46 65 47 21 49 53 50 33 51 52 52 34 53 37 54 51 55
REMARK SMILES IDX 70 56 35 57 36 58 50 60 71 61 38 62 22 63 23 64 31 65 24 66
REMARK SMILES IDX 25 67 29 68 32 69 26 70 27 71 30 72 28 73 54 74 55 75 63 76
REMARK SMILES IDX 56 77 57 78 61 79 64 80 58 81 59 82 62 83 60 84 39 85 40 86
REMARK SMILES IDX 48 87 41 88 42 89 46 90 49 91 43 92 44 93 47 94 45 95
REMARK H PARENT 5 6 10 29 69 48 37 59
REMARK Flexibility Score: inf
ROOT
ATOM      1  C   UNL A   1      31.766  30.779  26.347  1.00  0.00     0.023 C 
ENDROOT
BRANCH   1   2
ATOM      2  C   UNL A   1      33.034  30.167  26.938  1.00  0.00     0.116 C 
BRANCH   2   3
ATOM      3  N   UNL A   1      33.598  29.118  26.117  1.00  0.00    -0.356 N 
ATOM      4  C   UNL A   1      32.921  28.210  25.354  1.00  0.00     0.227 C 
ATOM      5  O   UNL A   1      33.406  27.993  24.240  1.00  0.00    -0.274 OA
ATOM      6  H   UNL A   1      34.580  29.052  26.106  1.00  0.00     0.163 HD
BRANCH   4   7
ATOM      7  C   UNL A   1      31.593  27.581  25.811  1.00  0.00     0.106 C 
ATOM      8  C   UNL A   1      31.409  27.295  27.306  1.00  0.00     0.023 C 
BRANCH   7   9
ATOM      9  C   UNL A   1      31.198  26.278  25.080  1.00  0.00    -0.028 A 
ATOM     10  C   UNL A   1      31.744  25.087  25.613  1.00  0.00     0.005 A 
ATOM     11  C   UNL A   1      30.449  26.194  23.876  1.00  0.00    -0.014 A 
ATOM     12  C   UNL A   1      31.577  23.857  24.979  1.00  0.00     0.000 A 
ATOM     13  C   UNL A   1      30.301  24.940  23.248  1.00  0.00     0.009 A 
ATOM     14  C   UNL A   1      30.862  23.785  23.791  1.00  0.00     0.001 A 
BRANCH  11  15
ATOM     15  C   UNL A   1      29.748  27.340  23.251  1.00  0.00    -0.011 A 
ATOM     16  C   UNL A   1      30.410  28.391  22.502  1.00  0.00     0.027 A 
ATOM     17  C   UNL A   1      28.426  27.445  23.484  1.00  0.00     0.080 A 
ATOM     18  C   UNL A   1      29.762  29.526  22.213  1.00  0.00     0.095 A 
ATOM     19  C   UNL A   1      27.677  28.676  23.115  1.00  0.00     0.255 A 
ATOM     20  N   UNL A   1      28.431  29.691  22.544  1.00  0.00    -0.258 N 
ATOM     21  O   UNL A   1      26.474  28.732  23.351  1.00  0.00    -0.269 OA
BRANCH  20  22
ATOM     22  C   UNL A   1      27.770  30.952  22.339  1.00  0.00     0.451 C 
ATOM     23  F   UNL A   1      27.563  31.611  23.502  1.00  0.00    -0.185 F 
ATOM     24  F   UNL A   1      28.504  31.752  21.523  1.00  0.00    -0.185 F 
ENDBRANCH  20  22
ENDBRANCH  11  15
ENDBRANCH   7   9
ENDBRANCH   4   7
ENDBRANCH   2   3
ENDBRANCH   1   2
BRANCH   1  25
ATOM     25  C   UNL A   1      31.582  32.278  26.594  1.00  0.00     0.023 C 
BRANCH  25  26
ATOM     26  C   UNL A   1      32.729  32.976  27.317  1.00  0.00     0.116 C 
BRANCH  26  27
ATOM     27  N   UNL A   1      32.404  34.334  27.723  1.00  0.00    -0.352 N 
ATOM     28  C   UNL A   1      32.978  35.115  28.696  1.00  0.00     0.251 C 
ATOM     29  H   UNL A   1      31.666  34.756  27.227  1.00  0.00     0.163 HD
ATOM     30  O   UNL A   1      32.484  36.203  28.980  1.00  0.00    -0.269 OA
BRANCH  28  31
ATOM     31  C   UNL A   1      34.165  34.630  29.431  1.00  0.00     0.039 A 
ATOM     32  C   UNL A   1      33.987  34.091  30.709  1.00  0.00     0.014 A 
ATOM     33  C   UNL A   1      35.441  34.686  28.866  1.00  0.00     0.014 A 
ATOM     34  C   UNL A   1      35.076  33.538  31.385  1.00  0.00     0.010 A 
ATOM     35  C   UNL A   1      36.510  34.068  29.508  1.00  0.00     0.010 A 
ATOM     36  C   UNL A   1      36.338  33.481  30.770  1.00  0.00    -0.014 A 
BRANCH  36  37
ATOM     37  C   UNL A   1      37.477  32.786  31.424  1.00  0.00     0.031 A 
ATOM     38  C   UNL A   1      38.138  31.612  30.755  1.00  0.00     0.074 A 
ATOM     39  C   UNL A   1      37.875  33.176  32.651  1.00  0.00     0.049 A 
ATOM     40  N   UNL A   1      39.103  30.844  31.196  1.00  0.00    -0.248 NA
ATOM     41  C   UNL A   1      37.632  31.235  29.426  1.00  0.00     0.031 C 
ATOM     42  C   UNL A   1      37.284  34.270  33.423  1.00  0.00     0.029 A 
ATOM     43  N   UNL A   1      38.863  32.690  33.471  1.00  0.00    -0.354 N 
ATOM     44  C   UNL A   1      39.311  29.892  30.207  1.00  0.00     0.074 A 
ATOM     45  C   UNL A   1      38.339  30.145  29.165  1.00  0.00     0.031 C 
ATOM     46  C   UNL A   1      37.934  34.386  34.592  1.00  0.00     0.029 A 
ATOM     47  C   UNL A   1      38.956  33.349  34.673  1.00  0.00     0.049 A 
ATOM     48  H   UNL A   1      39.451  31.941  33.221  1.00  0.00     0.167 HD
ATOM     49  C   UNL A   1      40.243  28.911  30.163  1.00  0.00     0.037 A 
ATOM     50  C   UNL A   1      39.766  33.132  35.728  1.00  0.00     0.037 A 
ATOM     51  C   UNL A   1      41.220  28.674  31.194  1.00  0.00     0.049 A 
ATOM     52  C   UNL A   1      40.779  32.021  35.658  1.00  0.00     0.074 A 
ATOM     53  C   UNL A   1      42.244  27.744  31.214  1.00  0.00     0.029 A 
ATOM     54  N   UNL A   1      41.289  29.370  32.393  1.00  0.00    -0.354 N 
ATOM     55  N   UNL A   1      41.019  31.178  34.683  1.00  0.00    -0.248 NA
ATOM     56  C   UNL A   1      41.639  31.834  36.835  1.00  0.00     0.031 C 
ATOM     57  C   UNL A   1      42.897  27.837  32.446  1.00  0.00     0.029 A 
ATOM     58  C   UNL A   1      42.322  28.867  33.170  1.00  0.00     0.049 A 
ATOM     59  H   UNL A   1      40.693  30.108  32.653  1.00  0.00     0.167 HD
ATOM     60  C   UNL A   1      42.074  30.386  35.114  1.00  0.00     0.074 A 
ATOM     61  C   UNL A   1      42.442  30.860  36.430  1.00  0.00     0.031 C 
ATOM     62  C   UNL A   1      42.684  29.356  34.476  1.00  0.00     0.037 A 
BRANCH  49  63
ATOM     63  C   UNL A   1      40.259  28.013  28.959  1.00  0.00     0.064 A 
ATOM     64  C   UNL A   1      41.003  28.333  27.813  1.00  0.00     0.173 A 
ATOM     65  C   UNL A   1      39.576  26.787  28.976  1.00  0.00     0.173 A 
ATOM     66  F   UNL A   1      41.666  29.497  27.740  1.00  0.00    -0.203 F 
ATOM     67  C   UNL A   1      41.043  27.470  26.721  1.00  0.00     0.198 A 
ATOM     68  C   UNL A   1      39.646  25.912  27.895  1.00  0.00     0.198 A 
ATOM     69  F   UNL A   1      38.857  26.428  30.050  1.00  0.00    -0.203 F 
ATOM     70  F   UNL A   1      41.727  27.816  25.621  1.00  0.00    -0.200 F 
ATOM     71  C   UNL A   1      40.374  26.257  26.767  1.00  0.00     0.200 A 
ATOM     72  F   UNL A   1      39.011  24.733  27.947  1.00  0.00    -0.200 F 
ATOM     73  F   UNL A   1      40.428  25.420  25.721  1.00  0.00    -0.200 F 
ENDBRANCH  49  63
BRANCH  50  74
ATOM     74  C   UNL A   1      39.661  33.988  36.941  1.00  0.00     0.064 A 
ATOM     75  C   UNL A   1      38.876  33.598  38.034  1.00  0.00     0.173 A 
ATOM     76  C   UNL A   1      40.321  35.224  37.022  1.00  0.00     0.173 A 
ATOM     77  F   UNL A   1      38.210  32.433  37.999  1.00  0.00    -0.203 F 
ATOM     78  C   UNL A   1      38.727  34.423  39.147  1.00  0.00     0.198 A 
ATOM     79  C   UNL A   1      40.199  36.033  38.149  1.00  0.00     0.198 A 
ATOM     80  F   UNL A   1      41.090  35.643  36.007  1.00  0.00    -0.203 F 
ATOM     81  F   UNL A   1      37.923  34.051  40.152  1.00  0.00    -0.200 F 
ATOM     82  C   UNL A   1      39.392  35.639  39.206  1.00  0.00     0.200 A 
ATOM     83  F   UNL A   1      40.858  37.199  38.209  1.00  0.00    -0.200 F 
ATOM     84  F   UNL A   1      39.250  36.433  40.275  1.00  0.00    -0.200 F 
ENDBRANCH  50  74
BRANCH  62  85
ATOM     85  C   UNL A   1      43.840  28.699  35.175  1.00  0.00     0.064 A 
ATOM     86  C   UNL A   1      45.159  29.142  34.999  1.00  0.00     0.173 A 
ATOM     87  C   UNL A   1      43.618  27.633  36.059  1.00  0.00     0.173 A 
ATOM     88  F   UNL A   1      45.427  30.147  34.152  1.00  0.00    -0.203 F 
ATOM     89  C   UNL A   1      46.216  28.522  35.660  1.00  0.00     0.198 A 
ATOM     90  C   UNL A   1      44.673  27.039  36.746  1.00  0.00     0.198 A 
ATOM     91  F   UNL A   1      42.375  27.174  36.269  1.00  0.00    -0.203 F 
ATOM     92  F   UNL A   1      47.473  28.926  35.435  1.00  0.00    -0.200 F 
ATOM     93  C   UNL A   1      45.971  27.478  36.540  1.00  0.00     0.200 A 
ATOM     94  F   UNL A   1      44.433  26.041  37.608  1.00  0.00    -0.200 F 
ATOM     95  F   UNL A   1      46.990  26.888  37.182  1.00  0.00    -0.200 F 
ENDBRANCH  62  85
ENDBRANCH  36  37
ENDBRANCH  28  31
ENDBRANCH  26  27
ENDBRANCH  25  26
ENDBRANCH   1  25
TORSDOF 14
ENDMDL
MODEL 3
REMARK VINA RESULT:     -13.1      0.411      7.326
REMARK SMILES C[C@@H](C(=O)NCCCCNC(=O)c1ccc(-c2c3nc(c(-c4c(F)c(F)c(F)c(F)c4F)c4ccc([nH]4)c(-c4c(F)c(F)c(F)c(F)c4F)c4nc(c(-c5c(F)c(F)c(F)c(F)c5F)c5ccc2[nH]5)C=C4)C=C3)cc1)c1ccccc1-c1ccn(C(F)F)c(=O)c1
REMARK SMILES IDX 7 1 6 2 5 3 3 4 4 5 2 7 1 8 76 9 77 10 81 11 78 12 80 13
REMARK SMILES IDX 79 14 82 15 83 16 91 17 84 18 89 19 85 20 90 21 86 22 87 23
REMARK SMILES IDX 88 24 8 25 9 26 10 27 11 28 12 30 13 31 14 32 75 33 15 34
REMARK SMILES IDX 74 35 16 36 17 37 18 38 68 39 19 40 73 41 67 42 69 43 20 44
REMARK SMILES IDX 72 45 66 46 65 47 21 49 53 50 33 51 52 52 34 53 37 54 51 55
REMARK SMILES IDX 70 56 35 57 36 58 50 60 71 61 38 62 22 63 23 64 31 65 24 66
REMARK SMILES IDX 25 67 29 68 32 69 26 70 27 71 30 72 28 73 54 74 55 75 63 76
REMARK SMILES IDX 56 77 57 78 61 79 64 80 58 81 59 82 62 83 60 84 39 85 40 86
REMARK SMILES IDX 48 87 41 88 42 89 46 90 49 91 43 92 44 93 47 94 45 95
REMARK H PARENT 5 6 10 29 69 48 37 59
REMARK Flexibility Score: inf
ROOT
ATOM      1  C   UNL A   1      31.785  30.617  26.238  1.00  0.00     0.023 C 
ENDROOT
BRANCH   1   2
ATOM      2  C   UNL A   1      32.974  29.937  26.914  1.00  0.00     0.116 C 
BRANCH   2   3
ATOM      3  N   UNL A   1      33.947  29.424  25.975  1.00  0.00    -0.356 N 
ATOM      4  C   UNL A   1      33.733  28.524  24.970  1.00  0.00     0.227 C 
ATOM      5  O   UNL A   1      34.295  28.785  23.902  1.00  0.00    -0.274 OA
ATOM      6  H   UNL A   1      34.866  29.762  26.070  1.00  0.00     0.163 HD
BRANCH   4   7
ATOM      7  C   UNL A   1      32.779  27.327  25.127  1.00  0.00     0.106 C 
ATOM      8  C   UNL A   1      32.993  26.388  26.321  1.00  0.00     0.023 C 
BRANCH   7   9
ATOM      9  C   UNL A   1      32.661  26.414  23.888  1.00  0.00    -0.028 A 
ATOM     10  C   UNL A   1      33.553  25.317  23.847  1.00  0.00     0.005 A 
ATOM     11  C   UNL A   1      31.834  26.649  22.757  1.00  0.00    -0.014 A 
ATOM     12  C   UNL A   1      33.645  24.488  22.730  1.00  0.00     0.000 A 
ATOM     13  C   UNL A   1      31.950  25.803  21.635  1.00  0.00     0.009 A 
ATOM     14  C   UNL A   1      32.850  24.737  21.620  1.00  0.00     0.001 A 
BRANCH  11  15
ATOM     15  C   UNL A   1      30.795  27.704  22.691  1.00  0.00    -0.011 A 
ATOM     16  C   UNL A   1      31.066  29.099  22.408  1.00  0.00     0.027 A 
ATOM     17  C   UNL A   1      29.538  27.339  23.011  1.00  0.00     0.080 A 
ATOM     18  C   UNL A   1      30.133  30.030  22.641  1.00  0.00     0.095 A 
ATOM     19  C   UNL A   1      28.473  28.357  23.217  1.00  0.00     0.255 A 
ATOM     20  N   UNL A   1      28.869  29.679  23.075  1.00  0.00    -0.258 N 
ATOM     21  O   UNL A   1      27.343  27.982  23.513  1.00  0.00    -0.269 OA
BRANCH  20  22
ATOM     22  C   UNL A   1      27.908  30.686  23.437  1.00  0.00     0.451 C 
ATOM     23  F   UNL A   1      28.489  31.747  24.044  1.00  0.00    -0.185 F 
ATOM     24  F   UNL A   1      27.245  31.134  22.341  1.00  0.00    -0.185 F 
ENDBRANCH  20  22
ENDBRANCH  11  15
ENDBRANCH   7   9
ENDBRANCH   4   7
ENDBRANCH   2   3
ENDBRANCH   1   2
BRANCH   1  25
ATOM     25  C   UNL A   1      31.515  32.058  26.679  1.00  0.00     0.023 C 
BRANCH  25  26
ATOM     26  C   UNL A   1      32.692  32.787  27.318  1.00  0.00     0.116 C 
BRANCH  26  27
ATOM     27  N   UNL A   1      32.392  34.171  27.651  1.00  0.00    -0.352 N 
ATOM     28  C   UNL A   1      32.985  34.994  28.576  1.00  0.00     0.251 C 
ATOM     29  H   UNL A   1      31.657  34.577  27.137  1.00  0.00     0.163 HD
ATOM     30  O   UNL A   1      32.511  36.104  28.803  1.00  0.00    -0.269 OA
BRANCH  28  31
ATOM     31  C   UNL A   1      34.169  34.530  29.329  1.00  0.00     0.039 A 
ATOM     32  C   UNL A   1      33.982  33.995  30.607  1.00  0.00     0.014 A 
ATOM     33  C   UNL A   1      35.452  34.604  28.781  1.00  0.00     0.014 A 
ATOM     34  C   UNL A   1      35.071  33.462  31.300  1.00  0.00     0.010 A 
ATOM     35  C   UNL A   1      36.522  34.005  29.440  1.00  0.00     0.010 A 
ATOM     36  C   UNL A   1      36.342  33.421  30.703  1.00  0.00    -0.014 A 
BRANCH  36  37
ATOM     37  C   UNL A   1      37.482  32.746  31.374  1.00  0.00     0.031 A 
ATOM     38  C   UNL A   1      38.179  31.589  30.714  1.00  0.00     0.074 A 
ATOM     39  C   UNL A   1      37.849  33.139  32.611  1.00  0.00     0.049 A 
ATOM     40  N   UNL A   1      39.151  30.839  31.170  1.00  0.00    -0.248 NA
ATOM     41  C   UNL A   1      37.705  31.207  29.374  1.00  0.00     0.031 C 
ATOM     42  C   UNL A   1      37.222  34.218  33.376  1.00  0.00     0.029 A 
ATOM     43  N   UNL A   1      38.831  32.670  33.447  1.00  0.00    -0.354 N 
ATOM     44  C   UNL A   1      39.397  29.896  30.181  1.00  0.00     0.074 A 
ATOM     45  C   UNL A   1      38.440  30.133  29.122  1.00  0.00     0.031 C 
ATOM     46  C   UNL A   1      37.847  34.342  34.557  1.00  0.00     0.029 A 
ATOM     47  C   UNL A   1      38.888  33.325  34.653  1.00  0.00     0.049 A 
ATOM     48  H   UNL A   1      39.439  31.933  33.205  1.00  0.00     0.167 HD
ATOM     49  C   UNL A   1      40.349  28.934  30.151  1.00  0.00     0.037 A 
ATOM     50  C   UNL A   1      39.683  33.121  35.722  1.00  0.00     0.037 A 
ATOM     51  C   UNL A   1      41.312  28.712  31.199  1.00  0.00     0.049 A 
ATOM     52  C   UNL A   1      40.720  32.030  35.667  1.00  0.00     0.074 A 
ATOM     53  C   UNL A   1      42.354  27.803  31.234  1.00  0.00     0.029 A 
ATOM     54  N   UNL A   1      41.344  29.404  32.401  1.00  0.00    -0.354 N 
ATOM     55  N   UNL A   1      40.995  31.197  34.693  1.00  0.00    -0.248 NA
ATOM     56  C   UNL A   1      41.561  31.856  36.859  1.00  0.00     0.031 C 
ATOM     57  C   UNL A   1      42.981  27.904  32.479  1.00  0.00     0.029 A 
ATOM     58  C   UNL A   1      42.372  28.919  33.196  1.00  0.00     0.049 A 
ATOM     59  H   UNL A   1      40.728  30.129  32.653  1.00  0.00     0.167 HD
ATOM     60  C   UNL A   1      42.057  30.424  35.140  1.00  0.00     0.074 A 
ATOM     61  C   UNL A   1      42.391  30.901  36.465  1.00  0.00     0.031 C 
ATOM     62  C   UNL A   1      42.700  29.410  34.510  1.00  0.00     0.037 A 
BRANCH  49  63
ATOM     63  C   UNL A   1      40.406  28.042  28.944  1.00  0.00     0.064 A 
ATOM     64  C   UNL A   1      39.683  26.841  28.882  1.00  0.00     0.173 A 
ATOM     65  C   UNL A   1      41.139  28.424  27.810  1.00  0.00     0.173 A 
ATOM     66  F   UNL A   1      38.973  26.424  29.941  1.00  0.00    -0.203 F 
ATOM     67  C   UNL A   1      39.710  26.046  27.738  1.00  0.00     0.198 A 
ATOM     68  C   UNL A   1      41.138  27.642  26.657  1.00  0.00     0.198 A 
ATOM     69  F   UNL A   1      41.843  29.566  27.812  1.00  0.00    -0.203 F 
ATOM     70  F   UNL A   1      39.044  24.883  27.718  1.00  0.00    -0.200 F 
ATOM     71  C   UNL A   1      40.428  26.452  26.625  1.00  0.00     0.200 A 
ATOM     72  F   UNL A   1      41.821  28.044  25.576  1.00  0.00    -0.200 F 
ATOM     73  F   UNL A   1      40.440  25.693  25.520  1.00  0.00    -0.200 F 
ENDBRANCH  49  63
BRANCH  50  74
ATOM     74  C   UNL A   1      39.538  33.969  36.936  1.00  0.00     0.064 A 
ATOM     75  C   UNL A   1      38.777  33.538  38.031  1.00  0.00     0.173 A 
ATOM     76  C   UNL A   1      40.134  35.237  37.017  1.00  0.00     0.173 A 
ATOM     77  F   UNL A   1      38.171  32.342  37.997  1.00  0.00    -0.203 F 
ATOM     78  C   UNL A   1      38.589  34.354  39.146  1.00  0.00     0.198 A 
ATOM     79  C   UNL A   1      39.975  36.037  38.145  1.00  0.00     0.198 A 
ATOM     80  F   UNL A   1      40.879  35.695  36.001  1.00  0.00    -0.203 F 
ATOM     81  F   UNL A   1      37.807  33.941  40.152  1.00  0.00    -0.200 F 
ATOM     82  C   UNL A   1      39.192  35.602  39.204  1.00  0.00     0.200 A 
ATOM     83  F   UNL A   1      40.574  37.235  38.204  1.00  0.00    -0.200 F 
ATOM     84  F   UNL A   1      39.012  36.387  40.274  1.00  0.00    -0.200 F 
ENDBRANCH  50  74
BRANCH  62  85
ATOM     85  C   UNL A   1      43.855  28.773  35.228  1.00  0.00     0.064 A 
ATOM     86  C   UNL A   1      43.684  27.657  36.061  1.00  0.00     0.173 A 
ATOM     87  C   UNL A   1      45.157  29.267  35.052  1.00  0.00     0.173 A 
ATOM     88  F   UNL A   1      42.459  27.155  36.275  1.00  0.00    -0.203 F 
ATOM     89  C   UNL A   1      44.770  27.078  36.713  1.00  0.00     0.198 A 
ATOM     90  C   UNL A   1      46.244  28.663  35.678  1.00  0.00     0.198 A 
ATOM     91  F   UNL A   1      45.377  30.328  34.261  1.00  0.00    -0.203 F 
ATOM     92  F   UNL A   1      44.575  26.046  37.546  1.00  0.00    -0.200 F 
ATOM     93  C   UNL A   1      46.049  27.575  36.514  1.00  0.00     0.200 A 
ATOM     94  F   UNL A   1      47.481  29.136  35.471  1.00  0.00    -0.200 F 
ATOM     95  F   UNL A   1      47.093  27.011  37.136  1.00  0.00    -0.200 F 
ENDBRANCH  62  85
ENDBRANCH  36  37
ENDBRANCH  28  31
ENDBRANCH  26  27
ENDBRANCH  25  26
ENDBRANCH   1  25
TORSDOF 14
ENDMDL
