MODEL 1
REMARK VINA RESULT:     -11.2      0.000      0.000
REMARK SMILES Cc1cccc2nc([C@@H]3CCCC[C@@H]3C(=O)NCCCCNC(=O)c3ccc(-c4c5nc(c(-c6c(F)c(F)c(F)c(F)c6F)c6ccc([nH]6)c(-c6c(F)c(F)c(F)c(F)c6F)c6nc(c(-c7c(F)c(F)c(F)c(F)c7F)c7ccc4[nH]7)C=C6)C=C5)cc3)oc12
REMARK SMILES IDX 20 1 19 2 18 3 17 4 15 5 16 6 14 8 9 9 10 10 11 11 13 12
REMARK SMILES IDX 12 13 8 14 1 15 2 16 3 17 89 18 4 19 6 20 88 21 5 22 7 23
REMARK SMILES IDX 21 24 22 25 23 26 24 28 25 29 26 30 87 31 27 32 86 33 28 34
REMARK SMILES IDX 29 35 30 36 80 37 31 38 85 39 79 40 81 41 32 42 84 43 78 44
REMARK SMILES IDX 77 45 33 47 65 48 45 49 64 50 46 51 49 52 63 53 82 54 47 55
REMARK SMILES IDX 48 56 62 58 83 59 50 60 34 61 35 62 43 63 36 64 37 65 41 66
REMARK SMILES IDX 44 67 38 68 39 69 42 70 40 71 66 72 67 73 75 74 68 75 69 76
REMARK SMILES IDX 73 77 76 78 70 79 71 80 74 81 72 82 51 83 52 84 60 85 53 86
REMARK SMILES IDX 54 87 58 88 61 89 55 90 56 91 59 92 57 93
REMARK H PARENT 17 7 22 27 81 46 49 57
REMARK Flexibility Score: inf
ROOT
ATOM      1  C   UNL A   1      44.419  22.456  25.547  1.00  0.00     0.023 C 
ENDROOT
BRANCH   1   2
ATOM      2  C   UNL A   1      45.710  23.277  25.432  1.00  0.00     0.023 C 
BRANCH   2   3
ATOM      3  C   UNL A   1      46.329  23.797  26.733  1.00  0.00     0.116 C 
BRANCH   3   4
ATOM      4  N   UNL A   1      47.321  24.849  26.567  1.00  0.00    -0.356 N 
ATOM      5  C   UNL A   1      47.468  26.053  27.186  1.00  0.00     0.223 C 
ATOM      6  O   UNL A   1      48.651  26.381  27.379  1.00  0.00    -0.275 OA
ATOM      7  H   UNL A   1      48.006  24.657  25.886  1.00  0.00     0.163 HD
BRANCH   5   8
ATOM      8  C   UNL A   1      46.370  27.104  27.508  1.00  0.00     0.091 C 
ATOM      9  C   UNL A   1      44.922  26.732  27.877  1.00  0.00     0.088 C 
ATOM     10  C   UNL A   1      44.200  26.076  26.684  1.00  0.00     0.014 C 
ATOM     11  C   UNL A   1      44.294  26.909  25.395  1.00  0.00     0.001 C 
ATOM     12  C   UNL A   1      46.316  28.097  26.328  1.00  0.00     0.014 C 
ATOM     13  C   UNL A   1      45.694  27.444  25.099  1.00  0.00     0.001 C 
BRANCH   9  14
ATOM     14  C   UNL A   1      44.902  25.987  29.180  1.00  0.00     0.199 A 
ATOM     15  C   UNL A   1      45.117  27.051  33.487  1.00  0.00     0.048 C 
ATOM     16  C   UNL A   1      44.683  25.849  32.714  1.00  0.00    -0.006 A 
ATOM     17  C   UNL A   1      44.245  24.698  33.401  1.00  0.00     0.007 A 
ATOM     18  C   UNL A   1      44.758  25.717  31.323  1.00  0.00     0.157 A 
ATOM     19  C   UNL A   1      43.996  23.494  32.744  1.00  0.00     0.003 A 
ATOM     20  C   UNL A   1      44.558  24.519  30.657  1.00  0.00     0.110 A 
ATOM     21  O   UNL A   1      45.003  26.678  30.366  1.00  0.00    -0.440 OA
ATOM     22  C   UNL A   1      44.203  23.373  31.369  1.00  0.00     0.032 A 
ATOM     23  N   UNL A   1      44.728  24.687  29.318  1.00  0.00    -0.213 NA
ENDBRANCH   9  14
ENDBRANCH   5   8
ENDBRANCH   3   4
ENDBRANCH   2   3
ENDBRANCH   1   2
BRANCH   1  24
ATOM     24  C   UNL A   1      43.132  23.152  25.112  1.00  0.00     0.116 C 
BRANCH  24  25
ATOM     25  N   UNL A   1      41.913  22.443  25.481  1.00  0.00    -0.352 N 
ATOM     26  C   UNL A   1      41.017  22.720  26.497  1.00  0.00     0.251 C 
ATOM     27  H   UNL A   1      41.698  21.657  24.929  1.00  0.00     0.163 HD
ATOM     28  O   UNL A   1      40.302  21.824  26.929  1.00  0.00    -0.269 OA
BRANCH  26  29
ATOM     29  C   UNL A   1      40.872  24.090  27.048  1.00  0.00     0.039 A 
ATOM     30  C   UNL A   1      40.401  25.128  26.233  1.00  0.00     0.014 A 
ATOM     31  C   UNL A   1      41.349  24.388  28.323  1.00  0.00     0.014 A 
ATOM     32  C   UNL A   1      40.418  26.442  26.707  1.00  0.00     0.010 A 
ATOM     33  C   UNL A   1      41.325  25.672  28.819  1.00  0.00     0.010 A 
ATOM     34  C   UNL A   1      40.903  26.702  27.996  1.00  0.00    -0.014 A 
BRANCH  34  35
ATOM     35  C   UNL A   1      40.840  28.032  28.570  1.00  0.00     0.031 A 
ATOM     36  C   UNL A   1      41.893  28.947  28.068  1.00  0.00     0.074 A 
ATOM     37  C   UNL A   1      39.798  28.519  29.271  1.00  0.00     0.049 A 
ATOM     38  N   UNL A   1      42.898  29.422  28.723  1.00  0.00    -0.248 NA
ATOM     39  C   UNL A   1      41.893  29.282  26.637  1.00  0.00     0.031 C 
ATOM     40  C   UNL A   1      38.493  27.913  29.535  1.00  0.00     0.029 A 
ATOM     41  N   UNL A   1      39.686  29.748  29.842  1.00  0.00    -0.354 N 
ATOM     42  C   UNL A   1      43.580  30.246  27.834  1.00  0.00     0.074 A 
ATOM     43  C   UNL A   1      43.018  29.991  26.533  1.00  0.00     0.031 C 
ATOM     44  C   UNL A   1      37.664  28.842  30.066  1.00  0.00     0.029 A 
ATOM     45  C   UNL A   1      38.418  30.058  30.311  1.00  0.00     0.049 A 
ATOM     46  H   UNL A   1      40.445  30.371  29.916  1.00  0.00     0.167 HD
ATOM     47  C   UNL A   1      44.413  31.226  28.280  1.00  0.00     0.037 A 
ATOM     48  C   UNL A   1      38.032  31.249  30.833  1.00  0.00     0.037 A 
ATOM     49  C   UNL A   1      44.733  31.041  29.673  1.00  0.00     0.049 A 
ATOM     50  C   UNL A   1      39.264  31.954  31.271  1.00  0.00     0.074 A 
ATOM     51  C   UNL A   1      45.354  30.044  30.400  1.00  0.00     0.029 A 
ATOM     52  N   UNL A   1      44.049  31.797  30.595  1.00  0.00    -0.354 N 
ATOM     53  N   UNL A   1      40.021  31.561  32.257  1.00  0.00    -0.248 NA
ATOM     54  C   UNL A   1      39.889  32.874  30.332  1.00  0.00     0.031 C 
ATOM     55  C   UNL A   1      44.615  29.962  31.619  1.00  0.00     0.029 A 
ATOM     56  C   UNL A   1      43.627  30.947  31.585  1.00  0.00     0.049 A 
ATOM     57  H   UNL A   1      43.891  32.768  30.552  1.00  0.00     0.167 HD
ATOM     58  C   UNL A   1      41.315  31.829  31.838  1.00  0.00     0.074 A 
ATOM     59  C   UNL A   1      41.166  32.727  30.697  1.00  0.00     0.031 C 
ATOM     60  C   UNL A   1      42.368  31.082  32.280  1.00  0.00     0.037 A 
BRANCH  47  61
ATOM     61  C   UNL A   1      44.672  32.525  27.562  1.00  0.00     0.064 A 
ATOM     62  C   UNL A   1      45.855  32.669  26.809  1.00  0.00     0.173 A 
ATOM     63  C   UNL A   1      43.961  33.719  27.810  1.00  0.00     0.173 A 
ATOM     64  F   UNL A   1      46.623  31.604  26.532  1.00  0.00    -0.203 F 
ATOM     65  C   UNL A   1      46.323  33.920  26.401  1.00  0.00     0.198 A 
ATOM     66  C   UNL A   1      44.400  34.959  27.349  1.00  0.00     0.198 A 
ATOM     67  F   UNL A   1      42.881  33.755  28.599  1.00  0.00    -0.203 F 
ATOM     68  F   UNL A   1      47.515  34.018  25.798  1.00  0.00    -0.200 F 
ATOM     69  C   UNL A   1      45.597  35.064  26.673  1.00  0.00     0.200 A 
ATOM     70  F   UNL A   1      43.692  36.058  27.640  1.00  0.00    -0.200 F 
ATOM     71  F   UNL A   1      46.071  36.269  26.333  1.00  0.00    -0.200 F 
ENDBRANCH  47  61
BRANCH  48  72
ATOM     72  C   UNL A   1      36.731  31.945  30.710  1.00  0.00     0.064 A 
ATOM     73  C   UNL A   1      35.872  32.061  31.817  1.00  0.00     0.173 A 
ATOM     74  C   UNL A   1      36.448  32.772  29.608  1.00  0.00     0.173 A 
ATOM     75  F   UNL A   1      36.093  31.334  32.922  1.00  0.00    -0.203 F 
ATOM     76  C   UNL A   1      34.822  32.985  31.837  1.00  0.00     0.198 A 
ATOM     77  C   UNL A   1      35.396  33.690  29.627  1.00  0.00     0.198 A 
ATOM     78  F   UNL A   1      37.249  32.781  28.533  1.00  0.00    -0.203 F 
ATOM     79  F   UNL A   1      34.074  33.122  32.940  1.00  0.00    -0.200 F 
ATOM     80  C   UNL A   1      34.595  33.810  30.748  1.00  0.00     0.200 A 
ATOM     81  F   UNL A   1      35.209  34.508  28.581  1.00  0.00    -0.200 F 
ATOM     82  F   UNL A   1      33.639  34.747  30.795  1.00  0.00    -0.200 F 
ENDBRANCH  48  72
BRANCH  60  83
ATOM     83  C   UNL A   1      42.128  30.145  33.432  1.00  0.00     0.064 A 
ATOM     84  C   UNL A   1      41.764  28.794  33.286  1.00  0.00     0.173 A 
ATOM     85  C   UNL A   1      42.430  30.592  34.725  1.00  0.00     0.173 A 
ATOM     86  F   UNL A   1      41.553  28.262  32.077  1.00  0.00    -0.203 F 
ATOM     87  C   UNL A   1      41.674  27.944  34.387  1.00  0.00     0.198 A 
ATOM     88  C   UNL A   1      42.375  29.732  35.819  1.00  0.00     0.198 A 
ATOM     89  F   UNL A   1      42.834  31.857  34.921  1.00  0.00    -0.203 F 
ATOM     90  F   UNL A   1      41.319  26.661  34.220  1.00  0.00    -0.200 F 
ATOM     91  C   UNL A   1      41.989  28.412  35.652  1.00  0.00     0.200 A 
ATOM     92  F   UNL A   1      42.728  30.177  37.033  1.00  0.00    -0.200 F 
ATOM     93  F   UNL A   1      41.950  27.584  36.705  1.00  0.00    -0.200 F 
ENDBRANCH  60  83
ENDBRANCH  34  35
ENDBRANCH  26  29
ENDBRANCH  24  25
ENDBRANCH   1  24
TORSDOF 12
ENDMDL
MODEL 2
REMARK VINA RESULT:     -10.9      3.675      6.745
REMARK SMILES Cc1cccc2nc([C@@H]3CCCC[C@@H]3C(=O)NCCCCNC(=O)c3ccc(-c4c5nc(c(-c6c(F)c(F)c(F)c(F)c6F)c6ccc([nH]6)c(-c6c(F)c(F)c(F)c(F)c6F)c6nc(c(-c7c(F)c(F)c(F)c(F)c7F)c7ccc4[nH]7)C=C6)C=C5)cc3)oc12
REMARK SMILES IDX 20 1 19 2 18 3 17 4 15 5 16 6 14 8 9 9 10 10 11 11 13 12
REMARK SMILES IDX 12 13 8 14 1 15 2 16 3 17 89 18 4 19 6 20 88 21 5 22 7 23
REMARK SMILES IDX 21 24 22 25 23 26 24 28 25 29 26 30 87 31 27 32 86 33 28 34
REMARK SMILES IDX 29 35 30 36 80 37 31 38 85 39 79 40 81 41 32 42 84 43 78 44
REMARK SMILES IDX 77 45 33 47 65 48 45 49 64 50 46 51 49 52 63 53 82 54 47 55
REMARK SMILES IDX 48 56 62 58 83 59 50 60 34 61 35 62 43 63 36 64 37 65 41 66
REMARK SMILES IDX 44 67 38 68 39 69 42 70 40 71 66 72 67 73 75 74 68 75 69 76
REMARK SMILES IDX 73 77 76 78 70 79 71 80 74 81 72 82 51 83 52 84 60 85 53 86
REMARK SMILES IDX 54 87 58 88 61 89 55 90 56 91 59 92 57 93
REMARK H PARENT 17 7 22 27 81 46 49 57
REMARK Flexibility Score: inf
ROOT
ATOM      1  C   UNL A   1      36.863  22.229  24.587  1.00  0.00     0.023 C 
ENDROOT
BRANCH   1   2
ATOM      2  C   UNL A   1      35.377  22.545  24.371  1.00  0.00     0.023 C 
BRANCH   2   3
ATOM      3  C   UNL A   1      34.961  24.018  24.404  1.00  0.00     0.116 C 
BRANCH   3   4
ATOM      4  N   UNL A   1      34.429  24.537  23.153  1.00  0.00    -0.356 N 
ATOM      5  C   UNL A   1      33.507  25.508  22.900  1.00  0.00     0.223 C 
ATOM      6  O   UNL A   1      33.754  26.189  21.891  1.00  0.00    -0.275 OA
ATOM      7  H   UNL A   1      34.801  24.112  22.347  1.00  0.00     0.163 HD
BRANCH   5   8
ATOM      8  C   UNL A   1      32.142  25.736  23.605  1.00  0.00     0.091 C 
ATOM      9  C   UNL A   1      31.987  25.875  25.131  1.00  0.00     0.088 C 
ATOM     10  C   UNL A   1      32.340  24.555  25.844  1.00  0.00     0.014 C 
ATOM     11  C   UNL A   1      31.581  23.345  25.273  1.00  0.00     0.001 C 
ATOM     12  C   UNL A   1      31.183  24.623  23.134  1.00  0.00     0.014 C 
ATOM     13  C   UNL A   1      31.566  23.281  23.747  1.00  0.00     0.001 C 
BRANCH   9  14
ATOM     14  C   UNL A   1      32.689  27.114  25.604  1.00  0.00     0.199 A 
ATOM     15  C   UNL A   1      31.558  31.334  26.410  1.00  0.00     0.048 C 
ATOM     16  C   UNL A   1      32.706  30.456  26.783  1.00  0.00    -0.006 A 
ATOM     17  C   UNL A   1      33.769  30.984  27.546  1.00  0.00     0.007 A 
ATOM     18  C   UNL A   1      32.883  29.136  26.357  1.00  0.00     0.157 A 
ATOM     19  C   UNL A   1      34.943  30.268  27.775  1.00  0.00     0.003 A 
ATOM     20  C   UNL A   1      34.058  28.425  26.535  1.00  0.00     0.110 A 
ATOM     21  O   UNL A   1      31.990  28.292  25.731  1.00  0.00    -0.440 OA
ATOM     22  C   UNL A   1      35.125  28.998  27.226  1.00  0.00     0.032 A 
ATOM     23  N   UNL A   1      33.949  27.183  25.990  1.00  0.00    -0.213 NA
ENDBRANCH   9  14
ENDBRANCH   5   8
ENDBRANCH   3   4
ENDBRANCH   2   3
ENDBRANCH   1   2
BRANCH   1  24
ATOM     24  C   UNL A   1      37.511  22.832  25.830  1.00  0.00     0.116 C 
BRANCH  24  25
ATOM     25  N   UNL A   1      38.687  22.113  26.303  1.00  0.00    -0.352 N 
ATOM     26  C   UNL A   1      39.893  22.614  26.756  1.00  0.00     0.251 C 
ATOM     27  H   UNL A   1      38.612  21.131  26.297  1.00  0.00     0.163 HD
ATOM     28  O   UNL A   1      40.892  21.907  26.717  1.00  0.00    -0.269 OA
BRANCH  26  29
ATOM     29  C   UNL A   1      39.995  23.979  27.329  1.00  0.00     0.039 A 
ATOM     30  C   UNL A   1      39.068  24.965  26.964  1.00  0.00     0.014 A 
ATOM     31  C   UNL A   1      41.097  24.335  28.104  1.00  0.00     0.014 A 
ATOM     32  C   UNL A   1      39.261  26.284  27.379  1.00  0.00     0.010 A 
ATOM     33  C   UNL A   1      41.272  25.623  28.559  1.00  0.00     0.010 A 
ATOM     34  C   UNL A   1      40.380  26.603  28.160  1.00  0.00    -0.014 A 
BRANCH  34  35
ATOM     35  C   UNL A   1      40.566  27.934  28.702  1.00  0.00     0.031 A 
ATOM     36  C   UNL A   1      41.753  28.638  28.162  1.00  0.00     0.074 A 
ATOM     37  C   UNL A   1      39.640  28.613  29.408  1.00  0.00     0.049 A 
ATOM     38  N   UNL A   1      42.839  28.941  28.790  1.00  0.00    -0.248 NA
ATOM     39  C   UNL A   1      41.785  28.938  26.724  1.00  0.00     0.031 C 
ATOM     40  C   UNL A   1      38.254  28.254  29.707  1.00  0.00     0.029 A 
ATOM     41  N   UNL A   1      39.758  29.855  29.951  1.00  0.00    -0.354 N 
ATOM     42  C   UNL A   1      43.638  29.611  27.871  1.00  0.00     0.074 A 
ATOM     43  C   UNL A   1      43.015  29.433  26.585  1.00  0.00     0.031 C 
ATOM     44  C   UNL A   1      37.613  29.326  30.228  1.00  0.00     0.029 A 
ATOM     45  C   UNL A   1      38.575  30.394  30.432  1.00  0.00     0.049 A 
ATOM     46  H   UNL A   1      40.617  30.334  29.998  1.00  0.00     0.167 HD
ATOM     47  C   UNL A   1      44.640  30.437  28.279  1.00  0.00     0.037 A 
ATOM     48  C   UNL A   1      38.416  31.645  30.931  1.00  0.00     0.037 A 
ATOM     49  C   UNL A   1      44.950  30.228  29.671  1.00  0.00     0.049 A 
ATOM     50  C   UNL A   1      39.762  32.130  31.333  1.00  0.00     0.074 A 
ATOM     51  C   UNL A   1      45.399  29.153  30.413  1.00  0.00     0.029 A 
ATOM     52  N   UNL A   1      44.429  31.113  30.585  1.00  0.00    -0.354 N 
ATOM     53  N   UNL A   1      40.457  31.629  32.316  1.00  0.00    -0.248 NA
ATOM     54  C   UNL A   1      40.521  32.904  30.362  1.00  0.00     0.031 C 
ATOM     55  C   UNL A   1      44.682  29.228  31.644  1.00  0.00     0.029 A 
ATOM     56  C   UNL A   1      43.883  30.372  31.602  1.00  0.00     0.049 A 
ATOM     57  H   UNL A   1      44.444  32.095  30.521  1.00  0.00     0.167 HD
ATOM     58  C   UNL A   1      41.769  31.656  31.870  1.00  0.00     0.074 A 
ATOM     59  C   UNL A   1      41.759  32.542  30.710  1.00  0.00     0.031 C 
ATOM     60  C   UNL A   1      42.682  30.743  32.314  1.00  0.00     0.037 A 
BRANCH  47  61
ATOM     61  C   UNL A   1      45.111  31.655  27.527  1.00  0.00     0.064 A 
ATOM     62  C   UNL A   1      46.425  31.680  27.015  1.00  0.00     0.173 A 
ATOM     63  C   UNL A   1      44.438  32.895  27.532  1.00  0.00     0.173 A 
ATOM     64  F   UNL A   1      47.167  30.563  26.982  1.00  0.00    -0.203 F 
ATOM     65  C   UNL A   1      47.037  32.868  26.610  1.00  0.00     0.198 A 
ATOM     66  C   UNL A   1      45.032  34.069  27.071  1.00  0.00     0.198 A 
ATOM     67  F   UNL A   1      43.230  33.048  28.085  1.00  0.00    -0.203 F 
ATOM     68  F   UNL A   1      48.327  32.860  26.250  1.00  0.00    -0.200 F 
ATOM     69  C   UNL A   1      46.341  34.062  26.640  1.00  0.00     0.200 A 
ATOM     70  F   UNL A   1      44.347  35.219  27.126  1.00  0.00    -0.200 F 
ATOM     71  F   UNL A   1      46.944  35.210  26.306  1.00  0.00    -0.200 F 
ENDBRANCH  47  61
BRANCH  48  72
ATOM     72  C   UNL A   1      37.256  32.558  30.812  1.00  0.00     0.064 A 
ATOM     73  C   UNL A   1      36.927  33.143  29.577  1.00  0.00     0.173 A 
ATOM     74  C   UNL A   1      36.275  32.626  31.818  1.00  0.00     0.173 A 
ATOM     75  F   UNL A   1      37.793  33.090  28.554  1.00  0.00    -0.203 F 
ATOM     76  C   UNL A   1      35.673  33.717  29.348  1.00  0.00     0.198 A 
ATOM     77  C   UNL A   1      35.025  33.204  31.590  1.00  0.00     0.198 A 
ATOM     78  F   UNL A   1      36.470  32.039  33.008  1.00  0.00    -0.203 F 
ATOM     79  F   UNL A   1      35.368  34.194  28.133  1.00  0.00    -0.200 F 
ATOM     80  C   UNL A   1      34.717  33.733  30.350  1.00  0.00     0.200 A 
ATOM     81  F   UNL A   1      34.096  33.181  32.557  1.00  0.00    -0.200 F 
ATOM     82  F   UNL A   1      33.490  34.214  30.109  1.00  0.00    -0.200 F 
ENDBRANCH  48  72
BRANCH  60  83
ATOM     83  C   UNL A   1      42.303  29.887  33.491  1.00  0.00     0.064 A 
ATOM     84  C   UNL A   1      41.741  28.603  33.384  1.00  0.00     0.173 A 
ATOM     85  C   UNL A   1      42.666  30.323  34.772  1.00  0.00     0.173 A 
ATOM     86  F   UNL A   1      41.453  28.072  32.190  1.00  0.00    -0.203 F 
ATOM     87  C   UNL A   1      41.522  27.809  34.509  1.00  0.00     0.198 A 
ATOM     88  C   UNL A   1      42.482  29.515  35.891  1.00  0.00     0.198 A 
ATOM     89  F   UNL A   1      43.255  31.519  34.933  1.00  0.00    -0.203 F 
ATOM     90  F   UNL A   1      40.980  26.589  34.378  1.00  0.00    -0.200 F 
ATOM     91  C   UNL A   1      41.902  28.263  35.761  1.00  0.00     0.200 A 
ATOM     92  F   UNL A   1      42.896  29.939  37.093  1.00  0.00    -0.200 F 
ATOM     93  F   UNL A   1      41.738  27.482  36.838  1.00  0.00    -0.200 F 
ENDBRANCH  60  83
ENDBRANCH  34  35
ENDBRANCH  26  29
ENDBRANCH  24  25
ENDBRANCH   1  24
TORSDOF 12
ENDMDL
MODEL 3
REMARK VINA RESULT:     -10.9      4.412     10.475
REMARK SMILES Cc1cccc2nc([C@@H]3CCCC[C@@H]3C(=O)NCCCCNC(=O)c3ccc(-c4c5nc(c(-c6c(F)c(F)c(F)c(F)c6F)c6ccc([nH]6)c(-c6c(F)c(F)c(F)c(F)c6F)c6nc(c(-c7c(F)c(F)c(F)c(F)c7F)c7ccc4[nH]7)C=C6)C=C5)cc3)oc12
REMARK SMILES IDX 20 1 19 2 18 3 17 4 15 5 16 6 14 8 9 9 10 10 11 11 13 12
REMARK SMILES IDX 12 13 8 14 1 15 2 16 3 17 89 18 4 19 6 20 88 21 5 22 7 23
REMARK SMILES IDX 21 24 22 25 23 26 24 28 25 29 26 30 87 31 27 32 86 33 28 34
REMARK SMILES IDX 29 35 30 36 80 37 31 38 85 39 79 40 81 41 32 42 84 43 78 44
REMARK SMILES IDX 77 45 33 47 65 48 45 49 64 50 46 51 49 52 63 53 82 54 47 55
REMARK SMILES IDX 48 56 62 58 83 59 50 60 34 61 35 62 43 63 36 64 37 65 41 66
REMARK SMILES IDX 44 67 38 68 39 69 42 70 40 71 66 72 67 73 75 74 68 75 69 76
REMARK SMILES IDX 73 77 76 78 70 79 71 80 74 81 72 82 51 83 52 84 60 85 53 86
REMARK SMILES IDX 54 87 58 88 61 89 55 90 56 91 59 92 57 93
REMARK H PARENT 17 7 22 27 81 46 49 57
REMARK Flexibility Score: inf
ROOT
ATOM      1  C   UNL A   1      33.802  30.264  27.596  1.00  0.00     0.023 C 
ENDROOT
BRANCH   1   2
ATOM      2  C   UNL A   1      34.291  29.144  26.668  1.00  0.00     0.023 C 
BRANCH   2   3
ATOM      3  C   UNL A   1      33.660  29.062  25.275  1.00  0.00     0.116 C 
BRANCH   3   4
ATOM      4  N   UNL A   1      33.919  27.825  24.553  1.00  0.00    -0.356 N 
ATOM      5  C   UNL A   1      33.351  26.591  24.649  1.00  0.00     0.223 C 
ATOM      6  O   UNL A   1      33.238  26.000  23.562  1.00  0.00    -0.275 OA
ATOM      7  H   UNL A   1      34.631  27.891  23.877  1.00  0.00     0.163 HD
BRANCH   5   8
ATOM      8  C   UNL A   1      33.002  25.795  25.938  1.00  0.00     0.091 C 
ATOM      9  C   UNL A   1      32.787  24.270  25.961  1.00  0.00     0.088 C 
ATOM     10  C   UNL A   1      31.530  23.879  25.161  1.00  0.00     0.014 C 
ATOM     11  C   UNL A   1      30.280  24.666  25.586  1.00  0.00     0.001 C 
ATOM     12  C   UNL A   1      31.760  26.457  26.571  1.00  0.00     0.014 C 
ATOM     13  C   UNL A   1      30.512  26.168  25.746  1.00  0.00     0.001 C 
BRANCH   9  14
ATOM     14  C   UNL A   1      34.066  23.569  25.609  1.00  0.00     0.199 A 
ATOM     15  C   UNL A   1      38.382  24.126  26.500  1.00  0.00     0.048 C 
ATOM     16  C   UNL A   1      37.543  23.001  25.991  1.00  0.00    -0.006 A 
ATOM     17  C   UNL A   1      38.153  21.778  25.642  1.00  0.00     0.007 A 
ATOM     18  C   UNL A   1      36.171  23.074  25.729  1.00  0.00     0.157 A 
ATOM     19  C   UNL A   1      37.452  20.757  25.001  1.00  0.00     0.003 A 
ATOM     20  C   UNL A   1      35.467  22.091  25.053  1.00  0.00     0.110 A 
ATOM     21  O   UNL A   1      35.265  24.054  26.078  1.00  0.00    -0.440 OA
ATOM     22  C   UNL A   1      36.112  20.922  24.648  1.00  0.00     0.032 A 
ATOM     23  N   UNL A   1      34.163  22.449  24.917  1.00  0.00    -0.213 NA
ENDBRANCH   9  14
ENDBRANCH   5   8
ENDBRANCH   3   4
ENDBRANCH   2   3
ENDBRANCH   1   2
BRANCH   1  24
ATOM     24  C   UNL A   1      34.644  31.537  27.626  1.00  0.00     0.116 C 
BRANCH  24  25
ATOM     25  N   UNL A   1      34.582  32.268  28.885  1.00  0.00    -0.352 N 
ATOM     26  C   UNL A   1      35.214  31.995  30.083  1.00  0.00     0.251 C 
ATOM     27  H   UNL A   1      34.010  33.069  28.880  1.00  0.00     0.163 HD
ATOM     28  O   UNL A   1      34.748  32.440  31.124  1.00  0.00    -0.269 OA
BRANCH  26  29
ATOM     29  C   UNL A   1      36.471  31.208  30.133  1.00  0.00     0.039 A 
ATOM     30  C   UNL A   1      37.701  31.834  29.889  1.00  0.00     0.014 A 
ATOM     31  C   UNL A   1      36.426  29.822  30.264  1.00  0.00     0.014 A 
ATOM     32  C   UNL A   1      38.860  31.061  29.780  1.00  0.00     0.010 A 
ATOM     33  C   UNL A   1      37.569  29.055  30.206  1.00  0.00     0.010 A 
ATOM     34  C   UNL A   1      38.775  29.670  29.920  1.00  0.00    -0.014 A 
BRANCH  34  35
ATOM     35  C   UNL A   1      39.964  28.840  29.920  1.00  0.00     0.031 A 
ATOM     36  C   UNL A   1      40.507  28.576  31.274  1.00  0.00     0.074 A 
ATOM     37  C   UNL A   1      40.406  28.129  28.864  1.00  0.00     0.049 A 
ATOM     38  N   UNL A   1      41.609  29.017  31.778  1.00  0.00    -0.248 NA
ATOM     39  C   UNL A   1      39.668  27.828  32.222  1.00  0.00     0.031 C 
ATOM     40  C   UNL A   1      39.790  27.937  27.552  1.00  0.00     0.029 A 
ATOM     41  N   UNL A   1      41.516  27.345  28.799  1.00  0.00    -0.354 N 
ATOM     42  C   UNL A   1      41.689  28.477  33.057  1.00  0.00     0.074 A 
ATOM     43  C   UNL A   1      40.400  27.898  33.334  1.00  0.00     0.031 C 
ATOM     44  C   UNL A   1      40.445  26.957  26.885  1.00  0.00     0.029 A 
ATOM     45  C   UNL A   1      41.607  26.560  27.660  1.00  0.00     0.049 A 
ATOM     46  H   UNL A   1      42.201  27.335  29.507  1.00  0.00     0.167 HD
ATOM     47  C   UNL A   1      42.882  28.370  33.703  1.00  0.00     0.037 A 
ATOM     48  C   UNL A   1      42.564  25.633  27.408  1.00  0.00     0.037 A 
ATOM     49  C   UNL A   1      43.893  29.174  33.063  1.00  0.00     0.049 A 
ATOM     50  C   UNL A   1      43.724  25.954  28.277  1.00  0.00     0.074 A 
ATOM     51  C   UNL A   1      44.039  30.523  32.806  1.00  0.00     0.029 A 
ATOM     52  N   UNL A   1      44.779  28.542  32.223  1.00  0.00    -0.354 N 
ATOM     53  N   UNL A   1      44.465  27.019  28.146  1.00  0.00    -0.248 NA
ATOM     54  C   UNL A   1      43.805  25.293  29.572  1.00  0.00     0.031 C 
ATOM     55  C   UNL A   1      44.621  30.591  31.505  1.00  0.00     0.029 A 
ATOM     56  C   UNL A   1      44.846  29.283  31.071  1.00  0.00     0.049 A 
ATOM     57  H   UNL A   1      45.272  27.712  32.413  1.00  0.00     0.167 HD
ATOM     58  C   UNL A   1      44.764  27.404  29.444  1.00  0.00     0.074 A 
ATOM     59  C   UNL A   1      44.420  26.251  30.271  1.00  0.00     0.031 C 
ATOM     60  C   UNL A   1      45.000  28.712  29.753  1.00  0.00     0.037 A 
BRANCH  47  61
ATOM     61  C   UNL A   1      43.225  27.296  34.703  1.00  0.00     0.064 A 
ATOM     62  C   UNL A   1      43.519  27.663  36.031  1.00  0.00     0.173 A 
ATOM     63  C   UNL A   1      43.554  25.969  34.352  1.00  0.00     0.173 A 
ATOM     64  F   UNL A   1      43.269  28.907  36.468  1.00  0.00    -0.203 F 
ATOM     65  C   UNL A   1      44.158  26.790  36.915  1.00  0.00     0.198 A 
ATOM     66  C   UNL A   1      44.137  25.081  35.255  1.00  0.00     0.198 A 
ATOM     67  F   UNL A   1      43.434  25.511  33.101  1.00  0.00    -0.203 F 
ATOM     68  F   UNL A   1      44.529  27.226  38.126  1.00  0.00    -0.200 F 
ATOM     69  C   UNL A   1      44.468  25.500  36.526  1.00  0.00     0.200 A 
ATOM     70  F   UNL A   1      44.447  23.842  34.852  1.00  0.00    -0.200 F 
ATOM     71  F   UNL A   1      45.131  24.681  37.351  1.00  0.00    -0.200 F 
ENDBRANCH  47  61
BRANCH  48  72
ATOM     72  C   UNL A   1      42.444  24.333  26.707  1.00  0.00     0.064 A 
ATOM     73  C   UNL A   1      43.241  24.046  25.586  1.00  0.00     0.173 A 
ATOM     74  C   UNL A   1      41.784  23.242  27.302  1.00  0.00     0.173 A 
ATOM     75  F   UNL A   1      43.931  25.024  24.981  1.00  0.00    -0.203 F 
ATOM     76  C   UNL A   1      43.406  22.739  25.118  1.00  0.00     0.198 A 
ATOM     77  C   UNL A   1      41.946  21.938  26.831  1.00  0.00     0.198 A 
ATOM     78  F   UNL A   1      41.055  23.405  28.415  1.00  0.00    -0.203 F 
ATOM     79  F   UNL A   1      44.237  22.495  24.095  1.00  0.00    -0.200 F 
ATOM     80  C   UNL A   1      42.771  21.684  25.751  1.00  0.00     0.200 A 
ATOM     81  F   UNL A   1      41.354  20.921  27.475  1.00  0.00    -0.200 F 
ATOM     82  F   UNL A   1      42.989  20.424  25.352  1.00  0.00    -0.200 F 
ENDBRANCH  48  72
BRANCH  60  83
ATOM     83  C   UNL A   1      45.195  29.678  28.616  1.00  0.00     0.064 A 
ATOM     84  C   UNL A   1      44.151  30.393  28.003  1.00  0.00     0.173 A 
ATOM     85  C   UNL A   1      46.504  30.005  28.242  1.00  0.00     0.173 A 
ATOM     86  F   UNL A   1      42.878  30.211  28.371  1.00  0.00    -0.203 F 
ATOM     87  C   UNL A   1      44.408  31.364  27.035  1.00  0.00     0.198 A 
ATOM     88  C   UNL A   1      46.761  31.000  27.302  1.00  0.00     0.198 A 
ATOM     89  F   UNL A   1      47.544  29.394  28.830  1.00  0.00    -0.203 F 
ATOM     90  F   UNL A   1      43.393  32.027  26.462  1.00  0.00    -0.200 F 
ATOM     91  C   UNL A   1      45.713  31.673  26.693  1.00  0.00     0.200 A 
ATOM     92  F   UNL A   1      48.026  31.330  27.011  1.00  0.00    -0.200 F 
ATOM     93  F   UNL A   1      45.964  32.640  25.799  1.00  0.00    -0.200 F 
ENDBRANCH  60  83
ENDBRANCH  34  35
ENDBRANCH  26  29
ENDBRANCH  24  25
ENDBRANCH   1  24
TORSDOF 12
ENDMDL
