MODEL 1
REMARK VINA RESULT:     -10.9      0.000      0.000
REMARK SMILES CC[NH2+][C@H](CC[N@@H+](C)C1CCC(C)(C)CC1)C(=O)NCCCCNC(=O)c1ccc(-c2c3nc(c(-c4c(F)c(F)c(F)c(F)c4F)c4ccc([nH]4)c(-c4c(F)c(F)c(F)c(F)c4F)c4nc(c(-c5c(F)c(F)c(F)c(F)c5F)c5ccc2[nH]5)C=C4)C=C3)cc1
REMARK SMILES IDX 20 1 19 2 17 3 18 4 4 6 3 7 2 10 1 11 5 12 6 13 7 14 8 15
REMARK SMILES IDX 9 17 10 18 16 19 11 20 15 21 12 22 13 23 14 24 21 25 22 26
REMARK SMILES IDX 23 27 24 28 25 29 26 31 27 32 28 33 89 34 29 35 88 36 30 37
REMARK SMILES IDX 31 38 32 39 82 40 33 41 87 42 81 43 83 44 34 45 86 46 80 47
REMARK SMILES IDX 79 48 35 50 67 51 47 52 66 53 48 54 51 55 65 56 84 57 49 58
REMARK SMILES IDX 50 59 64 61 85 62 52 63 36 64 37 65 45 66 38 67 39 68 43 69
REMARK SMILES IDX 46 70 40 71 41 72 44 73 42 74 68 75 69 76 77 77 70 78 71 79
REMARK SMILES IDX 75 80 78 81 72 82 73 83 76 84 74 85 53 86 54 87 62 88 55 89
REMARK SMILES IDX 56 90 60 91 63 92 57 93 58 94 61 95 59 96
REMARK H PARENT 19 5 3 8 3 9 7 16 24 30 83 49 51 60
REMARK Flexibility Score: inf
ROOT
ATOM      1  C   UNL A   1      34.110  29.525  27.235  1.00  0.00     0.116 C 
ENDROOT
BRANCH   1   2
ATOM      2  N   UNL A   1      32.753  29.223  27.634  1.00  0.00    -0.351 N 
ATOM      3  C   UNL A   1      31.984  28.188  27.177  1.00  0.00     0.278 C 
ATOM      4  O   UNL A   1      31.080  27.770  27.906  1.00  0.00    -0.268 OA
ATOM      5  H   UNL A   1      32.343  29.819  28.302  1.00  0.00     0.163 HD
BRANCH   3   6
ATOM      6  C   UNL A   1      32.342  27.486  25.839  1.00  0.00     0.278 C 
BRANCH   6   7
ATOM      7  N   UNL A   1      31.124  27.699  25.016  1.00  0.00    -0.336 N 
ATOM      8  H   UNL A   1      30.735  26.781  24.809  1.00  0.00     0.346 HD
ATOM      9  H   UNL A   1      30.541  28.315  25.585  1.00  0.00     0.346 HD
BRANCH   7  10
ATOM     10  C   UNL A   1      31.260  28.400  23.758  1.00  0.00     0.257 C 
ATOM     11  C   UNL A   1      30.232  29.526  23.746  1.00  0.00     0.071 C 
ENDBRANCH   7  10
ENDBRANCH   6   7
BRANCH   6  12
ATOM     12  C   UNL A   1      32.855  26.032  26.019  1.00  0.00     0.137 C 
BRANCH  12  13
ATOM     13  C   UNL A   1      32.107  24.778  25.462  1.00  0.00     0.269 C 
BRANCH  13  14
ATOM     14  N   UNL A   1      32.454  24.053  24.220  1.00  0.00    -0.335 N 
ATOM     15  C   UNL A   1      32.800  25.013  23.165  1.00  0.00     0.332 C 
ATOM     16  H   UNL A   1      31.613  23.540  23.958  1.00  0.00     0.348 HD
BRANCH  14  17
ATOM     17  C   UNL A   1      33.456  22.966  24.355  1.00  0.00     0.183 C 
ATOM     18  C   UNL A   1      34.616  22.892  23.316  1.00  0.00     0.065 C 
ATOM     19  C   UNL A   1      33.915  22.640  25.792  1.00  0.00     0.065 C 
ATOM     20  C   UNL A   1      36.019  23.258  23.823  1.00  0.00     0.012 C 
ATOM     21  C   UNL A   1      35.278  23.166  26.176  1.00  0.00     0.012 C 
ATOM     22  C   UNL A   1      36.353  22.668  25.208  1.00  0.00    -0.035 C 
ATOM     23  C   UNL A   1      37.713  23.174  25.708  1.00  0.00     0.011 C 
ATOM     24  C   UNL A   1      36.404  21.124  25.171  1.00  0.00     0.011 C 
ENDBRANCH  14  17
ENDBRANCH  13  14
ENDBRANCH  12  13
ENDBRANCH   6  12
ENDBRANCH   3   6
ENDBRANCH   1   2
BRANCH   1  25
ATOM     25  C   UNL A   1      34.651  30.791  27.885  1.00  0.00     0.023 C 
BRANCH  25  26
ATOM     26  C   UNL A   1      33.597  31.844  28.192  1.00  0.00     0.023 C 
BRANCH  26  27
ATOM     27  C   UNL A   1      33.607  33.040  27.255  1.00  0.00     0.116 C 
BRANCH  27  28
ATOM     28  N   UNL A   1      32.865  34.188  27.764  1.00  0.00    -0.352 N 
ATOM     29  C   UNL A   1      33.142  34.971  28.860  1.00  0.00     0.251 C 
ATOM     30  H   UNL A   1      32.061  34.436  27.253  1.00  0.00     0.163 HD
ATOM     31  O   UNL A   1      32.411  35.884  29.192  1.00  0.00    -0.269 OA
BRANCH  29  32
ATOM     32  C   UNL A   1      34.326  34.620  29.660  1.00  0.00     0.039 A 
ATOM     33  C   UNL A   1      34.129  34.039  30.911  1.00  0.00     0.014 A 
ATOM     34  C   UNL A   1      35.603  34.735  29.103  1.00  0.00     0.014 A 
ATOM     35  C   UNL A   1      35.218  33.491  31.583  1.00  0.00     0.010 A 
ATOM     36  C   UNL A   1      36.671  34.116  29.735  1.00  0.00     0.010 A 
ATOM     37  C   UNL A   1      36.485  33.485  30.976  1.00  0.00    -0.014 A 
BRANCH  37  38
ATOM     38  C   UNL A   1      37.639  32.821  31.622  1.00  0.00     0.031 A 
ATOM     39  C   UNL A   1      38.285  31.647  30.949  1.00  0.00     0.074 A 
ATOM     40  C   UNL A   1      38.041  33.221  32.844  1.00  0.00     0.049 A 
ATOM     41  N   UNL A   1      39.234  30.862  31.387  1.00  0.00    -0.248 NA
ATOM     42  C   UNL A   1      37.769  31.285  29.619  1.00  0.00     0.031 C 
ATOM     43  C   UNL A   1      37.447  34.315  33.616  1.00  0.00     0.029 A 
ATOM     44  N   UNL A   1      39.033  32.741  33.660  1.00  0.00    -0.354 N 
ATOM     45  C   UNL A   1      39.411  29.904  30.399  1.00  0.00     0.074 A 
ATOM     46  C   UNL A   1      38.439  30.171  29.363  1.00  0.00     0.031 C 
ATOM     47  C   UNL A   1      38.096  34.432  34.785  1.00  0.00     0.029 A 
ATOM     48  C   UNL A   1      39.125  33.400  34.862  1.00  0.00     0.049 A 
ATOM     49  H   UNL A   1      39.624  31.995  33.407  1.00  0.00     0.167 HD
ATOM     50  C   UNL A   1      40.322  28.904  30.354  1.00  0.00     0.037 A 
ATOM     51  C   UNL A   1      39.942  33.182  35.910  1.00  0.00     0.037 A 
ATOM     52  C   UNL A   1      41.310  28.673  31.371  1.00  0.00     0.049 A 
ATOM     53  C   UNL A   1      40.952  32.069  35.828  1.00  0.00     0.074 A 
ATOM     54  C   UNL A   1      42.336  27.745  31.380  1.00  0.00     0.029 A 
ATOM     55  N   UNL A   1      41.394  29.378  32.562  1.00  0.00    -0.354 N 
ATOM     56  N   UNL A   1      41.169  31.220  34.852  1.00  0.00    -0.248 NA
ATOM     57  C   UNL A   1      41.830  31.884  36.991  1.00  0.00     0.031 C 
ATOM     58  C   UNL A   1      43.013  27.858  32.598  1.00  0.00     0.029 A 
ATOM     59  C   UNL A   1      42.438  28.888  33.328  1.00  0.00     0.049 A 
ATOM     60  H   UNL A   1      40.799  30.118  32.825  1.00  0.00     0.167 HD
ATOM     61  C   UNL A   1      42.220  30.417  35.271  1.00  0.00     0.074 A 
ATOM     62  C   UNL A   1      42.609  30.891  36.584  1.00  0.00     0.031 C 
ATOM     63  C   UNL A   1      42.811  29.381  34.629  1.00  0.00     0.037 A 
BRANCH  50  64
ATOM     64  C   UNL A   1      40.292  27.993  29.163  1.00  0.00     0.064 A 
ATOM     65  C   UNL A   1      41.005  28.289  27.992  1.00  0.00     0.173 A 
ATOM     66  C   UNL A   1      39.570  26.792  29.208  1.00  0.00     0.173 A 
ATOM     67  F   UNL A   1      41.700  29.432  27.894  1.00  0.00    -0.203 F 
ATOM     68  C   UNL A   1      40.973  27.428  26.897  1.00  0.00     0.198 A 
ATOM     69  C   UNL A   1      39.564  25.919  28.122  1.00  0.00     0.198 A 
ATOM     70  F   UNL A   1      38.872  26.461  30.305  1.00  0.00    -0.203 F 
ATOM     71  F   UNL A   1      41.623  27.755  25.771  1.00  0.00    -0.200 F 
ATOM     72  C   UNL A   1      40.259  26.242  26.967  1.00  0.00     0.200 A 
ATOM     73  F   UNL A   1      38.883  24.767  28.195  1.00  0.00    -0.200 F 
ATOM     74  F   UNL A   1      40.237  25.410  25.916  1.00  0.00    -0.200 F 
ENDBRANCH  50  64
BRANCH  51  75
ATOM     75  C   UNL A   1      39.849  34.043  37.117  1.00  0.00     0.064 A 
ATOM     76  C   UNL A   1      39.050  33.672  38.207  1.00  0.00     0.173 A 
ATOM     77  C   UNL A   1      40.549  35.255  37.205  1.00  0.00     0.173 A 
ATOM     78  F   UNL A   1      38.346  32.531  38.162  1.00  0.00    -0.203 F 
ATOM     79  C   UNL A   1      38.937  34.489  39.330  1.00  0.00     0.198 A 
ATOM     80  C   UNL A   1      40.456  36.059  38.340  1.00  0.00     0.198 A 
ATOM     81  F   UNL A   1      41.331  35.655  36.192  1.00  0.00    -0.203 F 
ATOM     82  F   UNL A   1      38.130  34.130  40.338  1.00  0.00    -0.200 F 
ATOM     83  C   UNL A   1      39.644  35.679  39.398  1.00  0.00     0.200 A 
ATOM     84  F   UNL A   1      41.151  37.203  38.407  1.00  0.00    -0.200 F 
ATOM     85  F   UNL A   1      39.537  36.464  40.479  1.00  0.00    -0.200 F 
ENDBRANCH  51  75
BRANCH  63  86
ATOM     86  C   UNL A   1      43.954  28.703  35.323  1.00  0.00     0.064 A 
ATOM     87  C   UNL A   1      43.749  27.608  36.174  1.00  0.00     0.173 A 
ATOM     88  C   UNL A   1      45.273  29.118  35.087  1.00  0.00     0.173 A 
ATOM     89  F   UNL A   1      42.504  27.185  36.442  1.00  0.00    -0.203 F 
ATOM     90  C   UNL A   1      44.824  26.962  36.776  1.00  0.00     0.198 A 
ATOM     91  C   UNL A   1      46.347  28.451  35.668  1.00  0.00     0.198 A 
ATOM     92  F   UNL A   1      45.521  30.157  34.275  1.00  0.00    -0.203 F 
ATOM     93  F   UNL A   1      44.604  25.940  37.616  1.00  0.00    -0.200 F 
ATOM     94  C   UNL A   1      46.122  27.378  36.516  1.00  0.00     0.200 A 
ATOM     95  F   UNL A   1      47.601  28.846  35.405  1.00  0.00    -0.200 F 
ATOM     96  F   UNL A   1      47.156  26.746  37.088  1.00  0.00    -0.200 F 
ENDBRANCH  63  86
ENDBRANCH  37  38
ENDBRANCH  29  32
ENDBRANCH  27  28
ENDBRANCH  26  27
ENDBRANCH  25  26
ENDBRANCH   1  25
TORSDOF 17
ENDMDL
MODEL 2
REMARK VINA RESULT:     -10.7      1.095      2.155
REMARK SMILES CC[NH2+][C@H](CC[N@@H+](C)C1CCC(C)(C)CC1)C(=O)NCCCCNC(=O)c1ccc(-c2c3nc(c(-c4c(F)c(F)c(F)c(F)c4F)c4ccc([nH]4)c(-c4c(F)c(F)c(F)c(F)c4F)c4nc(c(-c5c(F)c(F)c(F)c(F)c5F)c5ccc2[nH]5)C=C4)C=C3)cc1
REMARK SMILES IDX 20 1 19 2 17 3 18 4 4 6 3 7 2 10 1 11 5 12 6 13 7 14 8 15
REMARK SMILES IDX 9 17 10 18 16 19 11 20 15 21 12 22 13 23 14 24 21 25 22 26
REMARK SMILES IDX 23 27 24 28 25 29 26 31 27 32 28 33 89 34 29 35 88 36 30 37
REMARK SMILES IDX 31 38 32 39 82 40 33 41 87 42 81 43 83 44 34 45 86 46 80 47
REMARK SMILES IDX 79 48 35 50 67 51 47 52 66 53 48 54 51 55 65 56 84 57 49 58
REMARK SMILES IDX 50 59 64 61 85 62 52 63 36 64 37 65 45 66 38 67 39 68 43 69
REMARK SMILES IDX 46 70 40 71 41 72 44 73 42 74 68 75 69 76 77 77 70 78 71 79
REMARK SMILES IDX 75 80 78 81 72 82 73 83 76 84 74 85 53 86 54 87 62 88 55 89
REMARK SMILES IDX 56 90 60 91 63 92 57 93 58 94 61 95 59 96
REMARK H PARENT 19 5 3 8 3 9 7 16 24 30 83 49 51 60
REMARK Flexibility Score: inf
ROOT
ATOM      1  C   UNL A   1      31.583  29.851  25.149  1.00  0.00     0.116 C 
ENDROOT
BRANCH   1   2
ATOM      2  N   UNL A   1      32.934  29.709  24.652  1.00  0.00    -0.351 N 
ATOM      3  C   UNL A   1      33.450  28.618  24.008  1.00  0.00     0.278 C 
ATOM      4  O   UNL A   1      34.405  28.793  23.244  1.00  0.00    -0.268 OA
ATOM      5  H   UNL A   1      33.541  30.472  24.788  1.00  0.00     0.163 HD
BRANCH   3   6
ATOM      6  C   UNL A   1      32.754  27.236  24.138  1.00  0.00     0.278 C 
BRANCH   6   7
ATOM      7  N   UNL A   1      31.673  27.313  23.122  1.00  0.00    -0.336 N 
ATOM      8  H   UNL A   1      30.813  27.551  23.613  1.00  0.00     0.346 HD
ATOM      9  H   UNL A   1      32.009  28.001  22.448  1.00  0.00     0.346 HD
BRANCH   7  10
ATOM     10  C   UNL A   1      31.398  26.138  22.323  1.00  0.00     0.257 C 
ATOM     11  C   UNL A   1      32.730  25.618  21.797  1.00  0.00     0.071 C 
ENDBRANCH   7  10
ENDBRANCH   6   7
BRANCH   6  12
ATOM     12  C   UNL A   1      32.361  26.875  25.595  1.00  0.00     0.137 C 
BRANCH  12  13
ATOM     13  C   UNL A   1      31.905  25.446  26.037  1.00  0.00     0.269 C 
BRANCH  13  14
ATOM     14  N   UNL A   1      32.779  24.257  26.131  1.00  0.00    -0.335 N 
ATOM     15  C   UNL A   1      31.959  23.046  26.249  1.00  0.00     0.332 C 
ATOM     16  H   UNL A   1      33.327  24.388  26.981  1.00  0.00     0.348 HD
BRANCH  14  17
ATOM     17  C   UNL A   1      33.834  24.135  25.093  1.00  0.00     0.183 C 
ATOM     18  C   UNL A   1      35.281  24.593  25.447  1.00  0.00     0.065 C 
ATOM     19  C   UNL A   1      33.802  22.848  24.241  1.00  0.00     0.065 C 
ATOM     20  C   UNL A   1      36.333  23.485  25.611  1.00  0.00     0.012 C 
ATOM     21  C   UNL A   1      34.834  21.804  24.599  1.00  0.00     0.012 C 
ATOM     22  C   UNL A   1      36.248  22.384  24.533  1.00  0.00    -0.035 C 
ATOM     23  C   UNL A   1      37.240  21.250  24.827  1.00  0.00     0.011 C 
ATOM     24  C   UNL A   1      36.563  22.939  23.126  1.00  0.00     0.011 C 
ENDBRANCH  14  17
ENDBRANCH  13  14
ENDBRANCH  12  13
ENDBRANCH   6  12
ENDBRANCH   3   6
ENDBRANCH   1   2
BRANCH   1  25
ATOM     25  C   UNL A   1      31.401  31.085  26.023  1.00  0.00     0.023 C 
BRANCH  25  26
ATOM     26  C   UNL A   1      32.297  31.128  27.251  1.00  0.00     0.023 C 
BRANCH  26  27
ATOM     27  C   UNL A   1      33.315  32.256  27.252  1.00  0.00     0.116 C 
BRANCH  27  28
ATOM     28  N   UNL A   1      32.734  33.568  27.512  1.00  0.00    -0.352 N 
ATOM     29  C   UNL A   1      33.126  34.512  28.431  1.00  0.00     0.251 C 
ATOM     30  H   UNL A   1      31.959  33.810  26.955  1.00  0.00     0.163 HD
ATOM     31  O   UNL A   1      32.524  35.559  28.567  1.00  0.00    -0.269 OA
BRANCH  29  32
ATOM     32  C   UNL A   1      34.270  34.180  29.296  1.00  0.00     0.039 A 
ATOM     33  C   UNL A   1      34.027  33.453  30.460  1.00  0.00     0.014 A 
ATOM     34  C   UNL A   1      35.571  34.464  28.873  1.00  0.00     0.014 A 
ATOM     35  C   UNL A   1      35.105  32.931  31.169  1.00  0.00     0.010 A 
ATOM     36  C   UNL A   1      36.638  33.875  29.533  1.00  0.00     0.010 A 
ATOM     37  C   UNL A   1      36.412  33.100  30.683  1.00  0.00    -0.014 A 
BRANCH  37  38
ATOM     38  C   UNL A   1      37.567  32.471  31.362  1.00  0.00     0.031 A 
ATOM     39  C   UNL A   1      38.267  31.318  30.707  1.00  0.00     0.074 A 
ATOM     40  C   UNL A   1      37.921  32.882  32.594  1.00  0.00     0.049 A 
ATOM     41  N   UNL A   1      39.228  30.562  31.172  1.00  0.00    -0.248 NA
ATOM     42  C   UNL A   1      37.801  30.941  29.363  1.00  0.00     0.031 C 
ATOM     43  C   UNL A   1      37.272  33.957  33.349  1.00  0.00     0.029 A 
ATOM     44  N   UNL A   1      38.905  32.433  33.438  1.00  0.00    -0.354 N 
ATOM     45  C   UNL A   1      39.463  29.611  30.190  1.00  0.00     0.074 A 
ATOM     46  C   UNL A   1      38.512  29.849  29.126  1.00  0.00     0.031 C 
ATOM     47  C   UNL A   1      37.885  34.093  34.536  1.00  0.00     0.029 A 
ATOM     48  C   UNL A   1      38.943  33.093  34.642  1.00  0.00     0.049 A 
ATOM     49  H   UNL A   1      39.526  31.706  33.202  1.00  0.00     0.167 HD
ATOM     50  C   UNL A   1      40.405  28.640  30.170  1.00  0.00     0.037 A 
ATOM     51  C   UNL A   1      39.736  32.900  35.713  1.00  0.00     0.037 A 
ATOM     52  C   UNL A   1      41.370  28.438  31.215  1.00  0.00     0.049 A 
ATOM     53  C   UNL A   1      40.782  31.819  35.659  1.00  0.00     0.074 A 
ATOM     54  C   UNL A   1      42.424  27.543  31.253  1.00  0.00     0.029 A 
ATOM     55  N   UNL A   1      41.398  29.145  32.408  1.00  0.00    -0.354 N 
ATOM     56  N   UNL A   1      41.052  30.978  34.690  1.00  0.00    -0.248 NA
ATOM     57  C   UNL A   1      41.632  31.660  36.847  1.00  0.00     0.031 C 
ATOM     58  C   UNL A   1      43.062  27.676  32.490  1.00  0.00     0.029 A 
ATOM     59  C   UNL A   1      42.436  28.687  33.203  1.00  0.00     0.049 A 
ATOM     60  H   UNL A   1      40.774  29.866  32.653  1.00  0.00     0.167 HD
ATOM     61  C   UNL A   1      42.115  30.207  35.139  1.00  0.00     0.074 A 
ATOM     62  C   UNL A   1      42.453  30.692  36.462  1.00  0.00     0.031 C 
ATOM     63  C   UNL A   1      42.756  29.190  34.513  1.00  0.00     0.037 A 
BRANCH  50  64
ATOM     64  C   UNL A   1      40.436  27.729  28.979  1.00  0.00     0.064 A 
ATOM     65  C   UNL A   1      41.237  28.007  27.862  1.00  0.00     0.173 A 
ATOM     66  C   UNL A   1      39.683  26.546  28.971  1.00  0.00     0.173 A 
ATOM     67  F   UNL A   1      41.966  29.132  27.814  1.00  0.00    -0.203 F 
ATOM     68  C   UNL A   1      41.262  27.146  26.767  1.00  0.00     0.198 A 
ATOM     69  C   UNL A   1      39.733  25.673  27.887  1.00  0.00     0.198 A 
ATOM     70  F   UNL A   1      38.902  26.233  30.016  1.00  0.00    -0.203 F 
ATOM     71  F   UNL A   1      41.997  27.457  25.690  1.00  0.00    -0.200 F 
ATOM     72  C   UNL A   1      40.516  25.978  26.784  1.00  0.00     0.200 A 
ATOM     73  F   UNL A   1      39.021  24.539  27.910  1.00  0.00    -0.200 F 
ATOM     74  F   UNL A   1      40.548  25.146  25.733  1.00  0.00    -0.200 F 
ENDBRANCH  50  64
BRANCH  51  75
ATOM     75  C   UNL A   1      39.583  33.757  36.916  1.00  0.00     0.064 A 
ATOM     76  C   UNL A   1      40.288  34.962  37.037  1.00  0.00     0.173 A 
ATOM     77  C   UNL A   1      38.738  33.388  37.973  1.00  0.00     0.173 A 
ATOM     78  F   UNL A   1      41.124  35.348  36.062  1.00  0.00    -0.203 F 
ATOM     79  C   UNL A   1      40.170  35.756  38.176  1.00  0.00     0.198 A 
ATOM     80  C   UNL A   1      38.600  34.195  39.101  1.00  0.00     0.198 A 
ATOM     81  F   UNL A   1      38.037  32.246  37.907  1.00  0.00    -0.203 F 
ATOM     82  F   UNL A   1      40.891  36.880  38.284  1.00  0.00    -0.200 F 
ATOM     83  C   UNL A   1      39.323  35.374  39.205  1.00  0.00     0.200 A 
ATOM     84  F   UNL A   1      37.771  33.830  40.087  1.00  0.00    -0.200 F 
ATOM     85  F   UNL A   1      39.209  36.138  40.300  1.00  0.00    -0.200 F 
ENDBRANCH  51  75
BRANCH  63  86
ATOM     86  C   UNL A   1      43.899  28.547  35.240  1.00  0.00     0.064 A 
ATOM     87  C   UNL A   1      45.205  29.045  35.137  1.00  0.00     0.173 A 
ATOM     88  C   UNL A   1      43.673  27.457  36.093  1.00  0.00     0.173 A 
ATOM     89  F   UNL A   1      45.473  30.076  34.322  1.00  0.00    -0.203 F 
ATOM     90  C   UNL A   1      46.248  28.464  35.852  1.00  0.00     0.198 A 
ATOM     91  C   UNL A   1      44.714  26.897  36.829  1.00  0.00     0.198 A 
ATOM     92  F   UNL A   1      42.439  26.948  36.229  1.00  0.00    -0.203 F 
ATOM     93  F   UNL A   1      47.497  28.932  35.711  1.00  0.00    -0.200 F 
ATOM     94  C   UNL A   1      46.000  27.397  36.704  1.00  0.00     0.200 A 
ATOM     95  F   UNL A   1      44.469  25.875  37.660  1.00  0.00    -0.200 F 
ATOM     96  F   UNL A   1      47.004  26.848  37.400  1.00  0.00    -0.200 F 
ENDBRANCH  63  86
ENDBRANCH  37  38
ENDBRANCH  29  32
ENDBRANCH  27  28
ENDBRANCH  26  27
ENDBRANCH  25  26
ENDBRANCH   1  25
TORSDOF 17
ENDMDL
MODEL 3
REMARK VINA RESULT:     -10.6      1.081      7.455
REMARK SMILES CC[NH2+][C@H](CC[N@@H+](C)C1CCC(C)(C)CC1)C(=O)NCCCCNC(=O)c1ccc(-c2c3nc(c(-c4c(F)c(F)c(F)c(F)c4F)c4ccc([nH]4)c(-c4c(F)c(F)c(F)c(F)c4F)c4nc(c(-c5c(F)c(F)c(F)c(F)c5F)c5ccc2[nH]5)C=C4)C=C3)cc1
REMARK SMILES IDX 20 1 19 2 17 3 18 4 4 6 3 7 2 10 1 11 5 12 6 13 7 14 8 15
REMARK SMILES IDX 9 17 10 18 16 19 11 20 15 21 12 22 13 23 14 24 21 25 22 26
REMARK SMILES IDX 23 27 24 28 25 29 26 31 27 32 28 33 89 34 29 35 88 36 30 37
REMARK SMILES IDX 31 38 32 39 82 40 33 41 87 42 81 43 83 44 34 45 86 46 80 47
REMARK SMILES IDX 79 48 35 50 67 51 47 52 66 53 48 54 51 55 65 56 84 57 49 58
REMARK SMILES IDX 50 59 64 61 85 62 52 63 36 64 37 65 45 66 38 67 39 68 43 69
REMARK SMILES IDX 46 70 40 71 41 72 44 73 42 74 68 75 69 76 77 77 70 78 71 79
REMARK SMILES IDX 75 80 78 81 72 82 73 83 76 84 74 85 53 86 54 87 62 88 55 89
REMARK SMILES IDX 56 90 60 91 63 92 57 93 58 94 61 95 59 96
REMARK H PARENT 19 5 3 8 3 9 7 16 24 30 83 49 51 60
REMARK Flexibility Score: inf
ROOT
ATOM      1  C   UNL A   1      34.451  29.676  27.245  1.00  0.00     0.116 C 
ENDROOT
BRANCH   1   2
ATOM      2  N   UNL A   1      33.308  28.789  27.267  1.00  0.00    -0.351 N 
ATOM      3  C   UNL A   1      32.499  28.483  26.209  1.00  0.00     0.278 C 
ATOM      4  O   UNL A   1      31.896  27.405  26.231  1.00  0.00    -0.268 OA
ATOM      5  H   UNL A   1      33.093  28.363  28.128  1.00  0.00     0.163 HD
BRANCH   3   6
ATOM      6  C   UNL A   1      32.462  29.411  24.964  1.00  0.00     0.278 C 
BRANCH   6   7
ATOM      7  N   UNL A   1      31.008  29.532  24.685  1.00  0.00    -0.336 N 
ATOM      8  H   UNL A   1      30.530  28.848  25.270  1.00  0.00     0.346 HD
ATOM      9  H   UNL A   1      30.794  30.511  24.877  1.00  0.00     0.346 HD
BRANCH   7  10
ATOM     10  C   UNL A   1      30.549  29.328  23.328  1.00  0.00     0.257 C 
ATOM     11  C   UNL A   1      29.774  28.016  23.297  1.00  0.00     0.071 C 
ENDBRANCH   7  10
ENDBRANCH   6   7
BRANCH   6  12
ATOM     12  C   UNL A   1      33.389  28.943  23.812  1.00  0.00     0.137 C 
BRANCH  12  13
ATOM     13  C   UNL A   1      34.025  27.516  23.742  1.00  0.00     0.269 C 
BRANCH  13  14
ATOM     14  N   UNL A   1      33.301  26.269  23.416  1.00  0.00    -0.335 N 
ATOM     15  C   UNL A   1      32.899  26.282  22.005  1.00  0.00     0.332 C 
ATOM     16  H   UNL A   1      32.474  26.269  24.011  1.00  0.00     0.348 HD
BRANCH  14  17
ATOM     17  C   UNL A   1      33.969  25.002  23.807  1.00  0.00     0.183 C 
ATOM     18  C   UNL A   1      33.926  24.572  25.305  1.00  0.00     0.065 C 
ATOM     19  C   UNL A   1      33.795  23.814  22.836  1.00  0.00     0.065 C 
ATOM     20  C   UNL A   1      33.042  23.364  25.650  1.00  0.00     0.012 C 
ATOM     21  C   UNL A   1      32.804  22.759  23.268  1.00  0.00     0.012 C 
ATOM     22  C   UNL A   1      33.163  22.199  24.646  1.00  0.00    -0.035 C 
ATOM     23  C   UNL A   1      32.165  21.081  24.978  1.00  0.00     0.011 C 
ATOM     24  C   UNL A   1      34.582  21.588  24.652  1.00  0.00     0.011 C 
ENDBRANCH  14  17
ENDBRANCH  13  14
ENDBRANCH  12  13
ENDBRANCH   6  12
ENDBRANCH   3   6
ENDBRANCH   1   2
BRANCH   1  25
ATOM     25  C   UNL A   1      34.268  30.901  28.132  1.00  0.00     0.023 C 
BRANCH  25  26
ATOM     26  C   UNL A   1      33.081  31.778  27.760  1.00  0.00     0.023 C 
BRANCH  26  27
ATOM     27  C   UNL A   1      33.450  33.071  27.052  1.00  0.00     0.116 C 
BRANCH  27  28
ATOM     28  N   UNL A   1      32.816  34.253  27.625  1.00  0.00    -0.352 N 
ATOM     29  C   UNL A   1      33.158  34.941  28.766  1.00  0.00     0.251 C 
ATOM     30  H   UNL A   1      32.043  34.606  27.129  1.00  0.00     0.163 HD
ATOM     31  O   UNL A   1      32.515  35.899  29.149  1.00  0.00    -0.269 OA
BRANCH  29  32
ATOM     32  C   UNL A   1      34.298  34.434  29.545  1.00  0.00     0.039 A 
ATOM     33  C   UNL A   1      34.033  33.689  30.694  1.00  0.00     0.014 A 
ATOM     34  C   UNL A   1      35.599  34.577  29.054  1.00  0.00     0.014 A 
ATOM     35  C   UNL A   1      35.076  33.009  31.315  1.00  0.00     0.010 A 
ATOM     36  C   UNL A   1      36.619  33.833  29.625  1.00  0.00     0.010 A 
ATOM     37  C   UNL A   1      36.364  33.040  30.757  1.00  0.00    -0.014 A 
BRANCH  37  38
ATOM     38  C   UNL A   1      37.469  32.245  31.339  1.00  0.00     0.031 A 
ATOM     39  C   UNL A   1      37.964  32.572  32.716  1.00  0.00     0.074 A 
ATOM     40  C   UNL A   1      38.073  31.298  30.597  1.00  0.00     0.049 A 
ATOM     41  N   UNL A   1      38.981  32.073  33.369  1.00  0.00    -0.248 NA
ATOM     42  C   UNL A   1      37.241  33.627  33.444  1.00  0.00     0.031 C 
ATOM     43  C   UNL A   1      37.710  30.937  29.224  1.00  0.00     0.029 A 
ATOM     44  N   UNL A   1      39.133  30.477  30.886  1.00  0.00    -0.354 N 
ATOM     45  C   UNL A   1      39.032  32.767  34.569  1.00  0.00     0.074 A 
ATOM     46  C   UNL A   1      37.979  33.758  34.535  1.00  0.00     0.031 C 
ATOM     47  C   UNL A   1      38.523  29.957  28.797  1.00  0.00     0.029 A 
ATOM     48  C   UNL A   1      39.486  29.648  29.849  1.00  0.00     0.049 A 
ATOM     49  H   UNL A   1      39.596  30.481  31.754  1.00  0.00     0.167 HD
ATOM     50  C   UNL A   1      39.870  32.578  35.614  1.00  0.00     0.037 A 
ATOM     51  C   UNL A   1      40.486  28.750  29.758  1.00  0.00     0.037 A 
ATOM     52  C   UNL A   1      40.886  31.563  35.653  1.00  0.00     0.049 A 
ATOM     53  C   UNL A   1      41.397  28.552  30.940  1.00  0.00     0.074 A 
ATOM     54  C   UNL A   1      41.728  31.226  36.696  1.00  0.00     0.029 A 
ATOM     55  N   UNL A   1      41.198  30.720  34.595  1.00  0.00    -0.354 N 
ATOM     56  N   UNL A   1      41.384  29.156  32.104  1.00  0.00    -0.248 NA
ATOM     57  C   UNL A   1      42.460  27.549  30.796  1.00  0.00     0.031 C 
ATOM     58  C   UNL A   1      42.581  30.210  36.256  1.00  0.00     0.029 A 
ATOM     59  C   UNL A   1      42.240  29.881  34.953  1.00  0.00     0.049 A 
ATOM     60  H   UNL A   1      40.746  30.719  33.721  1.00  0.00     0.167 HD
ATOM     61  C   UNL A   1      42.417  28.593  32.838  1.00  0.00     0.074 A 
ATOM     62  C   UNL A   1      43.028  27.585  31.994  1.00  0.00     0.031 C 
ATOM     63  C   UNL A   1      42.826  28.881  34.098  1.00  0.00     0.037 A 
BRANCH  50  64
ATOM     64  C   UNL A   1      39.715  33.482  36.800  1.00  0.00     0.064 A 
ATOM     65  C   UNL A   1      40.417  34.693  36.898  1.00  0.00     0.173 A 
ATOM     66  C   UNL A   1      38.829  33.151  37.834  1.00  0.00     0.173 A 
ATOM     67  F   UNL A   1      41.289  35.049  35.942  1.00  0.00    -0.203 F 
ATOM     68  C   UNL A   1      40.257  35.526  38.002  1.00  0.00     0.198 A 
ATOM     69  C   UNL A   1      38.649  34.001  38.923  1.00  0.00     0.198 A 
ATOM     70  F   UNL A   1      38.132  32.005  37.788  1.00  0.00    -0.203 F 
ATOM     71  F   UNL A   1      40.975  36.654  38.097  1.00  0.00    -0.200 F 
ATOM     72  C   UNL A   1      39.368  35.183  39.009  1.00  0.00     0.200 A 
ATOM     73  F   UNL A   1      37.780  33.673  39.889  1.00  0.00    -0.200 F 
ATOM     74  F   UNL A   1      39.208  35.990  40.067  1.00  0.00    -0.200 F 
ENDBRANCH  50  64
BRANCH  51  75
ATOM     75  C   UNL A   1      40.667  27.961  28.513  1.00  0.00     0.064 A 
ATOM     76  C   UNL A   1      41.461  28.445  27.463  1.00  0.00     0.173 A 
ATOM     77  C   UNL A   1      40.048  26.715  28.340  1.00  0.00     0.173 A 
ATOM     78  F   UNL A   1      42.058  29.641  27.573  1.00  0.00    -0.203 F 
ATOM     79  C   UNL A   1      41.612  27.722  26.282  1.00  0.00     0.198 A 
ATOM     80  C   UNL A   1      40.221  25.981  27.169  1.00  0.00     0.198 A 
ATOM     81  F   UNL A   1      39.281  26.205  29.316  1.00  0.00    -0.203 F 
ATOM     82  F   UNL A   1      42.340  28.230  25.277  1.00  0.00    -0.200 F 
ATOM     83  C   UNL A   1      40.996  26.489  26.137  1.00  0.00     0.200 A 
ATOM     84  F   UNL A   1      39.634  24.783  27.038  1.00  0.00    -0.200 F 
ATOM     85  F   UNL A   1      41.142  25.793  25.001  1.00  0.00    -0.200 F 
ENDBRANCH  51  75
BRANCH  63  86
ATOM     86  C   UNL A   1      43.971  28.086  34.649  1.00  0.00     0.064 A 
ATOM     87  C   UNL A   1      43.767  26.855  35.288  1.00  0.00     0.173 A 
ATOM     88  C   UNL A   1      45.290  28.534  34.484  1.00  0.00     0.173 A 
ATOM     89  F   UNL A   1      42.523  26.393  35.484  1.00  0.00    -0.203 F 
ATOM     90  C   UNL A   1      44.844  26.108  35.756  1.00  0.00     0.198 A 
ATOM     91  C   UNL A   1      46.365  27.770  34.926  1.00  0.00     0.198 A 
ATOM     92  F   UNL A   1      45.535  29.703  33.873  1.00  0.00    -0.203 F 
ATOM     93  F   UNL A   1      44.626  24.951  36.398  1.00  0.00    -0.200 F 
ATOM     94  C   UNL A   1      46.142  26.561  35.566  1.00  0.00     0.200 A 
ATOM     95  F   UNL A   1      47.618  28.203  34.731  1.00  0.00    -0.200 F 
ATOM     96  F   UNL A   1      47.177  25.833  36.006  1.00  0.00    -0.200 F 
ENDBRANCH  63  86
ENDBRANCH  37  38
ENDBRANCH  29  32
ENDBRANCH  27  28
ENDBRANCH  26  27
ENDBRANCH  25  26
ENDBRANCH   1  25
TORSDOF 17
ENDMDL
