MODEL 1
REMARK VINA RESULT:     -11.6      0.000      0.000
REMARK SMILES CC[C@@H](C)CNC(=O)N1CCO[C@@H](CC(=O)NCCCCNC(=O)c2ccc(-c3c4nc(c(-c5c(F)c(F)c(F)c(F)c5F)c5ccc([nH]5)c(-c5c(F)c(F)c(F)c(F)c5F)c5nc(c(-c6c(F)c(F)c(F)c(F)c6F)c6ccc3[nH]6)C=C5)C=C4)cc2)C1
REMARK SMILES IDX 18 1 17 2 15 3 16 4 14 6 13 7 9 8 10 9 88 10 11 11 12 12
REMARK SMILES IDX 7 13 6 14 8 16 5 17 3 18 4 19 2 20 1 21 19 22 20 23 21 24
REMARK SMILES IDX 22 25 23 26 24 28 25 29 26 30 87 31 27 32 86 33 28 34 29 35
REMARK SMILES IDX 30 36 80 37 31 38 85 39 79 40 81 41 32 42 84 43 78 44 77 45
REMARK SMILES IDX 33 47 65 48 45 49 64 50 46 51 49 52 63 53 82 54 47 55 48 56
REMARK SMILES IDX 62 58 83 59 50 60 34 61 35 62 43 63 36 64 37 65 41 66 44 67
REMARK SMILES IDX 38 68 39 69 42 70 40 71 66 72 67 73 75 74 68 75 69 76 73 77
REMARK SMILES IDX 76 78 70 79 71 80 74 81 72 82 51 83 52 84 60 85 53 86 54 87
REMARK SMILES IDX 58 88 61 89 55 90 56 91 59 92 57 93
REMARK H PARENT 17 5 6 15 22 27 81 46 49 57
REMARK Flexibility Score: inf
ROOT
ATOM      1  C   UNL A   1      33.297  29.946  26.515  1.00  0.00     0.116 C 
ENDROOT
BRANCH   1   2
ATOM      2  N   UNL A   1      33.496  29.696  25.094  1.00  0.00    -0.356 N 
ATOM      3  C   UNL A   1      33.727  28.534  24.415  1.00  0.00     0.222 C 
ATOM      4  O   UNL A   1      34.001  28.610  23.215  1.00  0.00    -0.275 OA
ATOM      5  H   UNL A   1      33.456  30.500  24.528  1.00  0.00     0.163 HD
BRANCH   3   6
ATOM      6  C   UNL A   1      33.667  27.187  25.107  1.00  0.00     0.133 C 
BRANCH   6   7
ATOM      7  C   UNL A   1      32.418  26.374  24.736  1.00  0.00     0.147 C 
ATOM      8  N   UNL A   1      31.049  24.445  25.666  1.00  0.00    -0.320 N 
ATOM      9  C   UNL A   1      29.921  25.365  25.773  1.00  0.00     0.150 C 
ATOM     10  C   UNL A   1      32.329  25.124  25.616  1.00  0.00     0.154 C 
ATOM     11  C   UNL A   1      30.044  26.485  24.741  1.00  0.00     0.182 C 
ATOM     12  O   UNL A   1      31.265  27.219  24.936  1.00  0.00    -0.374 OA
BRANCH   8  13
ATOM     13  C   UNL A   1      31.047  23.269  26.385  1.00  0.00     0.317 C 
ATOM     14  N   UNL A   1      31.391  22.122  25.760  1.00  0.00    -0.338 N 
ATOM     15  H   UNL A   1      31.147  21.295  26.236  1.00  0.00     0.165 HD
ATOM     16  O   UNL A   1      30.805  23.220  27.591  1.00  0.00    -0.249 OA
BRANCH  14  17
ATOM     17  C   UNL A   1      32.063  21.930  24.495  1.00  0.00     0.121 C 
BRANCH  17  18
ATOM     18  C   UNL A   1      33.532  21.489  24.648  1.00  0.00     0.005 C 
ATOM     19  C   UNL A   1      33.863  21.454  26.143  1.00  0.00     0.009 C 
BRANCH  18  20
ATOM     20  C   UNL A   1      34.483  22.415  23.858  1.00  0.00     0.002 C 
ATOM     21  C   UNL A   1      35.716  22.857  24.635  1.00  0.00     0.004 C 
ENDBRANCH  18  20
ENDBRANCH  17  18
ENDBRANCH  14  17
ENDBRANCH   8  13
ENDBRANCH   6   7
ENDBRANCH   3   6
ENDBRANCH   1   2
BRANCH   1  22
ATOM     22  C   UNL A   1      31.875  30.429  26.798  1.00  0.00     0.023 C 
BRANCH  22  23
ATOM     23  C   UNL A   1      31.652  31.928  26.764  1.00  0.00     0.023 C 
BRANCH  23  24
ATOM     24  C   UNL A   1      32.794  32.730  27.348  1.00  0.00     0.116 C 
BRANCH  24  25
ATOM     25  N   UNL A   1      32.445  34.105  27.689  1.00  0.00    -0.352 N 
ATOM     26  C   UNL A   1      33.036  34.952  28.603  1.00  0.00     0.251 C 
ATOM     27  H   UNL A   1      31.681  34.482  27.196  1.00  0.00     0.163 HD
ATOM     28  O   UNL A   1      32.594  36.071  28.806  1.00  0.00    -0.269 OA
BRANCH  26  29
ATOM     29  C   UNL A   1      34.186  34.453  29.387  1.00  0.00     0.039 A 
ATOM     30  C   UNL A   1      33.942  33.746  30.566  1.00  0.00     0.014 A 
ATOM     31  C   UNL A   1      35.485  34.584  28.895  1.00  0.00     0.014 A 
ATOM     32  C   UNL A   1      34.995  33.083  31.197  1.00  0.00     0.010 A 
ATOM     33  C   UNL A   1      36.500  33.821  29.448  1.00  0.00     0.010 A 
ATOM     34  C   UNL A   1      36.270  33.069  30.610  1.00  0.00    -0.014 A 
BRANCH  34  35
ATOM     35  C   UNL A   1      37.396  32.301  31.198  1.00  0.00     0.031 A 
ATOM     36  C   UNL A   1      37.875  32.639  32.582  1.00  0.00     0.074 A 
ATOM     37  C   UNL A   1      38.043  31.379  30.460  1.00  0.00     0.049 A 
ATOM     38  N   UNL A   1      38.918  32.191  33.233  1.00  0.00    -0.248 NA
ATOM     39  C   UNL A   1      37.106  33.659  33.315  1.00  0.00     0.031 C 
ATOM     40  C   UNL A   1      37.721  31.015  29.078  1.00  0.00     0.029 A 
ATOM     41  N   UNL A   1      39.120  30.587  30.767  1.00  0.00    -0.354 N 
ATOM     42  C   UNL A   1      38.950  32.904  34.424  1.00  0.00     0.074 A 
ATOM     43  C   UNL A   1      37.865  33.858  34.379  1.00  0.00     0.031 C 
ATOM     44  C   UNL A   1      38.559  30.047  28.670  1.00  0.00     0.029 A 
ATOM     45  C   UNL A   1      39.500  29.750  29.746  1.00  0.00     0.049 A 
ATOM     46  H   UNL A   1      39.579  30.615  31.638  1.00  0.00     0.167 HD
ATOM     47  C   UNL A   1      39.787  32.752  35.476  1.00  0.00     0.037 A 
ATOM     48  C   UNL A   1      40.495  28.844  29.689  1.00  0.00     0.037 A 
ATOM     49  C   UNL A   1      40.819  31.755  35.541  1.00  0.00     0.049 A 
ATOM     50  C   UNL A   1      41.376  28.652  30.894  1.00  0.00     0.074 A 
ATOM     51  C   UNL A   1      41.666  31.456  36.592  1.00  0.00     0.029 A 
ATOM     52  N   UNL A   1      41.132  30.883  34.509  1.00  0.00    -0.354 N 
ATOM     53  N   UNL A   1      41.354  29.282  32.043  1.00  0.00    -0.248 NA
ATOM     54  C   UNL A   1      42.415  27.617  30.796  1.00  0.00     0.031 C 
ATOM     55  C   UNL A   1      42.514  30.420  36.185  1.00  0.00     0.029 A 
ATOM     56  C   UNL A   1      42.169  30.049  34.895  1.00  0.00     0.049 A 
ATOM     57  H   UNL A   1      40.685  30.859  33.633  1.00  0.00     0.167 HD
ATOM     58  C   UNL A   1      42.354  28.706  32.814  1.00  0.00     0.074 A 
ATOM     59  C   UNL A   1      42.955  27.665  32.006  1.00  0.00     0.031 C 
ATOM     60  C   UNL A   1      42.740  29.011  34.076  1.00  0.00     0.037 A 
BRANCH  47  61
ATOM     61  C   UNL A   1      39.599  33.676  36.644  1.00  0.00     0.064 A 
ATOM     62  C   UNL A   1      38.804  33.320  37.745  1.00  0.00     0.173 A 
ATOM     63  C   UNL A   1      40.224  34.932  36.666  1.00  0.00     0.173 A 
ATOM     64  F   UNL A   1      38.171  32.137  37.766  1.00  0.00    -0.203 F 
ATOM     65  C   UNL A   1      38.609  34.202  38.804  1.00  0.00     0.198 A 
ATOM     66  C   UNL A   1      40.053  35.798  37.742  1.00  0.00     0.198 A 
ATOM     67  F   UNL A   1      40.997  35.321  35.640  1.00  0.00    -0.203 F 
ATOM     68  F   UNL A   1      37.794  33.865  39.812  1.00  0.00    -0.200 F 
ATOM     69  C   UNL A   1      39.238  35.437  38.804  1.00  0.00     0.200 A 
ATOM     70  F   UNL A   1      40.671  36.987  37.747  1.00  0.00    -0.200 F 
ATOM     71  F   UNL A   1      39.050  36.285  39.825  1.00  0.00    -0.200 F 
ENDBRANCH  47  61
BRANCH  48  72
ATOM     72  C   UNL A   1      40.677  28.017  28.468  1.00  0.00     0.064 A 
ATOM     73  C   UNL A   1      41.475  28.473  27.409  1.00  0.00     0.173 A 
ATOM     74  C   UNL A   1      40.071  26.760  28.335  1.00  0.00     0.173 A 
ATOM     75  F   UNL A   1      42.059  29.678  27.482  1.00  0.00    -0.203 F 
ATOM     76  C   UNL A   1      41.645  27.711  26.255  1.00  0.00     0.198 A 
ATOM     77  C   UNL A   1      40.262  25.988  27.190  1.00  0.00     0.198 A 
ATOM     78  F   UNL A   1      39.304  26.276  29.322  1.00  0.00    -0.203 F 
ATOM     79  F   UNL A   1      42.380  28.190  25.242  1.00  0.00    -0.200 F 
ATOM     80  C   UNL A   1      41.043  26.466  26.149  1.00  0.00     0.200 A 
ATOM     81  F   UNL A   1      39.689  24.781  27.096  1.00  0.00    -0.200 F 
ATOM     82  F   UNL A   1      41.210  25.732  25.041  1.00  0.00    -0.200 F 
ENDBRANCH  48  72
BRANCH  60  83
ATOM     83  C   UNL A   1      43.841  28.187  34.676  1.00  0.00     0.064 A 
ATOM     84  C   UNL A   1      43.577  26.976  35.329  1.00  0.00     0.173 A 
ATOM     85  C   UNL A   1      45.177  28.592  34.548  1.00  0.00     0.173 A 
ATOM     86  F   UNL A   1      42.312  26.556  35.488  1.00  0.00    -0.203 F 
ATOM     87  C   UNL A   1      44.612  26.206  35.849  1.00  0.00     0.198 A 
ATOM     88  C   UNL A   1      46.212  27.807  35.046  1.00  0.00     0.198 A 
ATOM     89  F   UNL A   1      45.480  29.740  33.925  1.00  0.00    -0.203 F 
ATOM     90  F   UNL A   1      44.336  25.069  36.504  1.00  0.00    -0.200 F 
ATOM     91  C   UNL A   1      45.929  26.618  35.700  1.00  0.00     0.200 A 
ATOM     92  F   UNL A   1      47.485  28.199  34.890  1.00  0.00    -0.200 F 
ATOM     93  F   UNL A   1      46.925  25.870  36.194  1.00  0.00    -0.200 F 
ENDBRANCH  60  83
ENDBRANCH  34  35
ENDBRANCH  26  29
ENDBRANCH  24  25
ENDBRANCH  23  24
ENDBRANCH  22  23
ENDBRANCH   1  22
TORSDOF 16
ENDMDL
MODEL 2
REMARK VINA RESULT:     -11.5      0.854      2.229
REMARK SMILES CC[C@@H](C)CNC(=O)N1CCO[C@@H](CC(=O)NCCCCNC(=O)c2ccc(-c3c4nc(c(-c5c(F)c(F)c(F)c(F)c5F)c5ccc([nH]5)c(-c5c(F)c(F)c(F)c(F)c5F)c5nc(c(-c6c(F)c(F)c(F)c(F)c6F)c6ccc3[nH]6)C=C5)C=C4)cc2)C1
REMARK SMILES IDX 18 1 17 2 15 3 16 4 14 6 13 7 9 8 10 9 88 10 11 11 12 12
REMARK SMILES IDX 7 13 6 14 8 16 5 17 3 18 4 19 2 20 1 21 19 22 20 23 21 24
REMARK SMILES IDX 22 25 23 26 24 28 25 29 26 30 87 31 27 32 86 33 28 34 29 35
REMARK SMILES IDX 30 36 80 37 31 38 85 39 79 40 81 41 32 42 84 43 78 44 77 45
REMARK SMILES IDX 33 47 65 48 45 49 64 50 46 51 49 52 63 53 82 54 47 55 48 56
REMARK SMILES IDX 62 58 83 59 50 60 34 61 35 62 43 63 36 64 37 65 41 66 44 67
REMARK SMILES IDX 38 68 39 69 42 70 40 71 66 72 67 73 75 74 68 75 69 76 73 77
REMARK SMILES IDX 76 78 70 79 71 80 74 81 72 82 51 83 52 84 60 85 53 86 54 87
REMARK SMILES IDX 58 88 61 89 55 90 56 91 59 92 57 93
REMARK H PARENT 17 5 6 15 22 27 81 46 49 57
REMARK Flexibility Score: inf
ROOT
ATOM      1  C   UNL A   1      33.298  30.058  26.487  1.00  0.00     0.116 C 
ENDROOT
BRANCH   1   2
ATOM      2  N   UNL A   1      33.473  29.503  25.152  1.00  0.00    -0.356 N 
ATOM      3  C   UNL A   1      33.722  28.225  24.741  1.00  0.00     0.222 C 
ATOM      4  O   UNL A   1      33.969  28.038  23.548  1.00  0.00    -0.275 OA
ATOM      5  H   UNL A   1      33.400  30.161  24.423  1.00  0.00     0.163 HD
BRANCH   3   6
ATOM      6  C   UNL A   1      33.713  27.065  25.717  1.00  0.00     0.133 C 
BRANCH   6   7
ATOM      7  C   UNL A   1      33.150  25.771  25.109  1.00  0.00     0.147 C 
ATOM      8  N   UNL A   1      32.323  23.498  25.888  1.00  0.00    -0.320 N 
ATOM      9  C   UNL A   1      31.015  23.844  25.340  1.00  0.00     0.150 C 
ATOM     10  C   UNL A   1      33.146  24.659  26.162  1.00  0.00     0.154 C 
ATOM     11  C   UNL A   1      31.163  24.844  24.194  1.00  0.00     0.182 C 
ATOM     12  O   UNL A   1      31.809  26.044  24.653  1.00  0.00    -0.374 OA
BRANCH   8  13
ATOM     13  C   UNL A   1      32.433  22.481  26.811  1.00  0.00     0.317 C 
ATOM     14  N   UNL A   1      32.504  21.205  26.372  1.00  0.00    -0.338 N 
ATOM     15  H   UNL A   1      32.341  20.516  27.055  1.00  0.00     0.165 HD
ATOM     16  O   UNL A   1      32.534  22.681  28.022  1.00  0.00    -0.249 OA
BRANCH  14  17
ATOM     17  C   UNL A   1      32.782  20.705  25.044  1.00  0.00     0.121 C 
BRANCH  17  18
ATOM     18  C   UNL A   1      33.100  19.197  25.017  1.00  0.00     0.005 C 
ATOM     19  C   UNL A   1      34.566  19.029  24.609  1.00  0.00     0.009 C 
BRANCH  18  20
ATOM     20  C   UNL A   1      32.138  18.436  24.079  1.00  0.00     0.002 C 
ATOM     21  C   UNL A   1      32.739  18.071  22.727  1.00  0.00     0.004 C 
ENDBRANCH  18  20
ENDBRANCH  17  18
ENDBRANCH  14  17
ENDBRANCH   8  13
ENDBRANCH   6   7
ENDBRANCH   3   6
ENDBRANCH   1   2
BRANCH   1  22
ATOM     22  C   UNL A   1      31.857  30.520  26.708  1.00  0.00     0.023 C 
BRANCH  22  23
ATOM     23  C   UNL A   1      31.618  32.016  26.697  1.00  0.00     0.023 C 
BRANCH  23  24
ATOM     24  C   UNL A   1      32.743  32.820  27.312  1.00  0.00     0.116 C 
BRANCH  24  25
ATOM     25  N   UNL A   1      32.370  34.182  27.681  1.00  0.00    -0.352 N 
ATOM     26  C   UNL A   1      32.950  35.021  28.609  1.00  0.00     0.251 C 
ATOM     27  H   UNL A   1      31.597  34.554  27.199  1.00  0.00     0.163 HD
ATOM     28  O   UNL A   1      32.489  36.128  28.836  1.00  0.00    -0.269 OA
BRANCH  26  29
ATOM     29  C   UNL A   1      34.112  34.528  29.378  1.00  0.00     0.039 A 
ATOM     30  C   UNL A   1      33.890  33.885  30.597  1.00  0.00     0.014 A 
ATOM     31  C   UNL A   1      35.396  34.599  28.838  1.00  0.00     0.014 A 
ATOM     32  C   UNL A   1      34.947  33.223  31.225  1.00  0.00     0.010 A 
ATOM     33  C   UNL A   1      36.410  33.836  29.393  1.00  0.00     0.010 A 
ATOM     34  C   UNL A   1      36.199  33.146  30.597  1.00  0.00    -0.014 A 
BRANCH  34  35
ATOM     35  C   UNL A   1      37.324  32.376  31.184  1.00  0.00     0.031 A 
ATOM     36  C   UNL A   1      37.809  32.717  32.566  1.00  0.00     0.074 A 
ATOM     37  C   UNL A   1      37.965  31.448  30.447  1.00  0.00     0.049 A 
ATOM     38  N   UNL A   1      38.853  32.267  33.215  1.00  0.00    -0.248 NA
ATOM     39  C   UNL A   1      37.047  33.743  33.297  1.00  0.00     0.031 C 
ATOM     40  C   UNL A   1      37.637  31.080  29.068  1.00  0.00     0.029 A 
ATOM     41  N   UNL A   1      39.040  30.653  30.754  1.00  0.00    -0.354 N 
ATOM     42  C   UNL A   1      38.891  32.984  34.403  1.00  0.00     0.074 A 
ATOM     43  C   UNL A   1      37.811  33.943  34.359  1.00  0.00     0.031 C 
ATOM     44  C   UNL A   1      38.470  30.108  28.661  1.00  0.00     0.029 A 
ATOM     45  C   UNL A   1      39.413  29.810  29.735  1.00  0.00     0.049 A 
ATOM     46  H   UNL A   1      39.502  30.682  31.624  1.00  0.00     0.167 HD
ATOM     47  C   UNL A   1      39.731  32.833  35.453  1.00  0.00     0.037 A 
ATOM     48  C   UNL A   1      40.404  28.900  29.679  1.00  0.00     0.037 A 
ATOM     49  C   UNL A   1      40.760  31.832  35.519  1.00  0.00     0.049 A 
ATOM     50  C   UNL A   1      41.289  28.709  30.881  1.00  0.00     0.074 A 
ATOM     51  C   UNL A   1      41.609  31.533  36.568  1.00  0.00     0.029 A 
ATOM     52  N   UNL A   1      41.066  30.955  34.489  1.00  0.00    -0.354 N 
ATOM     53  N   UNL A   1      41.273  29.344  32.028  1.00  0.00    -0.248 NA
ATOM     54  C   UNL A   1      42.323  27.670  30.784  1.00  0.00     0.031 C 
ATOM     55  C   UNL A   1      42.452  30.492  36.161  1.00  0.00     0.029 A 
ATOM     56  C   UNL A   1      42.100  30.118  34.874  1.00  0.00     0.049 A 
ATOM     57  H   UNL A   1      40.616  30.930  33.614  1.00  0.00     0.167 HD
ATOM     58  C   UNL A   1      42.273  28.767  32.798  1.00  0.00     0.074 A 
ATOM     59  C   UNL A   1      42.867  27.720  31.991  1.00  0.00     0.031 C 
ATOM     60  C   UNL A   1      42.665  29.075  34.057  1.00  0.00     0.037 A 
BRANCH  47  61
ATOM     61  C   UNL A   1      39.552  33.762  36.618  1.00  0.00     0.064 A 
ATOM     62  C   UNL A   1      40.161  35.026  36.652  1.00  0.00     0.173 A 
ATOM     63  C   UNL A   1      38.758  33.388  37.712  1.00  0.00     0.173 A 
ATOM     64  F   UNL A   1      40.945  35.426  35.638  1.00  0.00    -0.203 F 
ATOM     65  C   UNL A   1      40.017  35.863  37.755  1.00  0.00     0.198 A 
ATOM     66  C   UNL A   1      38.589  34.241  38.799  1.00  0.00     0.198 A 
ATOM     67  F   UNL A   1      38.150  32.192  37.730  1.00  0.00    -0.203 F 
ATOM     68  F   UNL A   1      40.662  37.037  37.792  1.00  0.00    -0.200 F 
ATOM     69  C   UNL A   1      39.226  35.472  38.824  1.00  0.00     0.200 A 
ATOM     70  F   UNL A   1      37.815  33.868  39.828  1.00  0.00    -0.200 F 
ATOM     71  F   UNL A   1      39.087  36.280  39.885  1.00  0.00    -0.200 F 
ENDBRANCH  47  61
BRANCH  48  72
ATOM     72  C   UNL A   1      40.579  28.068  28.460  1.00  0.00     0.064 A 
ATOM     73  C   UNL A   1      39.954  26.818  28.353  1.00  0.00     0.173 A 
ATOM     74  C   UNL A   1      41.362  28.501  27.381  1.00  0.00     0.173 A 
ATOM     75  F   UNL A   1      39.211  26.352  29.367  1.00  0.00    -0.203 F 
ATOM     76  C   UNL A   1      40.119  26.024  27.219  1.00  0.00     0.198 A 
ATOM     77  C   UNL A   1      41.507  27.718  26.238  1.00  0.00     0.198 A 
ATOM     78  F   UNL A   1      41.976  29.692  27.432  1.00  0.00    -0.203 F 
ATOM     79  F   UNL A   1      39.542  24.816  27.160  1.00  0.00    -0.200 F 
ATOM     80  C   UNL A   1      40.891  26.478  26.160  1.00  0.00     0.200 A 
ATOM     81  F   UNL A   1      42.244  28.164  25.211  1.00  0.00    -0.200 F 
ATOM     82  F   UNL A   1      41.046  25.717  25.068  1.00  0.00    -0.200 F 
ENDBRANCH  48  72
BRANCH  60  83
ATOM     83  C   UNL A   1      43.763  28.249  34.657  1.00  0.00     0.064 A 
ATOM     84  C   UNL A   1      45.111  28.606  34.513  1.00  0.00     0.173 A 
ATOM     85  C   UNL A   1      43.458  27.118  35.428  1.00  0.00     0.173 A 
ATOM     86  F   UNL A   1      45.451  29.671  33.772  1.00  0.00    -0.203 F 
ATOM     87  C   UNL A   1      46.117  27.848  35.105  1.00  0.00     0.198 A 
ATOM     88  C   UNL A   1      44.464  26.377  36.041  1.00  0.00     0.198 A 
ATOM     89  F   UNL A   1      42.183  26.740  35.600  1.00  0.00    -0.203 F 
ATOM     90  F   UNL A   1      47.401  28.184  34.923  1.00  0.00    -0.200 F 
ATOM     91  C   UNL A   1      45.792  26.740  35.874  1.00  0.00     0.200 A 
ATOM     92  F   UNL A   1      44.149  25.315  36.794  1.00  0.00    -0.200 F 
ATOM     93  F   UNL A   1      46.762  26.017  36.451  1.00  0.00    -0.200 F 
ENDBRANCH  60  83
ENDBRANCH  34  35
ENDBRANCH  26  29
ENDBRANCH  24  25
ENDBRANCH  23  24
ENDBRANCH  22  23
ENDBRANCH   1  22
TORSDOF 16
ENDMDL
MODEL 3
REMARK VINA RESULT:     -11.5      1.977      3.425
REMARK SMILES CC[C@@H](C)CNC(=O)N1CCO[C@@H](CC(=O)NCCCCNC(=O)c2ccc(-c3c4nc(c(-c5c(F)c(F)c(F)c(F)c5F)c5ccc([nH]5)c(-c5c(F)c(F)c(F)c(F)c5F)c5nc(c(-c6c(F)c(F)c(F)c(F)c6F)c6ccc3[nH]6)C=C5)C=C4)cc2)C1
REMARK SMILES IDX 18 1 17 2 15 3 16 4 14 6 13 7 9 8 10 9 88 10 11 11 12 12
REMARK SMILES IDX 7 13 6 14 8 16 5 17 3 18 4 19 2 20 1 21 19 22 20 23 21 24
REMARK SMILES IDX 22 25 23 26 24 28 25 29 26 30 87 31 27 32 86 33 28 34 29 35
REMARK SMILES IDX 30 36 80 37 31 38 85 39 79 40 81 41 32 42 84 43 78 44 77 45
REMARK SMILES IDX 33 47 65 48 45 49 64 50 46 51 49 52 63 53 82 54 47 55 48 56
REMARK SMILES IDX 62 58 83 59 50 60 34 61 35 62 43 63 36 64 37 65 41 66 44 67
REMARK SMILES IDX 38 68 39 69 42 70 40 71 66 72 67 73 75 74 68 75 69 76 73 77
REMARK SMILES IDX 76 78 70 79 71 80 74 81 72 82 51 83 52 84 60 85 53 86 54 87
REMARK SMILES IDX 58 88 61 89 55 90 56 91 59 92 57 93
REMARK H PARENT 17 5 6 15 22 27 81 46 49 57
REMARK Flexibility Score: inf
ROOT
ATOM      1  C   UNL A   1      30.948  27.538  23.852  1.00  0.00     0.116 C 
ENDROOT
BRANCH   1   2
ATOM      2  N   UNL A   1      30.178  26.779  24.828  1.00  0.00    -0.356 N 
ATOM      3  C   UNL A   1      30.582  25.956  25.839  1.00  0.00     0.222 C 
ATOM      4  O   UNL A   1      29.719  25.316  26.444  1.00  0.00    -0.275 OA
ATOM      5  H   UNL A   1      29.202  26.876  24.744  1.00  0.00     0.163 HD
BRANCH   3   6
ATOM      6  C   UNL A   1      32.046  25.813  26.207  1.00  0.00     0.133 C 
BRANCH   6   7
ATOM      7  C   UNL A   1      32.787  24.783  25.340  1.00  0.00     0.147 C 
ATOM      8  N   UNL A   1      33.934  22.533  25.611  1.00  0.00    -0.320 N 
ATOM      9  C   UNL A   1      32.936  21.973  24.705  1.00  0.00     0.150 C 
ATOM     10  C   UNL A   1      33.502  23.768  26.235  1.00  0.00     0.154 C 
ATOM     11  C   UNL A   1      32.408  23.051  23.759  1.00  0.00     0.182 C 
ATOM     12  O   UNL A   1      31.812  24.127  24.504  1.00  0.00    -0.374 OA
BRANCH   8  13
ATOM     13  C   UNL A   1      34.664  21.697  26.429  1.00  0.00     0.317 C 
ATOM     14  N   UNL A   1      35.801  21.146  25.950  1.00  0.00    -0.338 N 
ATOM     15  H   UNL A   1      36.150  20.386  26.470  1.00  0.00     0.165 HD
ATOM     16  O   UNL A   1      34.364  21.475  27.602  1.00  0.00    -0.249 OA
BRANCH  14  17
ATOM     17  C   UNL A   1      36.579  21.507  24.786  1.00  0.00     0.121 C 
BRANCH  17  18
ATOM     18  C   UNL A   1      37.820  22.357  25.124  1.00  0.00     0.005 C 
ATOM     19  C   UNL A   1      38.802  21.474  25.899  1.00  0.00     0.009 C 
BRANCH  18  20
ATOM     20  C   UNL A   1      37.433  23.631  25.906  1.00  0.00     0.002 C 
ATOM     21  C   UNL A   1      38.605  24.331  26.583  1.00  0.00     0.004 C 
ENDBRANCH  18  20
ENDBRANCH  17  18
ENDBRANCH  14  17
ENDBRANCH   8  13
ENDBRANCH   6   7
ENDBRANCH   3   6
ENDBRANCH   1   2
BRANCH   1  22
ATOM     22  C   UNL A   1      31.217  28.960  24.345  1.00  0.00     0.023 C 
BRANCH  22  23
ATOM     23  C   UNL A   1      32.664  29.317  24.620  1.00  0.00     0.023 C 
BRANCH  23  24
ATOM     24  C   UNL A   1      32.977  29.522  26.086  1.00  0.00     0.116 C 
BRANCH  24  25
ATOM     25  N   UNL A   1      32.733  30.879  26.564  1.00  0.00    -0.352 N 
ATOM     26  C   UNL A   1      33.543  31.688  27.333  1.00  0.00     0.251 C 
ATOM     27  H   UNL A   1      31.870  31.272  26.301  1.00  0.00     0.163 HD
ATOM     28  O   UNL A   1      33.173  32.795  27.692  1.00  0.00    -0.269 OA
BRANCH  26  29
ATOM     29  C   UNL A   1      34.852  31.163  27.774  1.00  0.00     0.039 A 
ATOM     30  C   UNL A   1      35.908  32.056  27.965  1.00  0.00     0.014 A 
ATOM     31  C   UNL A   1      34.995  29.815  28.104  1.00  0.00     0.014 A 
ATOM     32  C   UNL A   1      37.076  31.613  28.587  1.00  0.00     0.010 A 
ATOM     33  C   UNL A   1      36.100  29.409  28.836  1.00  0.00     0.010 A 
ATOM     34  C   UNL A   1      37.156  30.301  29.078  1.00  0.00    -0.014 A 
BRANCH  34  35
ATOM     35  C   UNL A   1      38.342  29.815  29.827  1.00  0.00     0.031 A 
ATOM     36  C   UNL A   1      38.587  30.314  31.223  1.00  0.00     0.074 A 
ATOM     37  C   UNL A   1      39.241  29.013  29.223  1.00  0.00     0.049 A 
ATOM     38  N   UNL A   1      39.621  30.126  32.004  1.00  0.00    -0.248 NA
ATOM     39  C   UNL A   1      37.551  31.186  31.803  1.00  0.00     0.031 C 
ATOM     40  C   UNL A   1      39.154  28.521  27.846  1.00  0.00     0.029 A 
ATOM     41  N   UNL A   1      40.415  28.479  29.691  1.00  0.00    -0.354 N 
ATOM     42  C   UNL A   1      39.375  30.888  33.138  1.00  0.00     0.074 A 
ATOM     43  C   UNL A   1      38.132  31.592  32.920  1.00  0.00     0.031 C 
ATOM     44  C   UNL A   1      40.211  27.731  27.593  1.00  0.00     0.029 A 
ATOM     45  C   UNL A   1      41.067  27.691  28.774  1.00  0.00     0.049 A 
ATOM     46  H   UNL A   1      40.759  28.646  30.598  1.00  0.00     0.167 HD
ATOM     47  C   UNL A   1      40.104  30.967  34.276  1.00  0.00     0.037 A 
ATOM     48  C   UNL A   1      42.224  27.011  28.880  1.00  0.00     0.037 A 
ATOM     49  C   UNL A   1      41.303  30.212  34.513  1.00  0.00     0.049 A 
ATOM     50  C   UNL A   1      42.988  27.067  30.176  1.00  0.00     0.074 A 
ATOM     51  C   UNL A   1      42.071  30.149  35.660  1.00  0.00     0.029 A 
ATOM     52  N   UNL A   1      41.899  29.374  33.582  1.00  0.00    -0.354 N 
ATOM     53  N   UNL A   1      42.711  27.735  31.269  1.00  0.00    -0.248 NA
ATOM     54  C   UNL A   1      44.218  26.269  30.255  1.00  0.00     0.031 C 
ATOM     55  C   UNL A   1      43.151  29.294  35.413  1.00  0.00     0.029 A 
ATOM     56  C   UNL A   1      43.033  28.795  34.126  1.00  0.00     0.049 A 
ATOM     57  H   UNL A   1      41.565  29.215  32.669  1.00  0.00     0.167 HD
ATOM     58  C   UNL A   1      43.715  27.419  32.174  1.00  0.00     0.074 A 
ATOM     59  C   UNL A   1      44.601  26.488  31.505  1.00  0.00     0.031 C 
ATOM     60  C   UNL A   1      43.890  27.861  33.443  1.00  0.00     0.037 A 
BRANCH  47  61
ATOM     61  C   UNL A   1      39.605  31.888  35.351  1.00  0.00     0.064 A 
ATOM     62  C   UNL A   1      40.076  33.206  35.468  1.00  0.00     0.173 A 
ATOM     63  C   UNL A   1      38.642  31.452  36.273  1.00  0.00     0.173 A 
ATOM     64  F   UNL A   1      41.010  33.667  34.622  1.00  0.00    -0.203 F 
ATOM     65  C   UNL A   1      39.633  34.037  36.492  1.00  0.00     0.198 A 
ATOM     66  C   UNL A   1      38.177  32.298  37.276  1.00  0.00     0.198 A 
ATOM     67  F   UNL A   1      38.156  30.204  36.205  1.00  0.00    -0.203 F 
ATOM     68  F   UNL A   1      40.146  35.268  36.622  1.00  0.00    -0.200 F 
ATOM     69  C   UNL A   1      38.679  33.585  37.391  1.00  0.00     0.200 A 
ATOM     70  F   UNL A   1      37.246  31.864  38.137  1.00  0.00    -0.200 F 
ATOM     71  F   UNL A   1      38.252  34.388  38.376  1.00  0.00    -0.200 F 
ENDBRANCH  47  61
BRANCH  48  72
ATOM     72  C   UNL A   1      42.705  26.181  27.745  1.00  0.00     0.064 A 
ATOM     73  C   UNL A   1      43.646  26.687  26.838  1.00  0.00     0.173 A 
ATOM     74  C   UNL A   1      42.244  24.871  27.546  1.00  0.00     0.173 A 
ATOM     75  F   UNL A   1      44.101  27.941  26.976  1.00  0.00    -0.203 F 
ATOM     76  C   UNL A   1      44.096  25.921  25.764  1.00  0.00     0.198 A 
ATOM     77  C   UNL A   1      42.713  24.098  26.486  1.00  0.00     0.198 A 
ATOM     78  F   UNL A   1      41.348  24.339  28.389  1.00  0.00    -0.203 F 
ATOM     79  F   UNL A   1      44.966  26.445  24.889  1.00  0.00    -0.200 F 
ATOM     80  C   UNL A   1      43.634  24.626  25.592  1.00  0.00     0.200 A 
ATOM     81  F   UNL A   1      42.273  22.842  26.329  1.00  0.00    -0.200 F 
ATOM     82  F   UNL A   1      44.069  23.888  24.562  1.00  0.00    -0.200 F 
ENDBRANCH  48  72
BRANCH  60  83
ATOM     83  C   UNL A   1      45.061  27.316  34.205  1.00  0.00     0.064 A 
ATOM     84  C   UNL A   1      46.319  27.929  34.152  1.00  0.00     0.173 A 
ATOM     85  C   UNL A   1      44.904  26.198  35.038  1.00  0.00     0.173 A 
ATOM     86  F   UNL A   1      46.520  28.992  33.358  1.00  0.00    -0.203 F 
ATOM     87  C   UNL A   1      47.387  27.432  34.894  1.00  0.00     0.198 A 
ATOM     88  C   UNL A   1      45.967  25.719  35.798  1.00  0.00     0.198 A 
ATOM     89  F   UNL A   1      43.717  25.581  35.127  1.00  0.00    -0.203 F 
ATOM     90  F   UNL A   1      48.592  28.010  34.800  1.00  0.00    -0.200 F 
ATOM     91  C   UNL A   1      47.208  26.333  35.721  1.00  0.00     0.200 A 
ATOM     92  F   UNL A   1      45.789  24.665  36.607  1.00  0.00    -0.200 F 
ATOM     93  F   UNL A   1      48.235  25.861  36.441  1.00  0.00    -0.200 F 
ENDBRANCH  60  83
ENDBRANCH  34  35
ENDBRANCH  26  29
ENDBRANCH  24  25
ENDBRANCH  23  24
ENDBRANCH  22  23
ENDBRANCH   1  22
TORSDOF 16
ENDMDL
