MODEL 1
REMARK VINA RESULT:     -13.1      0.000      0.000
REMARK SMILES O=C(NCCCCNC(=O)c1ccc(-c2c3nc(c(-c4c(F)c(F)c(F)c(F)c4F)c4ccc([nH]4)c(-c4c(F)c(F)c(F)c(F)c4F)c4nc(c(-c5c(F)c(F)c(F)c(F)c5F)c5ccc2[nH]5)C=C4)C=C3)cc1)C1=Cc2cc(Cl)c(Cl)cc2O[C@@H]1C(F)(F)F
REMARK SMILES IDX 6 1 5 2 4 3 3 4 1 5 2 6 74 8 75 9 85 10 76 11 84 12 77 13
REMARK SMILES IDX 83 14 78 15 82 16 79 17 80 18 81 19 86 20 87 21 88 22 89 23
REMARK SMILES IDX 7 24 8 25 9 26 10 28 11 29 12 30 73 31 13 32 72 33 14 34
REMARK SMILES IDX 15 35 16 36 66 37 17 38 71 39 65 40 67 41 18 42 70 43 64 44
REMARK SMILES IDX 63 45 19 47 51 48 31 49 50 50 32 51 35 52 49 53 68 54 33 55
REMARK SMILES IDX 34 56 48 58 69 59 36 60 20 61 21 62 29 63 22 64 23 65 27 66
REMARK SMILES IDX 30 67 24 68 25 69 28 70 26 71 52 72 53 73 61 74 54 75 55 76
REMARK SMILES IDX 59 77 62 78 56 79 57 80 60 81 58 82 37 83 38 84 46 85 39 86
REMARK SMILES IDX 40 87 44 88 47 89 41 90 42 91 45 92 43 93
REMARK H PARENT 3 7 8 27 67 46 35 57
REMARK Flexibility Score: inf
ROOT
ATOM      1  C   UNL A   1      31.748  29.194  26.895  1.00  0.00     0.023 C 
ENDROOT
BRANCH   1   2
ATOM      2  C   UNL A   1      32.216  27.742  26.949  1.00  0.00     0.023 C 
BRANCH   2   3
ATOM      3  C   UNL A   1      31.258  26.726  26.327  1.00  0.00     0.116 C 
BRANCH   3   4
ATOM      4  N   UNL A   1      31.308  25.396  26.932  1.00  0.00    -0.352 N 
ATOM      5  O   UNL A   1      32.210  23.373  27.404  1.00  0.00    -0.270 OA
ATOM      6  C   UNL A   1      32.129  24.327  26.640  1.00  0.00     0.251 C 
ATOM      7  H   UNL A   1      30.658  25.240  27.655  1.00  0.00     0.163 HD
BRANCH   6   8
ATOM      8  C   UNL A   1      33.028  24.432  25.469  1.00  0.00     0.067 C 
ATOM      9  C   UNL A   1      34.270  24.930  25.570  1.00  0.00     0.025 C 
ATOM     10  C   UNL A   1      32.615  23.688  24.235  1.00  0.00     0.314 C 
ATOM     11  C   UNL A   1      35.262  23.948  25.076  1.00  0.00     0.019 A 
ATOM     12  O   UNL A   1      33.543  22.619  23.932  1.00  0.00    -0.475 OA
ATOM     13  C   UNL A   1      36.536  23.944  25.662  1.00  0.00     0.034 A 
ATOM     14  C   UNL A   1      34.830  22.799  24.382  1.00  0.00     0.129 A 
ATOM     15  C   UNL A   1      37.339  22.797  25.599  1.00  0.00     0.060 A 
ATOM     16  C   UNL A   1      35.649  21.675  24.279  1.00  0.00     0.069 A 
ATOM     17  Cl  UNL A   1      38.817  22.808  26.494  1.00  0.00    -0.083 Cl
ATOM     18  C   UNL A   1      36.894  21.662  24.910  1.00  0.00     0.063 A 
ATOM     19  Cl  UNL A   1      37.789  20.187  24.872  1.00  0.00    -0.083 Cl
BRANCH  10  20
ATOM     20  C   UNL A   1      32.461  24.640  23.032  1.00  0.00     0.429 C 
ATOM     21  F   UNL A   1      33.340  24.330  22.048  1.00  0.00    -0.167 F 
ATOM     22  F   UNL A   1      31.222  24.570  22.489  1.00  0.00    -0.167 F 
ATOM     23  F   UNL A   1      32.679  25.935  23.365  1.00  0.00    -0.167 F 
ENDBRANCH  10  20
ENDBRANCH   6   8
ENDBRANCH   3   4
ENDBRANCH   2   3
ENDBRANCH   1   2
BRANCH   1  24
ATOM     24  C   UNL A   1      32.723  30.202  26.289  1.00  0.00     0.116 C 
BRANCH  24  25
ATOM     25  N   UNL A   1      32.618  31.555  26.818  1.00  0.00    -0.352 N 
ATOM     26  C   UNL A   1      33.534  32.264  27.565  1.00  0.00     0.251 C 
ATOM     27  H   UNL A   1      31.777  32.027  26.615  1.00  0.00     0.163 HD
ATOM     28  O   UNL A   1      33.269  33.391  27.975  1.00  0.00    -0.269 OA
BRANCH  26  29
ATOM     29  C   UNL A   1      34.820  31.634  27.932  1.00  0.00     0.039 A 
ATOM     30  C   UNL A   1      35.957  32.438  28.031  1.00  0.00     0.014 A 
ATOM     31  C   UNL A   1      34.882  30.281  28.271  1.00  0.00     0.014 A 
ATOM     32  C   UNL A   1      37.127  31.914  28.586  1.00  0.00     0.010 A 
ATOM     33  C   UNL A   1      36.018  29.783  28.901  1.00  0.00     0.010 A 
ATOM     34  C   UNL A   1      37.144  30.601  29.085  1.00  0.00    -0.014 A 
BRANCH  34  35
ATOM     35  C   UNL A   1      38.313  30.082  29.843  1.00  0.00     0.031 A 
ATOM     36  C   UNL A   1      38.568  30.542  31.249  1.00  0.00     0.074 A 
ATOM     37  C   UNL A   1      39.190  29.262  29.231  1.00  0.00     0.049 A 
ATOM     38  N   UNL A   1      39.569  30.256  32.045  1.00  0.00    -0.248 NA
ATOM     39  C   UNL A   1      37.588  31.473  31.829  1.00  0.00     0.031 C 
ATOM     40  C   UNL A   1      39.093  28.801  27.844  1.00  0.00     0.029 A 
ATOM     41  N   UNL A   1      40.344  28.678  29.692  1.00  0.00    -0.354 N 
ATOM     42  C   UNL A   1      39.348  30.985  33.205  1.00  0.00     0.074 A 
ATOM     43  C   UNL A   1      38.149  31.767  32.992  1.00  0.00     0.031 C 
ATOM     44  C   UNL A   1      40.123  27.984  27.576  1.00  0.00     0.029 A 
ATOM     45  C   UNL A   1      40.973  27.887  28.759  1.00  0.00     0.049 A 
ATOM     46  H   UNL A   1      40.688  28.812  30.604  1.00  0.00     0.167 HD
ATOM     47  C   UNL A   1      40.066  30.983  34.353  1.00  0.00     0.037 A 
ATOM     48  C   UNL A   1      42.107  27.167  28.849  1.00  0.00     0.037 A 
ATOM     49  C   UNL A   1      41.236  30.177  34.575  1.00  0.00     0.049 A 
ATOM     50  C   UNL A   1      42.865  27.153  30.147  1.00  0.00     0.074 A 
ATOM     51  C   UNL A   1      41.994  30.051  35.726  1.00  0.00     0.029 A 
ATOM     52  N   UNL A   1      41.819  29.355  33.621  1.00  0.00    -0.354 N 
ATOM     53  N   UNL A   1      42.604  27.787  31.264  1.00  0.00    -0.248 NA
ATOM     54  C   UNL A   1      44.073  26.317  30.202  1.00  0.00     0.031 C 
ATOM     55  C   UNL A   1      43.056  29.181  35.459  1.00  0.00     0.029 A 
ATOM     56  C   UNL A   1      42.935  28.730  34.154  1.00  0.00     0.049 A 
ATOM     57  H   UNL A   1      41.488  29.233  32.702  1.00  0.00     0.167 HD
ATOM     58  C   UNL A   1      43.593  27.409  32.160  1.00  0.00     0.074 A 
ATOM     59  C   UNL A   1      44.454  26.477  31.461  1.00  0.00     0.031 C 
ATOM     60  C   UNL A   1      43.775  27.798  33.445  1.00  0.00     0.037 A 
BRANCH  47  61
ATOM     61  C   UNL A   1      39.595  31.877  35.464  1.00  0.00     0.064 A 
ATOM     62  C   UNL A   1      40.092  33.181  35.617  1.00  0.00     0.173 A 
ATOM     63  C   UNL A   1      38.619  31.436  36.369  1.00  0.00     0.173 A 
ATOM     64  F   UNL A   1      41.037  33.645  34.786  1.00  0.00    -0.203 F 
ATOM     65  C   UNL A   1      39.653  33.997  36.656  1.00  0.00     0.198 A 
ATOM     66  C   UNL A   1      38.160  32.267  37.388  1.00  0.00     0.198 A 
ATOM     67  F   UNL A   1      38.107  30.200  36.264  1.00  0.00    -0.203 F 
ATOM     68  F   UNL A   1      40.181  35.219  36.815  1.00  0.00    -0.200 F 
ATOM     69  C   UNL A   1      38.683  33.542  37.536  1.00  0.00     0.200 A 
ATOM     70  F   UNL A   1      37.215  31.829  38.232  1.00  0.00    -0.200 F 
ATOM     71  F   UNL A   1      38.258  34.331  38.534  1.00  0.00    -0.200 F 
ENDBRANCH  47  61
BRANCH  48  72
ATOM     72  C   UNL A   1      42.570  26.362  27.688  1.00  0.00     0.064 A 
ATOM     73  C   UNL A   1      42.067  25.073  27.462  1.00  0.00     0.173 A 
ATOM     74  C   UNL A   1      43.518  26.861  26.784  1.00  0.00     0.173 A 
ATOM     75  F   UNL A   1      41.174  24.544  28.311  1.00  0.00    -0.203 F 
ATOM     76  C   UNL A   1      42.510  24.305  26.387  1.00  0.00     0.198 A 
ATOM     77  C   UNL A   1      43.940  26.102  25.694  1.00  0.00     0.198 A 
ATOM     78  F   UNL A   1      44.025  28.090  26.952  1.00  0.00    -0.203 F 
ATOM     79  F   UNL A   1      42.044  23.060  26.219  1.00  0.00    -0.200 F 
ATOM     80  C   UNL A   1      43.442  24.823  25.500  1.00  0.00     0.200 A 
ATOM     81  F   UNL A   1      44.832  26.610  24.831  1.00  0.00    -0.200 F 
ATOM     82  F   UNL A   1      43.864  24.086  24.463  1.00  0.00    -0.200 F 
ENDBRANCH  48  72
BRANCH  60  83
ATOM     83  C   UNL A   1      44.928  27.194  34.190  1.00  0.00     0.064 A 
ATOM     84  C   UNL A   1      46.184  27.814  34.226  1.00  0.00     0.173 A 
ATOM     85  C   UNL A   1      44.760  26.000  34.907  1.00  0.00     0.173 A 
ATOM     86  F   UNL A   1      46.397  28.949  33.544  1.00  0.00    -0.203 F 
ATOM     87  C   UNL A   1      47.239  27.248  34.937  1.00  0.00     0.198 A 
ATOM     88  C   UNL A   1      45.810  25.452  35.638  1.00  0.00     0.198 A 
ATOM     89  F   UNL A   1      43.575  25.371  34.907  1.00  0.00    -0.203 F 
ATOM     90  F   UNL A   1      48.444  27.835  34.923  1.00  0.00    -0.200 F 
ATOM     91  C   UNL A   1      47.049  26.073  35.647  1.00  0.00     0.200 A 
ATOM     92  F   UNL A   1      45.622  24.321  36.334  1.00  0.00    -0.200 F 
ATOM     93  F   UNL A   1      48.065  25.533  36.336  1.00  0.00    -0.200 F 
ENDBRANCH  60  83
ENDBRANCH  34  35
ENDBRANCH  26  29
ENDBRANCH  24  25
ENDBRANCH   1  24
TORSDOF 12
ENDMDL
MODEL 2
REMARK VINA RESULT:     -13.0      0.346      1.681
REMARK SMILES O=C(NCCCCNC(=O)c1ccc(-c2c3nc(c(-c4c(F)c(F)c(F)c(F)c4F)c4ccc([nH]4)c(-c4c(F)c(F)c(F)c(F)c4F)c4nc(c(-c5c(F)c(F)c(F)c(F)c5F)c5ccc2[nH]5)C=C4)C=C3)cc1)C1=Cc2cc(Cl)c(Cl)cc2O[C@@H]1C(F)(F)F
REMARK SMILES IDX 6 1 5 2 4 3 3 4 1 5 2 6 74 8 75 9 85 10 76 11 84 12 77 13
REMARK SMILES IDX 83 14 78 15 82 16 79 17 80 18 81 19 86 20 87 21 88 22 89 23
REMARK SMILES IDX 7 24 8 25 9 26 10 28 11 29 12 30 73 31 13 32 72 33 14 34
REMARK SMILES IDX 15 35 16 36 66 37 17 38 71 39 65 40 67 41 18 42 70 43 64 44
REMARK SMILES IDX 63 45 19 47 51 48 31 49 50 50 32 51 35 52 49 53 68 54 33 55
REMARK SMILES IDX 34 56 48 58 69 59 36 60 20 61 21 62 29 63 22 64 23 65 27 66
REMARK SMILES IDX 30 67 24 68 25 69 28 70 26 71 52 72 53 73 61 74 54 75 55 76
REMARK SMILES IDX 59 77 62 78 56 79 57 80 60 81 58 82 37 83 38 84 46 85 39 86
REMARK SMILES IDX 40 87 44 88 47 89 41 90 42 91 45 92 43 93
REMARK H PARENT 3 7 8 27 67 46 35 57
REMARK Flexibility Score: inf
ROOT
ATOM      1  C   UNL A   1      31.722  28.763  25.751  1.00  0.00     0.023 C 
ENDROOT
BRANCH   1   2
ATOM      2  C   UNL A   1      31.728  27.536  26.659  1.00  0.00     0.023 C 
BRANCH   2   3
ATOM      3  C   UNL A   1      30.943  26.335  26.135  1.00  0.00     0.116 C 
BRANCH   3   4
ATOM      4  N   UNL A   1      31.166  25.094  26.876  1.00  0.00    -0.352 N 
ATOM      5  O   UNL A   1      32.322  23.267  27.547  1.00  0.00    -0.270 OA
ATOM      6  C   UNL A   1      32.118  24.116  26.687  1.00  0.00     0.251 C 
ATOM      7  H   UNL A   1      30.541  24.934  27.620  1.00  0.00     0.163 HD
BRANCH   6   8
ATOM      8  C   UNL A   1      32.996  24.210  25.500  1.00  0.00     0.067 C 
ATOM      9  C   UNL A   1      34.217  24.762  25.562  1.00  0.00     0.025 C 
ATOM     10  C   UNL A   1      32.598  23.400  24.303  1.00  0.00     0.314 C 
ATOM     11  C   UNL A   1      35.243  23.803  25.093  1.00  0.00     0.019 A 
ATOM     12  O   UNL A   1      33.566  22.359  24.029  1.00  0.00    -0.475 OA
ATOM     13  C   UNL A   1      36.524  23.876  25.659  1.00  0.00     0.034 A 
ATOM     14  C   UNL A   1      34.850  22.610  24.452  1.00  0.00     0.129 A 
ATOM     15  C   UNL A   1      37.373  22.761  25.629  1.00  0.00     0.060 A 
ATOM     16  C   UNL A   1      35.714  21.518  24.382  1.00  0.00     0.069 A 
ATOM     17  Cl  UNL A   1      38.861  22.870  26.501  1.00  0.00    -0.083 Cl
ATOM     18  C   UNL A   1      36.966  21.582  24.993  1.00  0.00     0.063 A 
ATOM     19  Cl  UNL A   1      37.923  20.144  25.001  1.00  0.00    -0.083 Cl
BRANCH  10  20
ATOM     20  C   UNL A   1      32.387  24.295  23.066  1.00  0.00     0.429 C 
ATOM     21  F   UNL A   1      31.073  24.389  22.749  1.00  0.00    -0.167 F 
ATOM     22  F   UNL A   1      32.832  25.557  23.275  1.00  0.00    -0.167 F 
ATOM     23  F   UNL A   1      33.027  23.822  21.969  1.00  0.00    -0.167 F 
ENDBRANCH  10  20
ENDBRANCH   6   8
ENDBRANCH   3   4
ENDBRANCH   2   3
ENDBRANCH   1   2
BRANCH   1  24
ATOM     24  C   UNL A   1      32.929  29.694  25.854  1.00  0.00     0.116 C 
BRANCH  24  25
ATOM     25  N   UNL A   1      32.666  30.977  26.489  1.00  0.00    -0.352 N 
ATOM     26  C   UNL A   1      33.465  31.693  27.355  1.00  0.00     0.251 C 
ATOM     27  H   UNL A   1      31.798  31.390  26.272  1.00  0.00     0.163 HD
ATOM     28  O   UNL A   1      33.071  32.749  27.843  1.00  0.00    -0.269 OA
BRANCH  26  29
ATOM     29  C   UNL A   1      34.781  31.147  27.752  1.00  0.00     0.039 A 
ATOM     30  C   UNL A   1      35.837  32.035  27.969  1.00  0.00     0.014 A 
ATOM     31  C   UNL A   1      34.944  29.784  28.003  1.00  0.00     0.014 A 
ATOM     32  C   UNL A   1      37.018  31.572  28.552  1.00  0.00     0.010 A 
ATOM     33  C   UNL A   1      36.086  29.340  28.662  1.00  0.00     0.010 A 
ATOM     34  C   UNL A   1      37.125  30.233  28.963  1.00  0.00    -0.014 A 
BRANCH  34  35
ATOM     35  C   UNL A   1      38.295  29.762  29.750  1.00  0.00     0.031 A 
ATOM     36  C   UNL A   1      38.529  30.276  31.141  1.00  0.00     0.074 A 
ATOM     37  C   UNL A   1      39.191  28.935  29.176  1.00  0.00     0.049 A 
ATOM     38  N   UNL A   1      39.526  30.036  31.956  1.00  0.00    -0.248 NA
ATOM     39  C   UNL A   1      37.528  31.211  31.678  1.00  0.00     0.031 C 
ATOM     40  C   UNL A   1      39.115  28.423  27.805  1.00  0.00     0.029 A 
ATOM     41  N   UNL A   1      40.350  28.387  29.668  1.00  0.00    -0.354 N 
ATOM     42  C   UNL A   1      39.282  30.802  33.087  1.00  0.00     0.074 A 
ATOM     43  C   UNL A   1      38.073  31.556  32.834  1.00  0.00     0.031 C 
ATOM     44  C   UNL A   1      40.162  27.614  27.577  1.00  0.00     0.029 A 
ATOM     45  C   UNL A   1      41.001  27.574  28.770  1.00  0.00     0.049 A 
ATOM     46  H   UNL A   1      40.683  28.559  30.578  1.00  0.00     0.167 HD
ATOM     47  C   UNL A   1      39.989  30.853  34.241  1.00  0.00     0.037 A 
ATOM     48  C   UNL A   1      42.145  26.877  28.896  1.00  0.00     0.037 A 
ATOM     49  C   UNL A   1      41.170  30.076  34.502  1.00  0.00     0.049 A 
ATOM     50  C   UNL A   1      42.891  26.922  30.201  1.00  0.00     0.074 A 
ATOM     51  C   UNL A   1      41.918  30.004  35.664  1.00  0.00     0.029 A 
ATOM     52  N   UNL A   1      41.775  29.230  33.583  1.00  0.00    -0.354 N 
ATOM     53  N   UNL A   1      42.609  27.591  31.292  1.00  0.00    -0.248 NA
ATOM     54  C   UNL A   1      44.112  26.109  30.297  1.00  0.00     0.031 C 
ATOM     55  C   UNL A   1      42.997  29.142  35.438  1.00  0.00     0.029 A 
ATOM     56  C   UNL A   1      42.897  28.643  34.149  1.00  0.00     0.049 A 
ATOM     57  H   UNL A   1      41.456  29.069  32.666  1.00  0.00     0.167 HD
ATOM     58  C   UNL A   1      43.596  27.262  32.210  1.00  0.00     0.074 A 
ATOM     59  C   UNL A   1      44.478  26.320  31.553  1.00  0.00     0.031 C 
ATOM     60  C   UNL A   1      43.758  27.700  33.482  1.00  0.00     0.037 A 
BRANCH  47  61
ATOM     61  C   UNL A   1      39.492  31.779  35.314  1.00  0.00     0.064 A 
ATOM     62  C   UNL A   1      38.605  31.340  36.309  1.00  0.00     0.173 A 
ATOM     63  C   UNL A   1      39.927  33.111  35.363  1.00  0.00     0.173 A 
ATOM     64  F   UNL A   1      38.150  30.078  36.299  1.00  0.00    -0.203 F 
ATOM     65  C   UNL A   1      38.146  32.210  37.294  1.00  0.00     0.198 A 
ATOM     66  C   UNL A   1      39.489  33.971  36.368  1.00  0.00     0.198 A 
ATOM     67  F   UNL A   1      40.778  33.580  34.438  1.00  0.00    -0.203 F 
ATOM     68  F   UNL A   1      37.258  31.783  38.202  1.00  0.00    -0.200 F 
ATOM     69  C   UNL A   1      38.593  33.522  37.326  1.00  0.00     0.200 A 
ATOM     70  F   UNL A   1      39.929  35.236  36.403  1.00  0.00    -0.200 F 
ATOM     71  F   UNL A   1      38.153  34.358  38.278  1.00  0.00    -0.200 F 
ENDBRANCH  47  61
BRANCH  48  72
ATOM     72  C   UNL A   1      42.633  26.038  27.769  1.00  0.00     0.064 A 
ATOM     73  C   UNL A   1      43.606  26.522  26.884  1.00  0.00     0.173 A 
ATOM     74  C   UNL A   1      42.140  24.744  27.554  1.00  0.00     0.173 A 
ATOM     75  F   UNL A   1      44.093  27.762  27.037  1.00  0.00    -0.203 F 
ATOM     76  C   UNL A   1      44.055  25.750  25.814  1.00  0.00     0.198 A 
ATOM     77  C   UNL A   1      42.608  23.962  26.499  1.00  0.00     0.198 A 
ATOM     78  F   UNL A   1      41.213  24.232  28.376  1.00  0.00    -0.203 F 
ATOM     79  F   UNL A   1      44.955  26.253  24.959  1.00  0.00    -0.200 F 
ATOM     80  C   UNL A   1      43.560  24.468  25.626  1.00  0.00     0.200 A 
ATOM     81  F   UNL A   1      42.137  22.719  26.328  1.00  0.00    -0.200 F 
ATOM     82  F   UNL A   1      43.994  23.724  24.601  1.00  0.00    -0.200 F 
ENDBRANCH  48  72
BRANCH  60  83
ATOM     83  C   UNL A   1      44.914  27.142  34.258  1.00  0.00     0.064 A 
ATOM     84  C   UNL A   1      46.161  27.782  34.281  1.00  0.00     0.173 A 
ATOM     85  C   UNL A   1      44.757  25.974  35.020  1.00  0.00     0.173 A 
ATOM     86  F   UNL A   1      46.363  28.893  33.556  1.00  0.00    -0.203 F 
ATOM     87  C   UNL A   1      47.218  27.260  35.021  1.00  0.00     0.198 A 
ATOM     88  C   UNL A   1      45.809  25.470  35.780  1.00  0.00     0.198 A 
ATOM     89  F   UNL A   1      43.582  25.329  35.035  1.00  0.00    -0.203 F 
ATOM     90  F   UNL A   1      48.414  27.864  34.994  1.00  0.00    -0.200 F 
ATOM     91  C   UNL A   1      47.039  26.110  35.775  1.00  0.00     0.200 A 
ATOM     92  F   UNL A   1      45.631  24.365  36.517  1.00  0.00    -0.200 F 
ATOM     93  F   UNL A   1      48.057  25.612  36.492  1.00  0.00    -0.200 F 
ENDBRANCH  60  83
ENDBRANCH  34  35
ENDBRANCH  26  29
ENDBRANCH  24  25
ENDBRANCH   1  24
TORSDOF 12
ENDMDL
MODEL 3
REMARK VINA RESULT:     -13.0      3.019      4.081
REMARK SMILES O=C(NCCCCNC(=O)c1ccc(-c2c3nc(c(-c4c(F)c(F)c(F)c(F)c4F)c4ccc([nH]4)c(-c4c(F)c(F)c(F)c(F)c4F)c4nc(c(-c5c(F)c(F)c(F)c(F)c5F)c5ccc2[nH]5)C=C4)C=C3)cc1)C1=Cc2cc(Cl)c(Cl)cc2O[C@@H]1C(F)(F)F
REMARK SMILES IDX 6 1 5 2 4 3 3 4 1 5 2 6 74 8 75 9 85 10 76 11 84 12 77 13
REMARK SMILES IDX 83 14 78 15 82 16 79 17 80 18 81 19 86 20 87 21 88 22 89 23
REMARK SMILES IDX 7 24 8 25 9 26 10 28 11 29 12 30 73 31 13 32 72 33 14 34
REMARK SMILES IDX 15 35 16 36 66 37 17 38 71 39 65 40 67 41 18 42 70 43 64 44
REMARK SMILES IDX 63 45 19 47 51 48 31 49 50 50 32 51 35 52 49 53 68 54 33 55
REMARK SMILES IDX 34 56 48 58 69 59 36 60 20 61 21 62 29 63 22 64 23 65 27 66
REMARK SMILES IDX 30 67 24 68 25 69 28 70 26 71 52 72 53 73 61 74 54 75 55 76
REMARK SMILES IDX 59 77 62 78 56 79 57 80 60 81 58 82 37 83 38 84 46 85 39 86
REMARK SMILES IDX 40 87 44 88 47 89 41 90 42 91 45 92 43 93
REMARK H PARENT 3 7 8 27 67 46 35 57
REMARK Flexibility Score: inf
ROOT
ATOM      1  C   UNL A   1      32.364  28.666  26.344  1.00  0.00     0.023 C 
ENDROOT
BRANCH   1   2
ATOM      2  C   UNL A   1      31.402  27.684  27.008  1.00  0.00     0.023 C 
BRANCH   2   3
ATOM      3  C   UNL A   1      31.061  26.447  26.178  1.00  0.00     0.116 C 
BRANCH   3   4
ATOM      4  N   UNL A   1      31.252  25.177  26.877  1.00  0.00    -0.352 N 
ATOM      5  O   UNL A   1      32.370  23.309  27.502  1.00  0.00    -0.270 OA
ATOM      6  C   UNL A   1      32.195  24.192  26.671  1.00  0.00     0.251 C 
ATOM      7  H   UNL A   1      30.611  24.998  27.602  1.00  0.00     0.163 HD
BRANCH   6   8
ATOM      8  C   UNL A   1      33.098  24.318  25.505  1.00  0.00     0.067 C 
ATOM      9  C   UNL A   1      34.345  24.802  25.621  1.00  0.00     0.025 C 
ATOM     10  C   UNL A   1      32.681  23.609  24.251  1.00  0.00     0.314 C 
ATOM     11  C   UNL A   1      35.328  23.823  25.104  1.00  0.00     0.019 A 
ATOM     12  O   UNL A   1      33.600  22.539  23.924  1.00  0.00    -0.475 OA
ATOM     13  C   UNL A   1      36.601  23.793  25.693  1.00  0.00     0.034 A 
ATOM     14  C   UNL A   1      34.887  22.696  24.381  1.00  0.00     0.129 A 
ATOM     15  C   UNL A   1      37.393  22.640  25.602  1.00  0.00     0.060 A 
ATOM     16  C   UNL A   1      35.696  21.567  24.252  1.00  0.00     0.069 A 
ATOM     17  Cl  UNL A   1      38.869  22.614  26.501  1.00  0.00    -0.083 Cl
ATOM     18  C   UNL A   1      36.939  21.527  24.884  1.00  0.00     0.063 A 
ATOM     19  Cl  UNL A   1      37.821  20.044  24.811  1.00  0.00    -0.083 Cl
BRANCH  10  20
ATOM     20  C   UNL A   1      32.538  24.593  23.073  1.00  0.00     0.429 C 
ATOM     21  F   UNL A   1      31.249  24.683  22.665  1.00  0.00    -0.167 F 
ATOM     22  F   UNL A   1      32.932  25.844  23.410  1.00  0.00    -0.167 F 
ATOM     23  F   UNL A   1      33.270  24.220  21.995  1.00  0.00    -0.167 F 
ENDBRANCH  10  20
ENDBRANCH   6   8
ENDBRANCH   3   4
ENDBRANCH   2   3
ENDBRANCH   1   2
BRANCH   1  24
ATOM     24  C   UNL A   1      33.669  28.949  27.087  1.00  0.00     0.116 C 
BRANCH  24  25
ATOM     25  N   UNL A   1      33.730  30.242  27.755  1.00  0.00    -0.352 N 
ATOM     26  C   UNL A   1      34.791  30.823  28.416  1.00  0.00     0.251 C 
ATOM     27  H   UNL A   1      32.901  30.772  27.732  1.00  0.00     0.163 HD
ATOM     28  O   UNL A   1      34.663  31.911  28.971  1.00  0.00    -0.269 OA
BRANCH  26  29
ATOM     29  C   UNL A   1      36.075  30.095  28.515  1.00  0.00     0.039 A 
ATOM     30  C   UNL A   1      36.985  30.194  27.460  1.00  0.00     0.014 A 
ATOM     31  C   UNL A   1      36.418  29.405  29.679  1.00  0.00     0.014 A 
ATOM     32  C   UNL A   1      38.283  29.703  27.621  1.00  0.00     0.010 A 
ATOM     33  C   UNL A   1      37.733  28.994  29.871  1.00  0.00     0.010 A 
ATOM     34  C   UNL A   1      38.684  29.159  28.853  1.00  0.00    -0.014 A 
BRANCH  34  35
ATOM     35  C   UNL A   1      40.104  28.801  29.108  1.00  0.00     0.031 A 
ATOM     36  C   UNL A   1      41.016  29.768  29.805  1.00  0.00     0.074 A 
ATOM     37  C   UNL A   1      40.591  27.637  28.633  1.00  0.00     0.049 A 
ATOM     38  N   UNL A   1      42.297  29.664  30.057  1.00  0.00    -0.248 NA
ATOM     39  C   UNL A   1      40.418  31.036  30.252  1.00  0.00     0.031 C 
ATOM     40  C   UNL A   1      39.824  26.645  27.875  1.00  0.00     0.029 A 
ATOM     41  N   UNL A   1      41.850  27.093  28.707  1.00  0.00    -0.354 N 
ATOM     42  C   UNL A   1      42.659  30.856  30.669  1.00  0.00     0.074 A 
ATOM     43  C   UNL A   1      41.477  31.690  30.704  1.00  0.00     0.031 C 
ATOM     44  C   UNL A   1      40.619  25.603  27.581  1.00  0.00     0.029 A 
ATOM     45  C   UNL A   1      41.958  25.865  28.099  1.00  0.00     0.049 A 
ATOM     46  H   UNL A   1      42.604  27.541  29.154  1.00  0.00     0.167 HD
ATOM     47  C   UNL A   1      43.862  31.212  31.179  1.00  0.00     0.037 A 
ATOM     48  C   UNL A   1      43.017  25.044  27.974  1.00  0.00     0.037 A 
ATOM     49  C   UNL A   1      45.025  30.367  31.174  1.00  0.00     0.049 A 
ATOM     50  C   UNL A   1      44.333  25.448  28.581  1.00  0.00     0.074 A 
ATOM     51  C   UNL A   1      46.271  30.608  31.727  1.00  0.00     0.029 A 
ATOM     52  N   UNL A   1      45.085  29.111  30.588  1.00  0.00    -0.354 N 
ATOM     53  N   UNL A   1      44.643  26.546  29.226  1.00  0.00    -0.248 NA
ATOM     54  C   UNL A   1      45.445  24.495  28.450  1.00  0.00     0.031 C 
ATOM     55  C   UNL A   1      47.096  29.514  31.444  1.00  0.00     0.029 A 
ATOM     56  C   UNL A   1      46.351  28.571  30.753  1.00  0.00     0.049 A 
ATOM     57  H   UNL A   1      44.338  28.668  30.123  1.00  0.00     0.167 HD
ATOM     58  C   UNL A   1      45.972  26.407  29.601  1.00  0.00     0.074 A 
ATOM     59  C   UNL A   1      46.406  25.111  29.124  1.00  0.00     0.031 C 
ATOM     60  C   UNL A   1      46.762  27.275  30.278  1.00  0.00     0.037 A 
BRANCH  47  61
ATOM     61  C   UNL A   1      43.974  32.578  31.794  1.00  0.00     0.064 A 
ATOM     62  C   UNL A   1      44.340  33.698  31.031  1.00  0.00     0.173 A 
ATOM     63  C   UNL A   1      43.691  32.772  33.153  1.00  0.00     0.173 A 
ATOM     64  F   UNL A   1      44.635  33.562  29.730  1.00  0.00    -0.203 F 
ATOM     65  C   UNL A   1      44.448  34.957  31.616  1.00  0.00     0.198 A 
ATOM     66  C   UNL A   1      43.771  34.039  33.727  1.00  0.00     0.198 A 
ATOM     67  F   UNL A   1      43.333  31.736  33.925  1.00  0.00    -0.203 F 
ATOM     68  F   UNL A   1      44.850  36.003  30.879  1.00  0.00    -0.200 F 
ATOM     69  C   UNL A   1      44.157  35.128  32.960  1.00  0.00     0.200 A 
ATOM     70  F   UNL A   1      43.480  34.204  35.025  1.00  0.00    -0.200 F 
ATOM     71  F   UNL A   1      44.258  36.342  33.520  1.00  0.00    -0.200 F 
ENDBRANCH  47  61
BRANCH  48  72
ATOM     72  C   UNL A   1      42.867  23.737  27.283  1.00  0.00     0.064 A 
ATOM     73  C   UNL A   1      42.333  22.627  27.953  1.00  0.00     0.173 A 
ATOM     74  C   UNL A   1      43.250  23.568  25.945  1.00  0.00     0.173 A 
ATOM     75  F   UNL A   1      41.971  22.734  29.240  1.00  0.00    -0.203 F 
ATOM     76  C   UNL A   1      42.206  21.394  27.318  1.00  0.00     0.198 A 
ATOM     77  C   UNL A   1      43.099  22.341  25.302  1.00  0.00     0.198 A 
ATOM     78  F   UNL A   1      43.761  24.600  25.257  1.00  0.00    -0.203 F 
ATOM     79  F   UNL A   1      41.732  20.340  27.996  1.00  0.00    -0.200 F 
ATOM     80  C   UNL A   1      42.583  21.253  25.991  1.00  0.00     0.200 A 
ATOM     81  F   UNL A   1      43.452  22.212  24.016  1.00  0.00    -0.200 F 
ATOM     82  F   UNL A   1      42.457  20.068  25.379  1.00  0.00    -0.200 F 
ENDBRANCH  48  72
BRANCH  60  83
ATOM     83  C   UNL A   1      48.167  26.839  30.572  1.00  0.00     0.064 A 
ATOM     84  C   UNL A   1      48.467  26.026  31.674  1.00  0.00     0.173 A 
ATOM     85  C   UNL A   1      49.217  27.207  29.717  1.00  0.00     0.173 A 
ATOM     86  F   UNL A   1      47.500  25.661  32.528  1.00  0.00    -0.203 F 
ATOM     87  C   UNL A   1      49.775  25.616  31.922  1.00  0.00     0.198 A 
ATOM     88  C   UNL A   1      50.517  26.772  29.955  1.00  0.00     0.198 A 
ATOM     89  F   UNL A   1      48.978  27.979  28.647  1.00  0.00    -0.203 F 
ATOM     90  F   UNL A   1      50.047  24.875  33.006  1.00  0.00    -0.200 F 
ATOM     91  C   UNL A   1      50.796  25.983  31.059  1.00  0.00     0.200 A 
ATOM     92  F   UNL A   1      51.502  27.118  29.113  1.00  0.00    -0.200 F 
ATOM     93  F   UNL A   1      52.053  25.581  31.297  1.00  0.00    -0.200 F 
ENDBRANCH  60  83
ENDBRANCH  34  35
ENDBRANCH  26  29
ENDBRANCH  24  25
ENDBRANCH   1  24
TORSDOF 12
ENDMDL
