MODEL 1
REMARK VINA RESULT:     -12.8      0.000      0.000
REMARK SMILES Cc1ccsc1CNC(=O)N[C@@H]1CCCC[C@H]1C(=O)NCCCCNC(=O)c1ccc(-c2c3nc(c(-c4c(F)c(F)c(F)c(F)c4F)c4ccc([nH]4)c(-c4c(F)c(F)c(F)c(F)c4F)c4nc(c(-c5c(F)c(F)c(F)c(F)c5F)c5ccc2[nH]5)C=C4)C=C3)cc1
REMARK SMILES IDX 22 1 21 2 20 3 18 4 19 5 17 7 12 8 13 9 14 10 16 11 15 12
REMARK SMILES IDX 11 13 8 14 9 15 10 17 7 19 6 20 1 21 2 22 3 23 4 24 5 25
REMARK SMILES IDX 23 26 24 27 25 28 26 29 27 31 28 32 29 33 90 34 30 35 89 36
REMARK SMILES IDX 31 37 32 38 33 39 83 40 34 41 88 42 82 43 84 44 35 45 87 46
REMARK SMILES IDX 81 47 80 48 36 50 68 51 48 52 67 53 49 54 52 55 66 56 85 57
REMARK SMILES IDX 50 58 51 59 65 61 86 62 53 63 37 64 38 65 46 66 39 67 40 68
REMARK SMILES IDX 44 69 47 70 41 71 42 72 45 73 43 74 69 75 70 76 78 77 71 78
REMARK SMILES IDX 72 79 76 80 79 81 73 82 74 83 77 84 75 85 54 86 55 87 63 88
REMARK SMILES IDX 56 89 57 90 61 91 64 92 58 93 59 94 62 95 60 96
REMARK H PARENT 20 6 8 16 11 18 25 30 84 49 52 60
REMARK Flexibility Score: inf
ROOT
ATOM      1  C   UNL A   1      31.847  30.472  26.779  1.00  0.00     0.023 C 
ENDROOT
BRANCH   1   2
ATOM      2  C   UNL A   1      32.215  29.978  25.384  1.00  0.00     0.116 C 
BRANCH   2   3
ATOM      3  N   UNL A   1      31.035  29.708  24.590  1.00  0.00    -0.356 N 
ATOM      4  C   UNL A   1      30.697  28.635  23.830  1.00  0.00     0.225 C 
ATOM      5  O   UNL A   1      29.618  28.694  23.237  1.00  0.00    -0.275 OA
ATOM      6  H   UNL A   1      30.361  30.425  24.605  1.00  0.00     0.163 HD
BRANCH   4   7
ATOM      7  C   UNL A   1      31.582  27.395  23.745  1.00  0.00     0.101 C 
ATOM      8  C   UNL A   1      30.778  26.099  23.519  1.00  0.00     0.096 C 
ATOM      9  C   UNL A   1      31.497  24.937  22.821  1.00  0.00     0.026 C 
ATOM     10  C   UNL A   1      32.490  25.393  21.763  1.00  0.00     0.002 C 
ATOM     11  C   UNL A   1      32.772  27.654  22.809  1.00  0.00     0.015 C 
ATOM     12  C   UNL A   1      33.477  26.392  22.340  1.00  0.00     0.001 C 
BRANCH   8  13
ATOM     13  N   UNL A   1      30.037  25.631  24.701  1.00  0.00    -0.335 N 
ATOM     14  N   UNL A   1      31.457  25.334  26.585  1.00  0.00    -0.333 N 
ATOM     15  C   UNL A   1      30.268  25.377  25.990  1.00  0.00     0.315 C 
ATOM     16  H   UNL A   1      31.385  25.400  27.565  1.00  0.00     0.165 HD
ATOM     17  O   UNL A   1      29.275  25.166  26.694  1.00  0.00    -0.249 OA
ATOM     18  H   UNL A   1      29.096  25.454  24.473  1.00  0.00     0.165 HD
BRANCH  14  19
ATOM     19  C   UNL A   1      32.826  25.216  26.145  1.00  0.00     0.164 C 
BRANCH  19  20
ATOM     20  C   UNL A   1      33.417  23.839  26.327  1.00  0.00     0.027 A 
ATOM     21  C   UNL A   1      35.301  23.997  24.586  1.00  0.00     0.045 C 
ATOM     22  C   UNL A   1      34.545  23.330  25.688  1.00  0.00    -0.035 A 
ATOM     23  C   UNL A   1      34.932  22.065  26.244  1.00  0.00     0.015 A 
ATOM     24  C   UNL A   1      34.072  21.631  27.224  1.00  0.00     0.065 A 
ATOM     25  S   UNL A   1      32.755  22.690  27.424  1.00  0.00    -0.147 S 
ENDBRANCH  19  20
ENDBRANCH  14  19
ENDBRANCH   8  13
ENDBRANCH   4   7
ENDBRANCH   2   3
ENDBRANCH   1   2
BRANCH   1  26
ATOM     26  C   UNL A   1      31.581  31.975  26.871  1.00  0.00     0.023 C 
BRANCH  26  27
ATOM     27  C   UNL A   1      32.781  32.818  27.280  1.00  0.00     0.116 C 
BRANCH  27  28
ATOM     28  N   UNL A   1      32.423  34.185  27.625  1.00  0.00    -0.352 N 
ATOM     29  C   UNL A   1      32.972  35.002  28.585  1.00  0.00     0.251 C 
ATOM     30  H   UNL A   1      31.689  34.579  27.101  1.00  0.00     0.163 HD
ATOM     31  O   UNL A   1      32.488  36.095  28.827  1.00  0.00    -0.269 OA
BRANCH  29  32
ATOM     32  C   UNL A   1      34.138  34.513  29.346  1.00  0.00     0.039 A 
ATOM     33  C   UNL A   1      33.918  33.824  30.540  1.00  0.00     0.014 A 
ATOM     34  C   UNL A   1      35.434  34.690  28.851  1.00  0.00     0.014 A 
ATOM     35  C   UNL A   1      34.999  33.251  31.208  1.00  0.00     0.010 A 
ATOM     36  C   UNL A   1      36.499  34.056  29.480  1.00  0.00     0.010 A 
ATOM     37  C   UNL A   1      36.291  33.333  30.665  1.00  0.00    -0.014 A 
BRANCH  37  38
ATOM     38  C   UNL A   1      37.442  32.670  31.324  1.00  0.00     0.031 A 
ATOM     39  C   UNL A   1      38.135  31.524  30.644  1.00  0.00     0.074 A 
ATOM     40  C   UNL A   1      37.817  33.058  32.560  1.00  0.00     0.049 A 
ATOM     41  N   UNL A   1      39.114  30.772  31.079  1.00  0.00    -0.248 NA
ATOM     42  C   UNL A   1      37.644  31.152  29.307  1.00  0.00     0.031 C 
ATOM     43  C   UNL A   1      37.186  34.124  33.341  1.00  0.00     0.029 A 
ATOM     44  N   UNL A   1      38.813  32.592  33.380  1.00  0.00    -0.354 N 
ATOM     45  C   UNL A   1      39.336  29.829  30.086  1.00  0.00     0.074 A 
ATOM     46  C   UNL A   1      38.364  30.072  29.043  1.00  0.00     0.031 C 
ATOM     47  C   UNL A   1      37.825  34.245  34.516  1.00  0.00     0.029 A 
ATOM     48  C   UNL A   1      38.886  33.244  34.587  1.00  0.00     0.049 A 
ATOM     49  H   UNL A   1      39.418  31.858  33.128  1.00  0.00     0.167 HD
ATOM     50  C   UNL A   1      40.281  28.861  30.040  1.00  0.00     0.037 A 
ATOM     51  C   UNL A   1      39.712  33.050  35.632  1.00  0.00     0.037 A 
ATOM     52  C   UNL A   1      41.275  28.656  31.059  1.00  0.00     0.049 A 
ATOM     53  C   UNL A   1      40.759  31.972  35.545  1.00  0.00     0.074 A 
ATOM     54  C   UNL A   1      42.333  27.764  31.062  1.00  0.00     0.029 A 
ATOM     55  N   UNL A   1      41.333  29.353  32.256  1.00  0.00    -0.354 N 
ATOM     56  N   UNL A   1      41.020  31.148  34.559  1.00  0.00    -0.248 NA
ATOM     57  C   UNL A   1      41.633  31.802  36.714  1.00  0.00     0.031 C 
ATOM     58  C   UNL A   1      43.004  27.889  32.283  1.00  0.00     0.029 A 
ATOM     59  C   UNL A   1      42.394  28.892  33.018  1.00  0.00     0.049 A 
ATOM     60  H   UNL A   1      40.712  30.069  32.524  1.00  0.00     0.167 HD
ATOM     61  C   UNL A   1      42.106  30.389  34.975  1.00  0.00     0.074 A 
ATOM     62  C   UNL A   1      42.465  30.860  36.296  1.00  0.00     0.031 C 
ATOM     63  C   UNL A   1      42.748  29.391  34.321  1.00  0.00     0.037 A 
BRANCH  50  64
ATOM     64  C   UNL A   1      40.295  27.950  28.848  1.00  0.00     0.064 A 
ATOM     65  C   UNL A   1      41.019  28.264  27.689  1.00  0.00     0.173 A 
ATOM     66  C   UNL A   1      39.624  26.719  28.890  1.00  0.00     0.173 A 
ATOM     67  F   UNL A   1      41.668  29.435  27.594  1.00  0.00    -0.203 F 
ATOM     68  C   UNL A   1      41.056  27.387  26.608  1.00  0.00     0.198 A 
ATOM     69  C   UNL A   1      39.687  25.832  27.819  1.00  0.00     0.198 A 
ATOM     70  F   UNL A   1      38.920  26.369  29.977  1.00  0.00    -0.203 F 
ATOM     71  F   UNL A   1      41.724  27.725  25.496  1.00  0.00    -0.200 F 
ATOM     72  C   UNL A   1      40.399  26.168  26.678  1.00  0.00     0.200 A 
ATOM     73  F   UNL A   1      39.061  24.649  27.893  1.00  0.00    -0.200 F 
ATOM     74  F   UNL A   1      40.448  25.319  25.642  1.00  0.00    -0.200 F 
ENDBRANCH  50  64
BRANCH  51  75
ATOM     75  C   UNL A   1      39.608  33.904  36.845  1.00  0.00     0.064 A 
ATOM     76  C   UNL A   1      38.840  33.497  37.945  1.00  0.00     0.173 A 
ATOM     77  C   UNL A   1      40.238  35.154  36.919  1.00  0.00     0.173 A 
ATOM     78  F   UNL A   1      38.200  32.317  37.914  1.00  0.00    -0.203 F 
ATOM     79  C   UNL A   1      38.679  34.319  39.057  1.00  0.00     0.198 A 
ATOM     80  C   UNL A   1      40.101  35.964  38.045  1.00  0.00     0.198 A 
ATOM     81  F   UNL A   1      40.989  35.590  35.896  1.00  0.00    -0.203 F 
ATOM     82  F   UNL A   1      37.890  33.930  40.068  1.00  0.00    -0.200 F 
ATOM     83  C   UNL A   1      39.312  35.552  39.107  1.00  0.00     0.200 A 
ATOM     84  F   UNL A   1      40.725  37.149  38.095  1.00  0.00    -0.200 F 
ATOM     85  F   UNL A   1      39.153  36.345  40.175  1.00  0.00    -0.200 F 
ENDBRANCH  51  75
BRANCH  63  86
ATOM     86  C   UNL A   1      43.935  28.774  35.002  1.00  0.00     0.064 A 
ATOM     87  C   UNL A   1      43.808  27.649  35.828  1.00  0.00     0.173 A 
ATOM     88  C   UNL A   1      45.221  29.294  34.789  1.00  0.00     0.173 A 
ATOM     89  F   UNL A   1      42.598  27.124  36.075  1.00  0.00    -0.203 F 
ATOM     90  C   UNL A   1      44.923  27.081  36.438  1.00  0.00     0.198 A 
ATOM     91  C   UNL A   1      46.337  28.704  35.375  1.00  0.00     0.198 A 
ATOM     92  F   UNL A   1      45.396  30.366  34.002  1.00  0.00    -0.203 F 
ATOM     93  F   UNL A   1      44.773  26.034  37.262  1.00  0.00    -0.200 F 
ATOM     94  C   UNL A   1      46.187  27.604  36.205  1.00  0.00     0.200 A 
ATOM     95  F   UNL A   1      47.559  29.202  35.137  1.00  0.00    -0.200 F 
ATOM     96  F   UNL A   1      47.260  27.050  36.785  1.00  0.00    -0.200 F 
ENDBRANCH  63  86
ENDBRANCH  37  38
ENDBRANCH  29  32
ENDBRANCH  27  28
ENDBRANCH  26  27
ENDBRANCH   1  26
TORSDOF 14
ENDMDL
MODEL 2
REMARK VINA RESULT:     -12.6      0.476      7.371
REMARK SMILES Cc1ccsc1CNC(=O)N[C@@H]1CCCC[C@H]1C(=O)NCCCCNC(=O)c1ccc(-c2c3nc(c(-c4c(F)c(F)c(F)c(F)c4F)c4ccc([nH]4)c(-c4c(F)c(F)c(F)c(F)c4F)c4nc(c(-c5c(F)c(F)c(F)c(F)c5F)c5ccc2[nH]5)C=C4)C=C3)cc1
REMARK SMILES IDX 22 1 21 2 20 3 18 4 19 5 17 7 12 8 13 9 14 10 16 11 15 12
REMARK SMILES IDX 11 13 8 14 9 15 10 17 7 19 6 20 1 21 2 22 3 23 4 24 5 25
REMARK SMILES IDX 23 26 24 27 25 28 26 29 27 31 28 32 29 33 90 34 30 35 89 36
REMARK SMILES IDX 31 37 32 38 33 39 83 40 34 41 88 42 82 43 84 44 35 45 87 46
REMARK SMILES IDX 81 47 80 48 36 50 68 51 48 52 67 53 49 54 52 55 66 56 85 57
REMARK SMILES IDX 50 58 51 59 65 61 86 62 53 63 37 64 38 65 46 66 39 67 40 68
REMARK SMILES IDX 44 69 47 70 41 71 42 72 45 73 43 74 69 75 70 76 78 77 71 78
REMARK SMILES IDX 72 79 76 80 79 81 73 82 74 83 77 84 75 85 54 86 55 87 63 88
REMARK SMILES IDX 56 89 57 90 61 91 64 92 58 93 59 94 62 95 60 96
REMARK H PARENT 20 6 8 16 11 18 25 30 84 49 52 60
REMARK Flexibility Score: inf
ROOT
ATOM      1  C   UNL A   1      31.641  30.705  26.776  1.00  0.00     0.023 C 
ENDROOT
BRANCH   1   2
ATOM      2  C   UNL A   1      32.101  30.042  25.482  1.00  0.00     0.116 C 
BRANCH   2   3
ATOM      3  N   UNL A   1      30.986  29.787  24.594  1.00  0.00    -0.356 N 
ATOM      4  C   UNL A   1      30.720  28.738  23.774  1.00  0.00     0.225 C 
ATOM      5  O   UNL A   1      29.686  28.806  23.105  1.00  0.00    -0.275 OA
ATOM      6  H   UNL A   1      30.305  30.497  24.582  1.00  0.00     0.163 HD
BRANCH   4   7
ATOM      7  C   UNL A   1      31.623  27.510  23.715  1.00  0.00     0.101 C 
ATOM      8  C   UNL A   1      30.841  26.200  23.495  1.00  0.00     0.096 C 
ATOM      9  C   UNL A   1      31.585  25.040  22.820  1.00  0.00     0.026 C 
ATOM     10  C   UNL A   1      32.584  25.499  21.768  1.00  0.00     0.002 C 
ATOM     11  C   UNL A   1      32.821  27.775  22.791  1.00  0.00     0.015 C 
ATOM     12  C   UNL A   1      33.549  26.518  22.345  1.00  0.00     0.001 C 
BRANCH   8  13
ATOM     13  N   UNL A   1      30.092  25.735  24.673  1.00  0.00    -0.335 N 
ATOM     14  N   UNL A   1      31.509  25.389  26.551  1.00  0.00    -0.333 N 
ATOM     15  C   UNL A   1      30.320  25.462  25.959  1.00  0.00     0.315 C 
ATOM     16  H   UNL A   1      31.440  25.445  27.532  1.00  0.00     0.165 HD
ATOM     17  O   UNL A   1      29.324  25.265  26.663  1.00  0.00    -0.249 OA
ATOM     18  H   UNL A   1      29.147  25.579  24.445  1.00  0.00     0.165 HD
BRANCH  14  19
ATOM     19  C   UNL A   1      32.874  25.247  26.107  1.00  0.00     0.164 C 
BRANCH  19  20
ATOM     20  C   UNL A   1      33.439  23.857  26.279  1.00  0.00     0.027 A 
ATOM     21  C   UNL A   1      35.243  23.947  24.451  1.00  0.00     0.045 C 
ATOM     22  C   UNL A   1      34.523  23.312  25.596  1.00  0.00    -0.035 A 
ATOM     23  C   UNL A   1      34.904  22.045  26.149  1.00  0.00     0.015 A 
ATOM     24  C   UNL A   1      34.081  21.645  27.174  1.00  0.00     0.065 A 
ATOM     25  S   UNL A   1      32.801  22.739  27.421  1.00  0.00    -0.147 S 
ENDBRANCH  19  20
ENDBRANCH  14  19
ENDBRANCH   8  13
ENDBRANCH   4   7
ENDBRANCH   2   3
ENDBRANCH   1   2
BRANCH   1  26
ATOM     26  C   UNL A   1      31.534  32.229  26.705  1.00  0.00     0.023 C 
BRANCH  26  27
ATOM     27  C   UNL A   1      32.752  32.984  27.222  1.00  0.00     0.116 C 
BRANCH  27  28
ATOM     28  N   UNL A   1      32.431  34.323  27.691  1.00  0.00    -0.352 N 
ATOM     29  C   UNL A   1      33.011  35.040  28.711  1.00  0.00     0.251 C 
ATOM     30  H   UNL A   1      31.701  34.779  27.213  1.00  0.00     0.163 HD
ATOM     31  O   UNL A   1      32.557  36.118  29.055  1.00  0.00    -0.269 OA
BRANCH  29  32
ATOM     32  C   UNL A   1      34.173  34.459  29.411  1.00  0.00     0.039 A 
ATOM     33  C   UNL A   1      33.950  33.679  30.546  1.00  0.00     0.014 A 
ATOM     34  C   UNL A   1      35.466  34.642  28.911  1.00  0.00     0.014 A 
ATOM     35  C   UNL A   1      35.024  33.024  31.148  1.00  0.00     0.010 A 
ATOM     36  C   UNL A   1      36.522  33.930  29.468  1.00  0.00     0.010 A 
ATOM     37  C   UNL A   1      36.310  33.116  30.593  1.00  0.00    -0.014 A 
BRANCH  37  38
ATOM     38  C   UNL A   1      37.452  32.371  31.176  1.00  0.00     0.031 A 
ATOM     39  C   UNL A   1      37.971  32.743  32.536  1.00  0.00     0.074 A 
ATOM     40  C   UNL A   1      38.058  31.408  30.454  1.00  0.00     0.049 A 
ATOM     41  N   UNL A   1      38.995  32.260  33.192  1.00  0.00    -0.248 NA
ATOM     42  C   UNL A   1      37.263  33.823  33.243  1.00  0.00     0.031 C 
ATOM     43  C   UNL A   1      37.676  30.995  29.103  1.00  0.00     0.029 A 
ATOM     44  N   UNL A   1      39.133  30.608  30.753  1.00  0.00    -0.354 N 
ATOM     45  C   UNL A   1      39.069  32.991  34.369  1.00  0.00     0.074 A 
ATOM     46  C   UNL A   1      38.014  33.979  34.323  1.00  0.00     0.031 C 
ATOM     47  C   UNL A   1      38.488  30.004  28.699  1.00  0.00     0.029 A 
ATOM     48  C   UNL A   1      39.469  29.736  29.747  1.00  0.00     0.049 A 
ATOM     49  H   UNL A   1      39.618  30.656  31.608  1.00  0.00     0.167 HD
ATOM     50  C   UNL A   1      39.927  32.836  35.405  1.00  0.00     0.037 A 
ATOM     51  C   UNL A   1      40.461  28.828  29.678  1.00  0.00     0.037 A 
ATOM     52  C   UNL A   1      40.941  31.819  35.465  1.00  0.00     0.049 A 
ATOM     53  C   UNL A   1      41.391  28.673  30.851  1.00  0.00     0.074 A 
ATOM     54  C   UNL A   1      41.798  31.518  36.509  1.00  0.00     0.029 A 
ATOM     55  N   UNL A   1      41.237  30.937  34.437  1.00  0.00    -0.354 N 
ATOM     56  N   UNL A   1      41.391  29.307  31.999  1.00  0.00    -0.248 NA
ATOM     57  C   UNL A   1      42.457  27.669  30.722  1.00  0.00     0.031 C 
ATOM     58  C   UNL A   1      42.644  30.485  36.095  1.00  0.00     0.029 A 
ATOM     59  C   UNL A   1      42.281  30.108  34.813  1.00  0.00     0.049 A 
ATOM     60  H   UNL A   1      40.772  30.904  33.569  1.00  0.00     0.167 HD
ATOM     61  C   UNL A   1      42.428  28.756  32.739  1.00  0.00     0.074 A 
ATOM     62  C   UNL A   1      43.028  27.726  31.916  1.00  0.00     0.031 C 
ATOM     63  C   UNL A   1      42.848  29.074  33.987  1.00  0.00     0.037 A 
BRANCH  50  64
ATOM     64  C   UNL A   1      39.804  33.780  36.564  1.00  0.00     0.064 A 
ATOM     65  C   UNL A   1      38.960  33.507  37.651  1.00  0.00     0.173 A 
ATOM     66  C   UNL A   1      40.588  34.942  36.617  1.00  0.00     0.173 A 
ATOM     67  F   UNL A   1      38.180  32.415  37.643  1.00  0.00    -0.203 F 
ATOM     68  C   UNL A   1      38.891  34.373  38.739  1.00  0.00     0.198 A 
ATOM     69  C   UNL A   1      40.538  35.791  37.719  1.00  0.00     0.198 A 
ATOM     70  F   UNL A   1      41.415  35.246  35.605  1.00  0.00    -0.203 F 
ATOM     71  F   UNL A   1      38.049  34.112  39.749  1.00  0.00    -0.200 F 
ATOM     72  C   UNL A   1      39.687  35.508  38.777  1.00  0.00     0.200 A 
ATOM     73  F   UNL A   1      41.316  36.880  37.760  1.00  0.00    -0.200 F 
ATOM     74  F   UNL A   1      39.630  36.333  39.832  1.00  0.00    -0.200 F 
ENDBRANCH  50  64
BRANCH  51  75
ATOM     75  C   UNL A   1      40.620  27.975  28.471  1.00  0.00     0.064 A 
ATOM     76  C   UNL A   1      40.025  26.706  28.405  1.00  0.00     0.173 A 
ATOM     77  C   UNL A   1      41.393  28.388  27.376  1.00  0.00     0.173 A 
ATOM     78  F   UNL A   1      39.292  26.258  29.436  1.00  0.00    -0.203 F 
ATOM     79  C   UNL A   1      40.225  25.871  27.309  1.00  0.00     0.198 A 
ATOM     80  C   UNL A   1      41.568  27.563  26.266  1.00  0.00     0.198 A 
ATOM     81  F   UNL A   1      41.980  29.594  27.385  1.00  0.00    -0.203 F 
ATOM     82  F   UNL A   1      39.694  24.641  27.300  1.00  0.00    -0.200 F 
ATOM     83  C   UNL A   1      40.994  26.302  26.239  1.00  0.00     0.200 A 
ATOM     84  F   UNL A   1      42.301  27.988  25.229  1.00  0.00    -0.200 F 
ATOM     85  F   UNL A   1      41.191  25.496  25.186  1.00  0.00    -0.200 F 
ENDBRANCH  51  75
BRANCH  63  86
ATOM     86  C   UNL A   1      43.977  28.268  34.561  1.00  0.00     0.064 A 
ATOM     87  C   UNL A   1      45.309  28.694  34.464  1.00  0.00     0.173 A 
ATOM     88  C   UNL A   1      43.714  27.075  35.251  1.00  0.00     0.173 A 
ATOM     89  F   UNL A   1      45.612  29.820  33.800  1.00  0.00    -0.203 F 
ATOM     90  C   UNL A   1      46.341  27.942  35.017  1.00  0.00     0.198 A 
ATOM     91  C   UNL A   1      44.746  26.342  35.830  1.00  0.00     0.198 A 
ATOM     92  F   UNL A   1      42.456  26.629  35.378  1.00  0.00    -0.203 F 
ATOM     93  F   UNL A   1      47.612  28.343  34.872  1.00  0.00    -0.200 F 
ATOM     94  C   UNL A   1      46.059  26.771  35.706  1.00  0.00     0.200 A 
ATOM     95  F   UNL A   1      44.469  25.219  36.508  1.00  0.00    -0.200 F 
ATOM     96  F   UNL A   1      47.053  26.053  36.245  1.00  0.00    -0.200 F 
ENDBRANCH  63  86
ENDBRANCH  37  38
ENDBRANCH  29  32
ENDBRANCH  27  28
ENDBRANCH  26  27
ENDBRANCH   1  26
TORSDOF 14
ENDMDL
MODEL 3
REMARK VINA RESULT:     -12.5      1.172      2.088
REMARK SMILES Cc1ccsc1CNC(=O)N[C@@H]1CCCC[C@H]1C(=O)NCCCCNC(=O)c1ccc(-c2c3nc(c(-c4c(F)c(F)c(F)c(F)c4F)c4ccc([nH]4)c(-c4c(F)c(F)c(F)c(F)c4F)c4nc(c(-c5c(F)c(F)c(F)c(F)c5F)c5ccc2[nH]5)C=C4)C=C3)cc1
REMARK SMILES IDX 22 1 21 2 20 3 18 4 19 5 17 7 12 8 13 9 14 10 16 11 15 12
REMARK SMILES IDX 11 13 8 14 9 15 10 17 7 19 6 20 1 21 2 22 3 23 4 24 5 25
REMARK SMILES IDX 23 26 24 27 25 28 26 29 27 31 28 32 29 33 90 34 30 35 89 36
REMARK SMILES IDX 31 37 32 38 33 39 83 40 34 41 88 42 82 43 84 44 35 45 87 46
REMARK SMILES IDX 81 47 80 48 36 50 68 51 48 52 67 53 49 54 52 55 66 56 85 57
REMARK SMILES IDX 50 58 51 59 65 61 86 62 53 63 37 64 38 65 46 66 39 67 40 68
REMARK SMILES IDX 44 69 47 70 41 71 42 72 45 73 43 74 69 75 70 76 78 77 71 78
REMARK SMILES IDX 72 79 76 80 79 81 73 82 74 83 77 84 75 85 54 86 55 87 63 88
REMARK SMILES IDX 56 89 57 90 61 91 64 92 58 93 59 94 62 95 60 96
REMARK H PARENT 20 6 8 16 11 18 25 30 84 49 52 60
REMARK Flexibility Score: inf
ROOT
ATOM      1  C   UNL A   1      31.738  30.566  26.562  1.00  0.00     0.023 C 
ENDROOT
BRANCH   1   2
ATOM      2  C   UNL A   1      32.473  30.038  25.335  1.00  0.00     0.116 C 
BRANCH   2   3
ATOM      3  N   UNL A   1      31.557  29.763  24.248  1.00  0.00    -0.356 N 
ATOM      4  C   UNL A   1      31.120  28.589  23.725  1.00  0.00     0.225 C 
ATOM      5  O   UNL A   1      30.345  28.664  22.769  1.00  0.00    -0.275 OA
ATOM      6  H   UNL A   1      31.188  30.565  23.814  1.00  0.00     0.163 HD
BRANCH   4   7
ATOM      7  C   UNL A   1      31.524  27.242  24.315  1.00  0.00     0.101 C 
ATOM      8  C   UNL A   1      32.984  26.861  23.997  1.00  0.00     0.096 C 
ATOM      9  C   UNL A   1      33.695  25.919  24.977  1.00  0.00     0.026 C 
ATOM     10  C   UNL A   1      33.278  26.129  26.424  1.00  0.00     0.002 C 
ATOM     11  C   UNL A   1      31.079  27.150  25.783  1.00  0.00     0.015 C 
ATOM     12  C   UNL A   1      31.769  26.048  26.570  1.00  0.00     0.001 C 
BRANCH   8  13
ATOM     13  N   UNL A   1      33.213  26.449  22.603  1.00  0.00    -0.335 N 
ATOM     14  N   UNL A   1      31.693  24.757  21.911  1.00  0.00    -0.333 N 
ATOM     15  C   UNL A   1      32.660  25.644  21.695  1.00  0.00     0.315 C 
ATOM     16  H   UNL A   1      31.255  24.472  21.076  1.00  0.00     0.165 HD
ATOM     17  O   UNL A   1      33.090  25.742  20.541  1.00  0.00    -0.249 OA
ATOM     18  H   UNL A   1      34.007  26.899  22.234  1.00  0.00     0.165 HD
BRANCH  14  19
ATOM     19  C   UNL A   1      31.128  24.110  23.071  1.00  0.00     0.164 C 
BRANCH  19  20
ATOM     20  C   UNL A   1      32.055  23.127  23.743  1.00  0.00     0.027 A 
ATOM     21  C   UNL A   1      30.707  22.738  25.896  1.00  0.00     0.045 C 
ATOM     22  C   UNL A   1      31.836  22.474  24.954  1.00  0.00    -0.035 A 
ATOM     23  C   UNL A   1      32.830  21.468  25.191  1.00  0.00     0.015 A 
ATOM     24  C   UNL A   1      33.788  21.427  24.207  1.00  0.00     0.065 A 
ATOM     25  S   UNL A   1      33.551  22.645  23.042  1.00  0.00    -0.147 S 
ENDBRANCH  19  20
ENDBRANCH  14  19
ENDBRANCH   8  13
ENDBRANCH   4   7
ENDBRANCH   2   3
ENDBRANCH   1   2
BRANCH   1  26
ATOM     26  C   UNL A   1      31.597  32.087  26.612  1.00  0.00     0.023 C 
BRANCH  26  27
ATOM     27  C   UNL A   1      32.711  32.814  27.353  1.00  0.00     0.116 C 
BRANCH  27  28
ATOM     28  N   UNL A   1      32.374  34.192  27.673  1.00  0.00    -0.352 N 
ATOM     29  C   UNL A   1      32.950  35.025  28.604  1.00  0.00     0.251 C 
ATOM     30  H   UNL A   1      31.636  34.582  27.153  1.00  0.00     0.163 HD
ATOM     31  O   UNL A   1      32.482  36.129  28.829  1.00  0.00    -0.269 OA
BRANCH  29  32
ATOM     32  C   UNL A   1      34.123  34.541  29.356  1.00  0.00     0.039 A 
ATOM     33  C   UNL A   1      33.922  33.955  30.606  1.00  0.00     0.014 A 
ATOM     34  C   UNL A   1      35.404  34.618  28.800  1.00  0.00     0.014 A 
ATOM     35  C   UNL A   1      35.003  33.383  31.276  1.00  0.00     0.010 A 
ATOM     36  C   UNL A   1      36.465  33.984  29.435  1.00  0.00     0.010 A 
ATOM     37  C   UNL A   1      36.274  33.362  30.680  1.00  0.00    -0.014 A 
BRANCH  37  38
ATOM     38  C   UNL A   1      37.421  32.697  31.344  1.00  0.00     0.031 A 
ATOM     39  C   UNL A   1      38.117  31.552  30.665  1.00  0.00     0.074 A 
ATOM     40  C   UNL A   1      37.790  33.083  32.582  1.00  0.00     0.049 A 
ATOM     41  N   UNL A   1      39.093  30.799  31.105  1.00  0.00    -0.248 NA
ATOM     42  C   UNL A   1      37.633  31.183  29.325  1.00  0.00     0.031 C 
ATOM     43  C   UNL A   1      37.156  34.148  33.362  1.00  0.00     0.029 A 
ATOM     44  N   UNL A   1      38.781  32.614  33.407  1.00  0.00    -0.354 N 
ATOM     45  C   UNL A   1      39.320  29.857  30.111  1.00  0.00     0.074 A 
ATOM     46  C   UNL A   1      38.354  30.103  29.063  1.00  0.00     0.031 C 
ATOM     47  C   UNL A   1      37.788  34.267  34.540  1.00  0.00     0.029 A 
ATOM     48  C   UNL A   1      38.847  33.265  34.615  1.00  0.00     0.049 A 
ATOM     49  H   UNL A   1      39.387  31.880  33.157  1.00  0.00     0.167 HD
ATOM     50  C   UNL A   1      40.264  28.888  30.069  1.00  0.00     0.037 A 
ATOM     51  C   UNL A   1      39.668  33.068  35.665  1.00  0.00     0.037 A 
ATOM     52  C   UNL A   1      41.252  28.681  31.092  1.00  0.00     0.049 A 
ATOM     53  C   UNL A   1      40.714  31.990  35.581  1.00  0.00     0.074 A 
ATOM     54  C   UNL A   1      42.310  27.788  31.100  1.00  0.00     0.029 A 
ATOM     55  N   UNL A   1      41.305  29.375  32.291  1.00  0.00    -0.354 N 
ATOM     56  N   UNL A   1      40.980  31.167  34.596  1.00  0.00    -0.248 NA
ATOM     57  C   UNL A   1      41.582  31.817  36.755  1.00  0.00     0.031 C 
ATOM     58  C   UNL A   1      42.973  27.910  32.325  1.00  0.00     0.029 A 
ATOM     59  C   UNL A   1      42.361  28.913  33.058  1.00  0.00     0.049 A 
ATOM     60  H   UNL A   1      40.683  30.092  32.557  1.00  0.00     0.167 HD
ATOM     61  C   UNL A   1      42.063  30.406  35.016  1.00  0.00     0.074 A 
ATOM     62  C   UNL A   1      42.415  30.875  36.339  1.00  0.00     0.031 C 
ATOM     63  C   UNL A   1      42.708  29.409  34.364  1.00  0.00     0.037 A 
BRANCH  50  64
ATOM     64  C   UNL A   1      40.284  27.980  28.875  1.00  0.00     0.064 A 
ATOM     65  C   UNL A   1      41.012  28.296  27.719  1.00  0.00     0.173 A 
ATOM     66  C   UNL A   1      39.614  26.748  28.913  1.00  0.00     0.173 A 
ATOM     67  F   UNL A   1      41.660  29.469  27.629  1.00  0.00    -0.203 F 
ATOM     68  C   UNL A   1      41.055  27.421  26.637  1.00  0.00     0.198 A 
ATOM     69  C   UNL A   1      39.682  25.862  27.840  1.00  0.00     0.198 A 
ATOM     70  F   UNL A   1      38.906  26.395  29.996  1.00  0.00    -0.203 F 
ATOM     71  F   UNL A   1      41.726  27.762  25.528  1.00  0.00    -0.200 F 
ATOM     72  C   UNL A   1      40.398  26.202  26.702  1.00  0.00     0.200 A 
ATOM     73  F   UNL A   1      39.057  24.679  27.909  1.00  0.00    -0.200 F 
ATOM     74  F   UNL A   1      40.452  25.354  25.665  1.00  0.00    -0.200 F 
ENDBRANCH  50  64
BRANCH  51  75
ATOM     75  C   UNL A   1      39.558  33.920  36.878  1.00  0.00     0.064 A 
ATOM     76  C   UNL A   1      38.794  33.505  37.979  1.00  0.00     0.173 A 
ATOM     77  C   UNL A   1      40.178  35.176  36.953  1.00  0.00     0.173 A 
ATOM     78  F   UNL A   1      38.165  32.321  37.947  1.00  0.00    -0.203 F 
ATOM     79  C   UNL A   1      38.628  34.326  39.092  1.00  0.00     0.198 A 
ATOM     80  C   UNL A   1      40.035  35.983  38.080  1.00  0.00     0.198 A 
ATOM     81  F   UNL A   1      40.924  35.618  35.930  1.00  0.00    -0.203 F 
ATOM     82  F   UNL A   1      37.843  33.929  40.103  1.00  0.00    -0.200 F 
ATOM     83  C   UNL A   1      39.251  35.563  39.143  1.00  0.00     0.200 A 
ATOM     84  F   UNL A   1      40.649  37.173  38.130  1.00  0.00    -0.200 F 
ATOM     85  F   UNL A   1      39.086  36.355  40.212  1.00  0.00    -0.200 F 
ENDBRANCH  51  75
BRANCH  63  86
ATOM     86  C   UNL A   1      43.891  28.790  35.050  1.00  0.00     0.064 A 
ATOM     87  C   UNL A   1      45.183  29.313  34.906  1.00  0.00     0.173 A 
ATOM     88  C   UNL A   1      43.718  27.684  35.896  1.00  0.00     0.173 A 
ATOM     89  F   UNL A   1      45.402  30.360  34.095  1.00  0.00    -0.203 F 
ATOM     90  C   UNL A   1      46.266  28.735  35.564  1.00  0.00     0.198 A 
ATOM     91  C   UNL A   1      44.797  27.128  36.577  1.00  0.00     0.198 A 
ATOM     92  F   UNL A   1      42.500  27.151  36.074  1.00  0.00    -0.203 F 
ATOM     93  F   UNL A   1      47.500  29.221  35.374  1.00  0.00    -0.200 F 
ATOM     94  C   UNL A   1      46.071  27.649  36.404  1.00  0.00     0.200 A 
ATOM     95  F   UNL A   1      44.604  26.089  37.401  1.00  0.00    -0.200 F 
ATOM     96  F   UNL A   1      47.112  27.100  37.044  1.00  0.00    -0.200 F 
ENDBRANCH  63  86
ENDBRANCH  37  38
ENDBRANCH  29  32
ENDBRANCH  27  28
ENDBRANCH  26  27
ENDBRANCH   1  26
TORSDOF 14
ENDMDL
