MODEL 1
REMARK VINA RESULT:     -13.5      0.000      0.000
REMARK SMILES CC1=C(C(=O)NCCCCNC(=O)c2ccc(-c3c4nc(c(-c5c(F)c(F)c(F)c(F)c5F)c5ccc([nH]5)c(-c5c(F)c(F)c(F)c(F)c5F)c5nc(c(-c6c(F)c(F)c(F)c(F)c6F)c6ccc3[nH]6)C=C5)C=C4)cc2)N2C(=O)[C@H](NC(=O)c3c(Cl)c(C(F)(F)F)nn3C)[C@@H]2SC1
REMARK SMILES IDX 8 1 7 2 6 3 4 4 5 5 3 7 1 8 2 9 97 10 77 11 96 12 78 13
REMARK SMILES IDX 95 14 79 15 80 16 81 17 82 18 83 20 84 21 85 22 93 23 86 24
REMARK SMILES IDX 87 25 92 26 94 27 88 28 89 29 90 30 91 31 9 32 10 33 11 34
REMARK SMILES IDX 12 35 13 37 14 38 15 39 76 40 16 41 75 42 17 43 18 44 19 45
REMARK SMILES IDX 69 46 20 47 74 48 68 49 70 50 21 51 73 52 67 53 66 54 22 56
REMARK SMILES IDX 54 57 34 58 53 59 35 60 38 61 52 62 71 63 36 64 37 65 51 67
REMARK SMILES IDX 72 68 39 69 23 70 24 71 32 72 25 73 26 74 30 75 33 76 27 77
REMARK SMILES IDX 28 78 31 79 29 80 55 81 56 82 64 83 57 84 58 85 62 86 65 87
REMARK SMILES IDX 59 88 60 89 63 90 61 91 40 92 41 93 49 94 42 95 43 96 47 97
REMARK SMILES IDX 50 98 44 99 45 100 48 101 46 102
REMARK H PARENT 6 6 81 19 11 36 70 55 38 66
REMARK Flexibility Score: inf
ROOT
ATOM      1  C   UNL A   1      31.723  30.489  26.321  1.00  0.00     0.023 C 
ENDROOT
BRANCH   1   2
ATOM      2  C   UNL A   1      33.159  29.974  26.302  1.00  0.00     0.116 C 
BRANCH   2   3
ATOM      3  N   UNL A   1      33.699  29.639  24.994  1.00  0.00    -0.351 N 
ATOM      4  C   UNL A   1      33.101  29.003  23.928  1.00  0.00     0.268 C 
ATOM      5  O   UNL A   1      33.658  29.057  22.836  1.00  0.00    -0.268 OA
ATOM      6  H   UNL A   1      34.635  29.905  24.849  1.00  0.00     0.163 HD
BRANCH   4   7
ATOM      7  C   UNL A   1      31.832  28.208  24.147  1.00  0.00     0.110 C 
ATOM      8  C   UNL A   1      30.633  29.348  22.229  1.00  0.00     0.043 C 
ATOM      9  C   UNL A   1      30.692  28.478  23.461  1.00  0.00    -0.034 C 
ATOM     10  C   UNL A   1      29.362  27.843  23.783  1.00  0.00     0.104 C 
ATOM     11  N   UNL A   1      31.885  27.117  24.977  1.00  0.00    -0.290 N 
ATOM     12  S   UNL A   1      29.520  26.098  24.185  1.00  0.00    -0.129 SA
ATOM     13  C   UNL A   1      32.827  26.196  25.301  1.00  0.00     0.253 C 
ATOM     14  C   UNL A   1      30.749  26.384  25.491  1.00  0.00     0.181 C 
ATOM     15  O   UNL A   1      34.025  26.118  25.153  1.00  0.00    -0.272 OA
ATOM     16  C   UNL A   1      31.721  25.190  25.775  1.00  0.00     0.206 C 
BRANCH  16  17
ATOM     17  N   UNL A   1      31.530  23.988  24.915  1.00  0.00    -0.336 N 
ATOM     18  C   UNL A   1      32.331  22.893  24.710  1.00  0.00     0.271 C 
ATOM     19  H   UNL A   1      30.686  23.978  24.408  1.00  0.00     0.164 HD
ATOM     20  O   UNL A   1      31.898  21.988  24.002  1.00  0.00    -0.267 OA
BRANCH  18  21
ATOM     21  C   UNL A   1      33.640  22.853  25.295  1.00  0.00     0.145 A 
ATOM     22  C   UNL A   1      34.856  22.889  24.638  1.00  0.00     0.104 A 
ATOM     23  N   UNL A   1      33.964  22.613  26.603  1.00  0.00    -0.261 N 
ATOM     24  Cl  UNL A   1      35.133  23.030  22.967  1.00  0.00    -0.079 Cl
ATOM     25  C   UNL A   1      35.853  22.802  25.640  1.00  0.00     0.185 A 
ATOM     26  N   UNL A   1      35.285  22.683  26.858  1.00  0.00    -0.166 NA
ATOM     27  C   UNL A   1      33.086  22.245  27.689  1.00  0.00     0.174 C 
BRANCH  25  28
ATOM     28  C   UNL A   1      37.338  22.821  25.420  1.00  0.00     0.436 C 
ATOM     29  F   UNL A   1      37.807  24.085  25.238  1.00  0.00    -0.164 F 
ATOM     30  F   UNL A   1      38.017  22.303  26.480  1.00  0.00    -0.164 F 
ATOM     31  F   UNL A   1      37.729  22.104  24.332  1.00  0.00    -0.164 F 
ENDBRANCH  25  28
ENDBRANCH  18  21
ENDBRANCH  16  17
ENDBRANCH   4   7
ENDBRANCH   2   3
ENDBRANCH   1   2
BRANCH   1  32
ATOM     32  C   UNL A   1      31.525  31.980  26.601  1.00  0.00     0.023 C 
BRANCH  32  33
ATOM     33  C   UNL A   1      32.645  32.705  27.345  1.00  0.00     0.116 C 
BRANCH  33  34
ATOM     34  N   UNL A   1      32.340  34.088  27.681  1.00  0.00    -0.352 N 
ATOM     35  C   UNL A   1      32.960  34.959  28.549  1.00  0.00     0.251 C 
ATOM     36  H   UNL A   1      31.561  34.463  27.210  1.00  0.00     0.163 HD
ATOM     37  O   UNL A   1      32.484  36.077  28.728  1.00  0.00    -0.269 OA
BRANCH  35  38
ATOM     38  C   UNL A   1      34.165  34.550  29.307  1.00  0.00     0.039 A 
ATOM     39  C   UNL A   1      34.006  34.080  30.616  1.00  0.00     0.014 A 
ATOM     40  C   UNL A   1      35.442  34.621  28.749  1.00  0.00     0.014 A 
ATOM     41  C   UNL A   1      35.108  33.581  31.319  1.00  0.00     0.010 A 
ATOM     42  C   UNL A   1      36.524  34.051  29.416  1.00  0.00     0.010 A 
ATOM     43  C   UNL A   1      36.366  33.510  30.703  1.00  0.00    -0.014 A 
BRANCH  43  44
ATOM     44  C   UNL A   1      37.527  32.855  31.366  1.00  0.00     0.031 A 
ATOM     45  C   UNL A   1      38.209  31.684  30.716  1.00  0.00     0.074 A 
ATOM     46  C   UNL A   1      37.903  33.251  32.598  1.00  0.00     0.049 A 
ATOM     47  N   UNL A   1      39.136  30.891  31.196  1.00  0.00    -0.248 NA
ATOM     48  C   UNL A   1      37.770  31.339  29.356  1.00  0.00     0.031 C 
ATOM     49  C   UNL A   1      37.298  34.344  33.359  1.00  0.00     0.029 A 
ATOM     50  N   UNL A   1      38.873  32.761  33.438  1.00  0.00    -0.354 N 
ATOM     51  C   UNL A   1      39.367  29.941  30.211  1.00  0.00     0.074 A 
ATOM     52  C   UNL A   1      38.457  30.230  29.123  1.00  0.00     0.031 C 
ATOM     53  C   UNL A   1      37.917  34.452  34.546  1.00  0.00     0.029 A 
ATOM     54  C   UNL A   1      38.933  33.409  34.649  1.00  0.00     0.049 A 
ATOM     55  H   UNL A   1      39.470  32.017  33.197  1.00  0.00     0.167 HD
ATOM     56  C   UNL A   1      40.268  28.929  30.206  1.00  0.00     0.037 A 
ATOM     57  C   UNL A   1      39.708  33.179  35.727  1.00  0.00     0.037 A 
ATOM     58  C   UNL A   1      41.198  28.664  31.273  1.00  0.00     0.049 A 
ATOM     59  C   UNL A   1      40.708  32.055  35.693  1.00  0.00     0.074 A 
ATOM     60  C   UNL A   1      42.190  27.700  31.333  1.00  0.00     0.029 A 
ATOM     61  N   UNL A   1      41.254  29.369  32.465  1.00  0.00    -0.354 N 
ATOM     62  N   UNL A   1      40.953  31.196  34.734  1.00  0.00    -0.248 NA
ATOM     63  C   UNL A   1      41.540  31.872  36.890  1.00  0.00     0.031 C 
ATOM     64  C   UNL A   1      42.823  27.800  32.576  1.00  0.00     0.029 A 
ATOM     65  C   UNL A   1      42.254  28.853  33.273  1.00  0.00     0.049 A 
ATOM     66  H   UNL A   1      40.668  30.124  32.703  1.00  0.00     0.167 HD
ATOM     67  C   UNL A   1      41.985  30.393  35.198  1.00  0.00     0.074 A 
ATOM     68  C   UNL A   1      42.328  30.872  36.520  1.00  0.00     0.031 C 
ATOM     69  C   UNL A   1      42.595  29.352  34.580  1.00  0.00     0.037 A 
BRANCH  56  70
ATOM     70  C   UNL A   1      40.294  28.031  29.004  1.00  0.00     0.064 A 
ATOM     71  C   UNL A   1      39.569  26.830  28.968  1.00  0.00     0.173 A 
ATOM     72  C   UNL A   1      41.023  28.391  27.862  1.00  0.00     0.173 A 
ATOM     73  F   UNL A   1      38.865  26.436  30.039  1.00  0.00    -0.203 F 
ATOM     74  C   UNL A   1      39.599  26.008  27.844  1.00  0.00     0.198 A 
ATOM     75  C   UNL A   1      41.027  27.581  26.729  1.00  0.00     0.198 A 
ATOM     76  F   UNL A   1      41.728  29.533  27.840  1.00  0.00    -0.203 F 
ATOM     77  F   UNL A   1      38.939  24.842  27.853  1.00  0.00    -0.200 F 
ATOM     78  C   UNL A   1      40.321  26.388  26.724  1.00  0.00     0.200 A 
ATOM     79  F   UNL A   1      41.716  27.955  25.641  1.00  0.00    -0.200 F 
ATOM     80  F   UNL A   1      40.345  25.598  25.641  1.00  0.00    -0.200 F 
ENDBRANCH  56  70
BRANCH  57  81
ATOM     81  C   UNL A   1      39.585  34.047  36.927  1.00  0.00     0.064 A 
ATOM     82  C   UNL A   1      38.799  33.651  38.019  1.00  0.00     0.173 A 
ATOM     83  C   UNL A   1      40.240  35.283  37.009  1.00  0.00     0.173 A 
ATOM     84  F   UNL A   1      38.135  32.486  37.978  1.00  0.00    -0.203 F 
ATOM     85  C   UNL A   1      38.658  34.467  39.139  1.00  0.00     0.198 A 
ATOM     86  C   UNL A   1      40.120  36.088  38.140  1.00  0.00     0.198 A 
ATOM     87  F   UNL A   1      41.007  35.705  35.994  1.00  0.00    -0.203 F 
ATOM     88  F   UNL A   1      37.866  34.084  40.150  1.00  0.00    -0.200 F 
ATOM     89  C   UNL A   1      39.323  35.683  39.201  1.00  0.00     0.200 A 
ATOM     90  F   UNL A   1      40.774  37.255  38.204  1.00  0.00    -0.200 F 
ATOM     91  F   UNL A   1      39.190  36.466  40.280  1.00  0.00    -0.200 F 
ENDBRANCH  57  81
BRANCH  69  92
ATOM     92  C   UNL A   1      43.728  28.688  35.306  1.00  0.00     0.064 A 
ATOM     93  C   UNL A   1      43.512  27.626  36.194  1.00  0.00     0.173 A 
ATOM     94  C   UNL A   1      45.052  29.092  35.072  1.00  0.00     0.173 A 
ATOM     95  F   UNL A   1      42.265  27.213  36.464  1.00  0.00    -0.203 F 
ATOM     96  C   UNL A   1      44.580  27.004  36.838  1.00  0.00     0.198 A 
ATOM     97  C   UNL A   1      46.118  28.452  35.696  1.00  0.00     0.198 A 
ATOM     98  F   UNL A   1      45.310  30.101  34.227  1.00  0.00    -0.203 F 
ATOM     99  F   UNL A   1      44.348  26.017  37.714  1.00  0.00    -0.200 F 
ATOM    100  C   UNL A   1      45.881  27.413  36.583  1.00  0.00     0.200 A 
ATOM    101  F   UNL A   1      47.375  28.841  35.440  1.00  0.00    -0.200 F 
ATOM    102  F   UNL A   1      46.907  26.808  37.197  1.00  0.00    -0.200 F 
ENDBRANCH  69  92
ENDBRANCH  43  44
ENDBRANCH  35  38
ENDBRANCH  33  34
ENDBRANCH  32  33
ENDBRANCH   1  32
TORSDOF 14
ENDMDL
MODEL 2
REMARK VINA RESULT:     -13.4      5.528     10.995
REMARK SMILES CC1=C(C(=O)NCCCCNC(=O)c2ccc(-c3c4nc(c(-c5c(F)c(F)c(F)c(F)c5F)c5ccc([nH]5)c(-c5c(F)c(F)c(F)c(F)c5F)c5nc(c(-c6c(F)c(F)c(F)c(F)c6F)c6ccc3[nH]6)C=C5)C=C4)cc2)N2C(=O)[C@H](NC(=O)c3c(Cl)c(C(F)(F)F)nn3C)[C@@H]2SC1
REMARK SMILES IDX 8 1 7 2 6 3 4 4 5 5 3 7 1 8 2 9 97 10 77 11 96 12 78 13
REMARK SMILES IDX 95 14 79 15 80 16 81 17 82 18 83 20 84 21 85 22 93 23 86 24
REMARK SMILES IDX 87 25 92 26 94 27 88 28 89 29 90 30 91 31 9 32 10 33 11 34
REMARK SMILES IDX 12 35 13 37 14 38 15 39 76 40 16 41 75 42 17 43 18 44 19 45
REMARK SMILES IDX 69 46 20 47 74 48 68 49 70 50 21 51 73 52 67 53 66 54 22 56
REMARK SMILES IDX 54 57 34 58 53 59 35 60 38 61 52 62 71 63 36 64 37 65 51 67
REMARK SMILES IDX 72 68 39 69 23 70 24 71 32 72 25 73 26 74 30 75 33 76 27 77
REMARK SMILES IDX 28 78 31 79 29 80 55 81 56 82 64 83 57 84 58 85 62 86 65 87
REMARK SMILES IDX 59 88 60 89 63 90 61 91 40 92 41 93 49 94 42 95 43 96 47 97
REMARK SMILES IDX 50 98 44 99 45 100 48 101 46 102
REMARK H PARENT 6 6 81 19 11 36 70 55 38 66
REMARK Flexibility Score: inf
ROOT
ATOM      1  C   UNL A   1      37.044  21.045  24.526  1.00  0.00     0.023 C 
ENDROOT
BRANCH   1   2
ATOM      2  C   UNL A   1      36.921  22.254  25.449  1.00  0.00     0.116 C 
BRANCH   2   3
ATOM      3  N   UNL A   1      35.970  22.128  26.542  1.00  0.00    -0.351 N 
ATOM      4  C   UNL A   1      34.627  21.820  26.514  1.00  0.00     0.268 C 
ATOM      5  O   UNL A   1      34.081  21.513  27.569  1.00  0.00    -0.268 OA
ATOM      6  H   UNL A   1      36.342  22.287  27.439  1.00  0.00     0.163 HD
BRANCH   4   7
ATOM      7  C   UNL A   1      33.860  21.937  25.214  1.00  0.00     0.110 C 
ATOM      8  C   UNL A   1      32.888  19.609  25.427  1.00  0.00     0.043 C 
ATOM      9  C   UNL A   1      33.198  20.882  24.678  1.00  0.00    -0.034 C 
ATOM     10  C   UNL A   1      32.585  20.903  23.299  1.00  0.00     0.104 C 
ATOM     11  N   UNL A   1      33.746  23.178  24.639  1.00  0.00    -0.290 N 
ATOM     12  S   UNL A   1      31.785  22.470  22.933  1.00  0.00    -0.129 SA
ATOM     13  C   UNL A   1      33.674  24.452  25.099  1.00  0.00     0.253 C 
ATOM     14  C   UNL A   1      33.266  23.453  23.303  1.00  0.00     0.181 C 
ATOM     15  O   UNL A   1      33.903  24.986  26.160  1.00  0.00    -0.272 OA
ATOM     16  C   UNL A   1      32.999  24.926  23.765  1.00  0.00     0.206 C 
BRANCH  16  17
ATOM     17  N   UNL A   1      31.565  25.316  23.870  1.00  0.00    -0.336 N 
ATOM     18  C   UNL A   1      30.981  26.511  24.207  1.00  0.00     0.271 C 
ATOM     19  H   UNL A   1      30.928  24.595  23.662  1.00  0.00     0.164 HD
ATOM     20  O   UNL A   1      29.758  26.594  24.138  1.00  0.00    -0.267 OA
BRANCH  18  21
ATOM     21  C   UNL A   1      31.802  27.600  24.653  1.00  0.00     0.145 A 
ATOM     22  C   UNL A   1      32.037  27.998  25.956  1.00  0.00     0.104 A 
ATOM     23  N   UNL A   1      32.394  28.568  23.887  1.00  0.00    -0.261 N 
ATOM     24  Cl  UNL A   1      31.453  27.285  27.383  1.00  0.00    -0.079 Cl
ATOM     25  C   UNL A   1      32.889  29.126  25.880  1.00  0.00     0.185 A 
ATOM     26  N   UNL A   1      33.143  29.437  24.592  1.00  0.00    -0.166 NA
ATOM     27  C   UNL A   1      32.262  28.789  22.466  1.00  0.00     0.174 C 
BRANCH  25  28
ATOM     28  C   UNL A   1      33.440  29.904  27.040  1.00  0.00     0.436 C 
ATOM     29  F   UNL A   1      34.304  30.874  26.634  1.00  0.00    -0.164 F 
ATOM     30  F   UNL A   1      32.460  30.527  27.748  1.00  0.00    -0.164 F 
ATOM     31  F   UNL A   1      34.119  29.131  27.931  1.00  0.00    -0.164 F 
ENDBRANCH  25  28
ENDBRANCH  18  21
ENDBRANCH  16  17
ENDBRANCH   4   7
ENDBRANCH   2   3
ENDBRANCH   1   2
BRANCH   1  32
ATOM     32  C   UNL A   1      37.913  19.884  25.014  1.00  0.00     0.023 C 
BRANCH  32  33
ATOM     33  C   UNL A   1      39.203  20.240  25.750  1.00  0.00     0.116 C 
BRANCH  33  34
ATOM     34  N   UNL A   1      40.179  19.162  25.800  1.00  0.00    -0.352 N 
ATOM     35  C   UNL A   1      41.526  19.182  26.086  1.00  0.00     0.251 C 
ATOM     36  H   UNL A   1      39.816  18.270  25.594  1.00  0.00     0.163 HD
ATOM     37  O   UNL A   1      42.178  18.144  26.003  1.00  0.00    -0.269 OA
BRANCH  35  38
ATOM     38  C   UNL A   1      42.210  20.445  26.446  1.00  0.00     0.039 A 
ATOM     39  C   UNL A   1      42.789  21.208  25.425  1.00  0.00     0.014 A 
ATOM     40  C   UNL A   1      42.285  20.888  27.767  1.00  0.00     0.014 A 
ATOM     41  C   UNL A   1      43.344  22.459  25.716  1.00  0.00     0.010 A 
ATOM     42  C   UNL A   1      42.764  22.166  28.045  1.00  0.00     0.010 A 
ATOM     43  C   UNL A   1      43.284  22.974  27.020  1.00  0.00    -0.014 A 
BRANCH  43  44
ATOM     44  C   UNL A   1      43.733  24.357  27.337  1.00  0.00     0.031 A 
ATOM     45  C   UNL A   1      42.748  25.379  27.831  1.00  0.00     0.074 A 
ATOM     46  C   UNL A   1      45.006  24.720  27.086  1.00  0.00     0.049 A 
ATOM     47  N   UNL A   1      42.910  26.664  28.022  1.00  0.00    -0.248 NA
ATOM     48  C   UNL A   1      41.389  24.896  28.120  1.00  0.00     0.031 C 
ATOM     49  C   UNL A   1      46.052  23.840  26.564  1.00  0.00     0.029 A 
ATOM     50  N   UNL A   1      45.632  25.937  27.214  1.00  0.00    -0.354 N 
ATOM     51  C   UNL A   1      41.671  27.146  28.424  1.00  0.00     0.074 A 
ATOM     52  C   UNL A   1      40.757  26.024  28.411  1.00  0.00     0.031 C 
ATOM     53  C   UNL A   1      47.191  24.539  26.430  1.00  0.00     0.029 A 
ATOM     54  C   UNL A   1      46.946  25.926  26.813  1.00  0.00     0.049 A 
ATOM     55  H   UNL A   1      45.182  26.741  27.560  1.00  0.00     0.167 HD
ATOM     56  C   UNL A   1      41.330  28.406  28.788  1.00  0.00     0.037 A 
ATOM     57  C   UNL A   1      47.849  26.924  26.748  1.00  0.00     0.037 A 
ATOM     58  C   UNL A   1      42.248  29.514  28.836  1.00  0.00     0.049 A 
ATOM     59  C   UNL A   1      47.448  28.312  27.166  1.00  0.00     0.074 A 
ATOM     60  C   UNL A   1      42.010  30.814  29.251  1.00  0.00     0.029 A 
ATOM     61  N   UNL A   1      43.581  29.452  28.461  1.00  0.00    -0.354 N 
ATOM     62  N   UNL A   1      46.288  28.743  27.595  1.00  0.00    -0.248 NA
ATOM     63  C   UNL A   1      48.485  29.351  27.096  1.00  0.00     0.031 C 
ATOM     64  C   UNL A   1      43.191  31.546  29.093  1.00  0.00     0.029 A 
ATOM     65  C   UNL A   1      44.176  30.693  28.622  1.00  0.00     0.049 A 
ATOM     66  H   UNL A   1      44.038  28.646  28.129  1.00  0.00     0.167 HD
ATOM     67  C   UNL A   1      46.462  30.092  27.873  1.00  0.00     0.074 A 
ATOM     68  C   UNL A   1      47.842  30.407  27.574  1.00  0.00     0.031 C 
ATOM     69  C   UNL A   1      45.556  30.988  28.337  1.00  0.00     0.037 A 
BRANCH  56  70
ATOM     70  C   UNL A   1      39.900  28.654  29.167  1.00  0.00     0.064 A 
ATOM     71  C   UNL A   1      39.440  28.448  30.477  1.00  0.00     0.173 A 
ATOM     72  C   UNL A   1      38.985  29.138  28.220  1.00  0.00     0.173 A 
ATOM     73  F   UNL A   1      40.273  27.975  31.417  1.00  0.00    -0.203 F 
ATOM     74  C   UNL A   1      38.111  28.686  30.816  1.00  0.00     0.198 A 
ATOM     75  C   UNL A   1      37.664  29.403  28.570  1.00  0.00     0.198 A 
ATOM     76  F   UNL A   1      39.374  29.360  26.955  1.00  0.00    -0.203 F 
ATOM     77  F   UNL A   1      37.684  28.433  32.061  1.00  0.00    -0.200 F 
ATOM     78  C   UNL A   1      37.226  29.171  29.865  1.00  0.00     0.200 A 
ATOM     79  F   UNL A   1      36.812  29.883  27.652  1.00  0.00    -0.200 F 
ATOM     80  F   UNL A   1      35.948  29.405  30.194  1.00  0.00    -0.200 F 
ENDBRANCH  56  70
BRANCH  57  81
ATOM     81  C   UNL A   1      49.233  26.643  26.284  1.00  0.00     0.064 A 
ATOM     82  C   UNL A   1      50.201  26.156  27.174  1.00  0.00     0.173 A 
ATOM     83  C   UNL A   1      49.618  26.856  24.953  1.00  0.00     0.173 A 
ATOM     84  F   UNL A   1      49.885  25.956  28.462  1.00  0.00    -0.203 F 
ATOM     85  C   UNL A   1      51.507  25.912  26.755  1.00  0.00     0.198 A 
ATOM     86  C   UNL A   1      50.918  26.587  24.528  1.00  0.00     0.198 A 
ATOM     87  F   UNL A   1      48.729  27.316  24.062  1.00  0.00    -0.203 F 
ATOM     88  F   UNL A   1      52.423  25.488  27.636  1.00  0.00    -0.200 F 
ATOM     89  C   UNL A   1      51.863  26.122  25.431  1.00  0.00     0.200 A 
ATOM     90  F   UNL A   1      51.255  26.778  23.246  1.00  0.00    -0.200 F 
ATOM     91  F   UNL A   1      53.118  25.884  25.027  1.00  0.00    -0.200 F 
ENDBRANCH  57  81
BRANCH  69  92
ATOM     92  C   UNL A   1      46.039  32.384  28.596  1.00  0.00     0.064 A 
ATOM     93  C   UNL A   1      46.593  32.756  29.828  1.00  0.00     0.173 A 
ATOM     94  C   UNL A   1      45.988  33.350  27.578  1.00  0.00     0.173 A 
ATOM     95  F   UNL A   1      46.649  31.874  30.837  1.00  0.00    -0.203 F 
ATOM     96  C   UNL A   1      47.061  34.051  30.039  1.00  0.00     0.198 A 
ATOM     97  C   UNL A   1      46.480  34.635  27.785  1.00  0.00     0.198 A 
ATOM     98  F   UNL A   1      45.470  33.042  26.380  1.00  0.00    -0.203 F 
ATOM     99  F   UNL A   1      47.550  34.397  31.238  1.00  0.00    -0.200 F 
ATOM    100  C   UNL A   1      47.011  34.986  29.016  1.00  0.00     0.200 A 
ATOM    101  F   UNL A   1      46.441  35.534  26.791  1.00  0.00    -0.200 F 
ATOM    102  F   UNL A   1      47.469  36.229  29.219  1.00  0.00    -0.200 F 
ENDBRANCH  69  92
ENDBRANCH  43  44
ENDBRANCH  35  38
ENDBRANCH  33  34
ENDBRANCH  32  33
ENDBRANCH   1  32
TORSDOF 14
ENDMDL
MODEL 3
REMARK VINA RESULT:     -13.3      0.893      7.227
REMARK SMILES CC1=C(C(=O)NCCCCNC(=O)c2ccc(-c3c4nc(c(-c5c(F)c(F)c(F)c(F)c5F)c5ccc([nH]5)c(-c5c(F)c(F)c(F)c(F)c5F)c5nc(c(-c6c(F)c(F)c(F)c(F)c6F)c6ccc3[nH]6)C=C5)C=C4)cc2)N2C(=O)[C@H](NC(=O)c3c(Cl)c(C(F)(F)F)nn3C)[C@@H]2SC1
REMARK SMILES IDX 8 1 7 2 6 3 4 4 5 5 3 7 1 8 2 9 97 10 77 11 96 12 78 13
REMARK SMILES IDX 95 14 79 15 80 16 81 17 82 18 83 20 84 21 85 22 93 23 86 24
REMARK SMILES IDX 87 25 92 26 94 27 88 28 89 29 90 30 91 31 9 32 10 33 11 34
REMARK SMILES IDX 12 35 13 37 14 38 15 39 76 40 16 41 75 42 17 43 18 44 19 45
REMARK SMILES IDX 69 46 20 47 74 48 68 49 70 50 21 51 73 52 67 53 66 54 22 56
REMARK SMILES IDX 54 57 34 58 53 59 35 60 38 61 52 62 71 63 36 64 37 65 51 67
REMARK SMILES IDX 72 68 39 69 23 70 24 71 32 72 25 73 26 74 30 75 33 76 27 77
REMARK SMILES IDX 28 78 31 79 29 80 55 81 56 82 64 83 57 84 58 85 62 86 65 87
REMARK SMILES IDX 59 88 60 89 63 90 61 91 40 92 41 93 49 94 42 95 43 96 47 97
REMARK SMILES IDX 50 98 44 99 45 100 48 101 46 102
REMARK H PARENT 6 6 81 19 11 36 70 55 38 66
REMARK Flexibility Score: inf
ROOT
ATOM      1  C   UNL A   1      31.444  30.946  25.871  1.00  0.00     0.023 C 
ENDROOT
BRANCH   1   2
ATOM      2  C   UNL A   1      32.614  29.980  26.033  1.00  0.00     0.116 C 
BRANCH   2   3
ATOM      3  N   UNL A   1      33.353  29.664  24.821  1.00  0.00    -0.351 N 
ATOM      4  C   UNL A   1      32.994  28.876  23.748  1.00  0.00     0.268 C 
ATOM      5  O   UNL A   1      33.662  28.959  22.722  1.00  0.00    -0.268 OA
ATOM      6  H   UNL A   1      34.245  30.073  24.758  1.00  0.00     0.163 HD
BRANCH   4   7
ATOM      7  C   UNL A   1      31.850  27.897  23.888  1.00  0.00     0.110 C 
ATOM      8  C   UNL A   1      30.268  29.353  22.551  1.00  0.00     0.043 C 
ATOM      9  C   UNL A   1      30.597  28.195  23.461  1.00  0.00    -0.034 C 
ATOM     10  C   UNL A   1      29.395  27.331  23.753  1.00  0.00     0.104 C 
ATOM     11  N   UNL A   1      32.129  26.636  24.353  1.00  0.00    -0.290 N 
ATOM     12  S   UNL A   1      29.765  25.578  23.610  1.00  0.00    -0.129 SA
ATOM     13  C   UNL A   1      33.186  25.790  24.274  1.00  0.00     0.253 C 
ATOM     14  C   UNL A   1      31.156  25.652  24.775  1.00  0.00     0.181 C 
ATOM     15  O   UNL A   1      34.348  25.909  23.959  1.00  0.00    -0.272 OA
ATOM     16  C   UNL A   1      32.261  24.560  24.575  1.00  0.00     0.206 C 
BRANCH  16  17
ATOM     17  N   UNL A   1      32.041  23.624  23.436  1.00  0.00    -0.336 N 
ATOM     18  C   UNL A   1      32.600  22.403  23.155  1.00  0.00     0.271 C 
ATOM     19  H   UNL A   1      31.382  23.934  22.774  1.00  0.00     0.164 HD
ATOM     20  O   UNL A   1      32.180  21.788  22.179  1.00  0.00    -0.267 OA
BRANCH  18  21
ATOM     21  C   UNL A   1      33.663  21.905  23.979  1.00  0.00     0.145 A 
ATOM     22  C   UNL A   1      35.012  22.192  23.878  1.00  0.00     0.104 A 
ATOM     23  N   UNL A   1      33.593  20.924  24.932  1.00  0.00    -0.261 N 
ATOM     24  Cl  UNL A   1      35.773  23.241  22.779  1.00  0.00    -0.079 Cl
ATOM     25  C   UNL A   1      35.656  21.445  24.894  1.00  0.00     0.185 A 
ATOM     26  N   UNL A   1      34.757  20.703  25.573  1.00  0.00    -0.166 NA
ATOM     27  C   UNL A   1      32.466  20.087  25.272  1.00  0.00     0.174 C 
BRANCH  25  28
ATOM     28  C   UNL A   1      37.127  21.439  25.196  1.00  0.00     0.436 C 
ATOM     29  F   UNL A   1      37.629  20.175  25.240  1.00  0.00    -0.164 F 
ATOM     30  F   UNL A   1      37.844  22.110  24.256  1.00  0.00    -0.164 F 
ATOM     31  F   UNL A   1      37.432  22.017  26.390  1.00  0.00    -0.164 F 
ENDBRANCH  25  28
ENDBRANCH  18  21
ENDBRANCH  16  17
ENDBRANCH   4   7
ENDBRANCH   2   3
ENDBRANCH   1   2
BRANCH   1  32
ATOM     32  C   UNL A   1      31.344  32.089  26.884  1.00  0.00     0.023 C 
BRANCH  32  33
ATOM     33  C   UNL A   1      32.616  32.887  27.164  1.00  0.00     0.116 C 
BRANCH  33  34
ATOM     34  N   UNL A   1      32.378  34.242  27.637  1.00  0.00    -0.352 N 
ATOM     35  C   UNL A   1      33.011  34.976  28.615  1.00  0.00     0.251 C 
ATOM     36  H   UNL A   1      31.642  34.713  27.182  1.00  0.00     0.163 HD
ATOM     37  O   UNL A   1      32.594  36.097  28.897  1.00  0.00    -0.269 OA
BRANCH  35  38
ATOM     38  C   UNL A   1      34.157  34.416  29.367  1.00  0.00     0.039 A 
ATOM     39  C   UNL A   1      33.905  33.723  30.556  1.00  0.00     0.014 A 
ATOM     40  C   UNL A   1      35.470  34.560  28.917  1.00  0.00     0.014 A 
ATOM     41  C   UNL A   1      34.952  33.086  31.230  1.00  0.00     0.010 A 
ATOM     42  C   UNL A   1      36.500  33.860  29.542  1.00  0.00     0.010 A 
ATOM     43  C   UNL A   1      36.250  33.101  30.697  1.00  0.00    -0.014 A 
BRANCH  43  44
ATOM     44  C   UNL A   1      37.358  32.317  31.308  1.00  0.00     0.031 A 
ATOM     45  C   UNL A   1      37.890  32.686  32.664  1.00  0.00     0.074 A 
ATOM     46  C   UNL A   1      37.951  31.335  30.600  1.00  0.00     0.049 A 
ATOM     47  N   UNL A   1      38.937  32.223  33.300  1.00  0.00    -0.248 NA
ATOM     48  C   UNL A   1      37.164  33.739  33.390  1.00  0.00     0.031 C 
ATOM     49  C   UNL A   1      37.562  30.905  29.256  1.00  0.00     0.029 A 
ATOM     50  N   UNL A   1      39.026  30.535  30.905  1.00  0.00    -0.354 N 
ATOM     51  C   UNL A   1      39.012  32.946  34.483  1.00  0.00     0.074 A 
ATOM     52  C   UNL A   1      37.929  33.906  34.459  1.00  0.00     0.031 C 
ATOM     53  C   UNL A   1      38.375  29.913  28.858  1.00  0.00     0.029 A 
ATOM     54  C   UNL A   1      39.369  29.665  29.898  1.00  0.00     0.049 A 
ATOM     55  H   UNL A   1      39.504  30.579  31.763  1.00  0.00     0.167 HD
ATOM     56  C   UNL A   1      39.893  32.811  35.503  1.00  0.00     0.037 A 
ATOM     57  C   UNL A   1      40.380  28.779  29.815  1.00  0.00     0.037 A 
ATOM     58  C   UNL A   1      40.947  31.832  35.542  1.00  0.00     0.049 A 
ATOM     59  C   UNL A   1      41.339  28.641  30.966  1.00  0.00     0.074 A 
ATOM     60  C   UNL A   1      41.851  31.577  36.560  1.00  0.00     0.029 A 
ATOM     61  N   UNL A   1      41.237  30.942  34.519  1.00  0.00    -0.354 N 
ATOM     62  N   UNL A   1      41.367  29.294  32.101  1.00  0.00    -0.248 NA
ATOM     63  C   UNL A   1      42.404  27.639  30.824  1.00  0.00     0.031 C 
ATOM     64  C   UNL A   1      42.709  30.557  36.137  1.00  0.00     0.029 A 
ATOM     65  C   UNL A   1      42.313  30.146  34.875  1.00  0.00     0.049 A 
ATOM     66  H   UNL A   1      40.750  30.885  33.665  1.00  0.00     0.167 HD
ATOM     67  C   UNL A   1      42.429  28.764  32.820  1.00  0.00     0.074 A 
ATOM     68  C   UNL A   1      43.015  27.728  31.997  1.00  0.00     0.031 C 
ATOM     69  C   UNL A   1      42.876  29.106  34.053  1.00  0.00     0.037 A 
BRANCH  56  70
ATOM     70  C   UNL A   1      39.751  33.747  36.668  1.00  0.00     0.064 A 
ATOM     71  C   UNL A   1      40.415  34.982  36.703  1.00  0.00     0.173 A 
ATOM     72  C   UNL A   1      38.915  33.420  37.746  1.00  0.00     0.173 A 
ATOM     73  F   UNL A   1      41.235  35.336  35.702  1.00  0.00    -0.203 F 
ATOM     74  C   UNL A   1      40.271  35.842  37.789  1.00  0.00     0.198 A 
ATOM     75  C   UNL A   1      38.751  34.296  38.816  1.00  0.00     0.198 A 
ATOM     76  F   UNL A   1      38.251  32.254  37.759  1.00  0.00    -0.203 F 
ATOM     77  F   UNL A   1      40.955  36.994  37.822  1.00  0.00    -0.200 F 
ATOM     78  C   UNL A   1      39.434  35.502  38.840  1.00  0.00     0.200 A 
ATOM     79  F   UNL A   1      37.931  33.971  39.826  1.00  0.00    -0.200 F 
ATOM     80  F   UNL A   1      39.292  36.333  39.882  1.00  0.00    -0.200 F 
ENDBRANCH  56  70
BRANCH  57  81
ATOM     81  C   UNL A   1      40.527  27.933  28.602  1.00  0.00     0.064 A 
ATOM     82  C   UNL A   1      41.282  28.376  27.507  1.00  0.00     0.173 A 
ATOM     83  C   UNL A   1      39.916  26.674  28.506  1.00  0.00     0.173 A 
ATOM     84  F   UNL A   1      41.867  29.583  27.543  1.00  0.00    -0.203 F 
ATOM     85  C   UNL A   1      41.407  27.602  26.356  1.00  0.00     0.198 A 
ATOM     86  C   UNL A   1      40.063  25.888  27.365  1.00  0.00     0.198 A 
ATOM     87  F   UNL A   1      39.187  26.203  29.527  1.00  0.00    -0.203 F 
ATOM     88  F   UNL A   1      42.100  28.069  25.308  1.00  0.00    -0.200 F 
ATOM     89  C   UNL A   1      40.802  26.355  26.288  1.00  0.00     0.200 A 
ATOM     90  F   UNL A   1      39.489  24.679  27.307  1.00  0.00    -0.200 F 
ATOM     91  F   UNL A   1      40.925  25.609  25.182  1.00  0.00    -0.200 F 
ENDBRANCH  57  81
BRANCH  69  92
ATOM     92  C   UNL A   1      44.027  28.322  34.610  1.00  0.00     0.064 A 
ATOM     93  C   UNL A   1      45.353  28.750  34.458  1.00  0.00     0.173 A 
ATOM     94  C   UNL A   1      43.794  27.150  35.347  1.00  0.00     0.173 A 
ATOM     95  F   UNL A   1      45.628  29.855  33.748  1.00  0.00    -0.203 F 
ATOM     96  C   UNL A   1      46.406  28.023  35.007  1.00  0.00     0.198 A 
ATOM     97  C   UNL A   1      44.847  26.441  35.916  1.00  0.00     0.198 A 
ATOM     98  F   UNL A   1      42.543  26.702  35.525  1.00  0.00    -0.203 F 
ATOM     99  F   UNL A   1      47.669  28.429  34.814  1.00  0.00    -0.200 F 
ATOM    100  C   UNL A   1      46.152  26.874  35.741  1.00  0.00     0.200 A 
ATOM    101  F   UNL A   1      44.599  25.336  36.635  1.00  0.00    -0.200 F 
ATOM    102  F   UNL A   1      47.167  26.180  36.274  1.00  0.00    -0.200 F 
ENDBRANCH  69  92
ENDBRANCH  43  44
ENDBRANCH  35  38
ENDBRANCH  33  34
ENDBRANCH  32  33
ENDBRANCH   1  32
TORSDOF 14
ENDMDL
