MODEL 1
REMARK VINA RESULT:     -12.2      0.000      0.000
REMARK SMILES O=C(NCCCCNC(=O)c1ccc(C[NH+]2CC[NH2+]CC2)c(Br)c1)c1ccc(-c2c3nc(c(-c4c(F)c(F)c(F)c(F)c4F)c4ccc([nH]4)c(-c4c(F)c(F)c(F)c(F)c4F)c4nc(c(-c5c(F)c(F)c(F)c(F)c5F)c5ccc2[nH]5)C=C4)C=C3)cc1
REMARK SMILES IDX 5 1 4 2 3 3 1 4 2 5 25 7 26 8 87 9 27 10 86 11 28 12 29 13
REMARK SMILES IDX 30 14 80 15 31 16 85 17 79 18 81 19 32 20 84 21 78 22 77 23
REMARK SMILES IDX 33 25 65 26 45 27 64 28 46 29 49 30 63 31 82 32 47 33 48 34
REMARK SMILES IDX 62 36 83 37 50 38 34 39 35 40 43 41 36 42 37 43 41 44 44 45
REMARK SMILES IDX 38 46 39 47 42 48 40 49 66 50 67 51 75 52 68 53 69 54 73 55
REMARK SMILES IDX 76 56 70 57 71 58 74 59 72 60 51 61 52 62 60 63 53 64 54 65
REMARK SMILES IDX 58 66 61 67 55 68 56 69 59 70 57 71 6 72 7 73 8 74 9 75
REMARK SMILES IDX 10 77 11 78 12 79 24 80 13 81 22 82 14 83 23 84 15 85 16 86
REMARK SMILES IDX 17 87 21 88 18 90 20 91 19 92
REMARK H PARENT 3 6 81 24 49 35 8 76 16 89 19 93 19 94
REMARK Flexibility Score: inf
ROOT
ATOM      1  C   UNL A   1      31.302  31.829  26.299  1.00  0.00     0.023 C 
ENDROOT
BRANCH   1   2
ATOM      2  C   UNL A   1      32.515  32.426  27.003  1.00  0.00     0.116 C 
BRANCH   2   3
ATOM      3  N   UNL A   1      32.297  33.796  27.435  1.00  0.00    -0.352 N 
ATOM      4  O   UNL A   1      32.526  35.638  28.712  1.00  0.00    -0.269 OA
ATOM      5  C   UNL A   1      32.960  34.539  28.380  1.00  0.00     0.251 C 
ATOM      6  H   UNL A   1      31.559  34.264  26.979  1.00  0.00     0.163 HD
BRANCH   5   7
ATOM      7  C   UNL A   1      34.184  34.013  29.025  1.00  0.00     0.039 A 
ATOM      8  C   UNL A   1      35.450  34.496  28.685  1.00  0.00     0.014 A 
ATOM      9  C   UNL A   1      34.052  33.035  30.016  1.00  0.00     0.014 A 
ATOM     10  C   UNL A   1      36.589  33.914  29.239  1.00  0.00     0.010 A 
ATOM     11  C   UNL A   1      35.191  32.504  30.624  1.00  0.00     0.010 A 
ATOM     12  C   UNL A   1      36.471  32.918  30.220  1.00  0.00    -0.014 A 
BRANCH  12  13
ATOM     13  C   UNL A   1      37.680  32.332  30.852  1.00  0.00     0.031 A 
ATOM     14  C   UNL A   1      38.439  31.228  30.175  1.00  0.00     0.074 A 
ATOM     15  C   UNL A   1      38.068  32.771  32.064  1.00  0.00     0.049 A 
ATOM     16  N   UNL A   1      39.450  30.524  30.616  1.00  0.00    -0.248 NA
ATOM     17  C   UNL A   1      37.995  30.859  28.822  1.00  0.00     0.031 C 
ATOM     18  C   UNL A   1      37.413  33.837  32.821  1.00  0.00     0.029 A 
ATOM     19  N   UNL A   1      39.094  32.363  32.878  1.00  0.00    -0.354 N 
ATOM     20  C   UNL A   1      39.749  29.614  29.611  1.00  0.00     0.074 A 
ATOM     21  C   UNL A   1      38.792  29.838  28.546  1.00  0.00     0.031 C 
ATOM     22  C   UNL A   1      38.052  34.001  33.989  1.00  0.00     0.029 A 
ATOM     23  C   UNL A   1      39.119  33.011  34.088  1.00  0.00     0.049 A 
ATOM     24  H   UNL A   1      39.748  31.673  32.622  1.00  0.00     0.167 HD
ATOM     25  C   UNL A   1      40.731  28.681  29.580  1.00  0.00     0.037 A 
ATOM     26  C   UNL A   1      39.889  32.808  35.174  1.00  0.00     0.037 A 
ATOM     27  C   UNL A   1      41.678  28.468  30.647  1.00  0.00     0.049 A 
ATOM     28  C   UNL A   1      40.941  31.735  35.140  1.00  0.00     0.074 A 
ATOM     29  C   UNL A   1      42.735  27.577  30.697  1.00  0.00     0.029 A 
ATOM     30  N   UNL A   1      41.670  29.146  31.859  1.00  0.00    -0.354 N 
ATOM     31  N   UNL A   1      41.239  30.904  34.172  1.00  0.00    -0.248 NA
ATOM     32  C   UNL A   1      41.763  31.574  36.345  1.00  0.00     0.031 C 
ATOM     33  C   UNL A   1      43.326  27.669  31.961  1.00  0.00     0.029 A 
ATOM     34  C   UNL A   1      42.684  28.670  32.674  1.00  0.00     0.049 A 
ATOM     35  H   UNL A   1      41.037  29.860  32.102  1.00  0.00     0.167 HD
ATOM     36  C   UNL A   1      42.303  30.142  34.636  1.00  0.00     0.074 A 
ATOM     37  C   UNL A   1      42.596  30.611  35.975  1.00  0.00     0.031 C 
ATOM     38  C   UNL A   1      42.977  29.152  34.003  1.00  0.00     0.037 A 
BRANCH  25  39
ATOM     39  C   UNL A   1      40.806  27.791  28.371  1.00  0.00     0.064 A 
ATOM     40  C   UNL A   1      40.130  26.563  28.308  1.00  0.00     0.173 A 
ATOM     41  C   UNL A   1      41.557  28.179  27.250  1.00  0.00     0.173 A 
ATOM     42  F   UNL A   1      39.401  26.138  29.352  1.00  0.00    -0.203 F 
ATOM     43  C   UNL A   1      40.240  25.738  27.190  1.00  0.00     0.198 A 
ATOM     44  C   UNL A   1      41.637  27.369  26.121  1.00  0.00     0.198 A 
ATOM     45  F   UNL A   1      42.215  29.349  27.248  1.00  0.00    -0.203 F 
ATOM     46  F   UNL A   1      39.639  24.540  27.182  1.00  0.00    -0.200 F 
ATOM     47  C   UNL A   1      40.990  26.143  26.097  1.00  0.00     0.200 A 
ATOM     48  F   UNL A   1      42.348  27.772  25.058  1.00  0.00    -0.200 F 
ATOM     49  F   UNL A   1      41.097  25.348  25.023  1.00  0.00    -0.200 F 
ENDBRANCH  25  39
BRANCH  26  50
ATOM     50  C   UNL A   1      39.669  33.643  36.382  1.00  0.00     0.064 A 
ATOM     51  C   UNL A   1      40.269  34.902  36.508  1.00  0.00     0.173 A 
ATOM     52  C   UNL A   1      38.813  33.221  37.410  1.00  0.00     0.173 A 
ATOM     53  F   UNL A   1      41.110  35.341  35.559  1.00  0.00    -0.203 F 
ATOM     54  C   UNL A   1      40.023  35.708  37.617  1.00  0.00     0.198 A 
ATOM     55  C   UNL A   1      38.544  34.039  38.504  1.00  0.00     0.198 A 
ATOM     56  F   UNL A   1      38.206  32.027  37.331  1.00  0.00    -0.203 F 
ATOM     57  F   UNL A   1      40.630  36.898  37.727  1.00  0.00    -0.200 F 
ATOM     58  C   UNL A   1      39.153  35.280  38.610  1.00  0.00     0.200 A 
ATOM     59  F   UNL A   1      37.686  33.631  39.449  1.00  0.00    -0.200 F 
ATOM     60  F   UNL A   1      38.901  36.063  39.666  1.00  0.00    -0.200 F 
ENDBRANCH  26  50
BRANCH  38  61
ATOM     61  C   UNL A   1      44.143  28.534  34.719  1.00  0.00     0.064 A 
ATOM     62  C   UNL A   1      45.424  29.104  34.682  1.00  0.00     0.173 A 
ATOM     63  C   UNL A   1      43.954  27.393  35.515  1.00  0.00     0.173 A 
ATOM     64  F   UNL A   1      45.661  30.184  33.924  1.00  0.00    -0.203 F 
ATOM     65  C   UNL A   1      46.474  28.549  35.410  1.00  0.00     0.198 A 
ATOM     66  C   UNL A   1      44.998  26.859  36.265  1.00  0.00     0.198 A 
ATOM     67  F   UNL A   1      42.746  26.812  35.586  1.00  0.00    -0.203 F 
ATOM     68  F   UNL A   1      47.697  29.090  35.338  1.00  0.00    -0.200 F 
ATOM     69  C   UNL A   1      46.257  27.436  36.210  1.00  0.00     0.200 A 
ATOM     70  F   UNL A   1      44.781  25.793  37.047  1.00  0.00    -0.200 F 
ATOM     71  F   UNL A   1      47.264  26.916  36.927  1.00  0.00    -0.200 F 
ENDBRANCH  38  61
ENDBRANCH  12  13
ENDBRANCH   5   7
ENDBRANCH   2   3
ENDBRANCH   1   2
BRANCH   1  72
ATOM     72  C   UNL A   1      31.429  30.354  25.913  1.00  0.00     0.023 C 
BRANCH  72  73
ATOM     73  C   UNL A   1      32.858  29.825  25.807  1.00  0.00     0.116 C 
BRANCH  73  74
ATOM     74  N   UNL A   1      33.317  29.720  24.428  1.00  0.00    -0.352 N 
ATOM     75  C   UNL A   1      33.598  28.590  23.696  1.00  0.00     0.251 C 
ATOM     76  H   UNL A   1      33.442  30.575  23.956  1.00  0.00     0.163 HD
ATOM     77  O   UNL A   1      34.098  28.665  22.584  1.00  0.00    -0.269 OA
BRANCH  75  78
ATOM     78  C   UNL A   1      33.309  27.274  24.290  1.00  0.00     0.040 A 
ATOM     79  C   UNL A   1      34.103  26.781  25.323  1.00  0.00     0.014 A 
ATOM     80  C   UNL A   1      32.262  26.515  23.773  1.00  0.00     0.030 A 
ATOM     81  C   UNL A   1      33.932  25.465  25.743  1.00  0.00     0.011 A 
ATOM     82  C   UNL A   1      32.097  25.193  24.195  1.00  0.00     0.027 A 
ATOM     83  C   UNL A   1      32.987  24.621  25.124  1.00  0.00     0.020 A 
ATOM     84  Br  UNL A   1      30.641  24.239  23.431  1.00  0.00    -0.050 Br
BRANCH  83  85
ATOM     85  C   UNL A   1      33.030  23.144  25.457  1.00  0.00     0.300 C 
BRANCH  85  86
ATOM     86  N   UNL A   1      33.591  22.241  24.440  1.00  0.00    -0.322 N 
ATOM     87  C   UNL A   1      35.051  22.095  24.445  1.00  0.00     0.324 C 
ATOM     88  C   UNL A   1      32.917  20.950  24.254  1.00  0.00     0.324 C 
ATOM     89  H   UNL A   1      33.363  22.780  23.604  1.00  0.00     0.348 HD
ATOM     90  C   UNL A   1      35.595  20.914  25.281  1.00  0.00     0.322 C 
ATOM     91  C   UNL A   1      33.512  19.747  25.028  1.00  0.00     0.322 C 
ATOM     92  N   UNL A   1      34.975  19.625  24.925  1.00  0.00    -0.337 N 
ATOM     93  H   UNL A   1      35.303  18.901  25.566  1.00  0.00     0.346 HD
ATOM     94  H   UNL A   1      35.232  19.372  23.971  1.00  0.00     0.346 HD
ENDBRANCH  85  86
ENDBRANCH  83  85
ENDBRANCH  75  78
ENDBRANCH  73  74
ENDBRANCH  72  73
ENDBRANCH   1  72
TORSDOF 13
ENDMDL
MODEL 2
REMARK VINA RESULT:     -12.1      0.199      2.048
REMARK SMILES O=C(NCCCCNC(=O)c1ccc(C[NH+]2CC[NH2+]CC2)c(Br)c1)c1ccc(-c2c3nc(c(-c4c(F)c(F)c(F)c(F)c4F)c4ccc([nH]4)c(-c4c(F)c(F)c(F)c(F)c4F)c4nc(c(-c5c(F)c(F)c(F)c(F)c5F)c5ccc2[nH]5)C=C4)C=C3)cc1
REMARK SMILES IDX 5 1 4 2 3 3 1 4 2 5 25 7 26 8 87 9 27 10 86 11 28 12 29 13
REMARK SMILES IDX 30 14 80 15 31 16 85 17 79 18 81 19 32 20 84 21 78 22 77 23
REMARK SMILES IDX 33 25 65 26 45 27 64 28 46 29 49 30 63 31 82 32 47 33 48 34
REMARK SMILES IDX 62 36 83 37 50 38 34 39 35 40 43 41 36 42 37 43 41 44 44 45
REMARK SMILES IDX 38 46 39 47 42 48 40 49 66 50 67 51 75 52 68 53 69 54 73 55
REMARK SMILES IDX 76 56 70 57 71 58 74 59 72 60 51 61 52 62 60 63 53 64 54 65
REMARK SMILES IDX 58 66 61 67 55 68 56 69 59 70 57 71 6 72 7 73 8 74 9 75
REMARK SMILES IDX 10 77 11 78 12 79 24 80 13 81 22 82 14 83 23 84 15 85 16 86
REMARK SMILES IDX 17 87 21 88 18 90 20 91 19 92
REMARK H PARENT 3 6 81 24 49 35 8 76 16 89 19 93 19 94
REMARK Flexibility Score: inf
ROOT
ATOM      1  C   UNL A   1      31.231  31.881  26.235  1.00  0.00     0.023 C 
ENDROOT
BRANCH   1   2
ATOM      2  C   UNL A   1      32.481  32.428  26.917  1.00  0.00     0.116 C 
BRANCH   2   3
ATOM      3  N   UNL A   1      32.309  33.789  27.397  1.00  0.00    -0.352 N 
ATOM      4  O   UNL A   1      32.594  35.572  28.743  1.00  0.00    -0.269 OA
ATOM      5  C   UNL A   1      32.989  34.470  28.375  1.00  0.00     0.251 C 
ATOM      6  H   UNL A   1      31.596  34.301  26.951  1.00  0.00     0.163 HD
BRANCH   5   7
ATOM      7  C   UNL A   1      34.185  33.874  29.013  1.00  0.00     0.039 A 
ATOM      8  C   UNL A   1      34.073  32.829  29.933  1.00  0.00     0.014 A 
ATOM      9  C   UNL A   1      35.447  34.357  28.653  1.00  0.00     0.014 A 
ATOM     10  C   UNL A   1      35.209  32.354  30.588  1.00  0.00     0.010 A 
ATOM     11  C   UNL A   1      36.590  33.830  29.256  1.00  0.00     0.010 A 
ATOM     12  C   UNL A   1      36.479  32.844  30.251  1.00  0.00    -0.014 A 
BRANCH  12  13
ATOM     13  C   UNL A   1      37.696  32.304  30.906  1.00  0.00     0.031 A 
ATOM     14  C   UNL A   1      38.503  31.221  30.248  1.00  0.00     0.074 A 
ATOM     15  C   UNL A   1      38.050  32.762  32.121  1.00  0.00     0.049 A 
ATOM     16  N   UNL A   1      39.530  30.554  30.711  1.00  0.00    -0.248 NA
ATOM     17  C   UNL A   1      38.094  30.830  28.892  1.00  0.00     0.031 C 
ATOM     18  C   UNL A   1      37.348  33.810  32.861  1.00  0.00     0.029 A 
ATOM     19  N   UNL A   1      39.075  32.393  32.955  1.00  0.00    -0.354 N 
ATOM     20  C   UNL A   1      39.875  29.648  29.717  1.00  0.00     0.074 A 
ATOM     21  C   UNL A   1      38.929  29.834  28.635  1.00  0.00     0.031 C 
ATOM     22  C   UNL A   1      37.961  34.003  34.037  1.00  0.00     0.029 A 
ATOM     23  C   UNL A   1      39.059  33.049  34.161  1.00  0.00     0.049 A 
ATOM     24  H   UNL A   1      39.756  31.724  32.713  1.00  0.00     0.167 HD
ATOM     25  C   UNL A   1      40.888  28.748  29.708  1.00  0.00     0.037 A 
ATOM     26  C   UNL A   1      39.817  32.879  35.260  1.00  0.00     0.037 A 
ATOM     27  C   UNL A   1      41.824  28.574  30.791  1.00  0.00     0.049 A 
ATOM     28  C   UNL A   1      40.905  31.842  35.250  1.00  0.00     0.074 A 
ATOM     29  C   UNL A   1      42.909  27.719  30.864  1.00  0.00     0.029 A 
ATOM     30  N   UNL A   1      41.773  29.258  31.998  1.00  0.00    -0.354 N 
ATOM     31  N   UNL A   1      41.246  31.015  34.292  1.00  0.00    -0.248 NA
ATOM     32  C   UNL A   1      41.712  31.715  36.470  1.00  0.00     0.031 C 
ATOM     33  C   UNL A   1      43.476  27.838  32.137  1.00  0.00     0.029 A 
ATOM     34  C   UNL A   1      42.789  28.822  32.833  1.00  0.00     0.049 A 
ATOM     35  H   UNL A   1      41.113  29.952  32.227  1.00  0.00     0.167 HD
ATOM     36  C   UNL A   1      42.328  30.292  34.779  1.00  0.00     0.074 A 
ATOM     37  C   UNL A   1      42.583  30.778  36.119  1.00  0.00     0.031 C 
ATOM     38  C   UNL A   1      43.044  29.321  34.163  1.00  0.00     0.037 A 
BRANCH  25  39
ATOM     39  C   UNL A   1      41.012  27.854  28.506  1.00  0.00     0.064 A 
ATOM     40  C   UNL A   1      41.853  28.170  27.427  1.00  0.00     0.173 A 
ATOM     41  C   UNL A   1      40.287  26.654  28.437  1.00  0.00     0.173 A 
ATOM     42  F   UNL A   1      42.565  29.307  27.436  1.00  0.00    -0.203 F 
ATOM     43  C   UNL A   1      41.927  27.343  26.307  1.00  0.00     0.198 A 
ATOM     44  C   UNL A   1      40.390  25.813  27.333  1.00  0.00     0.198 A 
ATOM     45  F   UNL A   1      39.477  26.294  29.444  1.00  0.00    -0.203 F 
ATOM     46  F   UNL A   1      42.685  27.701  25.262  1.00  0.00    -0.200 F 
ATOM     47  C   UNL A   1      41.199  26.164  26.263  1.00  0.00     0.200 A 
ATOM     48  F   UNL A   1      39.699  24.664  27.300  1.00  0.00    -0.200 F 
ATOM     49  F   UNL A   1      41.269  25.371  25.185  1.00  0.00    -0.200 F 
ENDBRANCH  25  39
BRANCH  26  50
ATOM     50  C   UNL A   1      39.550  33.714  36.459  1.00  0.00     0.064 A 
ATOM     51  C   UNL A   1      38.753  33.238  37.507  1.00  0.00     0.173 A 
ATOM     52  C   UNL A   1      40.131  34.983  36.602  1.00  0.00     0.173 A 
ATOM     53  F   UNL A   1      38.163  32.038  37.407  1.00  0.00    -0.203 F 
ATOM     54  C   UNL A   1      38.544  34.001  38.654  1.00  0.00     0.198 A 
ATOM     55  C   UNL A   1      39.946  35.732  37.761  1.00  0.00     0.198 A 
ATOM     56  F   UNL A   1      40.911  35.480  35.629  1.00  0.00    -0.203 F 
ATOM     57  F   UNL A   1      37.756  33.534  39.632  1.00  0.00    -0.200 F 
ATOM     58  C   UNL A   1      39.149  35.243  38.784  1.00  0.00     0.200 A 
ATOM     59  F   UNL A   1      40.549  36.922  37.891  1.00  0.00    -0.200 F 
ATOM     60  F   UNL A   1      38.965  35.967  39.896  1.00  0.00    -0.200 F 
ENDBRANCH  26  50
BRANCH  38  61
ATOM     61  C   UNL A   1      44.219  28.747  34.902  1.00  0.00     0.064 A 
ATOM     62  C   UNL A   1      44.104  27.606  35.708  1.00  0.00     0.173 A 
ATOM     63  C   UNL A   1      45.495  29.309  34.736  1.00  0.00     0.173 A 
ATOM     64  F   UNL A   1      42.905  27.041  35.912  1.00  0.00    -0.203 F 
ATOM     65  C   UNL A   1      45.222  27.054  36.328  1.00  0.00     0.198 A 
ATOM     66  C   UNL A   1      46.615  28.737  35.333  1.00  0.00     0.198 A 
ATOM     67  F   UNL A   1      45.659  30.400  33.972  1.00  0.00    -0.203 F 
ATOM     68  F   UNL A   1      45.086  25.982  37.120  1.00  0.00    -0.200 F 
ATOM     69  C   UNL A   1      46.477  27.613  36.131  1.00  0.00     0.200 A 
ATOM     70  F   UNL A   1      47.827  29.270  35.128  1.00  0.00    -0.200 F 
ATOM     71  F   UNL A   1      47.555  27.067  36.711  1.00  0.00    -0.200 F 
ENDBRANCH  38  61
ENDBRANCH  12  13
ENDBRANCH   5   7
ENDBRANCH   2   3
ENDBRANCH   1   2
BRANCH   1  72
ATOM     72  C   UNL A   1      31.330  30.435  25.747  1.00  0.00     0.023 C 
BRANCH  72  73
ATOM     73  C   UNL A   1      32.736  29.836  25.754  1.00  0.00     0.116 C 
BRANCH  73  74
ATOM     74  N   UNL A   1      33.307  29.731  24.418  1.00  0.00    -0.352 N 
ATOM     75  C   UNL A   1      33.672  28.601  23.723  1.00  0.00     0.251 C 
ATOM     76  H   UNL A   1      33.451  30.584  23.948  1.00  0.00     0.163 HD
ATOM     77  O   UNL A   1      34.259  28.678  22.654  1.00  0.00    -0.269 OA
BRANCH  75  78
ATOM     78  C   UNL A   1      33.365  27.283  24.305  1.00  0.00     0.040 A 
ATOM     79  C   UNL A   1      34.157  26.767  25.328  1.00  0.00     0.014 A 
ATOM     80  C   UNL A   1      32.303  26.547  23.786  1.00  0.00     0.030 A 
ATOM     81  C   UNL A   1      33.966  25.450  25.735  1.00  0.00     0.011 A 
ATOM     82  C   UNL A   1      32.118  25.224  24.195  1.00  0.00     0.027 A 
ATOM     83  C   UNL A   1      33.004  24.628  25.113  1.00  0.00     0.020 A 
ATOM     84  Br  UNL A   1      30.642  24.301  23.430  1.00  0.00    -0.050 Br
BRANCH  83  85
ATOM     85  C   UNL A   1      33.024  23.147  25.430  1.00  0.00     0.300 C 
BRANCH  85  86
ATOM     86  N   UNL A   1      33.606  22.250  24.419  1.00  0.00    -0.322 N 
ATOM     87  C   UNL A   1      35.065  22.098  24.456  1.00  0.00     0.324 C 
ATOM     88  C   UNL A   1      32.931  20.963  24.206  1.00  0.00     0.324 C 
ATOM     89  H   UNL A   1      33.400  22.797  23.582  1.00  0.00     0.348 HD
ATOM     90  C   UNL A   1      35.584  20.908  25.295  1.00  0.00     0.322 C 
ATOM     91  C   UNL A   1      33.504  19.752  24.983  1.00  0.00     0.322 C 
ATOM     92  N   UNL A   1      34.968  19.624  24.914  1.00  0.00    -0.337 N 
ATOM     93  H   UNL A   1      35.278  18.894  25.556  1.00  0.00     0.346 HD
ATOM     94  H   UNL A   1      35.246  19.378  23.964  1.00  0.00     0.346 HD
ENDBRANCH  85  86
ENDBRANCH  83  85
ENDBRANCH  75  78
ENDBRANCH  73  74
ENDBRANCH  72  73
ENDBRANCH   1  72
TORSDOF 13
ENDMDL
MODEL 3
REMARK VINA RESULT:     -12.1      1.266      1.993
REMARK SMILES O=C(NCCCCNC(=O)c1ccc(C[NH+]2CC[NH2+]CC2)c(Br)c1)c1ccc(-c2c3nc(c(-c4c(F)c(F)c(F)c(F)c4F)c4ccc([nH]4)c(-c4c(F)c(F)c(F)c(F)c4F)c4nc(c(-c5c(F)c(F)c(F)c(F)c5F)c5ccc2[nH]5)C=C4)C=C3)cc1
REMARK SMILES IDX 5 1 4 2 3 3 1 4 2 5 25 7 26 8 87 9 27 10 86 11 28 12 29 13
REMARK SMILES IDX 30 14 80 15 31 16 85 17 79 18 81 19 32 20 84 21 78 22 77 23
REMARK SMILES IDX 33 25 65 26 45 27 64 28 46 29 49 30 63 31 82 32 47 33 48 34
REMARK SMILES IDX 62 36 83 37 50 38 34 39 35 40 43 41 36 42 37 43 41 44 44 45
REMARK SMILES IDX 38 46 39 47 42 48 40 49 66 50 67 51 75 52 68 53 69 54 73 55
REMARK SMILES IDX 76 56 70 57 71 58 74 59 72 60 51 61 52 62 60 63 53 64 54 65
REMARK SMILES IDX 58 66 61 67 55 68 56 69 59 70 57 71 6 72 7 73 8 74 9 75
REMARK SMILES IDX 10 77 11 78 12 79 24 80 13 81 22 82 14 83 23 84 15 85 16 86
REMARK SMILES IDX 17 87 21 88 18 90 20 91 19 92
REMARK H PARENT 3 6 81 24 49 35 8 76 16 89 19 93 19 94
REMARK Flexibility Score: inf
ROOT
ATOM      1  C   UNL A   1      31.397  32.158  26.532  1.00  0.00     0.023 C 
ENDROOT
BRANCH   1   2
ATOM      2  C   UNL A   1      32.656  32.840  27.055  1.00  0.00     0.116 C 
BRANCH   2   3
ATOM      3  N   UNL A   1      32.389  34.150  27.625  1.00  0.00    -0.352 N 
ATOM      4  O   UNL A   1      32.529  35.844  29.104  1.00  0.00    -0.269 OA
ATOM      5  C   UNL A   1      33.000  34.797  28.671  1.00  0.00     0.251 C 
ATOM      6  H   UNL A   1      31.657  34.650  27.196  1.00  0.00     0.163 HD
BRANCH   5   7
ATOM      7  C   UNL A   1      34.213  34.228  29.301  1.00  0.00     0.039 A 
ATOM      8  C   UNL A   1      35.487  34.481  28.786  1.00  0.00     0.014 A 
ATOM      9  C   UNL A   1      34.066  33.448  30.452  1.00  0.00     0.014 A 
ATOM     10  C   UNL A   1      36.599  33.853  29.343  1.00  0.00     0.010 A 
ATOM     11  C   UNL A   1      35.190  32.879  31.053  1.00  0.00     0.010 A 
ATOM     12  C   UNL A   1      36.464  33.051  30.487  1.00  0.00    -0.014 A 
BRANCH  12  13
ATOM     13  C   UNL A   1      37.653  32.424  31.115  1.00  0.00     0.031 A 
ATOM     14  C   UNL A   1      38.389  31.315  30.421  1.00  0.00     0.074 A 
ATOM     15  C   UNL A   1      38.044  32.829  32.338  1.00  0.00     0.049 A 
ATOM     16  N   UNL A   1      39.379  30.576  30.856  1.00  0.00    -0.248 NA
ATOM     17  C   UNL A   1      37.946  30.984  29.059  1.00  0.00     0.031 C 
ATOM     18  C   UNL A   1      37.410  33.896  33.112  1.00  0.00     0.029 A 
ATOM     19  N   UNL A   1      39.053  32.379  33.151  1.00  0.00    -0.354 N 
ATOM     20  C   UNL A   1      39.662  29.679  29.835  1.00  0.00     0.074 A 
ATOM     21  C   UNL A   1      38.719  29.948  28.768  1.00  0.00     0.031 C 
ATOM     22  C   UNL A   1      38.044  34.021  34.287  1.00  0.00     0.029 A 
ATOM     23  C   UNL A   1      39.086  33.003  34.374  1.00  0.00     0.049 A 
ATOM     24  H   UNL A   1      39.691  31.678  32.885  1.00  0.00     0.167 HD
ATOM     25  C   UNL A   1      40.622  28.723  29.792  1.00  0.00     0.037 A 
ATOM     26  C   UNL A   1      39.842  32.759  35.460  1.00  0.00     0.037 A 
ATOM     27  C   UNL A   1      41.555  28.466  30.860  1.00  0.00     0.049 A 
ATOM     28  C   UNL A   1      40.867  31.662  35.412  1.00  0.00     0.074 A 
ATOM     29  C   UNL A   1      42.589  27.547  30.900  1.00  0.00     0.029 A 
ATOM     30  N   UNL A   1      41.555  29.119  32.085  1.00  0.00    -0.354 N 
ATOM     31  N   UNL A   1      41.152  30.842  34.430  1.00  0.00    -0.248 NA
ATOM     32  C   UNL A   1      41.677  31.456  36.619  1.00  0.00     0.031 C 
ATOM     33  C   UNL A   1      43.173  27.600  32.170  1.00  0.00     0.029 A 
ATOM     34  C   UNL A   1      42.551  28.602  32.898  1.00  0.00     0.049 A 
ATOM     35  H   UNL A   1      40.939  29.844  32.339  1.00  0.00     0.167 HD
ATOM     36  C   UNL A   1      42.193  30.045  34.886  1.00  0.00     0.074 A 
ATOM     37  C   UNL A   1      42.488  30.480  36.235  1.00  0.00     0.031 C 
ATOM     38  C   UNL A   1      42.847  29.051  34.238  1.00  0.00     0.037 A 
BRANCH  25  39
ATOM     39  C   UNL A   1      40.683  27.855  28.566  1.00  0.00     0.064 A 
ATOM     40  C   UNL A   1      39.977  26.646  28.474  1.00  0.00     0.173 A 
ATOM     41  C   UNL A   1      41.451  28.246  27.458  1.00  0.00     0.173 A 
ATOM     42  F   UNL A   1      39.231  26.218  29.505  1.00  0.00    -0.203 F 
ATOM     43  C   UNL A   1      40.075  25.840  27.341  1.00  0.00     0.198 A 
ATOM     44  C   UNL A   1      41.519  27.457  26.313  1.00  0.00     0.198 A 
ATOM     45  F   UNL A   1      42.138  29.399  27.483  1.00  0.00    -0.203 F 
ATOM     46  F   UNL A   1      39.445  24.658  27.305  1.00  0.00    -0.200 F 
ATOM     47  C   UNL A   1      40.842  26.248  26.261  1.00  0.00     0.200 A 
ATOM     48  F   UNL A   1      42.247  27.862  25.263  1.00  0.00    -0.200 F 
ATOM     49  F   UNL A   1      40.937  25.472  25.173  1.00  0.00    -0.200 F 
ENDBRANCH  25  39
BRANCH  26  50
ATOM     50  C   UNL A   1      39.635  33.576  36.683  1.00  0.00     0.064 A 
ATOM     51  C   UNL A   1      40.245  34.828  36.827  1.00  0.00     0.173 A 
ATOM     52  C   UNL A   1      38.780  33.143  37.708  1.00  0.00     0.173 A 
ATOM     53  F   UNL A   1      41.084  35.276  35.881  1.00  0.00    -0.203 F 
ATOM     54  C   UNL A   1      40.011  35.617  37.951  1.00  0.00     0.198 A 
ATOM     55  C   UNL A   1      38.523  33.945  38.817  1.00  0.00     0.198 A 
ATOM     56  F   UNL A   1      38.165  31.955  37.613  1.00  0.00    -0.203 F 
ATOM     57  F   UNL A   1      40.627  36.800  38.077  1.00  0.00    -0.200 F 
ATOM     58  C   UNL A   1      39.142  35.179  38.940  1.00  0.00     0.200 A 
ATOM     59  F   UNL A   1      37.667  33.527  39.760  1.00  0.00    -0.200 F 
ATOM     60  F   UNL A   1      38.901  35.947  40.011  1.00  0.00    -0.200 F 
ENDBRANCH  26  50
BRANCH  38  61
ATOM     61  C   UNL A   1      43.992  28.390  34.949  1.00  0.00     0.064 A 
ATOM     62  C   UNL A   1      43.819  27.235  35.724  1.00  0.00     0.173 A 
ATOM     63  C   UNL A   1      45.297  28.884  34.788  1.00  0.00     0.173 A 
ATOM     64  F   UNL A   1      42.591  26.733  35.923  1.00  0.00    -0.203 F 
ATOM     65  C   UNL A   1      44.909  26.602  36.318  1.00  0.00     0.198 A 
ATOM     66  C   UNL A   1      46.387  28.232  35.358  1.00  0.00     0.198 A 
ATOM     67  F   UNL A   1      45.517  29.985  34.053  1.00  0.00    -0.203 F 
ATOM     68  F   UNL A   1      44.718  25.517  37.080  1.00  0.00    -0.200 F 
ATOM     69  C   UNL A   1      46.192  27.095  36.124  1.00  0.00     0.200 A 
ATOM     70  F   UNL A   1      47.626  28.702  35.156  1.00  0.00    -0.200 F 
ATOM     71  F   UNL A   1      47.241  26.472  36.679  1.00  0.00    -0.200 F 
ENDBRANCH  38  61
ENDBRANCH  12  13
ENDBRANCH   5   7
ENDBRANCH   2   3
ENDBRANCH   1   2
BRANCH   1  72
ATOM     72  C   UNL A   1      31.423  30.628  26.555  1.00  0.00     0.023 C 
BRANCH  72  73
ATOM     73  C   UNL A   1      31.531  29.954  25.189  1.00  0.00     0.116 C 
BRANCH  73  74
ATOM     74  N   UNL A   1      30.548  30.453  24.237  1.00  0.00    -0.352 N 
ATOM     75  C   UNL A   1      29.876  29.767  23.253  1.00  0.00     0.251 C 
ATOM     76  H   UNL A   1      30.336  31.412  24.308  1.00  0.00     0.163 HD
ATOM     77  O   UNL A   1      29.171  30.351  22.444  1.00  0.00    -0.269 OA
BRANCH  75  78
ATOM     78  C   UNL A   1      30.041  28.306  23.170  1.00  0.00     0.040 A 
ATOM     79  C   UNL A   1      29.150  27.462  23.829  1.00  0.00     0.014 A 
ATOM     80  C   UNL A   1      31.123  27.788  22.464  1.00  0.00     0.030 A 
ATOM     81  C   UNL A   1      29.427  26.099  23.893  1.00  0.00     0.011 A 
ATOM     82  C   UNL A   1      31.400  26.420  22.535  1.00  0.00     0.027 A 
ATOM     83  C   UNL A   1      30.603  25.569  23.325  1.00  0.00     0.020 A 
ATOM     84  Br  UNL A   1      32.898  25.808  21.539  1.00  0.00    -0.050 Br
BRANCH  83  85
ATOM     85  C   UNL A   1      30.963  24.133  23.650  1.00  0.00     0.300 C 
BRANCH  85  86
ATOM     86  N   UNL A   1      32.130  23.911  24.517  1.00  0.00    -0.322 N 
ATOM     87  C   UNL A   1      31.974  24.309  25.920  1.00  0.00     0.324 C 
ATOM     88  C   UNL A   1      32.813  22.617  24.393  1.00  0.00     0.324 C 
ATOM     89  H   UNL A   1      32.771  24.588  24.100  1.00  0.00     0.348 HD
ATOM     90  C   UNL A   1      31.499  23.191  26.876  1.00  0.00     0.322 C 
ATOM     91  C   UNL A   1      32.396  21.521  25.404  1.00  0.00     0.322 C 
ATOM     92  N   UNL A   1      32.332  21.978  26.802  1.00  0.00    -0.337 N 
ATOM     93  H   UNL A   1      31.921  21.246  27.382  1.00  0.00     0.346 HD
ATOM     94  H   UNL A   1      33.273  22.186  27.137  1.00  0.00     0.346 HD
ENDBRANCH  85  86
ENDBRANCH  83  85
ENDBRANCH  75  78
ENDBRANCH  73  74
ENDBRANCH  72  73
ENDBRANCH   1  72
TORSDOF 13
ENDMDL
