MODEL 1
REMARK VINA RESULT:     -13.0      0.000      0.000
REMARK SMILES CC(C)c1ccc(C(=O)NNC(=O)[C@@H]2CC=CC[C@@H]2C(=O)NCCCCNC(=O)c2ccc(-c3c4nc(c(-c5c(F)c(F)c(F)c(F)c5F)c5ccc([nH]5)c(-c5c(F)c(F)c(F)c(F)c5F)c5nc(c(-c6c(F)c(F)c(F)c(F)c6F)c6ccc3[nH]6)C=C5)C=C4)cc2)cc1
REMARK SMILES IDX 23 1 22 2 20 3 21 4 19 6 14 7 15 8 16 9 18 10 17 11 12 12
REMARK SMILES IDX 11 13 13 15 10 16 8 17 9 18 7 20 4 21 5 22 94 23 6 24 93 25
REMARK SMILES IDX 2 26 1 27 3 28 24 29 25 30 26 31 27 32 28 33 29 35 30 36
REMARK SMILES IDX 31 37 92 38 32 39 91 40 33 41 34 42 35 43 85 44 36 45 90 46
REMARK SMILES IDX 84 47 86 48 37 49 89 50 83 51 82 52 38 54 70 55 50 56 69 57
REMARK SMILES IDX 51 58 54 59 68 60 87 61 52 62 53 63 67 65 88 66 55 67 39 68
REMARK SMILES IDX 40 69 48 70 41 71 42 72 46 73 49 74 43 75 44 76 47 77 45 78
REMARK SMILES IDX 71 79 72 80 80 81 73 82 74 83 78 84 81 85 75 86 76 87 79 88
REMARK SMILES IDX 77 89 56 90 57 91 65 92 58 93 59 94 63 95 66 96 60 97 61 98
REMARK SMILES IDX 64 99 62 100
REMARK H PARENT 22 5 11 14 10 19 27 34 86 53 54 64
REMARK Flexibility Score: inf
ROOT
ATOM      1  C   UNL A   1      31.144  29.875  25.133  1.00  0.00     0.116 C 
ENDROOT
BRANCH   1   2
ATOM      2  N   UNL A   1      32.180  29.701  24.131  1.00  0.00    -0.356 N 
ATOM      3  C   UNL A   1      32.489  28.616  23.366  1.00  0.00     0.224 C 
ATOM      4  O   UNL A   1      33.491  28.683  22.657  1.00  0.00    -0.275 OA
ATOM      5  H   UNL A   1      32.749  30.491  23.981  1.00  0.00     0.163 HD
BRANCH   3   6
ATOM      6  C   UNL A   1      31.575  27.397  23.397  1.00  0.00     0.095 C 
ATOM      7  C   UNL A   1      32.215  26.192  24.120  1.00  0.00     0.097 C 
ATOM      8  C   UNL A   1      33.270  25.474  23.245  1.00  0.00     0.041 C 
ATOM      9  C   UNL A   1      32.957  25.430  21.780  1.00  0.00    -0.030 C 
ATOM     10  C   UNL A   1      31.091  27.070  21.974  1.00  0.00     0.041 C 
ATOM     11  C   UNL A   1      31.977  26.140  21.210  1.00  0.00    -0.030 C 
BRANCH   7  12
ATOM     12  C   UNL A   1      32.859  26.576  25.460  1.00  0.00     0.242 C 
ATOM     13  N   UNL A   1      32.228  26.293  26.644  1.00  0.00    -0.267 N 
ATOM     14  H   UNL A   1      32.496  26.820  27.431  1.00  0.00     0.191 HD
ATOM     15  O   UNL A   1      33.969  27.107  25.535  1.00  0.00    -0.273 OA
BRANCH  13  16
ATOM     16  N   UNL A   1      31.248  25.328  26.834  1.00  0.00    -0.263 N 
ATOM     17  C   UNL A   1      31.457  23.959  26.837  1.00  0.00     0.269 C 
ATOM     18  O   UNL A   1      30.595  23.231  27.330  1.00  0.00    -0.267 OA
ATOM     19  H   UNL A   1      30.327  25.643  26.980  1.00  0.00     0.191 HD
BRANCH  17  20
ATOM     20  C   UNL A   1      32.686  23.348  26.259  1.00  0.00     0.041 A 
ATOM     21  C   UNL A   1      34.983  22.297  24.986  1.00  0.00    -0.045 A 
ATOM     22  C   UNL A   1      33.706  22.071  24.454  1.00  0.00     0.005 A 
ATOM     23  C   UNL A   1      35.093  23.065  26.154  1.00  0.00     0.005 A 
ATOM     24  C   UNL A   1      32.567  22.587  25.087  1.00  0.00     0.014 A 
ATOM     25  C   UNL A   1      33.960  23.612  26.765  1.00  0.00     0.014 A 
BRANCH  21  26
ATOM     26  C   UNL A   1      36.252  21.832  24.290  1.00  0.00     0.013 C 
ATOM     27  C   UNL A   1      36.734  22.779  23.189  1.00  0.00     0.012 C 
ATOM     28  C   UNL A   1      37.357  21.591  25.322  1.00  0.00     0.012 C 
ENDBRANCH  21  26
ENDBRANCH  17  20
ENDBRANCH  13  16
ENDBRANCH   7  12
ENDBRANCH   3   6
ENDBRANCH   1   2
BRANCH   1  29
ATOM     29  C   UNL A   1      31.719  30.432  26.433  1.00  0.00     0.023 C 
BRANCH  29  30
ATOM     30  C   UNL A   1      31.517  31.936  26.637  1.00  0.00     0.023 C 
BRANCH  30  31
ATOM     31  C   UNL A   1      32.754  32.707  27.077  1.00  0.00     0.116 C 
BRANCH  31  32
ATOM     32  N   UNL A   1      32.447  34.033  27.586  1.00  0.00    -0.352 N 
ATOM     33  C   UNL A   1      33.048  34.747  28.592  1.00  0.00     0.251 C 
ATOM     34  H   UNL A   1      31.694  34.487  27.142  1.00  0.00     0.163 HD
ATOM     35  O   UNL A   1      32.564  35.812  28.957  1.00  0.00    -0.269 OA
BRANCH  33  36
ATOM     36  C   UNL A   1      34.255  34.218  29.268  1.00  0.00     0.039 A 
ATOM     37  C   UNL A   1      34.081  33.403  30.389  1.00  0.00     0.014 A 
ATOM     38  C   UNL A   1      35.542  34.517  28.814  1.00  0.00     0.014 A 
ATOM     39  C   UNL A   1      35.194  32.835  31.012  1.00  0.00     0.010 A 
ATOM     40  C   UNL A   1      36.646  33.889  29.389  1.00  0.00     0.010 A 
ATOM     41  C   UNL A   1      36.483  33.040  30.494  1.00  0.00    -0.014 A 
BRANCH  41  42
ATOM     42  C   UNL A   1      37.655  32.352  31.094  1.00  0.00     0.031 A 
ATOM     43  C   UNL A   1      38.161  32.739  32.455  1.00  0.00     0.074 A 
ATOM     44  C   UNL A   1      38.284  31.389  30.390  1.00  0.00     0.049 A 
ATOM     45  N   UNL A   1      39.165  32.245  33.136  1.00  0.00    -0.248 NA
ATOM     46  C   UNL A   1      37.463  33.842  33.135  1.00  0.00     0.031 C 
ATOM     47  C   UNL A   1      37.931  30.968  29.033  1.00  0.00     0.029 A 
ATOM     48  N   UNL A   1      39.352  30.591  30.717  1.00  0.00    -0.354 N 
ATOM     49  C   UNL A   1      39.215  32.970  34.319  1.00  0.00     0.074 A 
ATOM     50  C   UNL A   1      38.184  33.982  34.239  1.00  0.00     0.031 C 
ATOM     51  C   UNL A   1      38.745  29.970  28.656  1.00  0.00     0.029 A 
ATOM     52  C   UNL A   1      39.698  29.703  29.727  1.00  0.00     0.049 A 
ATOM     53  H   UNL A   1      39.825  30.650  31.577  1.00  0.00     0.167 HD
ATOM     54  C   UNL A   1      40.028  32.789  35.388  1.00  0.00     0.037 A 
ATOM     55  C   UNL A   1      40.675  28.777  29.689  1.00  0.00     0.037 A 
ATOM     56  C   UNL A   1      41.047  31.776  35.472  1.00  0.00     0.049 A 
ATOM     57  C   UNL A   1      41.559  28.596  30.893  1.00  0.00     0.074 A 
ATOM     58  C   UNL A   1      41.895  31.489  36.527  1.00  0.00     0.029 A 
ATOM     59  N   UNL A   1      41.356  30.882  34.458  1.00  0.00    -0.354 N 
ATOM     60  N   UNL A   1      41.547  29.241  32.035  1.00  0.00    -0.248 NA
ATOM     61  C   UNL A   1      42.586  27.548  30.808  1.00  0.00     0.031 C 
ATOM     62  C   UNL A   1      42.746  30.449  36.137  1.00  0.00     0.029 A 
ATOM     63  C   UNL A   1      42.393  30.053  34.857  1.00  0.00     0.049 A 
ATOM     64  H   UNL A   1      40.906  30.841  33.583  1.00  0.00     0.167 HD
ATOM     65  C   UNL A   1      42.546  28.665  32.808  1.00  0.00     0.074 A 
ATOM     66  C   UNL A   1      43.121  27.597  32.019  1.00  0.00     0.031 C 
ATOM     67  C   UNL A   1      42.956  28.995  34.058  1.00  0.00     0.037 A 
BRANCH  54  68
ATOM     68  C   UNL A   1      39.836  33.696  36.570  1.00  0.00     0.064 A 
ATOM     69  C   UNL A   1      40.470  34.946  36.642  1.00  0.00     0.173 A 
ATOM     70  C   UNL A   1      38.965  33.342  37.611  1.00  0.00     0.173 A 
ATOM     71  F   UNL A   1      41.322  35.327  35.678  1.00  0.00    -0.203 F 
ATOM     72  C   UNL A   1      40.253  35.799  37.721  1.00  0.00     0.198 A 
ATOM     73  C   UNL A   1      38.728  34.211  38.675  1.00  0.00     0.198 A 
ATOM     74  F   UNL A   1      38.329  32.161  37.590  1.00  0.00    -0.203 F 
ATOM     75  F   UNL A   1      40.900  36.971  37.787  1.00  0.00    -0.200 F 
ATOM     76  C   UNL A   1      39.377  35.436  38.731  1.00  0.00     0.200 A 
ATOM     77  F   UNL A   1      37.869  33.864  39.643  1.00  0.00    -0.200 F 
ATOM     78  F   UNL A   1      39.158  36.264  39.761  1.00  0.00    -0.200 F 
ENDBRANCH  54  68
BRANCH  55  79
ATOM     79  C   UNL A   1      40.861  27.934  28.478  1.00  0.00     0.064 A 
ATOM     80  C   UNL A   1      41.661  28.368  27.410  1.00  0.00     0.173 A 
ATOM     81  C   UNL A   1      40.221  26.692  28.349  1.00  0.00     0.173 A 
ATOM     82  F   UNL A   1      42.279  29.556  27.475  1.00  0.00    -0.203 F 
ATOM     83  C   UNL A   1      41.785  27.608  26.248  1.00  0.00     0.198 A 
ATOM     84  C   UNL A   1      40.374  25.918  27.201  1.00  0.00     0.198 A 
ATOM     85  F   UNL A   1      39.451  26.228  29.345  1.00  0.00    -0.203 F 
ATOM     86  F   UNL A   1      42.505  28.075  25.220  1.00  0.00    -0.200 F 
ATOM     87  C   UNL A   1      41.144  26.383  26.147  1.00  0.00     0.200 A 
ATOM     88  F   UNL A   1      39.766  24.727  27.114  1.00  0.00    -0.200 F 
ATOM     89  F   UNL A   1      41.262  25.654  25.029  1.00  0.00    -0.200 F 
ENDBRANCH  55  79
BRANCH  67  90
ATOM     90  C   UNL A   1      44.065  28.173  34.649  1.00  0.00     0.064 A 
ATOM     91  C   UNL A   1      45.405  28.586  34.578  1.00  0.00     0.173 A 
ATOM     92  C   UNL A   1      43.785  26.962  35.300  1.00  0.00     0.173 A 
ATOM     93  F   UNL A   1      45.727  29.729  33.953  1.00  0.00    -0.203 F 
ATOM     94  C   UNL A   1      46.426  27.795  35.097  1.00  0.00     0.198 A 
ATOM     95  C   UNL A   1      44.807  26.191  35.849  1.00  0.00     0.198 A 
ATOM     96  F   UNL A   1      42.521  26.526  35.404  1.00  0.00    -0.203 F 
ATOM     97  F   UNL A   1      47.703  28.177  34.958  1.00  0.00    -0.200 F 
ATOM     98  C   UNL A   1      46.126  26.601  35.736  1.00  0.00     0.200 A 
ATOM     99  F   UNL A   1      44.513  25.045  36.479  1.00  0.00    -0.200 F 
ATOM    100  F   UNL A   1      47.111  25.841  36.233  1.00  0.00    -0.200 F 
ENDBRANCH  67  90
ENDBRANCH  41  42
ENDBRANCH  33  36
ENDBRANCH  31  32
ENDBRANCH  30  31
ENDBRANCH  29  30
ENDBRANCH   1  29
TORSDOF 15
ENDMDL
MODEL 2
REMARK VINA RESULT:     -12.5      3.910      8.655
REMARK SMILES CC(C)c1ccc(C(=O)NNC(=O)[C@@H]2CC=CC[C@@H]2C(=O)NCCCCNC(=O)c2ccc(-c3c4nc(c(-c5c(F)c(F)c(F)c(F)c5F)c5ccc([nH]5)c(-c5c(F)c(F)c(F)c(F)c5F)c5nc(c(-c6c(F)c(F)c(F)c(F)c6F)c6ccc3[nH]6)C=C5)C=C4)cc2)cc1
REMARK SMILES IDX 23 1 22 2 20 3 21 4 19 6 14 7 15 8 16 9 18 10 17 11 12 12
REMARK SMILES IDX 11 13 13 15 10 16 8 17 9 18 7 20 4 21 5 22 94 23 6 24 93 25
REMARK SMILES IDX 2 26 1 27 3 28 24 29 25 30 26 31 27 32 28 33 29 35 30 36
REMARK SMILES IDX 31 37 92 38 32 39 91 40 33 41 34 42 35 43 85 44 36 45 90 46
REMARK SMILES IDX 84 47 86 48 37 49 89 50 83 51 82 52 38 54 70 55 50 56 69 57
REMARK SMILES IDX 51 58 54 59 68 60 87 61 52 62 53 63 67 65 88 66 55 67 39 68
REMARK SMILES IDX 40 69 48 70 41 71 42 72 46 73 49 74 43 75 44 76 47 77 45 78
REMARK SMILES IDX 71 79 72 80 80 81 73 82 74 83 78 84 81 85 75 86 76 87 79 88
REMARK SMILES IDX 77 89 56 90 57 91 65 92 58 93 59 94 63 95 66 96 60 97 61 98
REMARK SMILES IDX 64 99 62 100
REMARK H PARENT 22 5 11 14 10 19 27 34 86 53 54 64
REMARK Flexibility Score: inf
ROOT
ATOM      1  C   UNL A   1      34.337  24.080  24.135  1.00  0.00     0.116 C 
ENDROOT
BRANCH   1   2
ATOM      2  N   UNL A   1      34.011  25.196  23.267  1.00  0.00    -0.356 N 
ATOM      3  C   UNL A   1      33.336  26.350  23.534  1.00  0.00     0.224 C 
ATOM      4  O   UNL A   1      33.093  27.102  22.593  1.00  0.00    -0.275 OA
ATOM      5  H   UNL A   1      34.329  25.107  22.338  1.00  0.00     0.163 HD
BRANCH   3   6
ATOM      6  C   UNL A   1      32.943  26.668  24.972  1.00  0.00     0.095 C 
ATOM      7  C   UNL A   1      31.414  26.669  25.185  1.00  0.00     0.097 C 
ATOM      8  C   UNL A   1      30.746  27.952  24.638  1.00  0.00     0.041 C 
ATOM      9  C   UNL A   1      31.556  29.204  24.788  1.00  0.00    -0.030 C 
ATOM     10  C   UNL A   1      33.625  27.970  25.424  1.00  0.00     0.041 C 
ATOM     11  C   UNL A   1      32.845  29.214  25.145  1.00  0.00    -0.030 C 
BRANCH   7  12
ATOM     12  C   UNL A   1      30.726  25.446  24.562  1.00  0.00     0.242 C 
ATOM     13  N   UNL A   1      30.848  24.207  25.137  1.00  0.00    -0.267 N 
ATOM     14  H   UNL A   1      30.679  23.427  24.561  1.00  0.00     0.191 HD
ATOM     15  O   UNL A   1      30.011  25.525  23.561  1.00  0.00    -0.273 OA
BRANCH  13  16
ATOM     16  N   UNL A   1      31.187  23.954  26.460  1.00  0.00    -0.263 N 
ATOM     17  C   UNL A   1      32.097  23.002  26.888  1.00  0.00     0.269 C 
ATOM     18  O   UNL A   1      32.550  23.089  28.030  1.00  0.00    -0.267 OA
ATOM     19  H   UNL A   1      30.744  24.497  27.151  1.00  0.00     0.191 HD
BRANCH  17  20
ATOM     20  C   UNL A   1      32.536  21.880  26.013  1.00  0.00     0.041 A 
ATOM     21  C   UNL A   1      33.345  19.620  24.516  1.00  0.00    -0.045 A 
ATOM     22  C   UNL A   1      34.076  20.031  25.638  1.00  0.00     0.005 A 
ATOM     23  C   UNL A   1      32.198  20.347  24.163  1.00  0.00     0.005 A 
ATOM     24  C   UNL A   1      33.679  21.154  26.377  1.00  0.00     0.014 A 
ATOM     25  C   UNL A   1      31.780  21.444  24.922  1.00  0.00     0.014 A 
BRANCH  21  26
ATOM     26  C   UNL A   1      33.686  18.362  23.734  1.00  0.00     0.013 C 
ATOM     27  C   UNL A   1      33.994  17.152  24.618  1.00  0.00     0.012 C 
ATOM     28  C   UNL A   1      32.563  18.039  22.744  1.00  0.00     0.012 C 
ENDBRANCH  21  26
ENDBRANCH  17  20
ENDBRANCH  13  16
ENDBRANCH   7  12
ENDBRANCH   3   6
ENDBRANCH   1   2
BRANCH   1  29
ATOM     29  C   UNL A   1      35.105  22.998  23.380  1.00  0.00     0.023 C 
BRANCH  29  30
ATOM     30  C   UNL A   1      36.629  23.099  23.479  1.00  0.00     0.023 C 
BRANCH  30  31
ATOM     31  C   UNL A   1      37.166  23.559  24.829  1.00  0.00     0.116 C 
BRANCH  31  32
ATOM     32  N   UNL A   1      38.025  22.575  25.464  1.00  0.00    -0.352 N 
ATOM     33  C   UNL A   1      39.068  22.756  26.338  1.00  0.00     0.251 C 
ATOM     34  H   UNL A   1      37.830  21.638  25.233  1.00  0.00     0.163 HD
ATOM     35  O   UNL A   1      39.755  21.798  26.675  1.00  0.00    -0.269 OA
BRANCH  33  36
ATOM     36  C   UNL A   1      39.396  24.109  26.844  1.00  0.00     0.039 A 
ATOM     37  C   UNL A   1      39.023  24.434  28.150  1.00  0.00     0.014 A 
ATOM     38  C   UNL A   1      40.057  25.050  26.051  1.00  0.00     0.014 A 
ATOM     39  C   UNL A   1      39.373  25.676  28.681  1.00  0.00     0.010 A 
ATOM     40  C   UNL A   1      40.473  26.259  26.607  1.00  0.00     0.010 A 
ATOM     41  C   UNL A   1      40.135  26.585  27.928  1.00  0.00    -0.014 A 
BRANCH  41  42
ATOM     42  C   UNL A   1      40.596  27.863  28.531  1.00  0.00     0.031 A 
ATOM     43  C   UNL A   1      42.039  28.064  28.899  1.00  0.00     0.074 A 
ATOM     44  C   UNL A   1      39.696  28.837  28.774  1.00  0.00     0.049 A 
ATOM     45  N   UNL A   1      42.619  29.113  29.428  1.00  0.00    -0.248 NA
ATOM     46  C   UNL A   1      42.950  26.932  28.664  1.00  0.00     0.031 C 
ATOM     47  C   UNL A   1      38.257  28.740  28.523  1.00  0.00     0.029 A 
ATOM     48  N   UNL A   1      39.857  30.101  29.286  1.00  0.00    -0.354 N 
ATOM     49  C   UNL A   1      43.956  28.768  29.584  1.00  0.00     0.074 A 
ATOM     50  C   UNL A   1      44.091  27.393  29.155  1.00  0.00     0.031 C 
ATOM     51  C   UNL A   1      37.673  29.902  28.852  1.00  0.00     0.029 A 
ATOM     52  C   UNL A   1      38.687  30.815  29.368  1.00  0.00     0.049 A 
ATOM     53  H   UNL A   1      40.729  30.460  29.568  1.00  0.00     0.167 HD
ATOM     54  C   UNL A   1      44.982  29.539  30.016  1.00  0.00     0.037 A 
ATOM     55  C   UNL A   1      38.458  32.066  29.809  1.00  0.00     0.037 A 
ATOM     56  C   UNL A   1      44.849  30.911  30.433  1.00  0.00     0.049 A 
ATOM     57  C   UNL A   1      39.619  32.900  30.280  1.00  0.00     0.074 A 
ATOM     58  C   UNL A   1      45.836  31.787  30.852  1.00  0.00     0.029 A 
ATOM     59  N   UNL A   1      43.651  31.607  30.484  1.00  0.00    -0.354 N 
ATOM     60  N   UNL A   1      40.889  32.586  30.352  1.00  0.00    -0.248 NA
ATOM     61  C   UNL A   1      39.314  34.269  30.719  1.00  0.00     0.031 C 
ATOM     62  C   UNL A   1      45.230  33.000  31.196  1.00  0.00     0.029 A 
ATOM     63  C   UNL A   1      43.872  32.897  30.942  1.00  0.00     0.049 A 
ATOM     64  H   UNL A   1      42.773  31.241  30.233  1.00  0.00     0.167 HD
ATOM     65  C   UNL A   1      41.536  33.720  30.823  1.00  0.00     0.074 A 
ATOM     66  C   UNL A   1      40.523  34.740  30.987  1.00  0.00     0.031 C 
ATOM     67  C   UNL A   1      42.851  33.901  31.102  1.00  0.00     0.037 A 
BRANCH  54  68
ATOM     68  C   UNL A   1      46.352  28.924  30.042  1.00  0.00     0.064 A 
ATOM     69  C   UNL A   1      46.836  28.268  31.185  1.00  0.00     0.173 A 
ATOM     70  C   UNL A   1      47.165  28.935  28.899  1.00  0.00     0.173 A 
ATOM     71  F   UNL A   1      46.103  28.239  32.309  1.00  0.00    -0.203 F 
ATOM     72  C   UNL A   1      48.091  27.663  31.188  1.00  0.00     0.198 A 
ATOM     73  C   UNL A   1      48.408  28.304  28.896  1.00  0.00     0.198 A 
ATOM     74  F   UNL A   1      46.749  29.544  27.779  1.00  0.00    -0.203 F 
ATOM     75  F   UNL A   1      48.548  27.077  32.303  1.00  0.00    -0.200 F 
ATOM     76  C   UNL A   1      48.871  27.673  30.042  1.00  0.00     0.200 A 
ATOM     77  F   UNL A   1      49.153  28.302  27.784  1.00  0.00    -0.200 F 
ATOM     78  F   UNL A   1      50.071  27.078  30.042  1.00  0.00    -0.200 F 
ENDBRANCH  54  68
BRANCH  55  79
ATOM     79  C   UNL A   1      37.077  32.618  29.812  1.00  0.00     0.064 A 
ATOM     80  C   UNL A   1      36.231  32.447  30.918  1.00  0.00     0.173 A 
ATOM     81  C   UNL A   1      36.564  33.302  28.700  1.00  0.00     0.173 A 
ATOM     82  F   UNL A   1      36.667  31.783  31.999  1.00  0.00    -0.203 F 
ATOM     83  C   UNL A   1      34.916  32.908  30.897  1.00  0.00     0.198 A 
ATOM     84  C   UNL A   1      35.260  33.792  28.694  1.00  0.00     0.198 A 
ATOM     85  F   UNL A   1      37.333  33.499  27.619  1.00  0.00    -0.203 F 
ATOM     86  F   UNL A   1      34.111  32.676  31.943  1.00  0.00    -0.200 F 
ATOM     87  C   UNL A   1      34.433  33.583  29.787  1.00  0.00     0.200 A 
ATOM     88  F   UNL A   1      34.802  34.459  27.625  1.00  0.00    -0.200 F 
ATOM     89  F   UNL A   1      33.168  34.024  29.767  1.00  0.00    -0.200 F 
ENDBRANCH  55  79
BRANCH  67  90
ATOM     90  C   UNL A   1      43.263  35.259  31.591  1.00  0.00     0.064 A 
ATOM     91  C   UNL A   1      43.125  35.629  32.938  1.00  0.00     0.173 A 
ATOM     92  C   UNL A   1      43.807  36.201  30.705  1.00  0.00     0.173 A 
ATOM     93  F   UNL A   1      42.596  34.770  33.823  1.00  0.00    -0.203 F 
ATOM     94  C   UNL A   1      43.476  36.905  33.370  1.00  0.00     0.198 A 
ATOM     95  C   UNL A   1      44.189  37.465  31.148  1.00  0.00     0.198 A 
ATOM     96  F   UNL A   1      43.969  35.896  29.409  1.00  0.00    -0.203 F 
ATOM     97  F   UNL A   1      43.273  37.258  34.647  1.00  0.00    -0.200 F 
ATOM     98  C   UNL A   1      44.012  37.820  32.476  1.00  0.00     0.200 A 
ATOM     99  F   UNL A   1      44.720  38.342  30.285  1.00  0.00    -0.200 F 
ATOM    100  F   UNL A   1      44.346  39.049  32.893  1.00  0.00    -0.200 F 
ENDBRANCH  67  90
ENDBRANCH  41  42
ENDBRANCH  33  36
ENDBRANCH  31  32
ENDBRANCH  30  31
ENDBRANCH  29  30
ENDBRANCH   1  29
TORSDOF 15
ENDMDL
MODEL 3
REMARK VINA RESULT:     -12.5      4.462      9.593
REMARK SMILES CC(C)c1ccc(C(=O)NNC(=O)[C@@H]2CC=CC[C@@H]2C(=O)NCCCCNC(=O)c2ccc(-c3c4nc(c(-c5c(F)c(F)c(F)c(F)c5F)c5ccc([nH]5)c(-c5c(F)c(F)c(F)c(F)c5F)c5nc(c(-c6c(F)c(F)c(F)c(F)c6F)c6ccc3[nH]6)C=C5)C=C4)cc2)cc1
REMARK SMILES IDX 23 1 22 2 20 3 21 4 19 6 14 7 15 8 16 9 18 10 17 11 12 12
REMARK SMILES IDX 11 13 13 15 10 16 8 17 9 18 7 20 4 21 5 22 94 23 6 24 93 25
REMARK SMILES IDX 2 26 1 27 3 28 24 29 25 30 26 31 27 32 28 33 29 35 30 36
REMARK SMILES IDX 31 37 92 38 32 39 91 40 33 41 34 42 35 43 85 44 36 45 90 46
REMARK SMILES IDX 84 47 86 48 37 49 89 50 83 51 82 52 38 54 70 55 50 56 69 57
REMARK SMILES IDX 51 58 54 59 68 60 87 61 52 62 53 63 67 65 88 66 55 67 39 68
REMARK SMILES IDX 40 69 48 70 41 71 42 72 46 73 49 74 43 75 44 76 47 77 45 78
REMARK SMILES IDX 71 79 72 80 80 81 73 82 74 83 78 84 81 85 75 86 76 87 79 88
REMARK SMILES IDX 77 89 56 90 57 91 65 92 58 93 59 94 63 95 66 96 60 97 61 98
REMARK SMILES IDX 64 99 62 100
REMARK H PARENT 22 5 11 14 10 19 27 34 86 53 54 64
REMARK Flexibility Score: inf
ROOT
ATOM      1  C   UNL A   1      34.468  23.995  24.111  1.00  0.00     0.116 C 
ENDROOT
BRANCH   1   2
ATOM      2  N   UNL A   1      34.036  25.067  23.233  1.00  0.00    -0.356 N 
ATOM      3  C   UNL A   1      33.280  26.169  23.498  1.00  0.00     0.224 C 
ATOM      4  O   UNL A   1      32.958  26.883  22.550  1.00  0.00    -0.275 OA
ATOM      5  H   UNL A   1      34.338  24.985  22.299  1.00  0.00     0.163 HD
BRANCH   3   6
ATOM      6  C   UNL A   1      32.898  26.483  24.940  1.00  0.00     0.095 C 
ATOM      7  C   UNL A   1      31.369  26.544  25.150  1.00  0.00     0.097 C 
ATOM      8  C   UNL A   1      30.756  27.861  24.621  1.00  0.00     0.041 C 
ATOM      9  C   UNL A   1      31.617  29.077  24.789  1.00  0.00    -0.030 C 
ATOM     10  C   UNL A   1      33.632  27.750  25.411  1.00  0.00     0.041 C 
ATOM     11  C   UNL A   1      32.904  29.029  25.148  1.00  0.00    -0.030 C 
BRANCH   7  12
ATOM     12  C   UNL A   1      30.633  25.359  24.509  1.00  0.00     0.242 C 
ATOM     13  N   UNL A   1      30.685  24.113  25.079  1.00  0.00    -0.267 N 
ATOM     14  H   UNL A   1      30.487  23.345  24.496  1.00  0.00     0.191 HD
ATOM     15  O   UNL A   1      29.940  25.478  23.496  1.00  0.00    -0.273 OA
BRANCH  13  16
ATOM     16  N   UNL A   1      30.988  23.838  26.406  1.00  0.00    -0.263 N 
ATOM     17  C   UNL A   1      31.922  22.914  26.842  1.00  0.00     0.269 C 
ATOM     18  O   UNL A   1      32.331  22.988  28.001  1.00  0.00    -0.267 OA
ATOM     19  H   UNL A   1      30.498  24.342  27.095  1.00  0.00     0.191 HD
BRANCH  17  20
ATOM     20  C   UNL A   1      32.439  21.836  25.954  1.00  0.00     0.041 A 
ATOM     21  C   UNL A   1      33.373  19.651  24.418  1.00  0.00    -0.045 A 
ATOM     22  C   UNL A   1      33.966  19.963  25.649  1.00  0.00     0.005 A 
ATOM     23  C   UNL A   1      32.300  20.438  23.975  1.00  0.00     0.005 A 
ATOM     24  C   UNL A   1      33.508  21.049  26.408  1.00  0.00     0.014 A 
ATOM     25  C   UNL A   1      31.817  21.498  24.750  1.00  0.00     0.014 A 
BRANCH  21  26
ATOM     26  C   UNL A   1      33.778  18.435  23.602  1.00  0.00     0.013 C 
ATOM     27  C   UNL A   1      34.662  17.446  24.364  1.00  0.00     0.012 C 
ATOM     28  C   UNL A   1      32.532  17.735  23.050  1.00  0.00     0.012 C 
ENDBRANCH  21  26
ENDBRANCH  17  20
ENDBRANCH  13  16
ENDBRANCH   7  12
ENDBRANCH   3   6
ENDBRANCH   1   2
BRANCH   1  29
ATOM     29  C   UNL A   1      35.217  22.913  23.337  1.00  0.00     0.023 C 
BRANCH  29  30
ATOM     30  C   UNL A   1      36.650  22.656  23.809  1.00  0.00     0.023 C 
BRANCH  30  31
ATOM     31  C   UNL A   1      36.808  22.388  25.300  1.00  0.00     0.116 C 
BRANCH  31  32
ATOM     32  N   UNL A   1      37.781  21.349  25.591  1.00  0.00    -0.352 N 
ATOM     33  C   UNL A   1      39.040  21.453  26.128  1.00  0.00     0.251 C 
ATOM     34  H   UNL A   1      37.495  20.433  25.369  1.00  0.00     0.163 HD
ATOM     35  O   UNL A   1      39.761  20.463  26.188  1.00  0.00    -0.269 OA
BRANCH  33  36
ATOM     36  C   UNL A   1      39.548  22.761  26.600  1.00  0.00     0.039 A 
ATOM     37  C   UNL A   1      40.564  22.769  27.558  1.00  0.00     0.014 A 
ATOM     38  C   UNL A   1      39.037  23.967  26.113  1.00  0.00     0.014 A 
ATOM     39  C   UNL A   1      41.112  23.983  27.977  1.00  0.00     0.010 A 
ATOM     40  C   UNL A   1      39.636  25.173  26.474  1.00  0.00     0.010 A 
ATOM     41  C   UNL A   1      40.680  25.194  27.410  1.00  0.00    -0.014 A 
BRANCH  41  42
ATOM     42  C   UNL A   1      41.335  26.475  27.780  1.00  0.00     0.031 A 
ATOM     43  C   UNL A   1      42.764  26.747  27.400  1.00  0.00     0.074 A 
ATOM     44  C   UNL A   1      40.642  27.387  28.492  1.00  0.00     0.049 A 
ATOM     45  N   UNL A   1      43.494  27.809  27.634  1.00  0.00    -0.248 NA
ATOM     46  C   UNL A   1      43.476  25.678  26.680  1.00  0.00     0.031 C 
ATOM     47  C   UNL A   1      39.272  27.215  28.978  1.00  0.00     0.029 A 
ATOM     48  N   UNL A   1      40.994  28.639  28.930  1.00  0.00    -0.354 N 
ATOM     49  C   UNL A   1      44.743  27.537  27.089  1.00  0.00     0.074 A 
ATOM     50  C   UNL A   1      44.695  26.188  26.571  1.00  0.00     0.031 C 
ATOM     51  C   UNL A   1      38.889  28.329  29.619  1.00  0.00     0.029 A 
ATOM     52  C   UNL A   1      39.994  29.282  29.620  1.00  0.00     0.049 A 
ATOM     53  H   UNL A   1      41.878  29.039  28.766  1.00  0.00     0.167 HD
ATOM     54  C   UNL A   1      45.822  28.352  27.004  1.00  0.00     0.037 A 
ATOM     55  C   UNL A   1      39.972  30.502  30.188  1.00  0.00     0.037 A 
ATOM     56  C   UNL A   1      45.867  29.698  27.511  1.00  0.00     0.049 A 
ATOM     57  C   UNL A   1      41.185  31.385  30.073  1.00  0.00     0.074 A 
ATOM     58  C   UNL A   1      46.902  30.615  27.438  1.00  0.00     0.029 A 
ATOM     59  N   UNL A   1      44.829  30.322  28.186  1.00  0.00    -0.354 N 
ATOM     60  N   UNL A   1      42.334  31.142  29.491  1.00  0.00    -0.248 NA
ATOM     61  C   UNL A   1      41.092  32.718  30.684  1.00  0.00     0.031 C 
ATOM     62  C   UNL A   1      46.506  31.779  28.106  1.00  0.00     0.029 A 
ATOM     63  C   UNL A   1      45.205  31.606  28.550  1.00  0.00     0.049 A 
ATOM     64  H   UNL A   1      43.955  29.914  28.380  1.00  0.00     0.167 HD
ATOM     65  C   UNL A   1      43.091  32.296  29.646  1.00  0.00     0.074 A 
ATOM     66  C   UNL A   1      42.258  33.249  30.348  1.00  0.00     0.031 C 
ATOM     67  C   UNL A   1      44.364  32.543  29.250  1.00  0.00     0.037 A 
BRANCH  54  68
ATOM     68  C   UNL A   1      47.045  27.816  26.315  1.00  0.00     0.064 A 
ATOM     69  C   UNL A   1      48.085  27.212  27.038  1.00  0.00     0.173 A 
ATOM     70  C   UNL A   1      47.154  27.851  24.916  1.00  0.00     0.173 A 
ATOM     71  F   UNL A   1      48.036  27.164  28.378  1.00  0.00    -0.203 F 
ATOM     72  C   UNL A   1      49.196  26.680  26.389  1.00  0.00     0.198 A 
ATOM     73  C   UNL A   1      48.253  27.292  24.268  1.00  0.00     0.198 A 
ATOM     74  F   UNL A   1      46.186  28.413  24.176  1.00  0.00    -0.203 F 
ATOM     75  F   UNL A   1      50.194  26.143  27.103  1.00  0.00    -0.200 F 
ATOM     76  C   UNL A   1      49.275  26.712  25.005  1.00  0.00     0.200 A 
ATOM     77  F   UNL A   1      48.321  27.311  22.930  1.00  0.00    -0.200 F 
ATOM     78  F   UNL A   1      50.338  26.186  24.381  1.00  0.00    -0.200 F 
ENDBRANCH  54  68
BRANCH  55  79
ATOM     79  C   UNL A   1      38.756  30.972  30.905  1.00  0.00     0.064 A 
ATOM     80  C   UNL A   1      37.701  31.586  30.214  1.00  0.00     0.173 A 
ATOM     81  C   UNL A   1      38.637  30.845  32.297  1.00  0.00     0.173 A 
ATOM     82  F   UNL A   1      37.774  31.749  28.885  1.00  0.00    -0.203 F 
ATOM     83  C   UNL A   1      36.590  32.085  30.892  1.00  0.00     0.198 A 
ATOM     84  C   UNL A   1      37.511  31.314  32.969  1.00  0.00     0.198 A 
ATOM     85  F   UNL A   1      39.615  30.259  33.004  1.00  0.00    -0.203 F 
ATOM     86  F   UNL A   1      35.625  32.722  30.215  1.00  0.00    -0.200 F 
ATOM     87  C   UNL A   1      36.495  31.945  32.269  1.00  0.00     0.200 A 
ATOM     88  F   UNL A   1      37.415  31.162  34.297  1.00  0.00    -0.200 F 
ATOM     89  F   UNL A   1      35.428  32.427  32.920  1.00  0.00    -0.200 F 
ENDBRANCH  55  79
BRANCH  67  90
ATOM     90  C   UNL A   1      44.918  33.905  29.551  1.00  0.00     0.064 A 
ATOM     91  C   UNL A   1      44.773  34.974  28.652  1.00  0.00     0.173 A 
ATOM     92  C   UNL A   1      45.597  34.149  30.755  1.00  0.00     0.173 A 
ATOM     93  F   UNL A   1      44.144  34.790  27.481  1.00  0.00    -0.203 F 
ATOM     94  C   UNL A   1      45.325  36.222  28.928  1.00  0.00     0.198 A 
ATOM     95  C   UNL A   1      46.118  35.408  31.042  1.00  0.00     0.198 A 
ATOM     96  F   UNL A   1      45.756  33.165  31.652  1.00  0.00    -0.203 F 
ATOM     97  F   UNL A   1      45.231  37.208  28.025  1.00  0.00    -0.200 F 
ATOM     98  C   UNL A   1      45.993  36.439  30.124  1.00  0.00     0.200 A 
ATOM     99  F   UNL A   1      46.750  35.619  32.205  1.00  0.00    -0.200 F 
ATOM    100  F   UNL A   1      46.525  37.640  30.386  1.00  0.00    -0.200 F 
ENDBRANCH  67  90
ENDBRANCH  41  42
ENDBRANCH  33  36
ENDBRANCH  31  32
ENDBRANCH  30  31
ENDBRANCH  29  30
ENDBRANCH   1  29
TORSDOF 15
ENDMDL
