MODEL 1
REMARK VINA RESULT:     -12.3      0.000      0.000
REMARK SMILES C[C@@](O)(CC1(C(=O)NCCCCNC(=O)c2ccc(-c3c4nc(c(-c5c(F)c(F)c(F)c(F)c5F)c5ccc([nH]5)c(-c5c(F)c(F)c(F)c(F)c5F)c5nc(c(-c6c(F)c(F)c(F)c(F)c6F)c6ccc3[nH]6)C=C5)C=C4)cc2)CC1)c1ccccc1
REMARK SMILES IDX 10 1 9 2 8 3 6 4 7 5 5 7 79 8 80 9 4 10 2 11 1 12 3 13 81 15
REMARK SMILES IDX 82 16 86 17 83 18 85 19 84 20 11 21 12 22 13 23 14 24 15 26
REMARK SMILES IDX 16 27 17 28 78 29 18 30 77 31 19 32 20 33 21 34 71 35 22 36
REMARK SMILES IDX 76 37 70 38 72 39 23 40 75 41 69 42 68 43 24 45 56 46 36 47
REMARK SMILES IDX 55 48 37 49 40 50 54 51 73 52 38 53 39 54 53 56 74 57 41 58
REMARK SMILES IDX 25 59 26 60 34 61 27 62 28 63 32 64 35 65 29 66 30 67 33 68
REMARK SMILES IDX 31 69 57 70 58 71 66 72 59 73 60 74 64 75 67 76 61 77 62 78
REMARK SMILES IDX 65 79 63 80 42 81 43 82 51 83 44 84 45 85 49 86 52 87 46 88
REMARK SMILES IDX 47 89 50 90 48 91
REMARK H PARENT 8 6 3 14 13 25 72 44 40 55
REMARK Flexibility Score: inf
ROOT
ATOM      1  C   UNL A   1      31.733  30.435  26.813  1.00  0.00     0.023 C 
ENDROOT
BRANCH   1   2
ATOM      2  C   UNL A   1      33.146  29.920  26.548  1.00  0.00     0.116 C 
BRANCH   2   3
ATOM      3  N   UNL A   1      33.405  29.812  25.126  1.00  0.00    -0.356 N 
ATOM      4  C   UNL A   1      33.380  28.787  24.215  1.00  0.00     0.226 C 
ATOM      5  O   UNL A   1      33.730  29.084  23.075  1.00  0.00    -0.274 OA
ATOM      6  H   UNL A   1      33.657  30.672  24.721  1.00  0.00     0.163 HD
BRANCH   4   7
ATOM      7  C   UNL A   1      32.912  27.364  24.513  1.00  0.00     0.052 C 
ATOM      8  C   UNL A   1      33.755  26.572  25.513  1.00  0.00     0.018 C 
ATOM      9  C   UNL A   1      33.735  26.158  24.074  1.00  0.00     0.018 C 
BRANCH   7  10
ATOM     10  C   UNL A   1      31.377  27.225  24.708  1.00  0.00     0.056 C 
BRANCH  10  11
ATOM     11  C   UNL A   1      30.437  27.205  23.472  1.00  0.00     0.088 C 
ATOM     12  C   UNL A   1      31.209  26.812  22.200  1.00  0.00     0.047 C 
BRANCH  11  13
ATOM     13  O   UNL A   1      29.539  26.088  23.675  1.00  0.00    -0.385 OA
ATOM     14  H   UNL A   1      29.468  25.898  24.623  1.00  0.00     0.211 HD
ENDBRANCH  11  13
BRANCH  11  15
ATOM     15  C   UNL A   1      29.555  28.450  23.373  1.00  0.00    -0.017 A 
ATOM     16  C   UNL A   1      28.190  28.309  23.056  1.00  0.00     0.007 A 
ATOM     17  C   UNL A   1      30.036  29.749  23.605  1.00  0.00     0.007 A 
ATOM     18  C   UNL A   1      27.333  29.411  23.024  1.00  0.00     0.000 A 
ATOM     19  C   UNL A   1      29.177  30.851  23.589  1.00  0.00     0.000 A 
ATOM     20  C   UNL A   1      27.825  30.682  23.305  1.00  0.00     0.000 A 
ENDBRANCH  11  15
ENDBRANCH  10  11
ENDBRANCH   7  10
ENDBRANCH   4   7
ENDBRANCH   2   3
ENDBRANCH   1   2
BRANCH   1  21
ATOM     21  C   UNL A   1      31.597  31.956  26.727  1.00  0.00     0.023 C 
BRANCH  21  22
ATOM     22  C   UNL A   1      32.770  32.738  27.308  1.00  0.00     0.116 C 
BRANCH  22  23
ATOM     23  N   UNL A   1      32.436  34.121  27.617  1.00  0.00    -0.352 N 
ATOM     24  C   UNL A   1      32.986  34.944  28.569  1.00  0.00     0.251 C 
ATOM     25  H   UNL A   1      31.719  34.518  27.072  1.00  0.00     0.163 HD
ATOM     26  O   UNL A   1      32.502  36.048  28.796  1.00  0.00    -0.269 OA
BRANCH  24  27
ATOM     27  C   UNL A   1      34.147  34.467  29.343  1.00  0.00     0.039 A 
ATOM     28  C   UNL A   1      33.927  33.832  30.566  1.00  0.00     0.014 A 
ATOM     29  C   UNL A   1      35.443  34.607  28.837  1.00  0.00     0.014 A 
ATOM     30  C   UNL A   1      35.007  33.274  31.252  1.00  0.00     0.010 A 
ATOM     31  C   UNL A   1      36.502  33.982  29.480  1.00  0.00     0.010 A 
ATOM     32  C   UNL A   1      36.295  33.310  30.695  1.00  0.00    -0.014 A 
BRANCH  32  33
ATOM     33  C   UNL A   1      37.441  32.651  31.370  1.00  0.00     0.031 A 
ATOM     34  C   UNL A   1      38.155  31.511  30.700  1.00  0.00     0.074 A 
ATOM     35  C   UNL A   1      37.799  33.041  32.608  1.00  0.00     0.049 A 
ATOM     36  N   UNL A   1      39.139  30.772  31.148  1.00  0.00    -0.248 NA
ATOM     37  C   UNL A   1      37.681  31.132  29.360  1.00  0.00     0.031 C 
ATOM     38  C   UNL A   1      37.155  34.106  33.379  1.00  0.00     0.029 A 
ATOM     39  N   UNL A   1      38.789  32.584  33.440  1.00  0.00    -0.354 N 
ATOM     40  C   UNL A   1      39.395  29.842  30.150  1.00  0.00     0.074 A 
ATOM     41  C   UNL A   1      38.420  30.064  29.103  1.00  0.00     0.031 C 
ATOM     42  C   UNL A   1      37.787  34.242  34.556  1.00  0.00     0.029 A 
ATOM     43  C   UNL A   1      38.851  33.246  34.642  1.00  0.00     0.049 A 
ATOM     44  H   UNL A   1      39.400  31.849  33.198  1.00  0.00     0.167 HD
ATOM     45  C   UNL A   1      40.372  28.906  30.097  1.00  0.00     0.037 A 
ATOM     46  C   UNL A   1      39.668  33.065  35.695  1.00  0.00     0.037 A 
ATOM     47  C   UNL A   1      41.345  28.697  31.137  1.00  0.00     0.049 A 
ATOM     48  C   UNL A   1      40.724  31.992  35.627  1.00  0.00     0.074 A 
ATOM     49  C   UNL A   1      42.403  27.806  31.163  1.00  0.00     0.029 A 
ATOM     50  N   UNL A   1      41.372  29.384  32.342  1.00  0.00    -0.354 N 
ATOM     51  N   UNL A   1      41.003  31.165  34.649  1.00  0.00    -0.248 NA
ATOM     52  C   UNL A   1      41.581  31.834  36.809  1.00  0.00     0.031 C 
ATOM     53  C   UNL A   1      43.036  27.914  32.405  1.00  0.00     0.029 A 
ATOM     54  C   UNL A   1      42.414  28.918  33.130  1.00  0.00     0.049 A 
ATOM     55  H   UNL A   1      40.745  30.098  32.600  1.00  0.00     0.167 HD
ATOM     56  C   UNL A   1      42.086  30.412  35.083  1.00  0.00     0.074 A 
ATOM     57  C   UNL A   1      42.423  30.893  36.407  1.00  0.00     0.031 C 
ATOM     58  C   UNL A   1      42.743  29.414  34.443  1.00  0.00     0.037 A 
BRANCH  45  59
ATOM     59  C   UNL A   1      40.434  28.039  28.871  1.00  0.00     0.064 A 
ATOM     60  C   UNL A   1      41.193  28.403  27.748  1.00  0.00     0.173 A 
ATOM     61  C   UNL A   1      39.744  26.817  28.826  1.00  0.00     0.173 A 
ATOM     62  F   UNL A   1      41.862  29.566  27.733  1.00  0.00    -0.203 F 
ATOM     63  C   UNL A   1      41.227  27.598  26.612  1.00  0.00     0.198 A 
ATOM     64  C   UNL A   1      39.811  25.997  27.702  1.00  0.00     0.198 A 
ATOM     65  F   UNL A   1      39.009  26.415  29.873  1.00  0.00    -0.203 F 
ATOM     66  F   UNL A   1      41.909  27.999  25.530  1.00  0.00    -0.200 F 
ATOM     67  C   UNL A   1      40.543  26.393  26.592  1.00  0.00     0.200 A 
ATOM     68  F   UNL A   1      39.161  24.825  27.690  1.00  0.00    -0.200 F 
ATOM     69  F   UNL A   1      40.582  25.616  25.501  1.00  0.00    -0.200 F 
ENDBRANCH  45  59
BRANCH  46  70
ATOM     70  C   UNL A   1      39.545  33.935  36.894  1.00  0.00     0.064 A 
ATOM     71  C   UNL A   1      38.780  33.532  37.999  1.00  0.00     0.173 A 
ATOM     72  C   UNL A   1      40.174  35.187  36.961  1.00  0.00     0.173 A 
ATOM     73  F   UNL A   1      38.142  32.352  37.976  1.00  0.00    -0.203 F 
ATOM     74  C   UNL A   1      38.630  34.357  39.111  1.00  0.00     0.198 A 
ATOM     75  C   UNL A   1      40.049  35.997  38.087  1.00  0.00     0.198 A 
ATOM     76  F   UNL A   1      40.921  35.619  35.934  1.00  0.00    -0.203 F 
ATOM     77  F   UNL A   1      37.852  33.967  40.131  1.00  0.00    -0.200 F 
ATOM     78  C   UNL A   1      39.270  35.586  39.158  1.00  0.00     0.200 A 
ATOM     79  F   UNL A   1      40.682  37.177  38.135  1.00  0.00    -0.200 F 
ATOM     80  F   UNL A   1      39.127  36.377  40.229  1.00  0.00    -0.200 F 
ENDBRANCH  46  70
BRANCH  58  81
ATOM     81  C   UNL A   1      43.921  28.801  35.146  1.00  0.00     0.064 A 
ATOM     82  C   UNL A   1      43.785  27.684  35.983  1.00  0.00     0.173 A 
ATOM     83  C   UNL A   1      45.211  29.321  34.948  1.00  0.00     0.173 A 
ATOM     84  F   UNL A   1      42.573  27.159  36.217  1.00  0.00    -0.203 F 
ATOM     85  C   UNL A   1      44.892  27.127  36.619  1.00  0.00     0.198 A 
ATOM     86  C   UNL A   1      46.318  28.739  35.557  1.00  0.00     0.198 A 
ATOM     87  F   UNL A   1      45.398  30.383  34.152  1.00  0.00    -0.203 F 
ATOM     88  F   UNL A   1      44.731  26.094  37.457  1.00  0.00    -0.200 F 
ATOM     89  C   UNL A   1      46.158  27.650  36.399  1.00  0.00     0.200 A 
ATOM     90  F   UNL A   1      47.543  29.236  35.330  1.00  0.00    -0.200 F 
ATOM     91  F   UNL A   1      47.223  27.107  37.005  1.00  0.00    -0.200 F 
ENDBRANCH  58  81
ENDBRANCH  32  33
ENDBRANCH  24  27
ENDBRANCH  22  23
ENDBRANCH  21  22
ENDBRANCH   1  21
TORSDOF 15
ENDMDL
MODEL 2
REMARK VINA RESULT:     -12.2      0.060      1.621
REMARK SMILES C[C@@](O)(CC1(C(=O)NCCCCNC(=O)c2ccc(-c3c4nc(c(-c5c(F)c(F)c(F)c(F)c5F)c5ccc([nH]5)c(-c5c(F)c(F)c(F)c(F)c5F)c5nc(c(-c6c(F)c(F)c(F)c(F)c6F)c6ccc3[nH]6)C=C5)C=C4)cc2)CC1)c1ccccc1
REMARK SMILES IDX 10 1 9 2 8 3 6 4 7 5 5 7 79 8 80 9 4 10 2 11 1 12 3 13 81 15
REMARK SMILES IDX 82 16 86 17 83 18 85 19 84 20 11 21 12 22 13 23 14 24 15 26
REMARK SMILES IDX 16 27 17 28 78 29 18 30 77 31 19 32 20 33 21 34 71 35 22 36
REMARK SMILES IDX 76 37 70 38 72 39 23 40 75 41 69 42 68 43 24 45 56 46 36 47
REMARK SMILES IDX 55 48 37 49 40 50 54 51 73 52 38 53 39 54 53 56 74 57 41 58
REMARK SMILES IDX 25 59 26 60 34 61 27 62 28 63 32 64 35 65 29 66 30 67 33 68
REMARK SMILES IDX 31 69 57 70 58 71 66 72 59 73 60 74 64 75 67 76 61 77 62 78
REMARK SMILES IDX 65 79 63 80 42 81 43 82 51 83 44 84 45 85 49 86 52 87 46 88
REMARK SMILES IDX 47 89 50 90 48 91
REMARK H PARENT 8 6 3 14 13 25 72 44 40 55
REMARK Flexibility Score: inf
ROOT
ATOM      1  C   UNL A   1      31.777  30.447  26.680  1.00  0.00     0.023 C 
ENDROOT
BRANCH   1   2
ATOM      2  C   UNL A   1      33.216  29.987  26.458  1.00  0.00     0.116 C 
BRANCH   2   3
ATOM      3  N   UNL A   1      33.494  29.805  25.046  1.00  0.00    -0.356 N 
ATOM      4  C   UNL A   1      33.453  28.740  24.183  1.00  0.00     0.226 C 
ATOM      5  O   UNL A   1      33.831  28.974  23.037  1.00  0.00    -0.274 OA
ATOM      6  H   UNL A   1      33.778  30.638  24.607  1.00  0.00     0.163 HD
BRANCH   4   7
ATOM      7  C   UNL A   1      32.939  27.347  24.537  1.00  0.00     0.052 C 
ATOM      8  C   UNL A   1      33.754  26.569  25.571  1.00  0.00     0.018 C 
ATOM      9  C   UNL A   1      33.723  26.098  24.151  1.00  0.00     0.018 C 
BRANCH   7  10
ATOM     10  C   UNL A   1      31.400  27.265  24.733  1.00  0.00     0.056 C 
BRANCH  10  11
ATOM     11  C   UNL A   1      30.463  27.205  23.496  1.00  0.00     0.088 C 
ATOM     12  C   UNL A   1      31.246  26.808  22.231  1.00  0.00     0.047 C 
BRANCH  11  13
ATOM     13  O   UNL A   1      29.589  26.073  23.716  1.00  0.00    -0.385 OA
ATOM     14  H   UNL A   1      29.299  25.717  22.862  1.00  0.00     0.211 HD
ENDBRANCH  11  13
BRANCH  11  15
ATOM     15  C   UNL A   1      29.554  28.429  23.375  1.00  0.00    -0.017 A 
ATOM     16  C   UNL A   1      28.190  28.252  23.073  1.00  0.00     0.007 A 
ATOM     17  C   UNL A   1      30.011  29.743  23.572  1.00  0.00     0.007 A 
ATOM     18  C   UNL A   1      27.311  29.336  23.023  1.00  0.00     0.000 A 
ATOM     19  C   UNL A   1      29.129  30.827  23.537  1.00  0.00     0.000 A 
ATOM     20  C   UNL A   1      27.779  30.623  23.269  1.00  0.00     0.000 A 
ENDBRANCH  11  15
ENDBRANCH  10  11
ENDBRANCH   7  10
ENDBRANCH   4   7
ENDBRANCH   2   3
ENDBRANCH   1   2
BRANCH   1  21
ATOM     21  C   UNL A   1      31.605  31.967  26.701  1.00  0.00     0.023 C 
BRANCH  21  22
ATOM     22  C   UNL A   1      32.762  32.734  27.333  1.00  0.00     0.116 C 
BRANCH  22  23
ATOM     23  N   UNL A   1      32.431  34.119  27.631  1.00  0.00    -0.352 N 
ATOM     24  C   UNL A   1      32.985  34.949  28.575  1.00  0.00     0.251 C 
ATOM     25  H   UNL A   1      31.714  34.514  27.085  1.00  0.00     0.163 HD
ATOM     26  O   UNL A   1      32.505  36.056  28.794  1.00  0.00    -0.269 OA
BRANCH  24  27
ATOM     27  C   UNL A   1      34.147  34.477  29.351  1.00  0.00     0.039 A 
ATOM     28  C   UNL A   1      33.929  33.852  30.579  1.00  0.00     0.014 A 
ATOM     29  C   UNL A   1      35.442  34.609  28.840  1.00  0.00     0.014 A 
ATOM     30  C   UNL A   1      35.008  33.298  31.267  1.00  0.00     0.010 A 
ATOM     31  C   UNL A   1      36.502  33.987  29.487  1.00  0.00     0.010 A 
ATOM     32  C   UNL A   1      36.296  33.326  30.707  1.00  0.00    -0.014 A 
BRANCH  32  33
ATOM     33  C   UNL A   1      37.442  32.670  31.385  1.00  0.00     0.031 A 
ATOM     34  C   UNL A   1      38.159  31.531  30.718  1.00  0.00     0.074 A 
ATOM     35  C   UNL A   1      37.796  33.062  32.624  1.00  0.00     0.049 A 
ATOM     36  N   UNL A   1      39.144  30.794  31.168  1.00  0.00    -0.248 NA
ATOM     37  C   UNL A   1      37.689  31.149  29.378  1.00  0.00     0.031 C 
ATOM     38  C   UNL A   1      37.148  34.127  33.392  1.00  0.00     0.029 A 
ATOM     39  N   UNL A   1      38.786  32.608  33.458  1.00  0.00    -0.354 N 
ATOM     40  C   UNL A   1      39.404  29.864  30.172  1.00  0.00     0.074 A 
ATOM     41  C   UNL A   1      38.430  30.082  29.124  1.00  0.00     0.031 C 
ATOM     42  C   UNL A   1      37.778  34.265  34.570  1.00  0.00     0.029 A 
ATOM     43  C   UNL A   1      38.844  33.271  34.659  1.00  0.00     0.049 A 
ATOM     44  H   UNL A   1      39.398  31.874  33.218  1.00  0.00     0.167 HD
ATOM     45  C   UNL A   1      40.383  28.930  30.122  1.00  0.00     0.037 A 
ATOM     46  C   UNL A   1      39.660  33.094  35.714  1.00  0.00     0.037 A 
ATOM     47  C   UNL A   1      41.354  28.724  31.164  1.00  0.00     0.049 A 
ATOM     48  C   UNL A   1      40.718  32.023  35.649  1.00  0.00     0.074 A 
ATOM     49  C   UNL A   1      42.414  27.835  31.193  1.00  0.00     0.029 A 
ATOM     50  N   UNL A   1      41.378  29.412  32.368  1.00  0.00    -0.354 N 
ATOM     51  N   UNL A   1      41.000  31.195  34.673  1.00  0.00    -0.248 NA
ATOM     52  C   UNL A   1      41.573  31.868  36.833  1.00  0.00     0.031 C 
ATOM     53  C   UNL A   1      43.045  27.946  32.436  1.00  0.00     0.029 A 
ATOM     54  C   UNL A   1      42.419  28.949  33.159  1.00  0.00     0.049 A 
ATOM     55  H   UNL A   1      40.749  30.126  32.624  1.00  0.00     0.167 HD
ATOM     56  C   UNL A   1      42.084  30.445  35.110  1.00  0.00     0.074 A 
ATOM     57  C   UNL A   1      42.417  30.928  36.434  1.00  0.00     0.031 C 
ATOM     58  C   UNL A   1      42.745  29.447  34.472  1.00  0.00     0.037 A 
BRANCH  45  59
ATOM     59  C   UNL A   1      40.448  28.061  28.897  1.00  0.00     0.064 A 
ATOM     60  C   UNL A   1      39.756  26.842  28.821  1.00  0.00     0.173 A 
ATOM     61  C   UNL A   1      41.192  28.461  27.777  1.00  0.00     0.173 A 
ATOM     62  F   UNL A   1      39.039  26.405  29.868  1.00  0.00    -0.203 F 
ATOM     63  C   UNL A   1      39.839  26.038  27.687  1.00  0.00     0.198 A 
ATOM     64  C   UNL A   1      41.243  27.672  26.630  1.00  0.00     0.198 A 
ATOM     65  F   UNL A   1      41.868  29.620  27.791  1.00  0.00    -0.203 F 
ATOM     66  F   UNL A   1      39.220  24.851  27.663  1.00  0.00    -0.200 F 
ATOM     67  C   UNL A   1      40.576  26.457  26.590  1.00  0.00     0.200 A 
ATOM     68  F   UNL A   1      41.944  28.086  25.565  1.00  0.00    -0.200 F 
ATOM     69  F   UNL A   1      40.650  25.686  25.496  1.00  0.00    -0.200 F 
ENDBRANCH  45  59
BRANCH  46  70
ATOM     70  C   UNL A   1      39.532  33.965  36.912  1.00  0.00     0.064 A 
ATOM     71  C   UNL A   1      40.181  35.208  36.967  1.00  0.00     0.173 A 
ATOM     72  C   UNL A   1      38.774  33.577  38.025  1.00  0.00     0.173 A 
ATOM     73  F   UNL A   1      40.934  35.616  35.935  1.00  0.00    -0.203 F 
ATOM     74  C   UNL A   1      40.095  36.015  38.100  1.00  0.00     0.198 A 
ATOM     75  C   UNL A   1      38.664  34.399  39.144  1.00  0.00     0.198 A 
ATOM     76  F   UNL A   1      38.130  32.400  38.022  1.00  0.00    -0.203 F 
ATOM     77  F   UNL A   1      40.766  37.174  38.145  1.00  0.00    -0.200 F 
ATOM     78  C   UNL A   1      39.332  35.613  39.185  1.00  0.00     0.200 A 
ATOM     79  F   UNL A   1      37.912  34.014  40.185  1.00  0.00    -0.200 F 
ATOM     80  F   UNL A   1      39.247  36.392  40.272  1.00  0.00    -0.200 F 
ENDBRANCH  46  70
BRANCH  58  81
ATOM     81  C   UNL A   1      43.923  28.838  35.178  1.00  0.00     0.064 A 
ATOM     82  C   UNL A   1      43.786  27.727  36.022  1.00  0.00     0.173 A 
ATOM     83  C   UNL A   1      45.212  29.354  34.975  1.00  0.00     0.173 A 
ATOM     84  F   UNL A   1      42.574  27.204  36.261  1.00  0.00    -0.203 F 
ATOM     85  C   UNL A   1      44.893  27.172  36.661  1.00  0.00     0.198 A 
ATOM     86  C   UNL A   1      46.320  28.776  35.587  1.00  0.00     0.198 A 
ATOM     87  F   UNL A   1      45.400  30.411  34.171  1.00  0.00    -0.203 F 
ATOM     88  F   UNL A   1      44.731  26.146  37.506  1.00  0.00    -0.200 F 
ATOM     89  C   UNL A   1      46.159  27.692  36.436  1.00  0.00     0.200 A 
ATOM     90  F   UNL A   1      47.545  29.269  35.355  1.00  0.00    -0.200 F 
ATOM     91  F   UNL A   1      47.224  27.152  37.045  1.00  0.00    -0.200 F 
ENDBRANCH  58  81
ENDBRANCH  32  33
ENDBRANCH  24  27
ENDBRANCH  22  23
ENDBRANCH  21  22
ENDBRANCH   1  21
TORSDOF 15
ENDMDL
MODEL 3
REMARK VINA RESULT:     -12.2      0.513      7.459
REMARK SMILES C[C@@](O)(CC1(C(=O)NCCCCNC(=O)c2ccc(-c3c4nc(c(-c5c(F)c(F)c(F)c(F)c5F)c5ccc([nH]5)c(-c5c(F)c(F)c(F)c(F)c5F)c5nc(c(-c6c(F)c(F)c(F)c(F)c6F)c6ccc3[nH]6)C=C5)C=C4)cc2)CC1)c1ccccc1
REMARK SMILES IDX 10 1 9 2 8 3 6 4 7 5 5 7 79 8 80 9 4 10 2 11 1 12 3 13 81 15
REMARK SMILES IDX 82 16 86 17 83 18 85 19 84 20 11 21 12 22 13 23 14 24 15 26
REMARK SMILES IDX 16 27 17 28 78 29 18 30 77 31 19 32 20 33 21 34 71 35 22 36
REMARK SMILES IDX 76 37 70 38 72 39 23 40 75 41 69 42 68 43 24 45 56 46 36 47
REMARK SMILES IDX 55 48 37 49 40 50 54 51 73 52 38 53 39 54 53 56 74 57 41 58
REMARK SMILES IDX 25 59 26 60 34 61 27 62 28 63 32 64 35 65 29 66 30 67 33 68
REMARK SMILES IDX 31 69 57 70 58 71 66 72 59 73 60 74 64 75 67 76 61 77 62 78
REMARK SMILES IDX 65 79 63 80 42 81 43 82 51 83 44 84 45 85 49 86 52 87 46 88
REMARK SMILES IDX 47 89 50 90 48 91
REMARK H PARENT 8 6 3 14 13 25 72 44 40 55
REMARK Flexibility Score: inf
ROOT
ATOM      1  C   UNL A   1      31.588  30.604  26.516  1.00  0.00     0.023 C 
ENDROOT
BRANCH   1   2
ATOM      2  C   UNL A   1      33.040  30.162  26.345  1.00  0.00     0.116 C 
BRANCH   2   3
ATOM      3  N   UNL A   1      33.352  29.920  24.950  1.00  0.00    -0.356 N 
ATOM      4  C   UNL A   1      33.377  28.810  24.145  1.00  0.00     0.226 C 
ATOM      5  O   UNL A   1      33.763  29.001  22.994  1.00  0.00    -0.274 OA
ATOM      6  H   UNL A   1      33.603  30.741  24.471  1.00  0.00     0.163 HD
BRANCH   4   7
ATOM      7  C   UNL A   1      32.925  27.413  24.566  1.00  0.00     0.052 C 
ATOM      8  C   UNL A   1      33.764  26.729  25.646  1.00  0.00     0.018 C 
ATOM      9  C   UNL A   1      33.770  26.185  24.251  1.00  0.00     0.018 C 
BRANCH   7  10
ATOM     10  C   UNL A   1      31.390  27.270  24.753  1.00  0.00     0.056 C 
BRANCH  10  11
ATOM     11  C   UNL A   1      30.463  27.173  23.511  1.00  0.00     0.088 C 
ATOM     12  C   UNL A   1      31.261  26.769  22.258  1.00  0.00     0.047 C 
BRANCH  11  13
ATOM     13  O   UNL A   1      29.607  26.029  23.743  1.00  0.00    -0.385 OA
ATOM     14  H   UNL A   1      29.133  26.144  24.581  1.00  0.00     0.211 HD
ENDBRANCH  11  13
BRANCH  11  15
ATOM     15  C   UNL A   1      29.534  28.379  23.363  1.00  0.00    -0.017 A 
ATOM     16  C   UNL A   1      28.165  28.172  23.102  1.00  0.00     0.007 A 
ATOM     17  C   UNL A   1      29.976  29.706  23.497  1.00  0.00     0.007 A 
ATOM     18  C   UNL A   1      27.270  29.241  23.030  1.00  0.00     0.000 A 
ATOM     19  C   UNL A   1      29.078  30.775  23.440  1.00  0.00     0.000 A 
ATOM     20  C   UNL A   1      27.725  30.542  23.213  1.00  0.00     0.000 A 
ENDBRANCH  11  15
ENDBRANCH  10  11
ENDBRANCH   7  10
ENDBRANCH   4   7
ENDBRANCH   2   3
ENDBRANCH   1   2
BRANCH   1  21
ATOM     21  C   UNL A   1      31.417  32.109  26.732  1.00  0.00     0.023 C 
BRANCH  21  22
ATOM     22  C   UNL A   1      32.661  32.830  27.237  1.00  0.00     0.116 C 
BRANCH  22  23
ATOM     23  N   UNL A   1      32.405  34.212  27.615  1.00  0.00    -0.352 N 
ATOM     24  C   UNL A   1      33.023  34.966  28.582  1.00  0.00     0.251 C 
ATOM     25  H   UNL A   1      31.692  34.667  27.112  1.00  0.00     0.163 HD
ATOM     26  O   UNL A   1      32.602  36.080  28.871  1.00  0.00    -0.269 OA
BRANCH  24  27
ATOM     27  C   UNL A   1      34.183  34.401  29.297  1.00  0.00     0.039 A 
ATOM     28  C   UNL A   1      33.962  33.642  30.447  1.00  0.00     0.014 A 
ATOM     29  C   UNL A   1      35.478  34.584  28.803  1.00  0.00     0.014 A 
ATOM     30  C   UNL A   1      35.039  33.007  31.066  1.00  0.00     0.010 A 
ATOM     31  C   UNL A   1      36.535  33.885  29.373  1.00  0.00     0.010 A 
ATOM     32  C   UNL A   1      36.326  33.091  30.511  1.00  0.00    -0.014 A 
BRANCH  32  33
ATOM     33  C   UNL A   1      37.468  32.355  31.108  1.00  0.00     0.031 A 
ATOM     34  C   UNL A   1      37.966  32.721  32.477  1.00  0.00     0.074 A 
ATOM     35  C   UNL A   1      38.092  31.400  30.392  1.00  0.00     0.049 A 
ATOM     36  N   UNL A   1      38.981  32.236  33.147  1.00  0.00    -0.248 NA
ATOM     37  C   UNL A   1      37.244  33.794  33.177  1.00  0.00     0.031 C 
ATOM     38  C   UNL A   1      37.729  30.986  29.036  1.00  0.00     0.029 A 
ATOM     39  N   UNL A   1      39.167  30.606  30.704  1.00  0.00    -0.354 N 
ATOM     40  C   UNL A   1      39.021  32.947  34.338  1.00  0.00     0.074 A 
ATOM     41  C   UNL A   1      37.973  33.943  34.272  1.00  0.00     0.031 C 
ATOM     42  C   UNL A   1      38.545  29.994  28.645  1.00  0.00     0.029 A 
ATOM     43  C   UNL A   1      39.516  29.732  29.704  1.00  0.00     0.049 A 
ATOM     44  H   UNL A   1      39.644  30.658  31.565  1.00  0.00     0.167 HD
ATOM     45  C   UNL A   1      39.838  32.768  35.403  1.00  0.00     0.037 A 
ATOM     46  C   UNL A   1      40.510  28.826  29.646  1.00  0.00     0.037 A 
ATOM     47  C   UNL A   1      40.873  31.769  35.466  1.00  0.00     0.049 A 
ATOM     48  C   UNL A   1      41.429  28.672  30.829  1.00  0.00     0.074 A 
ATOM     49  C   UNL A   1      41.726  31.476  36.515  1.00  0.00     0.029 A 
ATOM     50  N   UNL A   1      41.199  30.905  34.431  1.00  0.00    -0.354 N 
ATOM     51  N   UNL A   1      41.413  29.301  31.979  1.00  0.00    -0.248 NA
ATOM     52  C   UNL A   1      42.501  27.675  30.706  1.00  0.00     0.031 C 
ATOM     53  C   UNL A   1      42.606  30.473  36.095  1.00  0.00     0.029 A 
ATOM     54  C   UNL A   1      42.260  30.095  34.807  1.00  0.00     0.049 A 
ATOM     55  H   UNL A   1      40.745  30.870  33.559  1.00  0.00     0.167 HD
ATOM     56  C   UNL A   1      42.448  28.756  32.727  1.00  0.00     0.074 A 
ATOM     57  C   UNL A   1      43.061  27.733  31.906  1.00  0.00     0.031 C 
ATOM     58  C   UNL A   1      42.854  29.073  33.982  1.00  0.00     0.037 A 
BRANCH  45  59
ATOM     59  C   UNL A   1      39.643  33.676  36.585  1.00  0.00     0.064 A 
ATOM     60  C   UNL A   1      40.261  34.934  36.657  1.00  0.00     0.173 A 
ATOM     61  C   UNL A   1      38.811  33.294  37.648  1.00  0.00     0.173 A 
ATOM     62  F   UNL A   1      41.077  35.344  35.674  1.00  0.00    -0.203 F 
ATOM     63  C   UNL A   1      40.085  35.758  37.766  1.00  0.00     0.198 A 
ATOM     64  C   UNL A   1      38.608  34.137  38.738  1.00  0.00     0.198 A 
ATOM     65  F   UNL A   1      38.189  32.106  37.629  1.00  0.00    -0.203 F 
ATOM     66  F   UNL A   1      40.736  36.927  37.839  1.00  0.00    -0.200 F 
ATOM     67  C   UNL A   1      39.253  35.363  38.802  1.00  0.00     0.200 A 
ATOM     68  F   UNL A   1      37.791  33.759  39.732  1.00  0.00    -0.200 F 
ATOM     69  F   UNL A   1      39.080  36.159  39.866  1.00  0.00    -0.200 F 
ENDBRANCH  45  59
BRANCH  46  70
ATOM     70  C   UNL A   1      40.673  27.973  28.440  1.00  0.00     0.064 A 
ATOM     71  C   UNL A   1      40.067  26.709  28.366  1.00  0.00     0.173 A 
ATOM     72  C   UNL A   1      41.440  28.391  27.343  1.00  0.00     0.173 A 
ATOM     73  F   UNL A   1      39.339  26.256  29.398  1.00  0.00    -0.203 F 
ATOM     74  C   UNL A   1      40.243  25.889  27.254  1.00  0.00     0.198 A 
ATOM     75  C   UNL A   1      41.589  27.583  26.218  1.00  0.00     0.198 A 
ATOM     76  F   UNL A   1      42.037  29.592  27.359  1.00  0.00    -0.203 F 
ATOM     77  F   UNL A   1      39.695  24.667  27.233  1.00  0.00    -0.200 F 
ATOM     78  C   UNL A   1      40.999  26.328  26.178  1.00  0.00     0.200 A 
ATOM     79  F   UNL A   1      42.308  28.018  25.174  1.00  0.00    -0.200 F 
ATOM     80  F   UNL A   1      41.166  25.540  25.108  1.00  0.00    -0.200 F 
ENDBRANCH  46  70
BRANCH  58  81
ATOM     81  C   UNL A   1      43.988  28.276  34.562  1.00  0.00     0.064 A 
ATOM     82  C   UNL A   1      45.319  28.708  34.471  1.00  0.00     0.173 A 
ATOM     83  C   UNL A   1      43.731  27.081  35.252  1.00  0.00     0.173 A 
ATOM     84  F   UNL A   1      45.619  29.836  33.810  1.00  0.00    -0.203 F 
ATOM     85  C   UNL A   1      46.354  27.958  35.023  1.00  0.00     0.198 A 
ATOM     86  C   UNL A   1      44.765  26.353  35.833  1.00  0.00     0.198 A 
ATOM     87  F   UNL A   1      42.475  26.626  35.375  1.00  0.00    -0.203 F 
ATOM     88  F   UNL A   1      47.623  28.362  34.876  1.00  0.00    -0.200 F 
ATOM     89  C   UNL A   1      46.076  26.786  35.711  1.00  0.00     0.200 A 
ATOM     90  F   UNL A   1      44.491  25.229  36.512  1.00  0.00    -0.200 F 
ATOM     91  F   UNL A   1      47.073  26.070  36.249  1.00  0.00    -0.200 F 
ENDBRANCH  58  81
ENDBRANCH  32  33
ENDBRANCH  24  27
ENDBRANCH  22  23
ENDBRANCH  21  22
ENDBRANCH   1  21
TORSDOF 15
ENDMDL
