MODEL 1
REMARK VINA RESULT:     -11.1      0.000      0.000
REMARK SMILES CCC(CC)(CC)NC(=O)NC[C@@H]1CC[C@H](C(=O)NCCCCNC(=O)c2ccc(-c3c4nc(c(-c5c(F)c(F)c(F)c(F)c5F)c5ccc([nH]5)c(-c5c(F)c(F)c(F)c(F)c5F)c5nc(c(-c6c(F)c(F)c(F)c(F)c6F)c6ccc3[nH]6)C=C5)C=C4)cc2)O1
REMARK SMILES IDX 20 1 19 2 17 3 18 4 16 6 13 7 14 8 90 9 15 10 12 11 11 12
REMARK SMILES IDX 8 13 9 14 10 16 3 18 2 19 1 20 4 21 5 22 6 23 7 24 21 25
REMARK SMILES IDX 22 26 23 27 24 28 25 29 26 31 27 32 28 33 89 34 29 35 88 36
REMARK SMILES IDX 30 37 31 38 32 39 82 40 33 41 87 42 81 43 83 44 34 45 86 46
REMARK SMILES IDX 80 47 79 48 35 50 67 51 47 52 66 53 48 54 51 55 65 56 84 57
REMARK SMILES IDX 49 58 50 59 64 61 85 62 52 63 36 64 37 65 45 66 38 67 39 68
REMARK SMILES IDX 43 69 46 70 40 71 41 72 44 73 42 74 68 75 69 76 77 77 70 78
REMARK SMILES IDX 71 79 75 80 78 81 72 82 73 83 76 84 74 85 53 86 54 87 62 88
REMARK SMILES IDX 55 89 56 90 60 91 63 92 57 93 58 94 61 95 59 96
REMARK H PARENT 19 5 8 15 11 17 24 30 83 49 51 60
REMARK Flexibility Score: inf
ROOT
ATOM      1  C   UNL A   1      33.848  29.070  26.874  1.00  0.00     0.116 C 
ENDROOT
BRANCH   1   2
ATOM      2  N   UNL A   1      33.942  29.220  25.440  1.00  0.00    -0.354 N 
ATOM      3  C   UNL A   1      32.969  29.105  24.488  1.00  0.00     0.249 C 
ATOM      4  O   UNL A   1      33.292  29.328  23.318  1.00  0.00    -0.272 OA
ATOM      5  H   UNL A   1      34.839  29.435  25.099  1.00  0.00     0.163 HD
BRANCH   3   6
ATOM      6  C   UNL A   1      31.538  28.641  24.840  1.00  0.00     0.207 C 
ATOM      7  C   UNL A   1      30.254  26.705  24.522  1.00  0.00     0.138 C 
ATOM      8  C   UNL A   1      30.010  27.601  23.315  1.00  0.00     0.037 C 
ATOM      9  O   UNL A   1      31.404  27.262  25.192  1.00  0.00    -0.363 OA
ATOM     10  C   UNL A   1      30.552  28.945  23.725  1.00  0.00     0.045 C 
BRANCH   7  11
ATOM     11  C   UNL A   1      30.547  25.231  24.166  1.00  0.00     0.149 C 
BRANCH  11  12
ATOM     12  N   UNL A   1      30.278  24.312  25.251  1.00  0.00    -0.336 N 
ATOM     13  N   UNL A   1      32.289  23.762  26.409  1.00  0.00    -0.333 N 
ATOM     14  C   UNL A   1      30.968  23.857  26.292  1.00  0.00     0.315 C 
ATOM     15  H   UNL A   1      32.497  23.487  27.331  1.00  0.00     0.165 HD
ATOM     16  O   UNL A   1      30.307  23.445  27.252  1.00  0.00    -0.249 OA
ATOM     17  H   UNL A   1      29.369  23.935  25.208  1.00  0.00     0.165 HD
BRANCH  13  18
ATOM     18  C   UNL A   1      33.571  23.916  25.667  1.00  0.00     0.041 C 
BRANCH  18  19
ATOM     19  C   UNL A   1      33.907  25.357  25.220  1.00  0.00     0.025 C 
ATOM     20  C   UNL A   1      34.028  25.555  23.711  1.00  0.00     0.006 C 
ENDBRANCH  18  19
BRANCH  18  21
ATOM     21  C   UNL A   1      33.395  23.042  24.363  1.00  0.00     0.025 C 
ATOM     22  C   UNL A   1      33.129  21.554  24.575  1.00  0.00     0.006 C 
ENDBRANCH  18  21
BRANCH  18  23
ATOM     23  C   UNL A   1      34.747  23.275  26.477  1.00  0.00     0.025 C 
ATOM     24  C   UNL A   1      36.153  23.384  25.902  1.00  0.00     0.006 C 
ENDBRANCH  18  23
ENDBRANCH  13  18
ENDBRANCH  11  12
ENDBRANCH   7  11
ENDBRANCH   3   6
ENDBRANCH   1   2
BRANCH   1  25
ATOM     25  C   UNL A   1      34.512  30.224  27.627  1.00  0.00     0.023 C 
BRANCH  25  26
ATOM     26  C   UNL A   1      33.560  31.380  27.916  1.00  0.00     0.023 C 
BRANCH  26  27
ATOM     27  C   UNL A   1      33.970  32.698  27.268  1.00  0.00     0.116 C 
BRANCH  27  28
ATOM     28  N   UNL A   1      33.123  33.830  27.624  1.00  0.00    -0.352 N 
ATOM     29  C   UNL A   1      33.280  34.661  28.713  1.00  0.00     0.251 C 
ATOM     30  H   UNL A   1      32.363  34.019  27.028  1.00  0.00     0.163 HD
ATOM     31  O   UNL A   1      32.484  35.560  28.960  1.00  0.00    -0.269 OA
BRANCH  29  32
ATOM     32  C   UNL A   1      34.419  34.390  29.612  1.00  0.00     0.039 A 
ATOM     33  C   UNL A   1      34.193  33.676  30.790  1.00  0.00     0.014 A 
ATOM     34  C   UNL A   1      35.715  34.673  29.177  1.00  0.00     0.014 A 
ATOM     35  C   UNL A   1      35.283  33.157  31.491  1.00  0.00     0.010 A 
ATOM     36  C   UNL A   1      36.792  34.093  29.837  1.00  0.00     0.010 A 
ATOM     37  C   UNL A   1      36.585  33.313  30.988  1.00  0.00    -0.014 A 
BRANCH  37  38
ATOM     38  C   UNL A   1      37.754  32.659  31.628  1.00  0.00     0.031 A 
ATOM     39  C   UNL A   1      38.418  31.499  30.946  1.00  0.00     0.074 A 
ATOM     40  C   UNL A   1      38.148  33.035  32.861  1.00  0.00     0.049 A 
ATOM     41  N   UNL A   1      39.343  30.691  31.396  1.00  0.00    -0.248 NA
ATOM     42  C   UNL A   1      37.950  31.183  29.587  1.00  0.00     0.031 C 
ATOM     43  C   UNL A   1      37.555  34.116  33.650  1.00  0.00     0.029 A 
ATOM     44  N   UNL A   1      39.130  32.531  33.679  1.00  0.00    -0.354 N 
ATOM     45  C   UNL A   1      39.544  29.756  30.391  1.00  0.00     0.074 A 
ATOM     46  C   UNL A   1      38.616  30.069  29.326  1.00  0.00     0.031 C 
ATOM     47  C   UNL A   1      38.193  34.204  34.829  1.00  0.00     0.029 A 
ATOM     48  C   UNL A   1      39.212  33.161  34.898  1.00  0.00     0.049 A 
ATOM     49  H   UNL A   1      39.720  31.788  33.416  1.00  0.00     0.167 HD
ATOM     50  C   UNL A   1      40.437  28.739  30.352  1.00  0.00     0.037 A 
ATOM     51  C   UNL A   1      40.010  32.914  35.954  1.00  0.00     0.037 A 
ATOM     52  C   UNL A   1      41.389  28.458  31.391  1.00  0.00     0.049 A 
ATOM     53  C   UNL A   1      41.007  31.788  35.879  1.00  0.00     0.074 A 
ATOM     54  C   UNL A   1      42.382  27.495  31.413  1.00  0.00     0.029 A 
ATOM     55  N   UNL A   1      41.470  29.148  32.591  1.00  0.00    -0.354 N 
ATOM     56  N   UNL A   1      41.227  30.946  34.900  1.00  0.00    -0.248 NA
ATOM     57  C   UNL A   1      41.863  31.578  37.055  1.00  0.00     0.031 C 
ATOM     58  C   UNL A   1      43.045  27.581  32.642  1.00  0.00     0.029 A 
ATOM     59  C   UNL A   1      42.490  28.622  33.367  1.00  0.00     0.049 A 
ATOM     60  H   UNL A   1      40.890  29.899  32.852  1.00  0.00     0.167 HD
ATOM     61  C   UNL A   1      42.265  30.129  35.325  1.00  0.00     0.074 A 
ATOM     62  C   UNL A   1      42.635  30.576  36.652  1.00  0.00     0.031 C 
ATOM     63  C   UNL A   1      42.858  29.099  34.675  1.00  0.00     0.037 A 
BRANCH  50  64
ATOM     64  C   UNL A   1      40.427  27.859  29.137  1.00  0.00     0.064 A 
ATOM     65  C   UNL A   1      39.641  26.699  29.079  1.00  0.00     0.173 A 
ATOM     66  C   UNL A   1      41.192  28.194  28.010  1.00  0.00     0.173 A 
ATOM     67  F   UNL A   1      38.904  26.329  30.137  1.00  0.00    -0.203 F 
ATOM     68  C   UNL A   1      39.643  25.890  27.946  1.00  0.00     0.198 A 
ATOM     69  C   UNL A   1      41.169  27.398  26.869  1.00  0.00     0.198 A 
ATOM     70  F   UNL A   1      41.957  29.295  28.015  1.00  0.00    -0.203 F 
ATOM     71  F   UNL A   1      38.923  24.760  27.932  1.00  0.00    -0.200 F 
ATOM     72  C   UNL A   1      40.402  26.244  26.840  1.00  0.00     0.200 A 
ATOM     73  F   UNL A   1      41.895  27.746  25.797  1.00  0.00    -0.200 F 
ATOM     74  F   UNL A   1      40.400  25.465  25.749  1.00  0.00    -0.200 F 
ENDBRANCH  50  64
BRANCH  51  75
ATOM     75  C   UNL A   1      39.919  33.764  37.170  1.00  0.00     0.064 A 
ATOM     76  C   UNL A   1      40.735  34.895  37.316  1.00  0.00     0.173 A 
ATOM     77  C   UNL A   1      39.024  33.466  38.207  1.00  0.00     0.173 A 
ATOM     78  F   UNL A   1      41.621  35.208  36.360  1.00  0.00    -0.203 F 
ATOM     79  C   UNL A   1      40.672  35.686  38.461  1.00  0.00     0.198 A 
ATOM     80  C   UNL A   1      38.945  34.271  39.342  1.00  0.00     0.198 A 
ATOM     81  F   UNL A   1      38.219  32.398  38.113  1.00  0.00    -0.203 F 
ATOM     82  F   UNL A   1      41.491  36.738  38.593  1.00  0.00    -0.200 F 
ATOM     83  C   UNL A   1      39.773  35.376  39.471  1.00  0.00     0.200 A 
ATOM     84  F   UNL A   1      38.067  33.976  40.311  1.00  0.00    -0.200 F 
ATOM     85  F   UNL A   1      39.710  36.138  40.572  1.00  0.00    -0.200 F 
ENDBRANCH  51  75
BRANCH  63  86
ATOM     86  C   UNL A   1      44.001  28.413  35.360  1.00  0.00     0.064 A 
ATOM     87  C   UNL A   1      45.325  28.833  35.177  1.00  0.00     0.173 A 
ATOM     88  C   UNL A   1      43.759  27.373  36.270  1.00  0.00     0.173 A 
ATOM     89  F   UNL A   1      45.607  29.814  34.305  1.00  0.00    -0.203 F 
ATOM     90  C   UNL A   1      46.368  28.230  35.874  1.00  0.00     0.198 A 
ATOM     91  C   UNL A   1      44.800  26.788  36.983  1.00  0.00     0.198 A 
ATOM     92  F   UNL A   1      42.507  26.941  36.483  1.00  0.00    -0.203 F 
ATOM     93  F   UNL A   1      47.631  28.629  35.663  1.00  0.00    -0.200 F 
ATOM     94  C   UNL A   1      46.104  27.216  36.782  1.00  0.00     0.200 A 
ATOM     95  F   UNL A   1      44.543  25.816  37.868  1.00  0.00    -0.200 F 
ATOM     96  F   UNL A   1      47.109  26.647  37.464  1.00  0.00    -0.200 F 
ENDBRANCH  63  86
ENDBRANCH  37  38
ENDBRANCH  29  32
ENDBRANCH  27  28
ENDBRANCH  26  27
ENDBRANCH  25  26
ENDBRANCH   1  25
TORSDOF 17
ENDMDL
MODEL 2
REMARK VINA RESULT:     -11.0      5.650     10.060
REMARK SMILES CCC(CC)(CC)NC(=O)NC[C@@H]1CC[C@H](C(=O)NCCCCNC(=O)c2ccc(-c3c4nc(c(-c5c(F)c(F)c(F)c(F)c5F)c5ccc([nH]5)c(-c5c(F)c(F)c(F)c(F)c5F)c5nc(c(-c6c(F)c(F)c(F)c(F)c6F)c6ccc3[nH]6)C=C5)C=C4)cc2)O1
REMARK SMILES IDX 20 1 19 2 17 3 18 4 16 6 13 7 14 8 90 9 15 10 12 11 11 12
REMARK SMILES IDX 8 13 9 14 10 16 3 18 2 19 1 20 4 21 5 22 6 23 7 24 21 25
REMARK SMILES IDX 22 26 23 27 24 28 25 29 26 31 27 32 28 33 89 34 29 35 88 36
REMARK SMILES IDX 30 37 31 38 32 39 82 40 33 41 87 42 81 43 83 44 34 45 86 46
REMARK SMILES IDX 80 47 79 48 35 50 67 51 47 52 66 53 48 54 51 55 65 56 84 57
REMARK SMILES IDX 49 58 50 59 64 61 85 62 52 63 36 64 37 65 45 66 38 67 39 68
REMARK SMILES IDX 43 69 46 70 40 71 41 72 44 73 42 74 68 75 69 76 77 77 70 78
REMARK SMILES IDX 71 79 75 80 78 81 72 82 73 83 76 84 74 85 53 86 54 87 62 88
REMARK SMILES IDX 55 89 56 90 60 91 63 92 57 93 58 94 61 95 59 96
REMARK H PARENT 19 5 8 15 11 17 24 30 83 49 51 60
REMARK Flexibility Score: inf
ROOT
ATOM      1  C   UNL A   1      37.270  22.591  25.445  1.00  0.00     0.116 C 
ENDROOT
BRANCH   1   2
ATOM      2  N   UNL A   1      36.205  22.221  26.347  1.00  0.00    -0.354 N 
ATOM      3  C   UNL A   1      35.002  21.634  26.078  1.00  0.00     0.249 C 
ATOM      4  O   UNL A   1      34.270  21.372  27.038  1.00  0.00    -0.272 OA
ATOM      5  H   UNL A   1      36.370  22.424  27.296  1.00  0.00     0.163 HD
BRANCH   3   6
ATOM      6  C   UNL A   1      34.530  21.374  24.630  1.00  0.00     0.207 C 
ATOM      7  C   UNL A   1      32.839  22.184  23.222  1.00  0.00     0.138 C 
ATOM      8  C   UNL A   1      32.260  20.988  23.966  1.00  0.00     0.037 C 
ATOM      9  O   UNL A   1      34.058  22.520  23.918  1.00  0.00    -0.363 OA
ATOM     10  C   UNL A   1      33.457  20.299  24.566  1.00  0.00     0.045 C 
BRANCH   7  11
ATOM     11  C   UNL A   1      31.916  23.423  23.204  1.00  0.00     0.149 C 
BRANCH  11  12
ATOM     12  N   UNL A   1      32.259  24.382  22.176  1.00  0.00    -0.336 N 
ATOM     13  N   UNL A   1      33.400  26.254  23.115  1.00  0.00    -0.333 N 
ATOM     14  C   UNL A   1      33.038  25.457  22.114  1.00  0.00     0.315 C 
ATOM     15  H   UNL A   1      34.061  26.898  22.773  1.00  0.00     0.165 HD
ATOM     16  O   UNL A   1      33.451  25.773  20.992  1.00  0.00    -0.249 OA
ATOM     17  H   UNL A   1      31.809  24.193  21.321  1.00  0.00     0.165 HD
BRANCH  13  18
ATOM     18  C   UNL A   1      33.180  26.536  24.561  1.00  0.00     0.041 C 
BRANCH  18  19
ATOM     19  C   UNL A   1      33.787  25.502  25.536  1.00  0.00     0.025 C 
ATOM     20  C   UNL A   1      32.770  24.668  26.311  1.00  0.00     0.006 C 
ENDBRANCH  18  19
BRANCH  18  21
ATOM     21  C   UNL A   1      31.612  26.503  24.748  1.00  0.00     0.025 C 
ATOM     22  C   UNL A   1      30.981  27.731  25.399  1.00  0.00     0.006 C 
ENDBRANCH  18  21
BRANCH  18  23
ATOM     23  C   UNL A   1      33.638  27.992  24.906  1.00  0.00     0.025 C 
ATOM     24  C   UNL A   1      34.288  28.234  26.262  1.00  0.00     0.006 C 
ENDBRANCH  18  23
ENDBRANCH  13  18
ENDBRANCH  11  12
ENDBRANCH   7  11
ENDBRANCH   3   6
ENDBRANCH   1   2
BRANCH   1  25
ATOM     25  C   UNL A   1      37.724  21.425  24.566  1.00  0.00     0.023 C 
BRANCH  25  26
ATOM     26  C   UNL A   1      38.222  20.227  25.366  1.00  0.00     0.023 C 
BRANCH  26  27
ATOM     27  C   UNL A   1      39.618  20.407  25.952  1.00  0.00     0.116 C 
BRANCH  27  28
ATOM     28  N   UNL A   1      40.442  19.205  25.921  1.00  0.00    -0.352 N 
ATOM     29  C   UNL A   1      41.806  19.142  26.106  1.00  0.00     0.251 C 
ATOM     30  H   UNL A   1      39.977  18.354  25.749  1.00  0.00     0.163 HD
ATOM     31  O   UNL A   1      42.423  18.086  26.011  1.00  0.00    -0.269 OA
BRANCH  29  32
ATOM     32  C   UNL A   1      42.513  20.410  26.369  1.00  0.00     0.039 A 
ATOM     33  C   UNL A   1      43.039  21.125  25.291  1.00  0.00     0.014 A 
ATOM     34  C   UNL A   1      42.469  20.965  27.649  1.00  0.00     0.014 A 
ATOM     35  C   UNL A   1      43.438  22.449  25.481  1.00  0.00     0.010 A 
ATOM     36  C   UNL A   1      42.798  22.305  27.818  1.00  0.00     0.010 A 
ATOM     37  C   UNL A   1      43.267  23.065  26.732  1.00  0.00    -0.014 A 
BRANCH  37  38
ATOM     38  C   UNL A   1      43.548  24.508  26.938  1.00  0.00     0.031 A 
ATOM     39  C   UNL A   1      44.933  25.033  26.695  1.00  0.00     0.074 A 
ATOM     40  C   UNL A   1      42.596  25.317  27.442  1.00  0.00     0.049 A 
ATOM     41  N   UNL A   1      45.430  26.214  26.959  1.00  0.00    -0.248 NA
ATOM     42  C   UNL A   1      45.898  24.091  26.107  1.00  0.00     0.031 C 
ATOM     43  C   UNL A   1      41.225  24.918  27.765  1.00  0.00     0.029 A 
ATOM     44  N   UNL A   1      42.643  26.644  27.792  1.00  0.00    -0.354 N 
ATOM     45  C   UNL A   1      46.769  26.145  26.602  1.00  0.00     0.074 A 
ATOM     46  C   UNL A   1      47.017  24.796  26.141  1.00  0.00     0.031 C 
ATOM     47  C   UNL A   1      40.560  25.978  28.252  1.00  0.00     0.029 A 
ATOM     48  C   UNL A   1      41.465  27.121  28.315  1.00  0.00     0.049 A 
ATOM     49  H   UNL A   1      43.447  27.202  27.680  1.00  0.00     0.167 HD
ATOM     50  C   UNL A   1      47.702  27.125  26.636  1.00  0.00     0.037 A 
ATOM     51  C   UNL A   1      41.157  28.339  28.800  1.00  0.00     0.037 A 
ATOM     52  C   UNL A   1      47.442  28.476  27.050  1.00  0.00     0.049 A 
ATOM     53  C   UNL A   1      42.207  29.417  28.811  1.00  0.00     0.074 A 
ATOM     54  C   UNL A   1      48.303  29.559  27.052  1.00  0.00     0.029 A 
ATOM     55  N   UNL A   1      46.222  28.931  27.530  1.00  0.00    -0.354 N 
ATOM     56  N   UNL A   1      43.456  29.356  28.416  1.00  0.00    -0.248 NA
ATOM     57  C   UNL A   1      41.808  30.731  29.335  1.00  0.00     0.031 C 
ATOM     58  C   UNL A   1      47.614  30.663  27.563  1.00  0.00     0.029 A 
ATOM     59  C   UNL A   1      46.313  30.277  27.843  1.00  0.00     0.049 A 
ATOM     60  H   UNL A   1      45.414  28.379  27.632  1.00  0.00     0.167 HD
ATOM     61  C   UNL A   1      43.981  30.625  28.613  1.00  0.00     0.074 A 
ATOM     62  C   UNL A   1      42.916  31.440  29.161  1.00  0.00     0.031 C 
ATOM     63  C   UNL A   1      45.234  31.076  28.364  1.00  0.00     0.037 A 
BRANCH  50  64
ATOM     64  C   UNL A   1      49.093  26.767  26.205  1.00  0.00     0.064 A 
ATOM     65  C   UNL A   1      50.018  26.209  27.100  1.00  0.00     0.173 A 
ATOM     66  C   UNL A   1      49.497  26.960  24.876  1.00  0.00     0.173 A 
ATOM     67  F   UNL A   1      49.683  26.019  28.385  1.00  0.00    -0.203 F 
ATOM     68  C   UNL A   1      51.307  25.884  26.687  1.00  0.00     0.198 A 
ATOM     69  C   UNL A   1      50.778  26.608  24.460  1.00  0.00     0.198 A 
ATOM     70  F   UNL A   1      48.649  27.487  23.980  1.00  0.00    -0.203 F 
ATOM     71  F   UNL A   1      52.189  25.399  27.572  1.00  0.00    -0.200 F 
ATOM     72  C   UNL A   1      51.683  26.078  25.367  1.00  0.00     0.200 A 
ATOM     73  F   UNL A   1      51.138  26.785  23.181  1.00  0.00    -0.200 F 
ATOM     74  F   UNL A   1      52.924  25.761  24.970  1.00  0.00    -0.200 F 
ENDBRANCH  50  64
BRANCH  51  75
ATOM     75  C   UNL A   1      39.784  28.617  29.297  1.00  0.00     0.064 A 
ATOM     76  C   UNL A   1      38.802  29.129  28.437  1.00  0.00     0.173 A 
ATOM     77  C   UNL A   1      39.426  28.381  30.632  1.00  0.00     0.173 A 
ATOM     78  F   UNL A   1      39.102  29.391  27.158  1.00  0.00    -0.203 F 
ATOM     79  C   UNL A   1      37.517  29.412  28.899  1.00  0.00     0.198 A 
ATOM     80  C   UNL A   1      38.134  28.642  31.087  1.00  0.00     0.198 A 
ATOM     81  F   UNL A   1      40.328  27.887  31.492  1.00  0.00    -0.203 F 
ATOM     82  F   UNL A   1      36.609  29.939  28.067  1.00  0.00    -0.200 F 
ATOM     83  C   UNL A   1      37.184  29.163  30.222  1.00  0.00     0.200 A 
ATOM     84  F   UNL A   1      37.811  28.389  32.363  1.00  0.00    -0.200 F 
ATOM     85  F   UNL A   1      35.947  29.432  30.665  1.00  0.00    -0.200 F 
ENDBRANCH  51  75
BRANCH  63  86
ATOM     86  C   UNL A   1      45.517  32.523  28.630  1.00  0.00     0.064 A 
ATOM     87  C   UNL A   1      46.072  32.951  29.843  1.00  0.00     0.173 A 
ATOM     88  C   UNL A   1      45.301  33.481  27.628  1.00  0.00     0.173 A 
ATOM     89  F   UNL A   1      46.283  32.073  30.836  1.00  0.00    -0.203 F 
ATOM     90  C   UNL A   1      46.393  34.290  30.048  1.00  0.00     0.198 A 
ATOM     91  C   UNL A   1      45.644  34.815  27.827  1.00  0.00     0.198 A 
ATOM     92  F   UNL A   1      44.776  33.118  26.448  1.00  0.00    -0.203 F 
ATOM     93  F   UNL A   1      46.899  34.683  31.226  1.00  0.00    -0.200 F 
ATOM     94  C   UNL A   1      46.188  35.218  29.037  1.00  0.00     0.200 A 
ATOM     95  F   UNL A   1      45.456  35.708  26.846  1.00  0.00    -0.200 F 
ATOM     96  F   UNL A   1      46.513  36.504  29.231  1.00  0.00    -0.200 F 
ENDBRANCH  63  86
ENDBRANCH  37  38
ENDBRANCH  29  32
ENDBRANCH  27  28
ENDBRANCH  26  27
ENDBRANCH  25  26
ENDBRANCH   1  25
TORSDOF 17
ENDMDL
MODEL 3
REMARK VINA RESULT:     -11.0      5.739     10.967
REMARK SMILES CCC(CC)(CC)NC(=O)NC[C@@H]1CC[C@H](C(=O)NCCCCNC(=O)c2ccc(-c3c4nc(c(-c5c(F)c(F)c(F)c(F)c5F)c5ccc([nH]5)c(-c5c(F)c(F)c(F)c(F)c5F)c5nc(c(-c6c(F)c(F)c(F)c(F)c6F)c6ccc3[nH]6)C=C5)C=C4)cc2)O1
REMARK SMILES IDX 20 1 19 2 17 3 18 4 16 6 13 7 14 8 90 9 15 10 12 11 11 12
REMARK SMILES IDX 8 13 9 14 10 16 3 18 2 19 1 20 4 21 5 22 6 23 7 24 21 25
REMARK SMILES IDX 22 26 23 27 24 28 25 29 26 31 27 32 28 33 89 34 29 35 88 36
REMARK SMILES IDX 30 37 31 38 32 39 82 40 33 41 87 42 81 43 83 44 34 45 86 46
REMARK SMILES IDX 80 47 79 48 35 50 67 51 47 52 66 53 48 54 51 55 65 56 84 57
REMARK SMILES IDX 49 58 50 59 64 61 85 62 52 63 36 64 37 65 45 66 38 67 39 68
REMARK SMILES IDX 43 69 46 70 40 71 41 72 44 73 42 74 68 75 69 76 77 77 70 78
REMARK SMILES IDX 71 79 75 80 78 81 72 82 73 83 76 84 74 85 53 86 54 87 62 88
REMARK SMILES IDX 55 89 56 90 60 91 63 92 57 93 58 94 61 95 59 96
REMARK H PARENT 19 5 8 15 11 17 24 30 83 49 51 60
REMARK Flexibility Score: inf
ROOT
ATOM      1  C   UNL A   1      36.770  23.456  25.352  1.00  0.00     0.116 C 
ENDROOT
BRANCH   1   2
ATOM      2  N   UNL A   1      35.930  22.810  26.334  1.00  0.00    -0.354 N 
ATOM      3  C   UNL A   1      34.926  21.901  26.157  1.00  0.00     0.249 C 
ATOM      4  O   UNL A   1      34.380  21.454  27.170  1.00  0.00    -0.272 OA
ATOM      5  H   UNL A   1      36.106  23.064  27.268  1.00  0.00     0.163 HD
BRANCH   3   6
ATOM      6  C   UNL A   1      34.434  21.497  24.750  1.00  0.00     0.207 C 
ATOM      7  C   UNL A   1      32.731  22.176  23.287  1.00  0.00     0.138 C 
ATOM      8  C   UNL A   1      32.151  21.069  24.157  1.00  0.00     0.037 C 
ATOM      9  O   UNL A   1      33.963  22.569  23.929  1.00  0.00    -0.363 OA
ATOM     10  C   UNL A   1      33.350  20.433  24.811  1.00  0.00     0.045 C 
BRANCH   7  11
ATOM     11  C   UNL A   1      31.820  23.416  23.152  1.00  0.00     0.149 C 
BRANCH  11  12
ATOM     12  N   UNL A   1      32.182  24.279  22.048  1.00  0.00    -0.336 N 
ATOM     13  N   UNL A   1      32.571  26.505  22.811  1.00  0.00    -0.333 N 
ATOM     14  C   UNL A   1      32.676  25.508  21.937  1.00  0.00     0.315 C 
ATOM     15  H   UNL A   1      33.129  27.252  22.493  1.00  0.00     0.165 HD
ATOM     16  O   UNL A   1      33.278  25.766  20.888  1.00  0.00    -0.249 OA
ATOM     17  H   UNL A   1      32.025  23.856  21.173  1.00  0.00     0.165 HD
BRANCH  13  18
ATOM     18  C   UNL A   1      31.927  26.914  24.089  1.00  0.00     0.041 C 
BRANCH  18  19
ATOM     19  C   UNL A   1      30.384  26.825  24.110  1.00  0.00     0.025 C 
ATOM     20  C   UNL A   1      29.801  25.954  25.220  1.00  0.00     0.006 C 
ENDBRANCH  18  19
BRANCH  18  21
ATOM     21  C   UNL A   1      32.319  28.433  24.275  1.00  0.00     0.025 C 
ATOM     22  C   UNL A   1      33.472  28.945  23.416  1.00  0.00     0.006 C 
ENDBRANCH  18  21
BRANCH  18  23
ATOM     23  C   UNL A   1      32.565  26.140  25.290  1.00  0.00     0.025 C 
ATOM     24  C   UNL A   1      34.060  25.851  25.240  1.00  0.00     0.006 C 
ENDBRANCH  18  23
ENDBRANCH  13  18
ENDBRANCH  11  12
ENDBRANCH   7  11
ENDBRANCH   3   6
ENDBRANCH   1   2
BRANCH   1  25
ATOM     25  C   UNL A   1      38.247  23.100  25.521  1.00  0.00     0.023 C 
BRANCH  25  26
ATOM     26  C   UNL A   1      38.527  21.607  25.380  1.00  0.00     0.023 C 
BRANCH  26  27
ATOM     27  C   UNL A   1      39.368  21.024  26.510  1.00  0.00     0.116 C 
BRANCH  27  28
ATOM     28  N   UNL A   1      40.046  19.779  26.171  1.00  0.00    -0.352 N 
ATOM     29  C   UNL A   1      41.409  19.581  26.101  1.00  0.00     0.251 C 
ATOM     30  H   UNL A   1      39.474  19.003  25.972  1.00  0.00     0.163 HD
ATOM     31  O   UNL A   1      41.888  18.506  25.757  1.00  0.00    -0.269 OA
BRANCH  29  32
ATOM     32  C   UNL A   1      42.277  20.736  26.402  1.00  0.00     0.039 A 
ATOM     33  C   UNL A   1      42.699  21.554  25.353  1.00  0.00     0.014 A 
ATOM     34  C   UNL A   1      42.493  21.101  27.732  1.00  0.00     0.014 A 
ATOM     35  C   UNL A   1      43.259  22.799  25.642  1.00  0.00     0.010 A 
ATOM     36  C   UNL A   1      42.982  22.370  28.015  1.00  0.00     0.010 A 
ATOM     37  C   UNL A   1      43.351  23.239  26.973  1.00  0.00    -0.014 A 
BRANCH  37  38
ATOM     38  C   UNL A   1      43.811  24.609  27.314  1.00  0.00     0.031 A 
ATOM     39  C   UNL A   1      42.814  25.627  27.786  1.00  0.00     0.074 A 
ATOM     40  C   UNL A   1      45.092  24.965  27.098  1.00  0.00     0.049 A 
ATOM     41  N   UNL A   1      42.971  26.911  27.985  1.00  0.00    -0.248 NA
ATOM     42  C   UNL A   1      41.447  25.141  28.032  1.00  0.00     0.031 C 
ATOM     43  C   UNL A   1      46.147  24.082  26.597  1.00  0.00     0.029 A 
ATOM     44  N   UNL A   1      45.722  26.176  27.252  1.00  0.00    -0.354 N 
ATOM     45  C   UNL A   1      41.720  27.389  28.346  1.00  0.00     0.074 A 
ATOM     46  C   UNL A   1      40.806  26.268  28.299  1.00  0.00     0.031 C 
ATOM     47  C   UNL A   1      47.294  24.776  26.499  1.00  0.00     0.029 A 
ATOM     48  C   UNL A   1      47.048  26.160  26.890  1.00  0.00     0.049 A 
ATOM     49  H   UNL A   1      45.266  26.981  27.590  1.00  0.00     0.167 HD
ATOM     50  C   UNL A   1      41.369  28.646  28.706  1.00  0.00     0.037 A 
ATOM     51  C   UNL A   1      47.956  27.154  26.865  1.00  0.00     0.037 A 
ATOM     52  C   UNL A   1      42.288  29.747  28.797  1.00  0.00     0.049 A 
ATOM     53  C   UNL A   1      47.546  28.540  27.286  1.00  0.00     0.074 A 
ATOM     54  C   UNL A   1      42.044  31.042  29.221  1.00  0.00     0.029 A 
ATOM     55  N   UNL A   1      43.634  29.679  28.465  1.00  0.00    -0.354 N 
ATOM     56  N   UNL A   1      46.372  28.968  27.682  1.00  0.00    -0.248 NA
ATOM     57  C   UNL A   1      48.584  29.580  27.256  1.00  0.00     0.031 C 
ATOM     58  C   UNL A   1      43.236  31.767  29.115  1.00  0.00     0.029 A 
ATOM     59  C   UNL A   1      44.229  30.914  28.663  1.00  0.00     0.049 A 
ATOM     60  H   UNL A   1      44.095  28.874  28.138  1.00  0.00     0.167 HD
ATOM     61  C   UNL A   1      46.536  30.314  27.977  1.00  0.00     0.074 A 
ATOM     62  C   UNL A   1      47.925  30.634  27.719  1.00  0.00     0.031 C 
ATOM     63  C   UNL A   1      45.619  31.206  28.423  1.00  0.00     0.037 A 
BRANCH  50  64
ATOM     64  C   UNL A   1      39.927  28.893  29.035  1.00  0.00     0.064 A 
ATOM     65  C   UNL A   1      39.010  29.296  28.053  1.00  0.00     0.173 A 
ATOM     66  C   UNL A   1      39.452  28.697  30.340  1.00  0.00     0.173 A 
ATOM     67  F   UNL A   1      39.420  29.510  26.794  1.00  0.00    -0.203 F 
ATOM     68  C   UNL A   1      37.675  29.524  28.372  1.00  0.00     0.198 A 
ATOM     69  C   UNL A   1      38.110  28.898  30.649  1.00  0.00     0.198 A 
ATOM     70  F   UNL A   1      40.288  28.308  31.313  1.00  0.00    -0.203 F 
ATOM     71  F   UNL A   1      36.827  29.958  27.429  1.00  0.00    -0.200 F 
ATOM     72  C   UNL A   1      37.225  29.318  29.668  1.00  0.00     0.200 A 
ATOM     73  F   UNL A   1      37.674  28.689  31.899  1.00  0.00    -0.200 F 
ATOM     74  F   UNL A   1      35.937  29.534  29.973  1.00  0.00    -0.200 F 
ENDBRANCH  50  64
BRANCH  51  75
ATOM     75  C   UNL A   1      49.355  26.874  26.447  1.00  0.00     0.064 A 
ATOM     76  C   UNL A   1      50.325  26.510  27.392  1.00  0.00     0.173 A 
ATOM     77  C   UNL A   1      49.751  26.966  25.105  1.00  0.00     0.173 A 
ATOM     78  F   UNL A   1      49.999  26.429  28.689  1.00  0.00    -0.203 F 
ATOM     79  C   UNL A   1      51.643  26.266  27.013  1.00  0.00     0.198 A 
ATOM     80  C   UNL A   1      51.065  26.699  24.724  1.00  0.00     0.198 A 
ATOM     81  F   UNL A   1      48.860  27.306  24.164  1.00  0.00    -0.203 F 
ATOM     82  F   UNL A   1      52.560  25.958  27.940  1.00  0.00    -0.200 F 
ATOM     83  C   UNL A   1      52.011  26.355  25.678  1.00  0.00     0.200 A 
ATOM     84  F   UNL A   1      51.414  26.774  23.432  1.00  0.00    -0.200 F 
ATOM     85  F   UNL A   1      53.279  26.117  25.313  1.00  0.00    -0.200 F 
ENDBRANCH  51  75
BRANCH  63  86
ATOM     86  C   UNL A   1      46.087  32.599  28.708  1.00  0.00     0.064 A 
ATOM     87  C   UNL A   1      46.622  32.953  29.955  1.00  0.00     0.173 A 
ATOM     88  C   UNL A   1      46.073  33.572  27.697  1.00  0.00     0.173 A 
ATOM     89  F   UNL A   1      46.643  32.061  30.957  1.00  0.00    -0.203 F 
ATOM     90  C   UNL A   1      47.117  34.234  30.181  1.00  0.00     0.198 A 
ATOM     91  C   UNL A   1      46.591  34.844  27.919  1.00  0.00     0.198 A 
ATOM     92  F   UNL A   1      45.577  33.278  26.485  1.00  0.00    -0.203 F 
ATOM     93  F   UNL A   1      47.599  34.560  31.389  1.00  0.00    -0.200 F 
ATOM     94  C   UNL A   1      47.110  35.174  29.161  1.00  0.00     0.200 A 
ATOM     95  F   UNL A   1      46.593  35.748  26.929  1.00  0.00    -0.200 F 
ATOM     96  F   UNL A   1      47.602  36.403  29.377  1.00  0.00    -0.200 F 
ENDBRANCH  63  86
ENDBRANCH  37  38
ENDBRANCH  29  32
ENDBRANCH  27  28
ENDBRANCH  26  27
ENDBRANCH  25  26
ENDBRANCH   1  25
TORSDOF 17
ENDMDL
