MODEL 1
REMARK VINA RESULT:     -12.1      0.000      0.000
REMARK SMILES Cn1c(Cl)cnc1C[N@H+]1CCC[C@@H]1C(=O)NCCCCNC(=O)c1ccc(-c2c3nc(c(-c4c(F)c(F)c(F)c(F)c4F)c4ccc([nH]4)c(-c4c(F)c(F)c(F)c(F)c4F)c4nc(c(-c5c(F)c(F)c(F)c(F)c5F)c5ccc2[nH]5)C=C4)C=C3)cc1
REMARK SMILES IDX 18 1 17 2 16 3 14 4 15 5 13 7 9 8 10 9 11 11 12 12 8 13 7 14
REMARK SMILES IDX 1 15 2 16 3 17 4 18 5 19 6 20 19 21 20 22 21 23 22 24 23 26
REMARK SMILES IDX 24 27 25 28 86 29 26 30 85 31 27 32 28 33 29 34 79 35 30 36
REMARK SMILES IDX 84 37 78 38 80 39 31 40 83 41 77 42 76 43 32 45 64 46 44 47
REMARK SMILES IDX 63 48 45 49 48 50 62 51 81 52 46 53 47 54 61 56 82 57 49 58
REMARK SMILES IDX 33 59 34 60 42 61 35 62 36 63 40 64 43 65 37 66 38 67 41 68
REMARK SMILES IDX 39 69 65 70 66 71 74 72 67 73 68 74 72 75 75 76 69 77 70 78
REMARK SMILES IDX 73 79 71 80 50 81 51 82 59 83 52 84 53 85 57 86 60 87 54 88
REMARK SMILES IDX 55 89 58 90 56 91
REMARK H PARENT 16 6 9 10 21 25 80 44 48 55
REMARK Flexibility Score: inf
ROOT
ATOM      1  C   UNL A   1      38.162  23.410  26.110  1.00  0.00     0.023 C 
ENDROOT
BRANCH   1   2
ATOM      2  C   UNL A   1      36.640  23.720  26.082  1.00  0.00     0.116 C 
BRANCH   2   3
ATOM      3  N   UNL A   1      35.722  22.921  26.875  1.00  0.00    -0.351 N 
ATOM      4  C   UNL A   1      34.775  22.011  26.460  1.00  0.00     0.278 C 
ATOM      5  O   UNL A   1      34.232  21.339  27.352  1.00  0.00    -0.268 OA
ATOM      6  H   UNL A   1      35.786  23.049  27.849  1.00  0.00     0.163 HD
BRANCH   4   7
ATOM      7  C   UNL A   1      34.371  21.738  24.978  1.00  0.00     0.274 C 
ATOM      8  N   UNL A   1      33.207  22.511  24.560  1.00  0.00    -0.318 N 
ATOM      9  C   UNL A   1      32.352  21.757  23.674  1.00  0.00     0.263 C 
ATOM     10  H   UNL A   1      32.696  22.633  25.435  1.00  0.00     0.349 HD
ATOM     11  C   UNL A   1      32.537  20.347  24.206  1.00  0.00     0.068 C 
ATOM     12  C   UNL A   1      34.008  20.300  24.615  1.00  0.00     0.081 C 
BRANCH   8  13
ATOM     13  C   UNL A   1      33.307  23.950  24.352  1.00  0.00     0.339 C 
BRANCH  13  14
ATOM     14  C   UNL A   1      31.901  24.453  24.397  1.00  0.00     0.165 A 
ATOM     15  C   UNL A   1      31.676  25.592  22.163  1.00  0.00     0.152 C 
ATOM     16  N   UNL A   1      31.399  25.434  23.564  1.00  0.00    -0.317 N 
ATOM     17  C   UNL A   1      30.736  26.293  24.384  1.00  0.00     0.128 A 
ATOM     18  Cl  UNL A   1      30.265  27.844  23.872  1.00  0.00    -0.063 Cl
ATOM     19  C   UNL A   1      30.710  25.665  25.600  1.00  0.00     0.152 A 
ATOM     20  N   UNL A   1      31.194  24.406  25.512  1.00  0.00    -0.234 NA
ENDBRANCH  13  14
ENDBRANCH   8  13
ENDBRANCH   4   7
ENDBRANCH   2   3
ENDBRANCH   1   2
BRANCH   1  21
ATOM     21  C   UNL A   1      38.874  22.034  26.109  1.00  0.00     0.023 C 
BRANCH  21  22
ATOM     22  C   UNL A   1      40.162  21.641  26.871  1.00  0.00     0.116 C 
BRANCH  22  23
ATOM     23  N   UNL A   1      41.469  21.717  26.217  1.00  0.00    -0.352 N 
ATOM     24  C   UNL A   1      42.179  22.890  25.890  1.00  0.00     0.251 C 
ATOM     25  H   UNL A   1      41.896  20.862  25.983  1.00  0.00     0.163 HD
ATOM     26  O   UNL A   1      43.001  22.880  24.983  1.00  0.00    -0.269 OA
BRANCH  24  27
ATOM     27  C   UNL A   1      41.991  24.143  26.681  1.00  0.00     0.039 A 
ATOM     28  C   UNL A   1      42.413  24.358  27.990  1.00  0.00     0.014 A 
ATOM     29  C   UNL A   1      41.211  25.122  26.100  1.00  0.00     0.014 A 
ATOM     30  C   UNL A   1      42.127  25.591  28.613  1.00  0.00     0.010 A 
ATOM     31  C   UNL A   1      41.033  26.379  26.629  1.00  0.00     0.010 A 
ATOM     32  C   UNL A   1      41.449  26.614  27.917  1.00  0.00    -0.014 A 
BRANCH  32  33
ATOM     33  C   UNL A   1      41.243  27.951  28.474  1.00  0.00     0.031 A 
ATOM     34  C   UNL A   1      42.260  28.945  28.050  1.00  0.00     0.074 A 
ATOM     35  C   UNL A   1      40.153  28.378  29.154  1.00  0.00     0.049 A 
ATOM     36  N   UNL A   1      43.198  29.448  28.777  1.00  0.00    -0.248 NA
ATOM     37  C   UNL A   1      42.321  29.340  26.636  1.00  0.00     0.031 C 
ATOM     38  C   UNL A   1      38.871  27.705  29.389  1.00  0.00     0.029 A 
ATOM     39  N   UNL A   1      39.958  29.595  29.746  1.00  0.00    -0.354 N 
ATOM     40  C   UNL A   1      43.889  30.341  27.968  1.00  0.00     0.074 A 
ATOM     41  C   UNL A   1      43.397  30.132  26.628  1.00  0.00     0.031 C 
ATOM     42  C   UNL A   1      37.977  28.587  29.897  1.00  0.00     0.029 A 
ATOM     43  C   UNL A   1      38.659  29.836  30.180  1.00  0.00     0.049 A 
ATOM     44  H   UNL A   1      40.683  30.251  29.857  1.00  0.00     0.167 HD
ATOM     45  C   UNL A   1      44.678  31.308  28.513  1.00  0.00     0.037 A 
ATOM     46  C   UNL A   1      38.187  30.988  30.723  1.00  0.00     0.037 A 
ATOM     47  C   UNL A   1      44.920  31.051  29.911  1.00  0.00     0.049 A 
ATOM     48  C   UNL A   1      39.355  31.744  31.240  1.00  0.00     0.074 A 
ATOM     49  C   UNL A   1      45.517  30.024  30.620  1.00  0.00     0.029 A 
ATOM     50  N   UNL A   1      44.171  31.743  30.831  1.00  0.00    -0.354 N 
ATOM     51  N   UNL A   1      40.069  31.370  32.264  1.00  0.00    -0.248 NA
ATOM     52  C   UNL A   1      39.996  32.692  30.343  1.00  0.00     0.031 C 
ATOM     53  C   UNL A   1      44.704  29.857  31.780  1.00  0.00     0.029 A 
ATOM     54  C   UNL A   1      43.707  30.833  31.745  1.00  0.00     0.049 A 
ATOM     55  H   UNL A   1      43.998  32.713  30.832  1.00  0.00     0.167 HD
ATOM     56  C   UNL A   1      41.374  31.665  31.903  1.00  0.00     0.074 A 
ATOM     57  C   UNL A   1      41.259  32.560  30.754  1.00  0.00     0.031 C 
ATOM     58  C   UNL A   1      42.419  30.933  32.386  1.00  0.00     0.037 A 
BRANCH  45  59
ATOM     59  C   UNL A   1      44.953  32.657  27.903  1.00  0.00     0.064 A 
ATOM     60  C   UNL A   1      46.262  32.958  27.471  1.00  0.00     0.173 A 
ATOM     61  C   UNL A   1      44.077  33.756  28.010  1.00  0.00     0.173 A 
ATOM     62  F   UNL A   1      47.180  31.988  27.343  1.00  0.00    -0.203 F 
ATOM     63  C   UNL A   1      46.685  34.271  27.258  1.00  0.00     0.198 A 
ATOM     64  C   UNL A   1      44.489  35.061  27.743  1.00  0.00     0.198 A 
ATOM     65  F   UNL A   1      42.833  33.631  28.485  1.00  0.00    -0.203 F 
ATOM     66  F   UNL A   1      47.973  34.519  26.982  1.00  0.00    -0.200 F 
ATOM     67  C   UNL A   1      45.800  35.323  27.402  1.00  0.00     0.200 A 
ATOM     68  F   UNL A   1      43.622  36.071  27.905  1.00  0.00    -0.200 F 
ATOM     69  F   UNL A   1      46.218  36.588  27.266  1.00  0.00    -0.200 F 
ENDBRANCH  45  59
BRANCH  46  70
ATOM     70  C   UNL A   1      36.855  31.625  30.574  1.00  0.00     0.064 A 
ATOM     71  C   UNL A   1      35.997  31.777  31.678  1.00  0.00     0.173 A 
ATOM     72  C   UNL A   1      36.539  32.380  29.429  1.00  0.00     0.173 A 
ATOM     73  F   UNL A   1      36.246  31.124  32.822  1.00  0.00    -0.203 F 
ATOM     74  C   UNL A   1      34.917  32.667  31.655  1.00  0.00     0.198 A 
ATOM     75  C   UNL A   1      35.458  33.264  29.405  1.00  0.00     0.198 A 
ATOM     76  F   UNL A   1      37.332  32.353  28.348  1.00  0.00    -0.203 F 
ATOM     77  F   UNL A   1      34.167  32.841  32.752  1.00  0.00    -0.200 F 
ATOM     78  C   UNL A   1      34.659  33.421  30.522  1.00  0.00     0.200 A 
ATOM     79  F   UNL A   1      35.242  34.016  28.316  1.00  0.00    -0.200 F 
ATOM     80  F   UNL A   1      33.673  34.330  30.522  1.00  0.00    -0.200 F 
ENDBRANCH  46  70
BRANCH  58  81
ATOM     81  C   UNL A   1      42.150  29.995  33.531  1.00  0.00     0.064 A 
ATOM     82  C   UNL A   1      41.739  28.658  33.384  1.00  0.00     0.173 A 
ATOM     83  C   UNL A   1      42.446  30.437  34.827  1.00  0.00     0.173 A 
ATOM     84  F   UNL A   1      41.530  28.127  32.173  1.00  0.00    -0.203 F 
ATOM     85  C   UNL A   1      41.584  27.823  34.491  1.00  0.00     0.198 A 
ATOM     86  C   UNL A   1      42.328  29.591  35.925  1.00  0.00     0.198 A 
ATOM     87  F   UNL A   1      42.890  31.688  35.024  1.00  0.00    -0.203 F 
ATOM     88  F   UNL A   1      41.171  26.557  34.327  1.00  0.00    -0.200 F 
ATOM     89  C   UNL A   1      41.886  28.289  35.760  1.00  0.00     0.200 A 
ATOM     90  F   UNL A   1      42.667  30.034  37.144  1.00  0.00    -0.200 F 
ATOM     91  F   UNL A   1      41.773  27.477  36.820  1.00  0.00    -0.200 F 
ENDBRANCH  58  81
ENDBRANCH  32  33
ENDBRANCH  24  27
ENDBRANCH  22  23
ENDBRANCH  21  22
ENDBRANCH   1  21
TORSDOF 13
ENDMDL
MODEL 2
REMARK VINA RESULT:     -12.1      3.536      8.954
REMARK SMILES Cn1c(Cl)cnc1C[N@H+]1CCC[C@@H]1C(=O)NCCCCNC(=O)c1ccc(-c2c3nc(c(-c4c(F)c(F)c(F)c(F)c4F)c4ccc([nH]4)c(-c4c(F)c(F)c(F)c(F)c4F)c4nc(c(-c5c(F)c(F)c(F)c(F)c5F)c5ccc2[nH]5)C=C4)C=C3)cc1
REMARK SMILES IDX 18 1 17 2 16 3 14 4 15 5 13 7 9 8 10 9 11 11 12 12 8 13 7 14
REMARK SMILES IDX 1 15 2 16 3 17 4 18 5 19 6 20 19 21 20 22 21 23 22 24 23 26
REMARK SMILES IDX 24 27 25 28 86 29 26 30 85 31 27 32 28 33 29 34 79 35 30 36
REMARK SMILES IDX 84 37 78 38 80 39 31 40 83 41 77 42 76 43 32 45 64 46 44 47
REMARK SMILES IDX 63 48 45 49 48 50 62 51 81 52 46 53 47 54 61 56 82 57 49 58
REMARK SMILES IDX 33 59 34 60 42 61 35 62 36 63 40 64 43 65 37 66 38 67 41 68
REMARK SMILES IDX 39 69 65 70 66 71 74 72 67 73 68 74 72 75 75 76 69 77 70 78
REMARK SMILES IDX 73 79 71 80 50 81 51 82 59 83 52 84 53 85 57 86 60 87 54 88
REMARK SMILES IDX 55 89 58 90 56 91
REMARK H PARENT 16 6 9 10 21 25 80 44 48 55
REMARK Flexibility Score: inf
ROOT
ATOM      1  C   UNL A   1      34.568  29.746  27.271  1.00  0.00     0.023 C 
ENDROOT
BRANCH   1   2
ATOM      2  C   UNL A   1      34.056  28.629  26.320  1.00  0.00     0.116 C 
BRANCH   2   3
ATOM      3  N   UNL A   1      34.008  28.863  24.888  1.00  0.00    -0.351 N 
ATOM      4  C   UNL A   1      32.916  28.924  24.050  1.00  0.00     0.278 C 
ATOM      5  O   UNL A   1      33.136  29.302  22.888  1.00  0.00    -0.268 OA
ATOM      6  H   UNL A   1      34.881  28.995  24.453  1.00  0.00     0.163 HD
BRANCH   4   7
ATOM      7  C   UNL A   1      31.444  28.600  24.457  1.00  0.00     0.274 C 
ATOM      8  N   UNL A   1      31.106  27.194  24.274  1.00  0.00    -0.318 N 
ATOM      9  C   UNL A   1      29.748  27.024  23.812  1.00  0.00     0.263 C 
ATOM     10  H   UNL A   1      31.718  26.916  23.506  1.00  0.00     0.349 HD
ATOM     11  C   UNL A   1      29.565  28.265  22.957  1.00  0.00     0.068 C 
ATOM     12  C   UNL A   1      30.341  29.344  23.708  1.00  0.00     0.081 C 
BRANCH   8  13
ATOM     13  C   UNL A   1      31.660  26.176  25.159  1.00  0.00     0.339 C 
BRANCH  13  14
ATOM     14  C   UNL A   1      32.564  25.356  24.297  1.00  0.00     0.165 A 
ATOM     15  C   UNL A   1      31.061  23.456  23.613  1.00  0.00     0.152 C 
ATOM     16  N   UNL A   1      32.328  24.038  23.956  1.00  0.00    -0.317 N 
ATOM     17  C   UNL A   1      33.507  23.396  24.179  1.00  0.00     0.128 A 
ATOM     18  Cl  UNL A   1      33.610  21.702  24.253  1.00  0.00    -0.063 Cl
ATOM     19  C   UNL A   1      34.407  24.396  24.433  1.00  0.00     0.152 A 
ATOM     20  N   UNL A   1      33.858  25.614  24.225  1.00  0.00    -0.234 NA
ENDBRANCH  13  14
ENDBRANCH   8  13
ENDBRANCH   4   7
ENDBRANCH   2   3
ENDBRANCH   1   2
BRANCH   1  21
ATOM     21  C   UNL A   1      33.909  31.105  27.618  1.00  0.00     0.023 C 
BRANCH  21  22
ATOM     22  C   UNL A   1      34.614  32.400  28.086  1.00  0.00     0.116 C 
BRANCH  22  23
ATOM     23  N   UNL A   1      34.516  32.843  29.476  1.00  0.00    -0.352 N 
ATOM     24  C   UNL A   1      35.158  32.267  30.591  1.00  0.00     0.251 C 
ATOM     25  H   UNL A   1      33.944  33.625  29.652  1.00  0.00     0.163 HD
ATOM     26  O   UNL A   1      34.687  32.403  31.712  1.00  0.00    -0.269 OA
BRANCH  24  27
ATOM     27  C   UNL A   1      36.453  31.539  30.434  1.00  0.00     0.039 A 
ATOM     28  C   UNL A   1      37.691  32.116  30.166  1.00  0.00     0.014 A 
ATOM     29  C   UNL A   1      36.383  30.161  30.425  1.00  0.00     0.014 A 
ATOM     30  C   UNL A   1      38.821  31.284  30.011  1.00  0.00     0.010 A 
ATOM     31  C   UNL A   1      37.482  29.334  30.413  1.00  0.00     0.010 A 
ATOM     32  C   UNL A   1      38.714  29.884  30.157  1.00  0.00    -0.014 A 
BRANCH  32  33
ATOM     33  C   UNL A   1      39.875  28.994  30.133  1.00  0.00     0.031 A 
ATOM     34  C   UNL A   1      40.440  28.704  31.474  1.00  0.00     0.074 A 
ATOM     35  C   UNL A   1      40.333  28.300  29.065  1.00  0.00     0.049 A 
ATOM     36  N   UNL A   1      41.552  29.145  31.955  1.00  0.00    -0.248 NA
ATOM     37  C   UNL A   1      39.635  27.934  32.433  1.00  0.00     0.031 C 
ATOM     38  C   UNL A   1      39.744  28.134  27.731  1.00  0.00     0.029 A 
ATOM     39  N   UNL A   1      41.450  27.517  28.990  1.00  0.00    -0.354 N 
ATOM     40  C   UNL A   1      41.675  28.598  33.227  1.00  0.00     0.074 A 
ATOM     41  C   UNL A   1      40.408  27.977  33.522  1.00  0.00     0.031 C 
ATOM     42  C   UNL A   1      40.400  27.159  27.058  1.00  0.00     0.029 A 
ATOM     43  C   UNL A   1      41.554  26.747  27.836  1.00  0.00     0.049 A 
ATOM     44  H   UNL A   1      42.132  27.498  29.700  1.00  0.00     0.167 HD
ATOM     45  C   UNL A   1      42.886  28.549  33.849  1.00  0.00     0.037 A 
ATOM     46  C   UNL A   1      42.518  25.833  27.556  1.00  0.00     0.037 A 
ATOM     47  C   UNL A   1      43.847  29.388  33.176  1.00  0.00     0.049 A 
ATOM     48  C   UNL A   1      43.688  26.147  28.413  1.00  0.00     0.074 A 
ATOM     49  C   UNL A   1      43.931  30.741  32.901  1.00  0.00     0.029 A 
ATOM     50  N   UNL A   1      44.740  28.786  32.323  1.00  0.00    -0.354 N 
ATOM     51  N   UNL A   1      44.432  27.206  28.270  1.00  0.00    -0.248 NA
ATOM     52  C   UNL A   1      43.765  25.498  29.713  1.00  0.00     0.031 C 
ATOM     53  C   UNL A   1      44.471  30.816  31.583  1.00  0.00     0.029 A 
ATOM     54  C   UNL A   1      44.748  29.514  31.163  1.00  0.00     0.049 A 
ATOM     55  H   UNL A   1      45.273  27.979  32.511  1.00  0.00     0.167 HD
ATOM     56  C   UNL A   1      44.706  27.615  29.565  1.00  0.00     0.074 A 
ATOM     57  C   UNL A   1      44.350  26.476  30.408  1.00  0.00     0.031 C 
ATOM     58  C   UNL A   1      44.925  28.930  29.855  1.00  0.00     0.037 A 
BRANCH  45  59
ATOM     59  C   UNL A   1      43.315  27.502  34.842  1.00  0.00     0.064 A 
ATOM     60  C   UNL A   1      43.709  27.908  36.134  1.00  0.00     0.173 A 
ATOM     61  C   UNL A   1      43.649  26.179  34.489  1.00  0.00     0.173 A 
ATOM     62  F   UNL A   1      43.450  29.149  36.571  1.00  0.00    -0.203 F 
ATOM     63  C   UNL A   1      44.465  27.081  36.969  1.00  0.00     0.198 A 
ATOM     64  C   UNL A   1      44.357  25.339  35.346  1.00  0.00     0.198 A 
ATOM     65  F   UNL A   1      43.411  25.688  33.267  1.00  0.00    -0.203 F 
ATOM     66  F   UNL A   1      44.933  27.558  38.130  1.00  0.00    -0.200 F 
ATOM     67  C   UNL A   1      44.795  25.800  36.570  1.00  0.00     0.200 A 
ATOM     68  F   UNL A   1      44.683  24.105  34.936  1.00  0.00    -0.200 F 
ATOM     69  F   UNL A   1      45.578  25.029  37.336  1.00  0.00    -0.200 F 
ENDBRANCH  45  59
BRANCH  46  70
ATOM     70  C   UNL A   1      42.413  24.542  26.830  1.00  0.00     0.064 A 
ATOM     71  C   UNL A   1      43.049  24.355  25.589  1.00  0.00     0.173 A 
ATOM     72  C   UNL A   1      41.963  23.380  27.484  1.00  0.00     0.173 A 
ATOM     73  F   UNL A   1      43.541  25.405  24.917  1.00  0.00    -0.203 F 
ATOM     74  C   UNL A   1      43.267  23.078  25.060  1.00  0.00     0.198 A 
ATOM     75  C   UNL A   1      42.176  22.106  26.952  1.00  0.00     0.198 A 
ATOM     76  F   UNL A   1      41.402  23.448  28.700  1.00  0.00    -0.203 F 
ATOM     77  F   UNL A   1      43.945  22.934  23.913  1.00  0.00    -0.200 F 
ATOM     78  C   UNL A   1      42.844  21.954  25.750  1.00  0.00     0.200 A 
ATOM     79  F   UNL A   1      41.796  21.025  27.647  1.00  0.00    -0.200 F 
ATOM     80  F   UNL A   1      43.118  20.728  25.283  1.00  0.00    -0.200 F 
ENDBRANCH  46  70
BRANCH  58  81
ATOM     81  C   UNL A   1      45.144  29.876  28.707  1.00  0.00     0.064 A 
ATOM     82  C   UNL A   1      44.113  30.513  27.994  1.00  0.00     0.173 A 
ATOM     83  C   UNL A   1      46.460  30.247  28.403  1.00  0.00     0.173 A 
ATOM     84  F   UNL A   1      42.827  30.290  28.288  1.00  0.00    -0.203 F 
ATOM     85  C   UNL A   1      44.394  31.440  26.990  1.00  0.00     0.198 A 
ATOM     86  C   UNL A   1      46.737  31.200  27.428  1.00  0.00     0.198 A 
ATOM     87  F   UNL A   1      47.484  29.710  29.085  1.00  0.00    -0.203 F 
ATOM     88  F   UNL A   1      43.394  32.020  26.310  1.00  0.00    -0.200 F 
ATOM     89  C   UNL A   1      45.706  31.788  26.713  1.00  0.00     0.200 A 
ATOM     90  F   UNL A   1      48.006  31.567  27.198  1.00  0.00    -0.200 F 
ATOM     91  F   UNL A   1      45.976  32.706  25.775  1.00  0.00    -0.200 F 
ENDBRANCH  58  81
ENDBRANCH  32  33
ENDBRANCH  24  27
ENDBRANCH  22  23
ENDBRANCH  21  22
ENDBRANCH   1  21
TORSDOF 13
ENDMDL
MODEL 3
REMARK VINA RESULT:     -12.1      4.181      7.042
REMARK SMILES Cn1c(Cl)cnc1C[N@H+]1CCC[C@@H]1C(=O)NCCCCNC(=O)c1ccc(-c2c3nc(c(-c4c(F)c(F)c(F)c(F)c4F)c4ccc([nH]4)c(-c4c(F)c(F)c(F)c(F)c4F)c4nc(c(-c5c(F)c(F)c(F)c(F)c5F)c5ccc2[nH]5)C=C4)C=C3)cc1
REMARK SMILES IDX 18 1 17 2 16 3 14 4 15 5 13 7 9 8 10 9 11 11 12 12 8 13 7 14
REMARK SMILES IDX 1 15 2 16 3 17 4 18 5 19 6 20 19 21 20 22 21 23 22 24 23 26
REMARK SMILES IDX 24 27 25 28 86 29 26 30 85 31 27 32 28 33 29 34 79 35 30 36
REMARK SMILES IDX 84 37 78 38 80 39 31 40 83 41 77 42 76 43 32 45 64 46 44 47
REMARK SMILES IDX 63 48 45 49 48 50 62 51 81 52 46 53 47 54 61 56 82 57 49 58
REMARK SMILES IDX 33 59 34 60 42 61 35 62 36 63 40 64 43 65 37 66 38 67 41 68
REMARK SMILES IDX 39 69 65 70 66 71 74 72 67 73 68 74 72 75 75 76 69 77 70 78
REMARK SMILES IDX 73 79 71 80 50 81 51 82 59 83 52 84 53 85 57 86 60 87 54 88
REMARK SMILES IDX 55 89 58 90 56 91
REMARK H PARENT 16 6 9 10 21 25 80 44 48 55
REMARK Flexibility Score: inf
ROOT
ATOM      1  C   UNL A   1      43.205  25.152  25.000  1.00  0.00     0.023 C 
ENDROOT
BRANCH   1   2
ATOM      2  C   UNL A   1      43.880  26.413  25.606  1.00  0.00     0.116 C 
BRANCH   2   3
ATOM      3  N   UNL A   1      44.676  27.286  24.762  1.00  0.00    -0.351 N 
ATOM      4  C   UNL A   1      46.046  27.360  24.631  1.00  0.00     0.278 C 
ATOM      5  O   UNL A   1      46.471  28.082  23.715  1.00  0.00    -0.268 OA
ATOM      6  H   UNL A   1      44.165  27.914  24.204  1.00  0.00     0.163 HD
BRANCH   4   7
ATOM      7  C   UNL A   1      47.081  26.586  25.505  1.00  0.00     0.274 C 
ATOM      8  N   UNL A   1      47.711  27.432  26.512  1.00  0.00    -0.318 N 
ATOM      9  C   UNL A   1      49.104  27.097  26.699  1.00  0.00     0.263 C 
ATOM     10  H   UNL A   1      47.684  28.354  26.076  1.00  0.00     0.349 HD
ATOM     11  C   UNL A   1      49.499  26.663  25.299  1.00  0.00     0.068 C 
ATOM     12  C   UNL A   1      48.258  25.944  24.775  1.00  0.00     0.081 C 
BRANCH   8  13
ATOM     13  C   UNL A   1      46.958  27.894  27.671  1.00  0.00     0.339 C 
BRANCH  13  14
ATOM     14  C   UNL A   1      47.334  26.966  28.780  1.00  0.00     0.165 A 
ATOM     15  C   UNL A   1      45.815  25.002  28.363  1.00  0.00     0.152 C 
ATOM     16  N   UNL A   1      46.559  25.902  29.199  1.00  0.00    -0.317 N 
ATOM     17  C   UNL A   1      46.524  25.999  30.556  1.00  0.00     0.128 A 
ATOM     18  Cl  UNL A   1      45.400  25.135  31.492  1.00  0.00    -0.063 Cl
ATOM     19  C   UNL A   1      47.436  26.975  30.860  1.00  0.00     0.152 A 
ATOM     20  N   UNL A   1      48.125  27.361  29.762  1.00  0.00    -0.234 NA
ENDBRANCH  13  14
ENDBRANCH   8  13
ENDBRANCH   4   7
ENDBRANCH   2   3
ENDBRANCH   1   2
BRANCH   1  21
ATOM     21  C   UNL A   1      43.713  23.688  24.989  1.00  0.00     0.023 C 
BRANCH  21  22
ATOM     22  C   UNL A   1      43.638  22.658  26.142  1.00  0.00     0.116 C 
BRANCH  22  23
ATOM     23  N   UNL A   1      42.391  21.950  26.430  1.00  0.00    -0.352 N 
ATOM     24  C   UNL A   1      41.367  22.370  27.302  1.00  0.00     0.251 C 
ATOM     25  H   UNL A   1      42.253  21.093  25.967  1.00  0.00     0.163 HD
ATOM     26  O   UNL A   1      40.614  21.549  27.811  1.00  0.00    -0.269 OA
BRANCH  24  27
ATOM     27  C   UNL A   1      41.140  23.822  27.570  1.00  0.00     0.039 A 
ATOM     28  C   UNL A   1      40.185  24.630  26.959  1.00  0.00     0.014 A 
ATOM     29  C   UNL A   1      42.049  24.441  28.403  1.00  0.00     0.014 A 
ATOM     30  C   UNL A   1      40.119  25.998  27.297  1.00  0.00     0.010 A 
ATOM     31  C   UNL A   1      41.926  25.734  28.853  1.00  0.00     0.010 A 
ATOM     32  C   UNL A   1      40.985  26.546  28.268  1.00  0.00    -0.014 A 
BRANCH  32  33
ATOM     33  C   UNL A   1      40.871  27.924  28.744  1.00  0.00     0.031 A 
ATOM     34  C   UNL A   1      41.869  28.851  28.154  1.00  0.00     0.074 A 
ATOM     35  C   UNL A   1      39.865  28.435  29.492  1.00  0.00     0.049 A 
ATOM     36  N   UNL A   1      42.886  29.372  28.751  1.00  0.00    -0.248 NA
ATOM     37  C   UNL A   1      41.802  29.145  26.716  1.00  0.00     0.031 C 
ATOM     38  C   UNL A   1      38.594  27.823  29.896  1.00  0.00     0.029 A 
ATOM     39  N   UNL A   1      39.761  29.695  30.010  1.00  0.00    -0.354 N 
ATOM     40  C   UNL A   1      43.519  30.182  27.817  1.00  0.00     0.074 A 
ATOM     41  C   UNL A   1      42.894  29.898  26.549  1.00  0.00     0.031 C 
ATOM     42  C   UNL A   1      37.777  28.768  30.422  1.00  0.00     0.029 A 
ATOM     43  C   UNL A   1      38.518  30.010  30.548  1.00  0.00     0.049 A 
ATOM     44  H   UNL A   1      40.511  30.332  30.004  1.00  0.00     0.167 HD
ATOM     45  C   UNL A   1      44.383  31.157  28.213  1.00  0.00     0.037 A 
ATOM     46  C   UNL A   1      38.133  31.212  31.049  1.00  0.00     0.037 A 
ATOM     47  C   UNL A   1      44.754  30.989  29.597  1.00  0.00     0.049 A 
ATOM     48  C   UNL A   1      39.365  31.962  31.396  1.00  0.00     0.074 A 
ATOM     49  C   UNL A   1      45.388  29.994  30.318  1.00  0.00     0.029 A 
ATOM     50  N   UNL A   1      44.116  31.769  30.532  1.00  0.00    -0.354 N 
ATOM     51  N   UNL A   1      40.164  31.635  32.372  1.00  0.00    -0.248 NA
ATOM     52  C   UNL A   1      39.941  32.824  30.376  1.00  0.00     0.031 C 
ATOM     53  C   UNL A   1      44.688  29.936  31.559  1.00  0.00     0.029 A 
ATOM     54  C   UNL A   1      43.719  30.941  31.549  1.00  0.00     0.049 A 
ATOM     55  H   UNL A   1      43.971  32.742  30.479  1.00  0.00     0.167 HD
ATOM     56  C   UNL A   1      41.436  31.860  31.868  1.00  0.00     0.074 A 
ATOM     57  C   UNL A   1      41.234  32.677  30.674  1.00  0.00     0.031 C 
ATOM     58  C   UNL A   1      42.503  31.128  32.301  1.00  0.00     0.037 A 
BRANCH  45  59
ATOM     59  C   UNL A   1      44.634  32.451  27.484  1.00  0.00     0.064 A 
ATOM     60  C   UNL A   1      45.817  32.591  26.729  1.00  0.00     0.173 A 
ATOM     61  C   UNL A   1      43.930  33.644  27.744  1.00  0.00     0.173 A 
ATOM     62  F   UNL A   1      46.570  31.521  26.431  1.00  0.00    -0.203 F 
ATOM     63  C   UNL A   1      46.306  33.843  26.349  1.00  0.00     0.198 A 
ATOM     64  C   UNL A   1      44.394  34.887  27.316  1.00  0.00     0.198 A 
ATOM     65  F   UNL A   1      42.838  33.671  28.516  1.00  0.00    -0.203 F 
ATOM     66  F   UNL A   1      47.503  33.936  25.753  1.00  0.00    -0.200 F 
ATOM     67  C   UNL A   1      45.598  34.991  26.650  1.00  0.00     0.200 A 
ATOM     68  F   UNL A   1      43.703  35.991  27.632  1.00  0.00    -0.200 F 
ATOM     69  F   UNL A   1      46.097  36.196  26.349  1.00  0.00    -0.200 F 
ENDBRANCH  45  59
BRANCH  46  70
ATOM     70  C   UNL A   1      36.810  31.883  30.982  1.00  0.00     0.064 A 
ATOM     71  C   UNL A   1      36.010  32.023  32.130  1.00  0.00     0.173 A 
ATOM     72  C   UNL A   1      36.457  32.674  29.873  1.00  0.00     0.173 A 
ATOM     73  F   UNL A   1      36.299  31.334  33.243  1.00  0.00    -0.203 F 
ATOM     74  C   UNL A   1      34.951  32.937  32.182  1.00  0.00     0.198 A 
ATOM     75  C   UNL A   1      35.397  33.583  29.924  1.00  0.00     0.198 A 
ATOM     76  F   UNL A   1      37.195  32.659  28.754  1.00  0.00    -0.203 F 
ATOM     77  F   UNL A   1      34.260  33.098  33.318  1.00  0.00    -0.200 F 
ATOM     78  C   UNL A   1      34.656  33.727  31.083  1.00  0.00     0.200 A 
ATOM     79  F   UNL A   1      35.146  34.368  28.867  1.00  0.00    -0.200 F 
ATOM     80  F   UNL A   1      33.693  34.657  31.155  1.00  0.00    -0.200 F 
ENDBRANCH  46  70
BRANCH  58  81
ATOM     81  C   UNL A   1      42.321  30.281  33.530  1.00  0.00     0.064 A 
ATOM     82  C   UNL A   1      42.468  30.750  34.848  1.00  0.00     0.173 A 
ATOM     83  C   UNL A   1      41.852  28.971  33.363  1.00  0.00     0.173 A 
ATOM     84  F   UNL A   1      42.817  32.018  35.097  1.00  0.00    -0.203 F 
ATOM     85  C   UNL A   1      42.207  29.925  35.943  1.00  0.00     0.198 A 
ATOM     86  C   UNL A   1      41.555  28.163  34.456  1.00  0.00     0.198 A 
ATOM     87  F   UNL A   1      41.644  28.485  32.130  1.00  0.00    -0.203 F 
ATOM     88  F   UNL A   1      42.375  30.389  37.190  1.00  0.00    -0.200 F 
ATOM     89  C   UNL A   1      41.743  28.635  35.745  1.00  0.00     0.200 A 
ATOM     90  F   UNL A   1      41.063  26.933  34.259  1.00  0.00    -0.200 F 
ATOM     91  F   UNL A   1      41.456  27.854  36.795  1.00  0.00    -0.200 F 
ENDBRANCH  58  81
ENDBRANCH  32  33
ENDBRANCH  24  27
ENDBRANCH  22  23
ENDBRANCH  21  22
ENDBRANCH   1  21
TORSDOF 13
ENDMDL
