MODEL 1
REMARK VINA RESULT:     -12.5      0.000      0.000
REMARK SMILES COc1cc(-c2cc(C(=O)NCCCCNC(=O)c3ccc(-c4c5nc(c(-c6c(F)c(F)c(F)c(F)c6F)c6ccc([nH]6)c(-c6c(F)c(F)c(F)c(F)c6F)c6nc(c(-c7c(F)c(F)c(F)c(F)c7F)c7ccc4[nH]7)C=C6)C=C5)cc3)c3cc(C)ccc3n2)cc(OC)c1OC
REMARK SMILES IDX 13 1 12 2 11 3 9 4 10 5 8 7 6 8 7 9 89 10 88 11 82 12 87 13
REMARK SMILES IDX 83 14 86 15 84 16 85 17 5 18 3 19 4 20 94 21 91 22 90 23
REMARK SMILES IDX 2 24 1 25 95 26 96 27 92 28 93 29 14 30 15 31 16 32 17 33
REMARK SMILES IDX 18 35 19 36 20 37 81 38 21 39 80 40 22 41 23 42 24 43 74 44
REMARK SMILES IDX 25 45 79 46 73 47 75 48 26 49 78 50 72 51 71 52 27 54 59 55
REMARK SMILES IDX 39 56 58 57 40 58 43 59 57 60 76 61 41 62 42 63 56 65 77 66
REMARK SMILES IDX 44 67 28 68 29 69 37 70 30 71 31 72 35 73 38 74 32 75 33 76
REMARK SMILES IDX 36 77 34 78 60 79 61 80 69 81 62 82 63 83 67 84 70 85 64 86
REMARK SMILES IDX 65 87 68 88 66 89 45 90 46 91 54 92 47 93 48 94 52 95 55 96
REMARK SMILES IDX 49 97 50 98 53 99 51 100
REMARK H PARENT 11 6 16 34 75 53 43 64
REMARK Flexibility Score: inf
ROOT
ATOM      1  C   UNL A   1      31.787  30.898  26.017  1.00  0.00     0.023 C 
ENDROOT
BRANCH   1   2
ATOM      2  C   UNL A   1      33.026  30.149  26.514  1.00  0.00     0.116 C 
BRANCH   2   3
ATOM      3  N   UNL A   1      32.638  29.274  27.600  1.00  0.00    -0.352 N 
ATOM      4  C   UNL A   1      31.717  28.255  27.555  1.00  0.00     0.252 C 
ATOM      5  O   UNL A   1      30.919  28.141  28.479  1.00  0.00    -0.269 OA
ATOM      6  H   UNL A   1      33.083  29.424  28.466  1.00  0.00     0.163 HD
BRANCH   4   7
ATOM      7  C   UNL A   1      31.930  27.173  26.565  1.00  0.00     0.051 A 
ATOM      8  C   UNL A   1      32.806  25.139  25.800  1.00  0.00     0.072 A 
ATOM      9  C   UNL A   1      32.997  26.280  26.554  1.00  0.00     0.043 A 
ATOM     10  N   UNL A   1      31.532  24.735  25.559  1.00  0.00    -0.248 NA
ATOM     11  C   UNL A   1      30.703  25.705  25.182  1.00  0.00     0.072 A 
ATOM     12  C   UNL A   1      30.956  27.017  25.569  1.00  0.00     0.013 A 
ATOM     13  C   UNL A   1      29.770  25.449  24.193  1.00  0.00     0.029 A 
ATOM     14  C   UNL A   1      30.458  28.071  24.776  1.00  0.00     0.014 A 
ATOM     15  C   UNL A   1      29.322  26.485  23.375  1.00  0.00     0.005 A 
ATOM     16  C   UNL A   1      29.776  27.785  23.592  1.00  0.00    -0.050 A 
ATOM     17  C   UNL A   1      29.671  28.833  22.522  1.00  0.00     0.044 C 
BRANCH   8  18
ATOM     18  C   UNL A   1      33.624  24.806  24.586  1.00  0.00     0.008 A 
ATOM     19  C   UNL A   1      33.361  23.715  22.456  1.00  0.00     0.165 A 
ATOM     20  C   UNL A   1      33.366  23.650  23.855  1.00  0.00     0.061 A 
ATOM     21  C   UNL A   1      33.468  24.951  21.791  1.00  0.00     0.203 A 
ATOM     22  C   UNL A   1      33.953  26.047  22.500  1.00  0.00     0.165 A 
ATOM     23  C   UNL A   1      34.165  25.914  23.879  1.00  0.00     0.061 A 
BRANCH  19  24
ATOM     24  O   UNL A   1      33.140  22.533  21.792  1.00  0.00    -0.493 OA
ATOM     25  C   UNL A   1      32.121  21.761  22.436  1.00  0.00     0.278 C 
ENDBRANCH  19  24
BRANCH  21  26
ATOM     26  O   UNL A   1      32.805  25.052  20.594  1.00  0.00    -0.490 OA
ATOM     27  C   UNL A   1      31.652  25.872  20.571  1.00  0.00     0.278 C 
ENDBRANCH  21  26
BRANCH  22  28
ATOM     28  O   UNL A   1      34.222  27.290  21.995  1.00  0.00    -0.493 OA
ATOM     29  C   UNL A   1      33.494  28.365  22.580  1.00  0.00     0.278 C 
ENDBRANCH  22  28
ENDBRANCH   8  18
ENDBRANCH   4   7
ENDBRANCH   2   3
ENDBRANCH   1   2
BRANCH   1  30
ATOM     30  C   UNL A   1      31.491  32.193  26.789  1.00  0.00     0.023 C 
BRANCH  30  31
ATOM     31  C   UNL A   1      32.720  32.902  27.348  1.00  0.00     0.116 C 
BRANCH  31  32
ATOM     32  N   UNL A   1      32.450  34.287  27.694  1.00  0.00    -0.352 N 
ATOM     33  C   UNL A   1      33.017  35.066  28.675  1.00  0.00     0.251 C 
ATOM     34  H   UNL A   1      31.762  34.732  27.148  1.00  0.00     0.163 HD
ATOM     35  O   UNL A   1      32.556  36.161  28.941  1.00  0.00    -0.269 OA
BRANCH  33  36
ATOM     36  C   UNL A   1      34.180  34.544  29.423  1.00  0.00     0.039 A 
ATOM     37  C   UNL A   1      33.966  33.970  30.678  1.00  0.00     0.014 A 
ATOM     38  C   UNL A   1      35.465  34.607  28.880  1.00  0.00     0.014 A 
ATOM     39  C   UNL A   1      35.039  33.402  31.365  1.00  0.00     0.010 A 
ATOM     40  C   UNL A   1      36.519  33.976  29.532  1.00  0.00     0.010 A 
ATOM     41  C   UNL A   1      36.316  33.369  30.780  1.00  0.00    -0.014 A 
BRANCH  41  42
ATOM     42  C   UNL A   1      37.446  32.686  31.459  1.00  0.00     0.031 A 
ATOM     43  C   UNL A   1      38.137  31.526  30.801  1.00  0.00     0.074 A 
ATOM     44  C   UNL A   1      37.808  33.077  32.697  1.00  0.00     0.049 A 
ATOM     45  N   UNL A   1      39.114  30.780  31.253  1.00  0.00    -0.248 NA
ATOM     46  C   UNL A   1      37.648  31.133  29.471  1.00  0.00     0.031 C 
ATOM     47  C   UNL A   1      37.174  34.154  33.459  1.00  0.00     0.029 A 
ATOM     48  N   UNL A   1      38.789  32.610  33.533  1.00  0.00    -0.354 N 
ATOM     49  C   UNL A   1      39.348  29.829  30.269  1.00  0.00     0.074 A 
ATOM     50  C   UNL A   1      38.371  30.052  29.226  1.00  0.00     0.031 C 
ATOM     51  C   UNL A   1      37.800  34.283  34.640  1.00  0.00     0.029 A 
ATOM     52  C   UNL A   1      38.850  33.275  34.734  1.00  0.00     0.049 A 
ATOM     53  H   UNL A   1      39.392  31.869  33.296  1.00  0.00     0.167 HD
ATOM     54  C   UNL A   1      40.307  28.873  30.230  1.00  0.00     0.037 A 
ATOM     55  C   UNL A   1      39.660  33.087  35.794  1.00  0.00     0.037 A 
ATOM     56  C   UNL A   1      41.282  28.666  31.268  1.00  0.00     0.049 A 
ATOM     57  C   UNL A   1      40.708  32.010  35.731  1.00  0.00     0.074 A 
ATOM     58  C   UNL A   1      42.333  27.766  31.298  1.00  0.00     0.029 A 
ATOM     59  N   UNL A   1      41.321  29.365  32.467  1.00  0.00    -0.354 N 
ATOM     60  N   UNL A   1      40.974  31.168  34.762  1.00  0.00    -0.248 NA
ATOM     61  C   UNL A   1      41.575  31.862  36.908  1.00  0.00     0.031 C 
ATOM     62  C   UNL A   1      42.970  27.879  32.539  1.00  0.00     0.029 A 
ATOM     63  C   UNL A   1      42.358  28.894  33.257  1.00  0.00     0.049 A 
ATOM     64  H   UNL A   1      40.702  30.088  32.719  1.00  0.00     0.167 HD
ATOM     65  C   UNL A   1      42.053  30.411  35.198  1.00  0.00     0.074 A 
ATOM     66  C   UNL A   1      42.403  30.906  36.513  1.00  0.00     0.031 C 
ATOM     67  C   UNL A   1      42.696  29.398  34.564  1.00  0.00     0.037 A 
BRANCH  54  68
ATOM     68  C   UNL A   1      40.341  27.976  29.025  1.00  0.00     0.064 A 
ATOM     69  C   UNL A   1      39.627  26.767  28.983  1.00  0.00     0.173 A 
ATOM     70  C   UNL A   1      41.077  28.340  27.887  1.00  0.00     0.173 A 
ATOM     71  F   UNL A   1      38.914  26.366  30.046  1.00  0.00    -0.203 F 
ATOM     72  C   UNL A   1      39.682  25.940  27.863  1.00  0.00     0.198 A 
ATOM     73  C   UNL A   1      41.101  27.526  26.756  1.00  0.00     0.198 A 
ATOM     74  F   UNL A   1      41.772  29.486  27.869  1.00  0.00    -0.203 F 
ATOM     75  F   UNL A   1      39.040  24.763  27.871  1.00  0.00    -0.200 F 
ATOM     76  C   UNL A   1      40.412  26.323  26.750  1.00  0.00     0.200 A 
ATOM     77  F   UNL A   1      41.795  27.905  25.675  1.00  0.00    -0.200 F 
ATOM     78  F   UNL A   1      40.460  25.528  25.672  1.00  0.00    -0.200 F 
ENDBRANCH  54  68
BRANCH  55  79
ATOM     79  C   UNL A   1      39.524  33.957  36.991  1.00  0.00     0.064 A 
ATOM     80  C   UNL A   1      40.155  35.207  37.047  1.00  0.00     0.173 A 
ATOM     81  C   UNL A   1      38.756  33.564  38.097  1.00  0.00     0.173 A 
ATOM     82  F   UNL A   1      40.916  35.620  36.023  1.00  0.00    -0.203 F 
ATOM     83  C   UNL A   1      40.038  36.023  38.171  1.00  0.00     0.198 A 
ATOM     84  C   UNL A   1      38.615  34.393  39.207  1.00  0.00     0.198 A 
ATOM     85  F   UNL A   1      38.127  32.380  38.091  1.00  0.00    -0.203 F 
ATOM     86  F   UNL A   1      40.688  37.194  38.216  1.00  0.00    -0.200 F 
ATOM     87  C   UNL A   1      39.263  35.619  39.246  1.00  0.00     0.200 A 
ATOM     88  F   UNL A   1      37.851  34.007  40.237  1.00  0.00    -0.200 F 
ATOM     89  F   UNL A   1      39.144  36.408  40.324  1.00  0.00    -0.200 F 
ENDBRANCH  55  79
BRANCH  67  90
ATOM     90  C   UNL A   1      43.867  28.778  35.271  1.00  0.00     0.064 A 
ATOM     91  C   UNL A   1      43.714  27.681  36.134  1.00  0.00     0.173 A 
ATOM     92  C   UNL A   1      45.165  29.263  35.052  1.00  0.00     0.173 A 
ATOM     93  F   UNL A   1      42.493  27.187  36.389  1.00  0.00    -0.203 F 
ATOM     94  C   UNL A   1      44.814  27.112  36.771  1.00  0.00     0.198 A 
ATOM     95  C   UNL A   1      46.267  28.671  35.664  1.00  0.00     0.198 A 
ATOM     96  F   UNL A   1      45.369  30.305  34.232  1.00  0.00    -0.203 F 
ATOM     97  F   UNL A   1      44.638  26.099  37.631  1.00  0.00    -0.200 F 
ATOM     98  C   UNL A   1      46.089  27.601  36.529  1.00  0.00     0.200 A 
ATOM     99  F   UNL A   1      47.499  29.134  35.416  1.00  0.00    -0.200 F 
ATOM    100  F   UNL A   1      47.148  27.047  37.136  1.00  0.00    -0.200 F 
ENDBRANCH  67  90
ENDBRANCH  41  42
ENDBRANCH  33  36
ENDBRANCH  31  32
ENDBRANCH  30  31
ENDBRANCH   1  30
TORSDOF 15
ENDMDL
MODEL 2
REMARK VINA RESULT:     -12.4      0.554      7.147
REMARK SMILES COc1cc(-c2cc(C(=O)NCCCCNC(=O)c3ccc(-c4c5nc(c(-c6c(F)c(F)c(F)c(F)c6F)c6ccc([nH]6)c(-c6c(F)c(F)c(F)c(F)c6F)c6nc(c(-c7c(F)c(F)c(F)c(F)c7F)c7ccc4[nH]7)C=C6)C=C5)cc3)c3cc(C)ccc3n2)cc(OC)c1OC
REMARK SMILES IDX 13 1 12 2 11 3 9 4 10 5 8 7 6 8 7 9 89 10 88 11 82 12 87 13
REMARK SMILES IDX 83 14 86 15 84 16 85 17 5 18 3 19 4 20 94 21 91 22 90 23
REMARK SMILES IDX 2 24 1 25 95 26 96 27 92 28 93 29 14 30 15 31 16 32 17 33
REMARK SMILES IDX 18 35 19 36 20 37 81 38 21 39 80 40 22 41 23 42 24 43 74 44
REMARK SMILES IDX 25 45 79 46 73 47 75 48 26 49 78 50 72 51 71 52 27 54 59 55
REMARK SMILES IDX 39 56 58 57 40 58 43 59 57 60 76 61 41 62 42 63 56 65 77 66
REMARK SMILES IDX 44 67 28 68 29 69 37 70 30 71 31 72 35 73 38 74 32 75 33 76
REMARK SMILES IDX 36 77 34 78 60 79 61 80 69 81 62 82 63 83 67 84 70 85 64 86
REMARK SMILES IDX 65 87 68 88 66 89 45 90 46 91 54 92 47 93 48 94 52 95 55 96
REMARK SMILES IDX 49 97 50 98 53 99 51 100
REMARK H PARENT 11 6 16 34 75 53 43 64
REMARK Flexibility Score: inf
ROOT
ATOM      1  C   UNL A   1      31.728  30.963  26.082  1.00  0.00     0.023 C 
ENDROOT
BRANCH   1   2
ATOM      2  C   UNL A   1      32.978  30.226  26.569  1.00  0.00     0.116 C 
BRANCH   2   3
ATOM      3  N   UNL A   1      32.602  29.315  27.629  1.00  0.00    -0.352 N 
ATOM      4  C   UNL A   1      31.672  28.305  27.561  1.00  0.00     0.252 C 
ATOM      5  O   UNL A   1      30.888  28.164  28.494  1.00  0.00    -0.269 OA
ATOM      6  H   UNL A   1      33.061  29.431  28.492  1.00  0.00     0.163 HD
BRANCH   4   7
ATOM      7  C   UNL A   1      31.861  27.258  26.530  1.00  0.00     0.051 A 
ATOM      8  C   UNL A   1      32.616  25.196  25.712  1.00  0.00     0.072 A 
ATOM      9  C   UNL A   1      32.850  26.279  26.537  1.00  0.00     0.043 A 
ATOM     10  N   UNL A   1      31.332  24.914  25.371  1.00  0.00    -0.248 NA
ATOM     11  C   UNL A   1      30.612  25.969  24.997  1.00  0.00     0.072 A 
ATOM     12  C   UNL A   1      30.946  27.235  25.469  1.00  0.00     0.013 A 
ATOM     13  C   UNL A   1      29.729  25.841  23.940  1.00  0.00     0.029 A 
ATOM     14  C   UNL A   1      30.589  28.364  24.704  1.00  0.00     0.014 A 
ATOM     15  C   UNL A   1      29.422  26.950  23.152  1.00  0.00     0.005 A 
ATOM     16  C   UNL A   1      29.965  28.195  23.467  1.00  0.00    -0.050 A 
ATOM     17  C   UNL A   1      30.017  29.299  22.450  1.00  0.00     0.044 C 
BRANCH   8  18
ATOM     18  C   UNL A   1      33.482  24.854  24.535  1.00  0.00     0.008 A 
ATOM     19  C   UNL A   1      33.313  23.723  22.416  1.00  0.00     0.165 A 
ATOM     20  C   UNL A   1      33.267  23.682  23.815  1.00  0.00     0.061 A 
ATOM     21  C   UNL A   1      33.427  24.949  21.734  1.00  0.00     0.203 A 
ATOM     22  C   UNL A   1      33.871  26.063  22.440  1.00  0.00     0.165 A 
ATOM     23  C   UNL A   1      34.034  25.957  23.828  1.00  0.00     0.061 A 
BRANCH  19  24
ATOM     24  O   UNL A   1      33.133  22.527  21.766  1.00  0.00    -0.493 OA
ATOM     25  C   UNL A   1      32.215  21.687  22.474  1.00  0.00     0.278 C 
ENDBRANCH  19  24
BRANCH  21  26
ATOM     26  O   UNL A   1      32.808  25.020  20.512  1.00  0.00    -0.490 OA
ATOM     27  C   UNL A   1      31.687  25.878  20.414  1.00  0.00     0.278 C 
ENDBRANCH  21  26
BRANCH  22  28
ATOM     28  O   UNL A   1      34.141  27.301  21.924  1.00  0.00    -0.493 OA
ATOM     29  C   UNL A   1      33.883  28.402  22.790  1.00  0.00     0.278 C 
ENDBRANCH  22  28
ENDBRANCH   8  18
ENDBRANCH   4   7
ENDBRANCH   2   3
ENDBRANCH   1   2
BRANCH   1  30
ATOM     30  C   UNL A   1      31.492  32.313  26.776  1.00  0.00     0.023 C 
BRANCH  30  31
ATOM     31  C   UNL A   1      32.759  33.032  27.229  1.00  0.00     0.116 C 
BRANCH  31  32
ATOM     32  N   UNL A   1      32.489  34.376  27.713  1.00  0.00    -0.352 N 
ATOM     33  C   UNL A   1      33.061  35.054  28.762  1.00  0.00     0.251 C 
ATOM     34  H   UNL A   1      31.796  34.871  27.218  1.00  0.00     0.163 HD
ATOM     35  O   UNL A   1      32.601  36.116  29.138  1.00  0.00    -0.269 OA
BRANCH  33  36
ATOM     36  C   UNL A   1      34.231  34.464  29.446  1.00  0.00     0.039 A 
ATOM     37  C   UNL A   1      34.017  33.677  30.579  1.00  0.00     0.014 A 
ATOM     38  C   UNL A   1      35.523  34.673  28.960  1.00  0.00     0.014 A 
ATOM     39  C   UNL A   1      35.099  33.047  31.193  1.00  0.00     0.010 A 
ATOM     40  C   UNL A   1      36.591  33.986  29.528  1.00  0.00     0.010 A 
ATOM     41  C   UNL A   1      36.390  33.168  30.650  1.00  0.00    -0.014 A 
BRANCH  41  42
ATOM     42  C   UNL A   1      37.535  32.429  31.238  1.00  0.00     0.031 A 
ATOM     43  C   UNL A   1      38.069  32.809  32.589  1.00  0.00     0.074 A 
ATOM     44  C   UNL A   1      38.130  31.454  30.523  1.00  0.00     0.049 A 
ATOM     45  N   UNL A   1      39.083  32.309  33.249  1.00  0.00    -0.248 NA
ATOM     46  C   UNL A   1      37.391  33.916  33.280  1.00  0.00     0.031 C 
ATOM     47  C   UNL A   1      37.736  31.035  29.178  1.00  0.00     0.029 A 
ATOM     48  N   UNL A   1      39.196  30.646  30.826  1.00  0.00    -0.354 N 
ATOM     49  C   UNL A   1      39.168  33.045  34.423  1.00  0.00     0.074 A 
ATOM     50  C   UNL A   1      38.145  34.065  34.358  1.00  0.00     0.031 C 
ATOM     51  C   UNL A   1      38.532  30.029  28.781  1.00  0.00     0.029 A 
ATOM     52  C   UNL A   1      39.515  29.760  29.825  1.00  0.00     0.049 A 
ATOM     53  H   UNL A   1      39.686  30.696  31.678  1.00  0.00     0.167 HD
ATOM     54  C   UNL A   1      40.010  32.869  35.471  1.00  0.00     0.037 A 
ATOM     55  C   UNL A   1      40.494  28.838  29.757  1.00  0.00     0.037 A 
ATOM     56  C   UNL A   1      41.018  31.843  35.532  1.00  0.00     0.049 A 
ATOM     57  C   UNL A   1      41.424  28.670  30.928  1.00  0.00     0.074 A 
ATOM     58  C   UNL A   1      41.879  31.541  36.571  1.00  0.00     0.029 A 
ATOM     59  N   UNL A   1      41.306  30.956  34.503  1.00  0.00    -0.354 N 
ATOM     60  N   UNL A   1      41.444  29.318  32.068  1.00  0.00    -0.248 NA
ATOM     61  C   UNL A   1      42.461  27.637  30.805  1.00  0.00     0.031 C 
ATOM     62  C   UNL A   1      42.729  30.511  36.151  1.00  0.00     0.029 A 
ATOM     63  C   UNL A   1      42.354  30.127  34.873  1.00  0.00     0.049 A 
ATOM     64  H   UNL A   1      40.836  30.921  33.639  1.00  0.00     0.167 HD
ATOM     65  C   UNL A   1      42.475  28.754  32.809  1.00  0.00     0.074 A 
ATOM     66  C   UNL A   1      43.044  27.700  31.994  1.00  0.00     0.031 C 
ATOM     67  C   UNL A   1      42.909  29.080  34.052  1.00  0.00     0.037 A 
BRANCH  54  68
ATOM     68  C   UNL A   1      39.874  33.811  36.633  1.00  0.00     0.064 A 
ATOM     69  C   UNL A   1      40.607  35.008  36.703  1.00  0.00     0.173 A 
ATOM     70  C   UNL A   1      38.983  33.529  37.680  1.00  0.00     0.173 A 
ATOM     71  F   UNL A   1      41.480  35.323  35.735  1.00  0.00    -0.203 F 
ATOM     72  C   UNL A   1      40.481  35.863  37.795  1.00  0.00     0.198 A 
ATOM     73  C   UNL A   1      38.835  34.405  38.753  1.00  0.00     0.198 A 
ATOM     74  F   UNL A   1      38.253  32.404  37.661  1.00  0.00    -0.203 F 
ATOM     75  F   UNL A   1      41.237  36.969  37.868  1.00  0.00    -0.200 F 
ATOM     76  C   UNL A   1      39.591  35.565  38.815  1.00  0.00     0.200 A 
ATOM     77  F   UNL A   1      37.962  34.122  39.730  1.00  0.00    -0.200 F 
ATOM     78  F   UNL A   1      39.468  36.391  39.862  1.00  0.00    -0.200 F 
ENDBRANCH  54  68
BRANCH  55  79
ATOM     79  C   UNL A   1      40.626  27.988  28.545  1.00  0.00     0.064 A 
ATOM     80  C   UNL A   1      39.997  26.737  28.471  1.00  0.00     0.173 A 
ATOM     81  C   UNL A   1      41.371  28.409  27.434  1.00  0.00     0.173 A 
ATOM     82  F   UNL A   1      39.288  26.282  29.514  1.00  0.00    -0.203 F 
ATOM     83  C   UNL A   1      40.125  25.932  27.340  1.00  0.00     0.198 A 
ATOM     84  C   UNL A   1      41.474  27.617  26.293  1.00  0.00     0.198 A 
ATOM     85  F   UNL A   1      41.988  29.600  27.451  1.00  0.00    -0.203 F 
ATOM     86  F   UNL A   1      39.550  24.722  27.314  1.00  0.00    -0.200 F 
ATOM     87  C   UNL A   1      40.856  26.376  26.250  1.00  0.00     0.200 A 
ATOM     88  F   UNL A   1      42.167  28.056  25.234  1.00  0.00    -0.200 F 
ATOM     89  F   UNL A   1      40.972  25.605  25.159  1.00  0.00    -0.200 F 
ENDBRANCH  55  79
BRANCH  67  90
ATOM     90  C   UNL A   1      44.034  28.267  34.623  1.00  0.00     0.064 A 
ATOM     91  C   UNL A   1      43.804  27.062  35.306  1.00  0.00     0.173 A 
ATOM     92  C   UNL A   1      45.365  28.678  34.452  1.00  0.00     0.173 A 
ATOM     93  F   UNL A   1      42.550  26.630  35.510  1.00  0.00    -0.203 F 
ATOM     94  C   UNL A   1      44.862  26.316  35.818  1.00  0.00     0.198 A 
ATOM     95  C   UNL A   1      46.422  27.913  34.936  1.00  0.00     0.198 A 
ATOM     96  F   UNL A   1      45.642  29.818  33.801  1.00  0.00    -0.203 F 
ATOM     97  F   UNL A   1      44.616  25.196  36.512  1.00  0.00    -0.200 F 
ATOM     98  C   UNL A   1      46.169  26.737  35.626  1.00  0.00     0.200 A 
ATOM     99  F   UNL A   1      47.685  28.313  34.734  1.00  0.00    -0.200 F 
ATOM    100  F   UNL A   1      47.187  26.013  36.112  1.00  0.00    -0.200 F 
ENDBRANCH  67  90
ENDBRANCH  41  42
ENDBRANCH  33  36
ENDBRANCH  31  32
ENDBRANCH  30  31
ENDBRANCH   1  30
TORSDOF 15
ENDMDL
MODEL 3
REMARK VINA RESULT:     -12.3      0.990      2.364
REMARK SMILES COc1cc(-c2cc(C(=O)NCCCCNC(=O)c3ccc(-c4c5nc(c(-c6c(F)c(F)c(F)c(F)c6F)c6ccc([nH]6)c(-c6c(F)c(F)c(F)c(F)c6F)c6nc(c(-c7c(F)c(F)c(F)c(F)c7F)c7ccc4[nH]7)C=C6)C=C5)cc3)c3cc(C)ccc3n2)cc(OC)c1OC
REMARK SMILES IDX 13 1 12 2 11 3 9 4 10 5 8 7 6 8 7 9 89 10 88 11 82 12 87 13
REMARK SMILES IDX 83 14 86 15 84 16 85 17 5 18 3 19 4 20 94 21 91 22 90 23
REMARK SMILES IDX 2 24 1 25 95 26 96 27 92 28 93 29 14 30 15 31 16 32 17 33
REMARK SMILES IDX 18 35 19 36 20 37 81 38 21 39 80 40 22 41 23 42 24 43 74 44
REMARK SMILES IDX 25 45 79 46 73 47 75 48 26 49 78 50 72 51 71 52 27 54 59 55
REMARK SMILES IDX 39 56 58 57 40 58 43 59 57 60 76 61 41 62 42 63 56 65 77 66
REMARK SMILES IDX 44 67 28 68 29 69 37 70 30 71 31 72 35 73 38 74 32 75 33 76
REMARK SMILES IDX 36 77 34 78 60 79 61 80 69 81 62 82 63 83 67 84 70 85 64 86
REMARK SMILES IDX 65 87 68 88 66 89 45 90 46 91 54 92 47 93 48 94 52 95 55 96
REMARK SMILES IDX 49 97 50 98 53 99 51 100
REMARK H PARENT 11 6 16 34 75 53 43 64
REMARK Flexibility Score: inf
ROOT
ATOM      1  C   UNL A   1      31.936  30.823  25.943  1.00  0.00     0.023 C 
ENDROOT
BRANCH   1   2
ATOM      2  C   UNL A   1      33.132  30.055  26.512  1.00  0.00     0.116 C 
BRANCH   2   3
ATOM      3  N   UNL A   1      32.671  29.196  27.581  1.00  0.00    -0.352 N 
ATOM      4  C   UNL A   1      31.691  28.235  27.509  1.00  0.00     0.252 C 
ATOM      5  O   UNL A   1      30.869  28.163  28.416  1.00  0.00    -0.269 OA
ATOM      6  H   UNL A   1      33.105  29.313  28.457  1.00  0.00     0.163 HD
BRANCH   4   7
ATOM      7  C   UNL A   1      31.859  27.150  26.514  1.00  0.00     0.051 A 
ATOM      8  C   UNL A   1      32.496  25.015  25.790  1.00  0.00     0.072 A 
ATOM      9  C   UNL A   1      32.765  26.098  26.604  1.00  0.00     0.043 A 
ATOM     10  N   UNL A   1      31.217  24.825  25.374  1.00  0.00    -0.248 NA
ATOM     11  C   UNL A   1      30.609  25.923  24.932  1.00  0.00     0.072 A 
ATOM     12  C   UNL A   1      31.012  27.171  25.397  1.00  0.00     0.013 A 
ATOM     13  C   UNL A   1      29.785  25.837  23.823  1.00  0.00     0.029 A 
ATOM     14  C   UNL A   1      30.795  28.304  24.587  1.00  0.00     0.014 A 
ATOM     15  C   UNL A   1      29.617  26.946  22.995  1.00  0.00     0.005 A 
ATOM     16  C   UNL A   1      30.238  28.152  23.317  1.00  0.00    -0.050 A 
ATOM     17  C   UNL A   1      30.441  29.221  22.283  1.00  0.00     0.044 C 
BRANCH   8  18
ATOM     18  C   UNL A   1      33.403  24.575  24.678  1.00  0.00     0.008 A 
ATOM     19  C   UNL A   1      35.610  23.658  24.382  1.00  0.00     0.165 A 
ATOM     20  C   UNL A   1      34.784  24.710  24.796  1.00  0.00     0.061 A 
ATOM     21  C   UNL A   1      35.062  22.422  23.988  1.00  0.00     0.203 A 
ATOM     22  C   UNL A   1      33.712  22.372  23.652  1.00  0.00     0.165 A 
ATOM     23  C   UNL A   1      32.923  23.510  23.869  1.00  0.00     0.061 A 
BRANCH  19  24
ATOM     24  O   UNL A   1      36.964  23.868  24.486  1.00  0.00    -0.493 OA
ATOM     25  C   UNL A   1      37.382  23.868  25.855  1.00  0.00     0.278 C 
ENDBRANCH  19  24
BRANCH  21  26
ATOM     26  O   UNL A   1      35.821  21.312  24.257  1.00  0.00    -0.490 OA
ATOM     27  C   UNL A   1      35.551  20.634  25.470  1.00  0.00     0.278 C 
ENDBRANCH  21  26
BRANCH  22  28
ATOM     28  O   UNL A   1      33.036  21.292  23.152  1.00  0.00    -0.493 OA
ATOM     29  C   UNL A   1      31.851  21.590  22.420  1.00  0.00     0.278 C 
ENDBRANCH  22  28
ENDBRANCH   8  18
ENDBRANCH   4   7
ENDBRANCH   2   3
ENDBRANCH   1   2
BRANCH   1  30
ATOM     30  C   UNL A   1      31.597  32.108  26.716  1.00  0.00     0.023 C 
BRANCH  30  31
ATOM     31  C   UNL A   1      32.800  32.842  27.299  1.00  0.00     0.116 C 
BRANCH  31  32
ATOM     32  N   UNL A   1      32.486  34.213  27.665  1.00  0.00    -0.352 N 
ATOM     33  C   UNL A   1      33.014  34.988  28.670  1.00  0.00     0.251 C 
ATOM     34  H   UNL A   1      31.795  34.649  27.116  1.00  0.00     0.163 HD
ATOM     35  O   UNL A   1      32.519  36.065  28.948  1.00  0.00    -0.269 OA
BRANCH  33  36
ATOM     36  C   UNL A   1      34.178  34.483  29.428  1.00  0.00     0.039 A 
ATOM     37  C   UNL A   1      33.959  33.881  30.669  1.00  0.00     0.014 A 
ATOM     38  C   UNL A   1      35.470  34.591  28.909  1.00  0.00     0.014 A 
ATOM     39  C   UNL A   1      35.035  33.330  31.364  1.00  0.00     0.010 A 
ATOM     40  C   UNL A   1      36.529  33.977  29.568  1.00  0.00     0.010 A 
ATOM     41  C   UNL A   1      36.323  33.341  30.801  1.00  0.00    -0.014 A 
BRANCH  41  42
ATOM     42  C   UNL A   1      37.459  32.677  31.487  1.00  0.00     0.031 A 
ATOM     43  C   UNL A   1      38.159  31.514  30.843  1.00  0.00     0.074 A 
ATOM     44  C   UNL A   1      37.819  33.087  32.719  1.00  0.00     0.049 A 
ATOM     45  N   UNL A   1      39.142  30.782  31.303  1.00  0.00    -0.248 NA
ATOM     46  C   UNL A   1      37.670  31.100  29.519  1.00  0.00     0.031 C 
ATOM     47  C   UNL A   1      37.178  34.168  33.468  1.00  0.00     0.029 A 
ATOM     48  N   UNL A   1      38.806  32.638  33.560  1.00  0.00    -0.354 N 
ATOM     49  C   UNL A   1      39.382  29.820  30.331  1.00  0.00     0.074 A 
ATOM     50  C   UNL A   1      38.402  30.021  29.287  1.00  0.00     0.031 C 
ATOM     51  C   UNL A   1      37.805  34.318  34.646  1.00  0.00     0.029 A 
ATOM     52  C   UNL A   1      38.863  33.319  34.751  1.00  0.00     0.049 A 
ATOM     53  H   UNL A   1      39.414  31.899  33.331  1.00  0.00     0.167 HD
ATOM     54  C   UNL A   1      40.349  28.871  30.303  1.00  0.00     0.037 A 
ATOM     55  C   UNL A   1      39.676  33.151  35.812  1.00  0.00     0.037 A 
ATOM     56  C   UNL A   1      41.327  28.685  31.342  1.00  0.00     0.049 A 
ATOM     57  C   UNL A   1      40.733  32.083  35.763  1.00  0.00     0.074 A 
ATOM     58  C   UNL A   1      42.385  27.795  31.382  1.00  0.00     0.029 A 
ATOM     59  N   UNL A   1      41.362  29.400  32.532  1.00  0.00    -0.354 N 
ATOM     60  N   UNL A   1      41.004  31.230  34.803  1.00  0.00    -0.248 NA
ATOM     61  C   UNL A   1      41.602  31.957  36.940  1.00  0.00     0.031 C 
ATOM     62  C   UNL A   1      43.023  27.929  32.621  1.00  0.00     0.029 A 
ATOM     63  C   UNL A   1      42.405  28.948  33.326  1.00  0.00     0.049 A 
ATOM     64  H   UNL A   1      40.738  30.122  32.776  1.00  0.00     0.167 HD
ATOM     65  C   UNL A   1      42.090  30.488  35.248  1.00  0.00     0.074 A 
ATOM     66  C   UNL A   1      42.438  31.002  36.556  1.00  0.00     0.031 C 
ATOM     67  C   UNL A   1      42.740  29.472  34.626  1.00  0.00     0.037 A 
BRANCH  54  68
ATOM     68  C   UNL A   1      40.388  27.959  29.110  1.00  0.00     0.064 A 
ATOM     69  C   UNL A   1      41.123  28.282  27.957  1.00  0.00     0.173 A 
ATOM     70  C   UNL A   1      39.703  26.734  29.125  1.00  0.00     0.173 A 
ATOM     71  F   UNL A   1      41.788  29.444  27.884  1.00  0.00    -0.203 F 
ATOM     72  C   UNL A   1      41.136  27.433  26.853  1.00  0.00     0.198 A 
ATOM     73  C   UNL A   1      39.748  25.872  28.032  1.00  0.00     0.198 A 
ATOM     74  F   UNL A   1      38.991  26.371  30.202  1.00  0.00    -0.203 F 
ATOM     75  F   UNL A   1      41.795  27.792  25.742  1.00  0.00    -0.200 F 
ATOM     76  C   UNL A   1      40.455  26.227  26.894  1.00  0.00     0.200 A 
ATOM     77  F   UNL A   1      39.101  24.699  28.080  1.00  0.00    -0.200 F 
ATOM     78  F   UNL A   1      40.473  25.408  25.833  1.00  0.00    -0.200 F 
ENDBRANCH  54  68
BRANCH  55  79
ATOM     79  C   UNL A   1      39.535  34.036  36.998  1.00  0.00     0.064 A 
ATOM     80  C   UNL A   1      40.158  35.291  37.039  1.00  0.00     0.173 A 
ATOM     81  C   UNL A   1      38.769  33.653  38.109  1.00  0.00     0.173 A 
ATOM     82  F   UNL A   1      40.916  35.695  36.010  1.00  0.00    -0.203 F 
ATOM     83  C   UNL A   1      40.036  36.120  38.153  1.00  0.00     0.198 A 
ATOM     84  C   UNL A   1      38.623  34.495  39.209  1.00  0.00     0.198 A 
ATOM     85  F   UNL A   1      38.147  32.465  38.119  1.00  0.00    -0.203 F 
ATOM     86  F   UNL A   1      40.679  37.296  38.182  1.00  0.00    -0.200 F 
ATOM     87  C   UNL A   1      39.263  35.725  39.233  1.00  0.00     0.200 A 
ATOM     88  F   UNL A   1      37.861  34.117  40.244  1.00  0.00    -0.200 F 
ATOM     89  F   UNL A   1      39.139  36.527  40.300  1.00  0.00    -0.200 F 
ENDBRANCH  55  79
BRANCH  67  90
ATOM     90  C   UNL A   1      43.917  28.870  35.339  1.00  0.00     0.064 A 
ATOM     91  C   UNL A   1      45.227  29.326  35.121  1.00  0.00     0.173 A 
ATOM     92  C   UNL A   1      43.728  27.849  36.283  1.00  0.00     0.173 A 
ATOM     93  F   UNL A   1      45.464  30.290  34.218  1.00  0.00    -0.203 F 
ATOM     94  C   UNL A   1      46.304  28.763  35.800  1.00  0.00     0.198 A 
ATOM     95  C   UNL A   1      44.803  27.312  36.986  1.00  0.00     0.198 A 
ATOM     96  F   UNL A   1      42.497  27.381  36.536  1.00  0.00    -0.203 F 
ATOM     97  F   UNL A   1      47.550  29.178  35.537  1.00  0.00    -0.200 F 
ATOM     98  C   UNL A   1      46.090  27.764  36.737  1.00  0.00     0.200 A 
ATOM     99  F   UNL A   1      44.593  26.358  37.903  1.00  0.00    -0.200 F 
ATOM    100  F   UNL A   1      47.128  27.228  37.397  1.00  0.00    -0.200 F 
ENDBRANCH  67  90
ENDBRANCH  41  42
ENDBRANCH  33  36
ENDBRANCH  31  32
ENDBRANCH  30  31
ENDBRANCH   1  30
TORSDOF 15
ENDMDL
