MODEL 1
REMARK VINA RESULT:     -14.6      0.000      0.000
REMARK SMILES O=C(NCCCCNC(=O)[C@H](c1c[nH]c2cc(OCc3ccccc3)ccc12)[NH+]1CC[NH+]([C@H]2CCS(=O)(=O)C2)CC1)c1ccc(-c2c3nc(c(-c4c(F)c(F)c(F)c(F)c4F)c4ccc([nH]4)c(-c4c(F)c(F)c(F)c(F)c4F)c4nc(c(-c5c(F)c(F)c(F)c(F)c5F)c5ccc2[nH]5)C=C4)C=C3)cc1
REMARK SMILES IDX 6 1 5 2 4 3 3 4 1 5 2 6 42 8 43 9 104 10 44 11 103 12 45 13
REMARK SMILES IDX 46 14 47 15 97 16 48 17 102 18 96 19 98 20 49 21 101 22
REMARK SMILES IDX 95 23 94 24 50 26 82 27 62 28 81 29 63 30 66 31 80 32 99 33
REMARK SMILES IDX 64 34 65 35 79 37 100 38 67 39 51 40 52 41 60 42 53 43 54 44
REMARK SMILES IDX 58 45 61 46 55 47 56 48 59 49 57 50 83 51 84 52 92 53 85 54
REMARK SMILES IDX 86 55 90 56 93 57 87 58 88 59 91 60 89 61 68 62 69 63 77 64
REMARK SMILES IDX 70 65 71 66 75 67 78 68 72 69 73 70 76 71 74 72 7 73 8 74
REMARK SMILES IDX 9 75 10 77 11 78 29 79 30 80 41 81 31 83 40 84 32 85 33 87
REMARK SMILES IDX 34 88 39 89 35 90 36 91 37 92 38 93 12 94 13 95 28 96 14 97
REMARK SMILES IDX 15 98 27 99 16 101 26 102 17 103 18 104 19 105 20 106 21 107
REMARK SMILES IDX 25 108 22 109 24 110 23 111
REMARK H PARENT 3 7 98 25 66 36 8 76 29 82 32 86 14 100
REMARK Flexibility Score: inf
ROOT
ATOM      1  C   UNL A   1      31.759  30.460  26.810  1.00  0.00     0.023 C 
ENDROOT
BRANCH   1   2
ATOM      2  C   UNL A   1      31.318  31.909  26.766  1.00  0.00     0.023 C 
BRANCH   2   3
ATOM      3  C   UNL A   1      32.466  32.897  26.839  1.00  0.00     0.116 C 
BRANCH   3   4
ATOM      4  N   UNL A   1      32.199  34.135  27.568  1.00  0.00    -0.352 N 
ATOM      5  O   UNL A   1      32.680  35.702  29.161  1.00  0.00    -0.269 OA
ATOM      6  C   UNL A   1      32.991  34.681  28.562  1.00  0.00     0.251 C 
ATOM      7  H   UNL A   1      31.380  34.626  27.330  1.00  0.00     0.163 HD
BRANCH   6   8
ATOM      8  C   UNL A   1      34.223  33.940  28.902  1.00  0.00     0.039 A 
ATOM      9  C   UNL A   1      34.101  32.810  29.708  1.00  0.00     0.014 A 
ATOM     10  C   UNL A   1      35.471  34.507  28.641  1.00  0.00     0.014 A 
ATOM     11  C   UNL A   1      35.192  32.406  30.454  1.00  0.00     0.010 A 
ATOM     12  C   UNL A   1      36.605  33.976  29.266  1.00  0.00     0.010 A 
ATOM     13  C   UNL A   1      36.468  32.950  30.213  1.00  0.00    -0.014 A 
BRANCH  13  14
ATOM     14  C   UNL A   1      37.629  32.332  30.905  1.00  0.00     0.031 A 
ATOM     15  C   UNL A   1      38.031  32.709  32.305  1.00  0.00     0.074 A 
ATOM     16  C   UNL A   1      38.287  31.357  30.247  1.00  0.00     0.049 A 
ATOM     17  N   UNL A   1      39.015  32.234  33.029  1.00  0.00    -0.248 NA
ATOM     18  C   UNL A   1      37.246  33.754  32.981  1.00  0.00     0.031 C 
ATOM     19  C   UNL A   1      37.990  30.921  28.878  1.00  0.00     0.029 A 
ATOM     20  N   UNL A   1      39.306  30.529  30.638  1.00  0.00    -0.354 N 
ATOM     21  C   UNL A   1      38.982  32.930  34.232  1.00  0.00     0.074 A 
ATOM     22  C   UNL A   1      37.893  33.880  34.133  1.00  0.00     0.031 C 
ATOM     23  C   UNL A   1      38.742  29.859  28.577  1.00  0.00     0.029 A 
ATOM     24  C   UNL A   1      39.661  29.614  29.677  1.00  0.00     0.049 A 
ATOM     25  H   UNL A   1      39.741  30.585  31.519  1.00  0.00     0.167 HD
ATOM     26  C   UNL A   1      39.787  32.780  35.313  1.00  0.00     0.037 A 
ATOM     27  C   UNL A   1      40.647  28.702  29.657  1.00  0.00     0.037 A 
ATOM     28  C   UNL A   1      40.863  31.822  35.396  1.00  0.00     0.049 A 
ATOM     29  C   UNL A   1      41.539  28.593  30.856  1.00  0.00     0.074 A 
ATOM     30  C   UNL A   1      41.729  31.584  36.452  1.00  0.00     0.029 A 
ATOM     31  N   UNL A   1      41.222  30.941  34.385  1.00  0.00    -0.354 N 
ATOM     32  N   UNL A   1      41.487  29.251  31.988  1.00  0.00    -0.248 NA
ATOM     33  C   UNL A   1      42.632  27.620  30.770  1.00  0.00     0.031 C 
ATOM     34  C   UNL A   1      42.643  30.601  36.059  1.00  0.00     0.029 A 
ATOM     35  C   UNL A   1      42.309  30.176  34.784  1.00  0.00     0.049 A 
ATOM     36  H   UNL A   1      40.772  30.870  33.512  1.00  0.00     0.167 HD
ATOM     37  C   UNL A   1      42.533  28.764  32.756  1.00  0.00     0.074 A 
ATOM     38  C   UNL A   1      43.173  27.725  31.975  1.00  0.00     0.031 C 
ATOM     39  C   UNL A   1      42.936  29.149  33.991  1.00  0.00     0.037 A 
BRANCH  26  40
ATOM     40  C   UNL A   1      39.557  33.676  36.501  1.00  0.00     0.064 A 
ATOM     41  C   UNL A   1      38.734  33.288  37.568  1.00  0.00     0.173 A 
ATOM     42  C   UNL A   1      40.241  34.897  36.614  1.00  0.00     0.173 A 
ATOM     43  F   UNL A   1      38.052  32.135  37.511  1.00  0.00    -0.203 F 
ATOM     44  C   UNL A   1      38.595  34.093  38.698  1.00  0.00     0.198 A 
ATOM     45  C   UNL A   1      40.122  35.686  37.757  1.00  0.00     0.198 A 
ATOM     46  F   UNL A   1      41.049  35.314  35.629  1.00  0.00    -0.203 F 
ATOM     47  F   UNL A   1      37.780  33.715  39.692  1.00  0.00    -0.200 F 
ATOM     48  C   UNL A   1      39.296  35.285  38.796  1.00  0.00     0.200 A 
ATOM     49  F   UNL A   1      40.816  36.829  37.857  1.00  0.00    -0.200 F 
ATOM     50  F   UNL A   1      39.177  36.048  39.891  1.00  0.00    -0.200 F 
ENDBRANCH  26  40
BRANCH  27  51
ATOM     51  C   UNL A   1      40.866  27.871  28.445  1.00  0.00     0.064 A 
ATOM     52  C   UNL A   1      41.684  28.315  27.399  1.00  0.00     0.173 A 
ATOM     53  C   UNL A   1      40.250  26.617  28.305  1.00  0.00     0.173 A 
ATOM     54  F   UNL A   1      42.286  29.511  27.479  1.00  0.00    -0.203 F 
ATOM     55  C   UNL A   1      41.850  27.553  26.245  1.00  0.00     0.198 A 
ATOM     56  C   UNL A   1      40.453  25.836  27.172  1.00  0.00     0.198 A 
ATOM     57  F   UNL A   1      39.467  26.138  29.283  1.00  0.00    -0.203 F 
ATOM     58  F   UNL A   1      42.584  28.030  25.230  1.00  0.00    -0.200 F 
ATOM     59  C   UNL A   1      41.240  26.312  26.135  1.00  0.00     0.200 A 
ATOM     60  F   UNL A   1      39.884  24.626  27.085  1.00  0.00    -0.200 F 
ATOM     61  F   UNL A   1      41.402  25.578  25.026  1.00  0.00    -0.200 F 
ENDBRANCH  27  51
BRANCH  39  62
ATOM     62  C   UNL A   1      44.109  28.414  34.572  1.00  0.00     0.064 A 
ATOM     63  C   UNL A   1      45.428  28.835  34.346  1.00  0.00     0.173 A 
ATOM     64  C   UNL A   1      43.911  27.263  35.349  1.00  0.00     0.173 A 
ATOM     65  F   UNL A   1      45.672  29.919  33.592  1.00  0.00    -0.203 F 
ATOM     66  C   UNL A   1      46.507  28.105  34.837  1.00  0.00     0.198 A 
ATOM     67  C   UNL A   1      44.991  26.558  35.872  1.00  0.00     0.198 A 
ATOM     68  F   UNL A   1      42.670  26.820  35.600  1.00  0.00    -0.203 F 
ATOM     69  F   UNL A   1      47.758  28.481  34.541  1.00  0.00    -0.200 F 
ATOM     70  C   UNL A   1      46.287  26.970  35.603  1.00  0.00     0.200 A 
ATOM     71  F   UNL A   1      44.776  25.469  36.624  1.00  0.00    -0.200 F 
ATOM     72  F   UNL A   1      47.326  26.265  36.070  1.00  0.00    -0.200 F 
ENDBRANCH  39  62
ENDBRANCH  13  14
ENDBRANCH   6   8
ENDBRANCH   3   4
ENDBRANCH   2   3
ENDBRANCH   1   2
BRANCH   1  73
ATOM     73  C   UNL A   1      32.987  30.125  25.968  1.00  0.00     0.116 C 
BRANCH  73  74
ATOM     74  N   UNL A   1      33.531  28.816  26.248  1.00  0.00    -0.351 N 
ATOM     75  C   UNL A   1      33.293  27.604  25.678  1.00  0.00     0.283 C 
ATOM     76  H   UNL A   1      34.190  28.798  26.980  1.00  0.00     0.163 HD
ATOM     77  O   UNL A   1      34.219  26.788  25.835  1.00  0.00    -0.268 OA
BRANCH  75  78
ATOM     78  C   UNL A   1      31.984  27.149  24.932  1.00  0.00     0.308 C 
BRANCH  78  79
ATOM     79  N   UNL A   1      32.242  26.956  23.457  1.00  0.00    -0.312 N 
ATOM     80  C   UNL A   1      30.980  26.728  22.705  1.00  0.00     0.325 C 
ATOM     81  C   UNL A   1      32.895  28.106  22.791  1.00  0.00     0.325 C 
ATOM     82  H   UNL A   1      32.863  26.148  23.433  1.00  0.00     0.349 HD
ATOM     83  C   UNL A   1      30.042  27.948  22.674  1.00  0.00     0.324 C 
ATOM     84  C   UNL A   1      32.020  29.382  22.690  1.00  0.00     0.324 C 
ATOM     85  N   UNL A   1      30.690  29.134  22.093  1.00  0.00    -0.322 N 
ATOM     86  H   UNL A   1      30.897  28.953  21.111  1.00  0.00     0.348 HD
BRANCH  85  87
ATOM     87  C   UNL A   1      29.777  30.284  22.062  1.00  0.00     0.200 C 
ATOM     88  C   UNL A   1      28.510  30.136  21.197  1.00  0.00     0.082 C 
ATOM     89  C   UNL A   1      29.285  30.700  23.449  1.00  0.00     0.201 C 
ATOM     90  C   UNL A   1      27.681  31.396  21.428  1.00  0.00     0.143 C 
ATOM     91  S   UNL A   1      28.017  31.904  23.107  1.00  0.00     0.156 S 
ATOM     92  O   UNL A   1      28.627  33.219  23.067  1.00  0.00    -0.229 OA
ATOM     93  O   UNL A   1      26.862  31.615  23.927  1.00  0.00    -0.229 OA
ENDBRANCH  85  87
ENDBRANCH  78  79
BRANCH  78  94
ATOM     94  C   UNL A   1      31.310  25.896  25.471  1.00  0.00     0.044 A 
ATOM     95  C   UNL A   1      30.100  25.850  26.152  1.00  0.00     0.094 A 
ATOM     96  C   UNL A   1      31.789  24.537  25.448  1.00  0.00     0.009 A 
ATOM     97  N   UNL A   1      29.769  24.553  26.395  1.00  0.00    -0.361 N 
ATOM     98  C   UNL A   1      30.742  23.730  25.896  1.00  0.00     0.050 A 
ATOM     99  C   UNL A   1      32.975  23.895  25.040  1.00  0.00     0.015 A 
ATOM    100  H   UNL A   1      28.955  24.253  26.860  1.00  0.00     0.166 HD
ATOM    101  C   UNL A   1      30.756  22.337  25.804  1.00  0.00     0.073 A 
ATOM    102  C   UNL A   1      33.036  22.486  25.033  1.00  0.00     0.047 A 
ATOM    103  C   UNL A   1      31.915  21.716  25.340  1.00  0.00     0.121 A 
BRANCH 103 104
ATOM    104  O   UNL A   1      31.764  20.368  25.159  1.00  0.00    -0.489 OA
BRANCH 104 105
ATOM    105  C   UNL A   1      32.475  19.696  24.120  1.00  0.00     0.265 C 
BRANCH 105 106
ATOM    106  C   UNL A   1      32.954  18.297  24.442  1.00  0.00    -0.011 A 
ATOM    107  C   UNL A   1      33.751  17.625  23.505  1.00  0.00     0.007 A 
ATOM    108  C   UNL A   1      32.582  17.633  25.619  1.00  0.00     0.007 A 
ATOM    109  C   UNL A   1      34.092  16.288  23.698  1.00  0.00     0.000 A 
ATOM    110  C   UNL A   1      32.908  16.290  25.802  1.00  0.00     0.000 A 
ATOM    111  C   UNL A   1      33.650  15.614  24.835  1.00  0.00     0.000 A 
ENDBRANCH 105 106
ENDBRANCH 104 105
ENDBRANCH 103 104
ENDBRANCH  78  94
ENDBRANCH  75  78
ENDBRANCH  73  74
ENDBRANCH   1  73
TORSDOF 17
ENDMDL
MODEL 2
REMARK VINA RESULT:     -14.3      0.431      6.707
REMARK SMILES O=C(NCCCCNC(=O)[C@H](c1c[nH]c2cc(OCc3ccccc3)ccc12)[NH+]1CC[NH+]([C@H]2CCS(=O)(=O)C2)CC1)c1ccc(-c2c3nc(c(-c4c(F)c(F)c(F)c(F)c4F)c4ccc([nH]4)c(-c4c(F)c(F)c(F)c(F)c4F)c4nc(c(-c5c(F)c(F)c(F)c(F)c5F)c5ccc2[nH]5)C=C4)C=C3)cc1
REMARK SMILES IDX 6 1 5 2 4 3 3 4 1 5 2 6 42 8 43 9 104 10 44 11 103 12 45 13
REMARK SMILES IDX 46 14 47 15 97 16 48 17 102 18 96 19 98 20 49 21 101 22
REMARK SMILES IDX 95 23 94 24 50 26 82 27 62 28 81 29 63 30 66 31 80 32 99 33
REMARK SMILES IDX 64 34 65 35 79 37 100 38 67 39 51 40 52 41 60 42 53 43 54 44
REMARK SMILES IDX 58 45 61 46 55 47 56 48 59 49 57 50 83 51 84 52 92 53 85 54
REMARK SMILES IDX 86 55 90 56 93 57 87 58 88 59 91 60 89 61 68 62 69 63 77 64
REMARK SMILES IDX 70 65 71 66 75 67 78 68 72 69 73 70 76 71 74 72 7 73 8 74
REMARK SMILES IDX 9 75 10 77 11 78 29 79 30 80 41 81 31 83 40 84 32 85 33 87
REMARK SMILES IDX 34 88 39 89 35 90 36 91 37 92 38 93 12 94 13 95 28 96 14 97
REMARK SMILES IDX 15 98 27 99 16 101 26 102 17 103 18 104 19 105 20 106 21 107
REMARK SMILES IDX 25 108 22 109 24 110 23 111
REMARK H PARENT 3 7 98 25 66 36 8 76 29 82 32 86 14 100
REMARK Flexibility Score: inf
ROOT
ATOM      1  C   UNL A   1      31.684  30.558  26.192  1.00  0.00     0.023 C 
ENDROOT
BRANCH   1   2
ATOM      2  C   UNL A   1      31.353  31.948  26.694  1.00  0.00     0.023 C 
BRANCH   2   3
ATOM      3  C   UNL A   1      32.573  32.818  26.924  1.00  0.00     0.116 C 
BRANCH   3   4
ATOM      4  N   UNL A   1      32.343  34.064  27.653  1.00  0.00    -0.352 N 
ATOM      5  O   UNL A   1      32.879  35.626  29.232  1.00  0.00    -0.269 OA
ATOM      6  C   UNL A   1      33.161  34.597  28.633  1.00  0.00     0.251 C 
ATOM      7  H   UNL A   1      31.530  34.570  27.427  1.00  0.00     0.163 HD
BRANCH   6   8
ATOM      8  C   UNL A   1      34.383  33.834  28.956  1.00  0.00     0.039 A 
ATOM      9  C   UNL A   1      34.237  32.636  29.653  1.00  0.00     0.014 A 
ATOM     10  C   UNL A   1      35.637  34.426  28.797  1.00  0.00     0.014 A 
ATOM     11  C   UNL A   1      35.299  32.171  30.403  1.00  0.00     0.010 A 
ATOM     12  C   UNL A   1      36.748  33.846  29.419  1.00  0.00     0.010 A 
ATOM     13  C   UNL A   1      36.580  32.739  30.265  1.00  0.00    -0.014 A 
BRANCH  13  14
ATOM     14  C   UNL A   1      37.717  32.066  30.947  1.00  0.00     0.031 A 
ATOM     15  C   UNL A   1      38.558  31.017  30.273  1.00  0.00     0.074 A 
ATOM     16  C   UNL A   1      38.015  32.480  32.195  1.00  0.00     0.049 A 
ATOM     17  N   UNL A   1      39.588  30.363  30.752  1.00  0.00    -0.248 NA
ATOM     18  C   UNL A   1      38.202  30.639  28.896  1.00  0.00     0.031 C 
ATOM     19  C   UNL A   1      37.254  33.483  32.949  1.00  0.00     0.029 A 
ATOM     20  N   UNL A   1      39.044  32.152  33.036  1.00  0.00    -0.354 N 
ATOM     21  C   UNL A   1      39.991  29.487  29.751  1.00  0.00     0.074 A 
ATOM     22  C   UNL A   1      39.078  29.674  28.642  1.00  0.00     0.031 C 
ATOM     23  C   UNL A   1      37.887  33.750  34.095  1.00  0.00     0.029 A 
ATOM     24  C   UNL A   1      39.025  32.852  34.217  1.00  0.00     0.049 A 
ATOM     25  H   UNL A   1      39.729  31.480  32.816  1.00  0.00     0.167 HD
ATOM     26  C   UNL A   1      41.030  28.615  29.763  1.00  0.00     0.037 A 
ATOM     27  C   UNL A   1      39.806  32.756  35.306  1.00  0.00     0.037 A 
ATOM     28  C   UNL A   1      41.934  28.448  30.875  1.00  0.00     0.049 A 
ATOM     29  C   UNL A   1      40.920  31.754  35.295  1.00  0.00     0.074 A 
ATOM     30  C   UNL A   1      43.025  27.599  30.983  1.00  0.00     0.029 A 
ATOM     31  N   UNL A   1      41.856  29.143  32.075  1.00  0.00    -0.354 N 
ATOM     32  N   UNL A   1      41.293  30.943  34.337  1.00  0.00    -0.248 NA
ATOM     33  C   UNL A   1      41.716  31.650  36.522  1.00  0.00     0.031 C 
ATOM     34  C   UNL A   1      43.570  27.741  32.263  1.00  0.00     0.029 A 
ATOM     35  C   UNL A   1      42.863  28.726  32.934  1.00  0.00     0.049 A 
ATOM     36  H   UNL A   1      41.184  29.831  32.286  1.00  0.00     0.167 HD
ATOM     37  C   UNL A   1      42.375  30.237  34.840  1.00  0.00     0.074 A 
ATOM     38  C   UNL A   1      42.623  30.751  36.172  1.00  0.00     0.031 C 
ATOM     39  C   UNL A   1      43.092  29.245  34.258  1.00  0.00     0.037 A 
BRANCH  26  40
ATOM     40  C   UNL A   1      41.251  27.755  28.549  1.00  0.00     0.064 A 
ATOM     41  C   UNL A   1      40.533  26.568  28.344  1.00  0.00     0.173 A 
ATOM     42  C   UNL A   1      42.127  28.171  27.532  1.00  0.00     0.173 A 
ATOM     43  F   UNL A   1      39.688  26.119  29.284  1.00  0.00    -0.203 F 
ATOM     44  C   UNL A   1      40.692  25.824  27.176  1.00  0.00     0.198 A 
ATOM     45  C   UNL A   1      42.261  27.440  26.354  1.00  0.00     0.198 A 
ATOM     46  F   UNL A   1      42.833  29.303  27.669  1.00  0.00    -0.203 F 
ATOM     47  F   UNL A   1      40.016  24.678  27.017  1.00  0.00    -0.200 F 
ATOM     48  C   UNL A   1      41.547  26.266  26.178  1.00  0.00     0.200 A 
ATOM     49  F   UNL A   1      43.075  27.879  25.383  1.00  0.00    -0.200 F 
ATOM     50  F   UNL A   1      41.682  25.559  25.047  1.00  0.00    -0.200 F 
ENDBRANCH  26  40
BRANCH  27  51
ATOM     51  C   UNL A   1      39.523  33.594  36.500  1.00  0.00     0.064 A 
ATOM     52  C   UNL A   1      40.036  34.892  36.615  1.00  0.00     0.173 A 
ATOM     53  C   UNL A   1      38.740  33.105  37.558  1.00  0.00     0.173 A 
ATOM     54  F   UNL A   1      40.799  35.400  35.636  1.00  0.00    -0.203 F 
ATOM     55  C   UNL A   1      39.806  35.656  37.756  1.00  0.00     0.198 A 
ATOM     56  C   UNL A   1      38.473  33.887  38.678  1.00  0.00     0.198 A 
ATOM     57  F   UNL A   1      38.213  31.874  37.494  1.00  0.00    -0.203 F 
ATOM     58  F   UNL A   1      40.363  36.869  37.870  1.00  0.00    -0.200 F 
ATOM     59  C   UNL A   1      39.020  35.155  38.784  1.00  0.00     0.200 A 
ATOM     60  F   UNL A   1      37.689  33.408  39.654  1.00  0.00    -0.200 F 
ATOM     61  F   UNL A   1      38.796  35.892  39.880  1.00  0.00    -0.200 F 
ENDBRANCH  27  51
BRANCH  39  62
ATOM     62  C   UNL A   1      44.228  28.681  35.061  1.00  0.00     0.064 A 
ATOM     63  C   UNL A   1      45.492  29.290  35.078  1.00  0.00     0.173 A 
ATOM     64  C   UNL A   1      44.055  27.506  35.808  1.00  0.00     0.173 A 
ATOM     65  F   UNL A   1      45.715  30.405  34.364  1.00  0.00    -0.203 F 
ATOM     66  C   UNL A   1      46.553  28.718  35.774  1.00  0.00     0.198 A 
ATOM     67  C   UNL A   1      45.107  26.959  36.535  1.00  0.00     0.198 A 
ATOM     68  F   UNL A   1      42.865  26.887  35.830  1.00  0.00    -0.203 F 
ATOM     69  F   UNL A   1      47.770  29.273  35.711  1.00  0.00    -0.200 F 
ATOM     70  C   UNL A   1      46.359  27.556  36.506  1.00  0.00     0.200 A 
ATOM     71  F   UNL A   1      44.914  25.844  37.254  1.00  0.00    -0.200 F 
ATOM     72  F   UNL A   1      47.382  27.003  37.171  1.00  0.00    -0.200 F 
ENDBRANCH  39  62
ENDBRANCH  13  14
ENDBRANCH   6   8
ENDBRANCH   3   4
ENDBRANCH   2   3
ENDBRANCH   1   2
BRANCH   1  73
ATOM     73  C   UNL A   1      31.992  29.527  27.275  1.00  0.00     0.116 C 
BRANCH  73  74
ATOM     74  N   UNL A   1      32.953  28.532  26.860  1.00  0.00    -0.351 N 
ATOM     75  C   UNL A   1      32.965  27.684  25.798  1.00  0.00     0.283 C 
ATOM     76  H   UNL A   1      33.739  28.456  27.450  1.00  0.00     0.163 HD
ATOM     77  O   UNL A   1      34.104  27.290  25.485  1.00  0.00    -0.268 OA
BRANCH  75  78
ATOM     78  C   UNL A   1      31.718  27.131  25.012  1.00  0.00     0.308 C 
BRANCH  78  79
ATOM     79  N   UNL A   1      32.046  26.930  23.552  1.00  0.00    -0.312 N 
ATOM     80  C   UNL A   1      30.819  26.726  22.738  1.00  0.00     0.325 C 
ATOM     81  C   UNL A   1      32.755  28.064  22.918  1.00  0.00     0.325 C 
ATOM     82  H   UNL A   1      32.650  26.108  23.561  1.00  0.00     0.349 HD
ATOM     83  C   UNL A   1      29.909  27.965  22.658  1.00  0.00     0.324 C 
ATOM     84  C   UNL A   1      31.913  29.358  22.771  1.00  0.00     0.324 C 
ATOM     85  N   UNL A   1      30.610  29.136  22.109  1.00  0.00    -0.322 N 
ATOM     86  H   UNL A   1      30.862  28.948  21.139  1.00  0.00     0.348 HD
BRANCH  85  87
ATOM     87  C   UNL A   1      29.724  30.305  22.030  1.00  0.00     0.200 C 
ATOM     88  C   UNL A   1      28.441  30.143  21.192  1.00  0.00     0.082 C 
ATOM     89  C   UNL A   1      29.263  30.805  23.400  1.00  0.00     0.201 C 
ATOM     90  C   UNL A   1      27.645  31.433  21.367  1.00  0.00     0.143 C 
ATOM     91  S   UNL A   1      28.018  32.020  23.013  1.00  0.00     0.156 S 
ATOM     92  O   UNL A   1      28.659  33.315  22.895  1.00  0.00    -0.229 OA
ATOM     93  O   UNL A   1      26.870  31.802  23.864  1.00  0.00    -0.229 OA
ENDBRANCH  85  87
ENDBRANCH  78  79
BRANCH  78  94
ATOM     94  C   UNL A   1      31.105  25.848  25.551  1.00  0.00     0.044 A 
ATOM     95  C   UNL A   1      29.896  25.744  26.228  1.00  0.00     0.094 A 
ATOM     96  C   UNL A   1      31.649  24.514  25.530  1.00  0.00     0.009 A 
ATOM     97  N   UNL A   1      29.628  24.433  26.472  1.00  0.00    -0.361 N 
ATOM     98  C   UNL A   1      30.641  23.657  25.976  1.00  0.00     0.050 A 
ATOM     99  C   UNL A   1      32.866  23.930  25.126  1.00  0.00     0.015 A 
ATOM    100  H   UNL A   1      28.828  24.094  26.935  1.00  0.00     0.166 HD
ATOM    101  C   UNL A   1      30.723  22.267  25.885  1.00  0.00     0.073 A 
ATOM    102  C   UNL A   1      32.995  22.526  25.120  1.00  0.00     0.047 A 
ATOM    103  C   UNL A   1      31.912  21.702  25.425  1.00  0.00     0.121 A 
BRANCH 103 104
ATOM    104  O   UNL A   1      31.827  20.348  25.245  1.00  0.00    -0.489 OA
BRANCH 104 105
ATOM    105  C   UNL A   1      32.558  19.713  24.196  1.00  0.00     0.265 C 
BRANCH 105 106
ATOM    106  C   UNL A   1      32.995  18.289  24.462  1.00  0.00    -0.011 A 
ATOM    107  C   UNL A   1      33.783  17.636  23.504  1.00  0.00     0.007 A 
ATOM    108  C   UNL A   1      32.592  17.585  25.606  1.00  0.00     0.007 A 
ATOM    109  C   UNL A   1      34.085  16.283  23.642  1.00  0.00     0.000 A 
ATOM    110  C   UNL A   1      32.879  16.226  25.733  1.00  0.00     0.000 A 
ATOM    111  C   UNL A   1      33.613  15.573  24.744  1.00  0.00     0.000 A 
ENDBRANCH 105 106
ENDBRANCH 104 105
ENDBRANCH 103 104
ENDBRANCH  78  94
ENDBRANCH  75  78
ENDBRANCH  73  74
ENDBRANCH   1  73
TORSDOF 17
ENDMDL
MODEL 3
REMARK VINA RESULT:     -13.6      0.683      1.768
REMARK SMILES O=C(NCCCCNC(=O)[C@H](c1c[nH]c2cc(OCc3ccccc3)ccc12)[NH+]1CC[NH+]([C@H]2CCS(=O)(=O)C2)CC1)c1ccc(-c2c3nc(c(-c4c(F)c(F)c(F)c(F)c4F)c4ccc([nH]4)c(-c4c(F)c(F)c(F)c(F)c4F)c4nc(c(-c5c(F)c(F)c(F)c(F)c5F)c5ccc2[nH]5)C=C4)C=C3)cc1
REMARK SMILES IDX 6 1 5 2 4 3 3 4 1 5 2 6 42 8 43 9 104 10 44 11 103 12 45 13
REMARK SMILES IDX 46 14 47 15 97 16 48 17 102 18 96 19 98 20 49 21 101 22
REMARK SMILES IDX 95 23 94 24 50 26 82 27 62 28 81 29 63 30 66 31 80 32 99 33
REMARK SMILES IDX 64 34 65 35 79 37 100 38 67 39 51 40 52 41 60 42 53 43 54 44
REMARK SMILES IDX 58 45 61 46 55 47 56 48 59 49 57 50 83 51 84 52 92 53 85 54
REMARK SMILES IDX 86 55 90 56 93 57 87 58 88 59 91 60 89 61 68 62 69 63 77 64
REMARK SMILES IDX 70 65 71 66 75 67 78 68 72 69 73 70 76 71 74 72 7 73 8 74
REMARK SMILES IDX 9 75 10 77 11 78 29 79 30 80 41 81 31 83 40 84 32 85 33 87
REMARK SMILES IDX 34 88 39 89 35 90 36 91 37 92 38 93 12 94 13 95 28 96 14 97
REMARK SMILES IDX 15 98 27 99 16 101 26 102 17 103 18 104 19 105 20 106 21 107
REMARK SMILES IDX 25 108 22 109 24 110 23 111
REMARK H PARENT 3 7 98 25 66 36 8 76 29 82 32 86 14 100
REMARK Flexibility Score: inf
ROOT
ATOM      1  C   UNL A   1      31.921  31.359  26.689  1.00  0.00     0.023 C 
ENDROOT
BRANCH   1   2
ATOM      2  C   UNL A   1      33.036  31.704  27.655  1.00  0.00     0.023 C 
BRANCH   2   3
ATOM      3  C   UNL A   1      33.690  33.043  27.376  1.00  0.00     0.116 C 
BRANCH   3   4
ATOM      4  N   UNL A   1      32.928  34.224  27.776  1.00  0.00    -0.352 N 
ATOM      5  O   UNL A   1      32.442  35.948  29.195  1.00  0.00    -0.269 OA
ATOM      6  C   UNL A   1      33.152  34.996  28.901  1.00  0.00     0.251 C 
ATOM      7  H   UNL A   1      32.186  34.495  27.189  1.00  0.00     0.163 HD
BRANCH   6   8
ATOM      8  C   UNL A   1      34.275  34.584  29.767  1.00  0.00     0.039 A 
ATOM      9  C   UNL A   1      35.570  34.804  29.302  1.00  0.00     0.014 A 
ATOM     10  C   UNL A   1      34.037  33.773  30.878  1.00  0.00     0.014 A 
ATOM     11  C   UNL A   1      36.594  34.013  29.789  1.00  0.00     0.010 A 
ATOM     12  C   UNL A   1      35.112  33.109  31.480  1.00  0.00     0.010 A 
ATOM     13  C   UNL A   1      36.392  33.188  30.912  1.00  0.00    -0.014 A 
BRANCH  13  14
ATOM     14  C   UNL A   1      37.580  32.520  31.505  1.00  0.00     0.031 A 
ATOM     15  C   UNL A   1      38.097  32.856  32.876  1.00  0.00     0.074 A 
ATOM     16  C   UNL A   1      38.154  31.536  30.783  1.00  0.00     0.049 A 
ATOM     17  N   UNL A   1      39.115  32.335  33.517  1.00  0.00    -0.248 NA
ATOM     18  C   UNL A   1      37.400  33.913  33.627  1.00  0.00     0.031 C 
ATOM     19  C   UNL A   1      37.742  31.138  29.432  1.00  0.00     0.029 A 
ATOM     20  N   UNL A   1      39.171  30.669  31.083  1.00  0.00    -0.354 N 
ATOM     21  C   UNL A   1      39.195  33.008  34.731  1.00  0.00     0.074 A 
ATOM     22  C   UNL A   1      38.135  33.995  34.730  1.00  0.00     0.031 C 
ATOM     23  C   UNL A   1      38.433  30.057  29.058  1.00  0.00     0.029 A 
ATOM     24  C   UNL A   1      39.422  29.761  30.083  1.00  0.00     0.049 A 
ATOM     25  H   UNL A   1      39.672  30.693  31.929  1.00  0.00     0.167 HD
ATOM     26  C   UNL A   1      40.072  32.811  35.746  1.00  0.00     0.037 A 
ATOM     27  C   UNL A   1      40.373  28.818  29.973  1.00  0.00     0.037 A 
ATOM     28  C   UNL A   1      41.118  31.817  35.733  1.00  0.00     0.049 A 
ATOM     29  C   UNL A   1      41.347  28.657  31.100  1.00  0.00     0.074 A 
ATOM     30  C   UNL A   1      42.052  31.530  36.716  1.00  0.00     0.029 A 
ATOM     31  N   UNL A   1      41.372  30.945  34.682  1.00  0.00    -0.354 N 
ATOM     32  N   UNL A   1      41.401  29.294  32.244  1.00  0.00    -0.248 NA
ATOM     33  C   UNL A   1      42.397  27.651  30.917  1.00  0.00     0.031 C 
ATOM     34  C   UNL A   1      42.900  30.526  36.240  1.00  0.00     0.029 A 
ATOM     35  C   UNL A   1      42.459  30.137  34.986  1.00  0.00     0.049 A 
ATOM     36  H   UNL A   1      40.856  30.905  33.844  1.00  0.00     0.167 HD
ATOM     37  C   UNL A   1      42.484  28.758  32.923  1.00  0.00     0.074 A 
ATOM     38  C   UNL A   1      43.029  27.715  32.079  1.00  0.00     0.031 C 
ATOM     39  C   UNL A   1      42.990  29.106  34.131  1.00  0.00     0.037 A 
BRANCH  26  40
ATOM     40  C   UNL A   1      39.961  33.690  36.963  1.00  0.00     0.064 A 
ATOM     41  C   UNL A   1      39.168  33.332  38.062  1.00  0.00     0.173 A 
ATOM     42  C   UNL A   1      40.731  34.860  37.068  1.00  0.00     0.173 A 
ATOM     43  F   UNL A   1      38.407  32.228  38.015  1.00  0.00    -0.203 F 
ATOM     44  C   UNL A   1      39.138  34.116  39.214  1.00  0.00     0.198 A 
ATOM     45  C   UNL A   1      40.721  35.627  38.232  1.00  0.00     0.198 A 
ATOM     46  F   UNL A   1      41.516  35.248  36.052  1.00  0.00    -0.203 F 
ATOM     47  F   UNL A   1      38.349  33.768  40.239  1.00  0.00    -0.200 F 
ATOM     48  C   UNL A   1      39.922  35.256  39.302  1.00  0.00     0.200 A 
ATOM     49  F   UNL A   1      41.494  36.719  38.321  1.00  0.00    -0.200 F 
ATOM     50  F   UNL A   1      39.908  35.998  40.418  1.00  0.00    -0.200 F 
ENDBRANCH  26  40
BRANCH  27  51
ATOM     51  C   UNL A   1      40.473  28.004  28.734  1.00  0.00     0.064 A 
ATOM     52  C   UNL A   1      39.820  26.771  28.622  1.00  0.00     0.173 A 
ATOM     53  C   UNL A   1      41.237  28.441  27.640  1.00  0.00     0.173 A 
ATOM     54  F   UNL A   1      39.088  26.304  29.644  1.00  0.00    -0.203 F 
ATOM     55  C   UNL A   1      39.954  25.989  27.476  1.00  0.00     0.198 A 
ATOM     56  C   UNL A   1      41.333  27.681  26.479  1.00  0.00     0.198 A 
ATOM     57  F   UNL A   1      41.873  29.621  27.690  1.00  0.00    -0.203 F 
ATOM     58  F   UNL A   1      39.373  24.784  27.420  1.00  0.00    -0.200 F 
ATOM     59  C   UNL A   1      40.705  26.448  26.404  1.00  0.00     0.200 A 
ATOM     60  F   UNL A   1      42.036  28.142  25.436  1.00  0.00    -0.200 F 
ATOM     61  F   UNL A   1      40.832  25.697  25.301  1.00  0.00    -0.200 F 
ENDBRANCH  27  51
BRANCH  39  62
ATOM     62  C   UNL A   1      44.178  28.322  34.610  1.00  0.00     0.064 A 
ATOM     63  C   UNL A   1      44.029  27.129  35.334  1.00  0.00     0.173 A 
ATOM     64  C   UNL A   1      45.479  28.779  34.357  1.00  0.00     0.173 A 
ATOM     65  F   UNL A   1      42.804  26.660  35.620  1.00  0.00    -0.203 F 
ATOM     66  C   UNL A   1      45.138  26.449  35.828  1.00  0.00     0.198 A 
ATOM     67  C   UNL A   1      46.587  28.074  34.819  1.00  0.00     0.198 A 
ATOM     68  F   UNL A   1      45.678  29.910  33.665  1.00  0.00    -0.203 F 
ATOM     69  F   UNL A   1      44.969  25.356  36.585  1.00  0.00    -0.200 F 
ATOM     70  C   UNL A   1      46.416  26.919  35.566  1.00  0.00     0.200 A 
ATOM     71  F   UNL A   1      47.822  28.523  34.552  1.00  0.00    -0.200 F 
ATOM     72  F   UNL A   1      47.482  26.266  36.047  1.00  0.00    -0.200 F 
ENDBRANCH  39  62
ENDBRANCH  13  14
ENDBRANCH   6   8
ENDBRANCH   3   4
ENDBRANCH   2   3
ENDBRANCH   1   2
BRANCH   1  73
ATOM     73  C   UNL A   1      31.418  29.920  26.757  1.00  0.00     0.116 C 
BRANCH  73  74
ATOM     74  N   UNL A   1      32.483  28.945  26.792  1.00  0.00    -0.351 N 
ATOM     75  C   UNL A   1      32.739  27.866  26.005  1.00  0.00     0.283 C 
ATOM     76  H   UNL A   1      33.139  29.085  27.514  1.00  0.00     0.163 HD
ATOM     77  O   UNL A   1      33.932  27.512  26.015  1.00  0.00    -0.268 OA
BRANCH  75  78
ATOM     78  C   UNL A   1      31.695  27.029  25.176  1.00  0.00     0.308 C 
BRANCH  78  79
ATOM     79  N   UNL A   1      32.140  26.878  23.741  1.00  0.00    -0.312 N 
ATOM     80  C   UNL A   1      30.987  26.658  22.830  1.00  0.00     0.325 C 
ATOM     81  C   UNL A   1      32.857  28.053  23.193  1.00  0.00     0.325 C 
ATOM     82  H   UNL A   1      32.770  26.077  23.776  1.00  0.00     0.349 HD
ATOM     83  C   UNL A   1      30.044  27.868  22.711  1.00  0.00     0.324 C 
ATOM     84  C   UNL A   1      31.984  29.322  23.014  1.00  0.00     0.324 C 
ATOM     85  N   UNL A   1      30.744  29.077  22.247  1.00  0.00    -0.322 N 
ATOM     86  H   UNL A   1      31.076  28.923  21.295  1.00  0.00     0.348 HD
BRANCH  85  87
ATOM     87  C   UNL A   1      29.826  30.217  22.129  1.00  0.00     0.200 C 
ATOM     88  C   UNL A   1      28.581  30.013  21.245  1.00  0.00     0.082 C 
ATOM     89  C   UNL A   1      29.300  30.708  23.479  1.00  0.00     0.201 C 
ATOM     90  C   UNL A   1      27.741  31.279  21.384  1.00  0.00     0.143 C 
ATOM     91  S   UNL A   1      28.034  31.883  23.039  1.00  0.00     0.156 S 
ATOM     92  O   UNL A   1      28.639  33.197  22.940  1.00  0.00    -0.229 OA
ATOM     93  O   UNL A   1      26.861  31.633  23.847  1.00  0.00    -0.229 OA
ENDBRANCH  85  87
ENDBRANCH  78  79
BRANCH  78  94
ATOM     94  C   UNL A   1      31.360  25.650  25.724  1.00  0.00     0.044 A 
ATOM     95  C   UNL A   1      30.113  25.233  26.174  1.00  0.00     0.094 A 
ATOM     96  C   UNL A   1      32.241  24.532  25.943  1.00  0.00     0.009 A 
ATOM     97  N   UNL A   1      30.171  23.913  26.500  1.00  0.00    -0.361 N 
ATOM     98  C   UNL A   1      31.437  23.442  26.283  1.00  0.00     0.050 A 
ATOM     99  C   UNL A   1      33.628  24.306  25.834  1.00  0.00     0.015 A 
ATOM    100  H   UNL A   1      29.416  23.380  26.841  1.00  0.00     0.166 HD
ATOM    101  C   UNL A   1      31.914  22.132  26.355  1.00  0.00     0.073 A 
ATOM    102  C   UNL A   1      34.135  23.001  25.999  1.00  0.00     0.047 A 
ATOM    103  C   UNL A   1      33.281  21.915  26.183  1.00  0.00     0.121 A 
BRANCH 103 104
ATOM    104  O   UNL A   1      33.609  20.587  26.133  1.00  0.00    -0.489 OA
BRANCH 104 105
ATOM    105  C   UNL A   1      33.972  19.980  24.893  1.00  0.00     0.265 C 
BRANCH 105 106
ATOM    106  C   UNL A   1      33.622  18.516  24.745  1.00  0.00    -0.011 A 
ATOM    107  C   UNL A   1      32.738  17.938  25.667  1.00  0.00     0.007 A 
ATOM    108  C   UNL A   1      34.192  17.708  23.751  1.00  0.00     0.007 A 
ATOM    109  C   UNL A   1      32.502  16.564  25.653  1.00  0.00     0.000 A 
ATOM    110  C   UNL A   1      33.969  16.332  23.749  1.00  0.00     0.000 A 
ATOM    111  C   UNL A   1      33.137  15.758  24.709  1.00  0.00     0.000 A 
ENDBRANCH 105 106
ENDBRANCH 104 105
ENDBRANCH 103 104
ENDBRANCH  78  94
ENDBRANCH  75  78
ENDBRANCH  73  74
ENDBRANCH   1  73
TORSDOF 17
ENDMDL
