MODEL 1
REMARK VINA RESULT:     -12.2      0.000      0.000
REMARK SMILES C[C@@H](CC(=O)NCCCCNC(=O)c1ccc(-c2c3nc(c(-c4c(F)c(F)c(F)c(F)c4F)c4ccc([nH]4)c(-c4c(F)c(F)c(F)c(F)c4F)c4nc(c(-c5c(F)c(F)c(F)c(F)c5F)c5ccc2[nH]5)C=C4)C=C3)cc1)CC(=O)NC(=O)NC[C@]1(C)CCCO1
REMARK SMILES IDX 7 1 6 2 4 3 5 4 3 6 2 7 1 8 77 9 78 10 79 11 80 12 81 13
REMARK SMILES IDX 82 15 83 16 84 18 85 19 87 20 90 21 86 22 88 23 89 24 8 25
REMARK SMILES IDX 9 26 10 27 11 28 12 29 13 31 14 32 15 33 76 34 16 35 75 36
REMARK SMILES IDX 17 37 18 38 19 39 69 40 20 41 74 42 68 43 70 44 21 45 73 46
REMARK SMILES IDX 67 47 66 48 22 50 54 51 34 52 53 53 35 54 38 55 52 56 71 57
REMARK SMILES IDX 36 58 37 59 51 61 72 62 39 63 23 64 24 65 32 66 25 67 26 68
REMARK SMILES IDX 30 69 33 70 27 71 28 72 31 73 29 74 55 75 56 76 64 77 57 78
REMARK SMILES IDX 58 79 62 80 65 81 59 82 60 83 63 84 61 85 40 86 41 87 49 88
REMARK SMILES IDX 42 89 43 90 47 91 50 92 44 93 45 94 48 95 46 96
REMARK H PARENT 6 5 80 14 83 17 11 30 70 49 38 60
REMARK Flexibility Score: inf
ROOT
ATOM      1  C   UNL A   1      34.122  21.430  27.266  1.00  0.00     0.116 C 
ENDROOT
BRANCH   1   2
ATOM      2  N   UNL A   1      33.153  20.599  26.465  1.00  0.00    -0.356 N 
ATOM      3  C   UNL A   1      32.554  20.455  25.234  1.00  0.00     0.220 C 
ATOM      4  O   UNL A   1      32.208  19.285  24.997  1.00  0.00    -0.275 OA
ATOM      5  H   UNL A   1      32.820  19.880  27.049  1.00  0.00     0.163 HD
BRANCH   3   6
ATOM      6  C   UNL A   1      32.228  21.501  24.114  1.00  0.00     0.103 C 
BRANCH   6   7
ATOM      7  C   UNL A   1      32.131  23.053  24.455  1.00  0.00     0.004 C 
ATOM      8  C   UNL A   1      30.988  23.527  25.400  1.00  0.00     0.009 C 
BRANCH   7   9
ATOM      9  C   UNL A   1      32.316  24.023  23.278  1.00  0.00     0.104 C 
BRANCH   9  10
ATOM     10  C   UNL A   1      33.718  24.582  23.028  1.00  0.00     0.228 C 
ATOM     11  O   UNL A   1      34.721  23.984  23.423  1.00  0.00    -0.275 OA
ATOM     12  N   UNL A   1      33.871  25.720  22.283  1.00  0.00    -0.278 N 
ATOM     13  C   UNL A   1      32.930  26.058  21.385  1.00  0.00     0.321 C 
ATOM     14  H   UNL A   1      34.666  26.288  22.405  1.00  0.00     0.174 HD
ATOM     15  O   UNL A   1      32.880  25.493  20.295  1.00  0.00    -0.248 OA
ATOM     16  N   UNL A   1      31.980  26.957  21.776  1.00  0.00    -0.335 N 
ATOM     17  H   UNL A   1      31.138  26.910  21.267  1.00  0.00     0.165 HD
BRANCH  16  18
ATOM     18  C   UNL A   1      31.999  27.966  22.813  1.00  0.00     0.152 C 
BRANCH  18  19
ATOM     19  C   UNL A   1      31.579  27.766  24.328  1.00  0.00     0.083 C 
ATOM     20  C   UNL A   1      31.235  28.867  25.374  1.00  0.00     0.039 C 
ATOM     21  O   UNL A   1      32.558  26.938  24.982  1.00  0.00    -0.373 OA
ATOM     22  C   UNL A   1      30.248  26.980  24.176  1.00  0.00     0.044 C 
ATOM     23  C   UNL A   1      31.876  28.409  26.678  1.00  0.00     0.031 C 
ATOM     24  C   UNL A   1      32.315  26.995  26.393  1.00  0.00     0.161 C 
ENDBRANCH  18  19
ENDBRANCH  16  18
ENDBRANCH   9  10
ENDBRANCH   7   9
ENDBRANCH   6   7
ENDBRANCH   3   6
ENDBRANCH   1   2
BRANCH   1  25
ATOM     25  C   UNL A   1      35.182  22.232  26.467  1.00  0.00     0.023 C 
BRANCH  25  26
ATOM     26  C   UNL A   1      35.982  21.488  25.421  1.00  0.00     0.023 C 
BRANCH  26  27
ATOM     27  C   UNL A   1      37.422  21.952  25.334  1.00  0.00     0.116 C 
BRANCH  27  28
ATOM     28  N   UNL A   1      38.417  20.903  25.570  1.00  0.00    -0.352 N 
ATOM     29  C   UNL A   1      39.609  20.987  26.274  1.00  0.00     0.251 C 
ATOM     30  H   UNL A   1      38.213  20.023  25.177  1.00  0.00     0.163 HD
ATOM     31  O   UNL A   1      40.381  20.059  26.354  1.00  0.00    -0.269 OA
BRANCH  29  32
ATOM     32  C   UNL A   1      39.930  22.291  26.893  1.00  0.00     0.039 A 
ATOM     33  C   UNL A   1      40.931  22.359  27.864  1.00  0.00     0.014 A 
ATOM     34  C   UNL A   1      39.368  23.448  26.358  1.00  0.00     0.014 A 
ATOM     35  C   UNL A   1      41.441  23.607  28.219  1.00  0.00     0.010 A 
ATOM     36  C   UNL A   1      39.987  24.663  26.592  1.00  0.00     0.010 A 
ATOM     37  C   UNL A   1      41.012  24.762  27.544  1.00  0.00    -0.014 A 
BRANCH  37  38
ATOM     38  C   UNL A   1      41.575  26.097  27.853  1.00  0.00     0.031 A 
ATOM     39  C   UNL A   1      42.958  26.437  27.363  1.00  0.00     0.074 A 
ATOM     40  C   UNL A   1      40.883  26.966  28.615  1.00  0.00     0.049 A 
ATOM     41  N   UNL A   1      43.664  27.521  27.557  1.00  0.00    -0.248 NA
ATOM     42  C   UNL A   1      43.667  25.396  26.600  1.00  0.00     0.031 C 
ATOM     43  C   UNL A   1      39.575  26.711  29.223  1.00  0.00     0.029 A 
ATOM     44  N   UNL A   1      41.182  28.247  29.004  1.00  0.00    -0.354 N 
ATOM     45  C   UNL A   1      44.897  27.272  26.966  1.00  0.00     0.074 A 
ATOM     46  C   UNL A   1      44.882  25.907  26.500  1.00  0.00     0.031 C 
ATOM     47  C   UNL A   1      39.160  27.820  29.860  1.00  0.00     0.029 A 
ATOM     48  C   UNL A   1      40.183  28.851  29.729  1.00  0.00     0.049 A 
ATOM     49  H   UNL A   1      42.033  28.691  28.784  1.00  0.00     0.167 HD
ATOM     50  C   UNL A   1      45.930  28.124  26.777  1.00  0.00     0.037 A 
ATOM     51  C   UNL A   1      40.104  30.106  30.210  1.00  0.00     0.037 A 
ATOM     52  C   UNL A   1      45.909  29.498  27.190  1.00  0.00     0.049 A 
ATOM     53  C   UNL A   1      41.242  31.054  29.939  1.00  0.00     0.074 A 
ATOM     54  C   UNL A   1      46.865  30.476  26.994  1.00  0.00     0.029 A 
ATOM     55  N   UNL A   1      44.858  30.091  27.877  1.00  0.00    -0.354 N 
ATOM     56  N   UNL A   1      42.370  30.835  29.306  1.00  0.00    -0.248 NA
ATOM     57  C   UNL A   1      41.088  32.429  30.432  1.00  0.00     0.031 C 
ATOM     58  C   UNL A   1      46.408  31.654  27.596  1.00  0.00     0.029 A 
ATOM     59  C   UNL A   1      45.146  31.421  28.122  1.00  0.00     0.049 A 
ATOM     60  H   UNL A   1      44.030  29.632  28.148  1.00  0.00     0.167 HD
ATOM     61  C   UNL A   1      43.046  32.047  29.299  1.00  0.00     0.074 A 
ATOM     62  C   UNL A   1      42.189  33.003  29.973  1.00  0.00     0.031 C 
ATOM     63  C   UNL A   1      44.267  32.348  28.789  1.00  0.00     0.037 A 
BRANCH  50  64
ATOM     64  C   UNL A   1      47.144  27.587  26.073  1.00  0.00     0.064 A 
ATOM     65  C   UNL A   1      48.207  26.997  26.779  1.00  0.00     0.173 A 
ATOM     66  C   UNL A   1      47.255  27.674  24.678  1.00  0.00     0.173 A 
ATOM     67  F   UNL A   1      48.162  26.909  28.118  1.00  0.00    -0.203 F 
ATOM     68  C   UNL A   1      49.350  26.555  26.119  1.00  0.00     0.198 A 
ATOM     69  C   UNL A   1      48.386  27.196  24.018  1.00  0.00     0.198 A 
ATOM     70  F   UNL A   1      46.272  28.229  23.954  1.00  0.00    -0.203 F 
ATOM     71  F   UNL A   1      50.379  26.064  26.824  1.00  0.00    -0.200 F 
ATOM     72  C   UNL A   1      49.436  26.649  24.740  1.00  0.00     0.200 A 
ATOM     73  F   UNL A   1      48.464  27.279  22.683  1.00  0.00    -0.200 F 
ATOM     74  F   UNL A   1      50.537  26.223  24.106  1.00  0.00    -0.200 F 
ENDBRANCH  50  64
BRANCH  51  75
ATOM     75  C   UNL A   1      38.882  30.558  30.931  1.00  0.00     0.064 A 
ATOM     76  C   UNL A   1      37.777  31.060  30.228  1.00  0.00     0.173 A 
ATOM     77  C   UNL A   1      38.792  30.501  32.329  1.00  0.00     0.173 A 
ATOM     78  F   UNL A   1      37.820  31.150  28.891  1.00  0.00    -0.203 F 
ATOM     79  C   UNL A   1      36.640  31.512  30.896  1.00  0.00     0.198 A 
ATOM     80  C   UNL A   1      37.643  30.928  32.995  1.00  0.00     0.198 A 
ATOM     81  F   UNL A   1      39.816  30.022  33.049  1.00  0.00    -0.203 F 
ATOM     82  F   UNL A   1      35.620  32.033  30.201  1.00  0.00    -0.200 F 
ATOM     83  C   UNL A   1      36.573  31.441  32.279  1.00  0.00     0.200 A 
ATOM     84  F   UNL A   1      37.575  30.844  34.330  1.00  0.00    -0.200 F 
ATOM     85  F   UNL A   1      35.479  31.874  32.921  1.00  0.00    -0.200 F 
ENDBRANCH  51  75
BRANCH  63  86
ATOM     86  C   UNL A   1      44.723  33.771  28.910  1.00  0.00     0.064 A 
ATOM     87  C   UNL A   1      44.414  34.728  27.933  1.00  0.00     0.173 A 
ATOM     88  C   UNL A   1      45.457  34.185  30.031  1.00  0.00     0.173 A 
ATOM     89  F   UNL A   1      43.723  34.378  26.838  1.00  0.00    -0.203 F 
ATOM     90  C   UNL A   1      44.855  36.042  28.058  1.00  0.00     0.198 A 
ATOM     91  C   UNL A   1      45.868  35.507  30.168  1.00  0.00     0.198 A 
ATOM     92  F   UNL A   1      45.768  33.309  30.999  1.00  0.00    -0.203 F 
ATOM     93  F   UNL A   1      44.600  36.927  27.084  1.00  0.00    -0.200 F 
ATOM     94  C   UNL A   1      45.577  36.431  29.176  1.00  0.00     0.200 A 
ATOM     95  F   UNL A   1      46.549  35.885  31.259  1.00  0.00    -0.200 F 
ATOM     96  F   UNL A   1      46.000  37.697  29.295  1.00  0.00    -0.200 F 
ENDBRANCH  63  86
ENDBRANCH  37  38
ENDBRANCH  29  32
ENDBRANCH  27  28
ENDBRANCH  26  27
ENDBRANCH  25  26
ENDBRANCH   1  25
TORSDOF 16
ENDMDL
MODEL 2
REMARK VINA RESULT:     -11.9      2.747      4.913
REMARK SMILES C[C@@H](CC(=O)NCCCCNC(=O)c1ccc(-c2c3nc(c(-c4c(F)c(F)c(F)c(F)c4F)c4ccc([nH]4)c(-c4c(F)c(F)c(F)c(F)c4F)c4nc(c(-c5c(F)c(F)c(F)c(F)c5F)c5ccc2[nH]5)C=C4)C=C3)cc1)CC(=O)NC(=O)NC[C@]1(C)CCCO1
REMARK SMILES IDX 7 1 6 2 4 3 5 4 3 6 2 7 1 8 77 9 78 10 79 11 80 12 81 13
REMARK SMILES IDX 82 15 83 16 84 18 85 19 87 20 90 21 86 22 88 23 89 24 8 25
REMARK SMILES IDX 9 26 10 27 11 28 12 29 13 31 14 32 15 33 76 34 16 35 75 36
REMARK SMILES IDX 17 37 18 38 19 39 69 40 20 41 74 42 68 43 70 44 21 45 73 46
REMARK SMILES IDX 67 47 66 48 22 50 54 51 34 52 53 53 35 54 38 55 52 56 71 57
REMARK SMILES IDX 36 58 37 59 51 61 72 62 39 63 23 64 24 65 32 66 25 67 26 68
REMARK SMILES IDX 30 69 33 70 27 71 28 72 31 73 29 74 55 75 56 76 64 77 57 78
REMARK SMILES IDX 58 79 62 80 65 81 59 82 60 83 63 84 61 85 40 86 41 87 49 88
REMARK SMILES IDX 42 89 43 90 47 91 50 92 44 93 45 94 48 95 46 96
REMARK H PARENT 6 5 80 14 83 17 11 30 70 49 38 60
REMARK Flexibility Score: inf
ROOT
ATOM      1  C   UNL A   1      39.760  22.675  26.791  1.00  0.00     0.116 C 
ENDROOT
BRANCH   1   2
ATOM      2  N   UNL A   1      38.496  21.956  26.398  1.00  0.00    -0.356 N 
ATOM      3  C   UNL A   1      37.370  22.024  25.607  1.00  0.00     0.220 C 
ATOM      4  O   UNL A   1      36.911  20.904  25.322  1.00  0.00    -0.275 OA
ATOM      5  H   UNL A   1      38.461  21.111  26.900  1.00  0.00     0.163 HD
BRANCH   3   6
ATOM      6  C   UNL A   1      36.581  23.250  25.034  1.00  0.00     0.103 C 
BRANCH   6   7
ATOM      7  C   UNL A   1      35.058  23.102  24.596  1.00  0.00     0.004 C 
ATOM      8  C   UNL A   1      34.649  23.599  23.178  1.00  0.00     0.009 C 
BRANCH   7   9
ATOM      9  C   UNL A   1      34.005  23.494  25.645  1.00  0.00     0.104 C 
BRANCH   9  10
ATOM     10  C   UNL A   1      33.750  22.520  26.797  1.00  0.00     0.228 C 
ATOM     11  O   UNL A   1      34.167  22.756  27.934  1.00  0.00    -0.275 OA
ATOM     12  N   UNL A   1      32.978  21.409  26.588  1.00  0.00    -0.278 N 
ATOM     13  C   UNL A   1      32.066  21.411  25.601  1.00  0.00     0.321 C 
ATOM     14  H   UNL A   1      33.091  20.614  27.157  1.00  0.00     0.174 HD
ATOM     15  O   UNL A   1      30.990  21.984  25.750  1.00  0.00    -0.248 OA
ATOM     16  N   UNL A   1      32.429  20.856  24.407  1.00  0.00    -0.335 N 
ATOM     17  H   UNL A   1      31.915  21.180  23.632  1.00  0.00     0.165 HD
BRANCH  16  18
ATOM     18  C   UNL A   1      33.441  19.872  24.087  1.00  0.00     0.152 C 
BRANCH  18  19
ATOM     19  C   UNL A   1      33.295  18.299  24.211  1.00  0.00     0.083 C 
ATOM     20  C   UNL A   1      32.526  17.496  25.302  1.00  0.00     0.039 C 
ATOM     21  O   UNL A   1      34.604  17.702  24.177  1.00  0.00    -0.373 OA
ATOM     22  C   UNL A   1      32.532  17.958  22.902  1.00  0.00     0.044 C 
ATOM     23  C   UNL A   1      33.408  16.298  25.627  1.00  0.00     0.031 C 
ATOM     24  C   UNL A   1      34.474  16.327  24.561  1.00  0.00     0.161 C 
ENDBRANCH  18  19
ENDBRANCH  16  18
ENDBRANCH   9  10
ENDBRANCH   7   9
ENDBRANCH   6   7
ENDBRANCH   3   6
ENDBRANCH   1   2
BRANCH   1  25
ATOM     25  C   UNL A   1      41.099  22.016  26.370  1.00  0.00     0.023 C 
BRANCH  25  26
ATOM     26  C   UNL A   1      41.102  20.522  26.136  1.00  0.00     0.023 C 
BRANCH  26  27
ATOM     27  C   UNL A   1      42.409  19.862  26.527  1.00  0.00     0.116 C 
BRANCH  27  28
ATOM     28  N   UNL A   1      43.089  19.158  25.437  1.00  0.00    -0.352 N 
ATOM     29  C   UNL A   1      44.096  19.624  24.605  1.00  0.00     0.251 C 
ATOM     30  H   UNL A   1      42.791  18.233  25.273  1.00  0.00     0.163 HD
ATOM     31  O   UNL A   1      44.543  18.961  23.696  1.00  0.00    -0.269 OA
BRANCH  29  32
ATOM     32  C   UNL A   1      44.577  21.001  24.842  1.00  0.00     0.039 A 
ATOM     33  C   UNL A   1      44.096  22.041  24.045  1.00  0.00     0.014 A 
ATOM     34  C   UNL A   1      45.345  21.261  25.976  1.00  0.00     0.014 A 
ATOM     35  C   UNL A   1      44.304  23.357  24.455  1.00  0.00     0.010 A 
ATOM     36  C   UNL A   1      45.405  22.555  26.461  1.00  0.00     0.010 A 
ATOM     37  C   UNL A   1      44.911  23.620  25.694  1.00  0.00    -0.014 A 
BRANCH  37  38
ATOM     38  C   UNL A   1      45.094  25.004  26.192  1.00  0.00     0.031 A 
ATOM     39  C   UNL A   1      46.454  25.643  26.090  1.00  0.00     0.074 A 
ATOM     40  C   UNL A   1      44.073  25.653  26.784  1.00  0.00     0.049 A 
ATOM     41  N   UNL A   1      46.852  26.818  26.504  1.00  0.00    -0.248 NA
ATOM     42  C   UNL A   1      47.527  24.829  25.494  1.00  0.00     0.031 C 
ATOM     43  C   UNL A   1      42.737  25.100  27.024  1.00  0.00     0.029 A 
ATOM     44  N   UNL A   1      43.997  26.926  27.290  1.00  0.00    -0.354 N 
ATOM     45  C   UNL A   1      48.216  26.862  26.241  1.00  0.00     0.074 A 
ATOM     46  C   UNL A   1      48.597  25.567  25.732  1.00  0.00     0.031 C 
ATOM     47  C   UNL A   1      41.960  26.048  27.576  1.00  0.00     0.029 A 
ATOM     48  C   UNL A   1      42.749  27.261  27.756  1.00  0.00     0.049 A 
ATOM     49  H   UNL A   1      44.765  27.541  27.315  1.00  0.00     0.167 HD
ATOM     50  C   UNL A   1      49.066  27.907  26.361  1.00  0.00     0.037 A 
ATOM     51  C   UNL A   1      42.297  28.429  28.251  1.00  0.00     0.037 A 
ATOM     52  C   UNL A   1      48.662  29.209  26.810  1.00  0.00     0.049 A 
ATOM     53  C   UNL A   1      43.246  29.596  28.322  1.00  0.00     0.074 A 
ATOM     54  C   UNL A   1      49.414  30.364  26.908  1.00  0.00     0.029 A 
ATOM     55  N   UNL A   1      47.376  29.527  27.226  1.00  0.00    -0.354 N 
ATOM     56  N   UNL A   1      44.515  29.653  27.994  1.00  0.00    -0.248 NA
ATOM     57  C   UNL A   1      42.696  30.865  28.815  1.00  0.00     0.031 C 
ATOM     58  C   UNL A   1      48.591  31.373  27.419  1.00  0.00     0.029 A 
ATOM     59  C   UNL A   1      47.315  30.859  27.591  1.00  0.00     0.049 A 
ATOM     60  H   UNL A   1      46.619  28.897  27.255  1.00  0.00     0.167 HD
ATOM     61  C   UNL A   1      44.908  30.966  28.211  1.00  0.00     0.074 A 
ATOM     62  C   UNL A   1      43.734  31.677  28.680  1.00  0.00     0.031 C 
ATOM     63  C   UNL A   1      46.127  31.538  28.046  1.00  0.00     0.037 A 
BRANCH  50  64
ATOM     64  C   UNL A   1      50.499  27.676  25.972  1.00  0.00     0.064 A 
ATOM     65  C   UNL A   1      51.481  27.361  26.927  1.00  0.00     0.173 A 
ATOM     66  C   UNL A   1      50.900  27.784  24.634  1.00  0.00     0.173 A 
ATOM     67  F   UNL A   1      51.155  27.268  28.226  1.00  0.00    -0.203 F 
ATOM     68  C   UNL A   1      52.815  27.206  26.561  1.00  0.00     0.198 A 
ATOM     69  C   UNL A   1      52.231  27.590  24.267  1.00  0.00     0.198 A 
ATOM     70  F   UNL A   1      50.006  28.084  23.680  1.00  0.00    -0.203 F 
ATOM     71  F   UNL A   1      53.743  26.979  27.501  1.00  0.00    -0.200 F 
ATOM     72  C   UNL A   1      53.188  27.314  25.231  1.00  0.00     0.200 A 
ATOM     73  F   UNL A   1      52.589  27.686  22.979  1.00  0.00    -0.200 F 
ATOM     74  F   UNL A   1      54.472  27.164  24.880  1.00  0.00    -0.200 F 
ENDBRANCH  50  64
BRANCH  51  75
ATOM     75  C   UNL A   1      40.871  28.573  28.651  1.00  0.00     0.064 A 
ATOM     76  C   UNL A   1      40.455  28.268  29.956  1.00  0.00     0.173 A 
ATOM     77  C   UNL A   1      39.895  29.013  27.745  1.00  0.00     0.173 A 
ATOM     78  F   UNL A   1      41.346  27.828  30.855  1.00  0.00    -0.203 F 
ATOM     79  C   UNL A   1      39.117  28.373  30.331  1.00  0.00     0.198 A 
ATOM     80  C   UNL A   1      38.561  29.143  28.129  1.00  0.00     0.198 A 
ATOM     81  F   UNL A   1      40.239  29.326  26.487  1.00  0.00    -0.203 F 
ATOM     82  F   UNL A   1      38.742  28.027  31.570  1.00  0.00    -0.200 F 
ATOM     83  C   UNL A   1      38.172  28.815  29.418  1.00  0.00     0.200 A 
ATOM     84  F   UNL A   1      37.653  29.585  27.249  1.00  0.00    -0.200 F 
ATOM     85  F   UNL A   1      36.885  28.917  29.779  1.00  0.00    -0.200 F 
ENDBRANCH  51  75
BRANCH  63  86
ATOM     86  C   UNL A   1      46.237  33.004  28.339  1.00  0.00     0.064 A 
ATOM     87  C   UNL A   1      45.978  33.972  27.358  1.00  0.00     0.173 A 
ATOM     88  C   UNL A   1      46.579  33.444  29.626  1.00  0.00     0.173 A 
ATOM     89  F   UNL A   1      45.657  33.599  26.109  1.00  0.00    -0.203 F 
ATOM     90  C   UNL A   1      46.095  35.328  27.646  1.00  0.00     0.198 A 
ATOM     91  C   UNL A   1      46.663  34.801  29.918  1.00  0.00     0.198 A 
ATOM     92  F   UNL A   1      46.825  32.558  30.603  1.00  0.00    -0.203 F 
ATOM     93  F   UNL A   1      45.903  36.234  26.677  1.00  0.00    -0.200 F 
ATOM     94  C   UNL A   1      46.432  35.742  28.925  1.00  0.00     0.200 A 
ATOM     95  F   UNL A   1      46.970  35.200  31.161  1.00  0.00    -0.200 F 
ATOM     96  F   UNL A   1      46.543  37.049  29.200  1.00  0.00    -0.200 F 
ENDBRANCH  63  86
ENDBRANCH  37  38
ENDBRANCH  29  32
ENDBRANCH  27  28
ENDBRANCH  26  27
ENDBRANCH  25  26
ENDBRANCH   1  25
TORSDOF 16
ENDMDL
MODEL 3
REMARK VINA RESULT:     -11.8      1.165      2.177
REMARK SMILES C[C@@H](CC(=O)NCCCCNC(=O)c1ccc(-c2c3nc(c(-c4c(F)c(F)c(F)c(F)c4F)c4ccc([nH]4)c(-c4c(F)c(F)c(F)c(F)c4F)c4nc(c(-c5c(F)c(F)c(F)c(F)c5F)c5ccc2[nH]5)C=C4)C=C3)cc1)CC(=O)NC(=O)NC[C@]1(C)CCCO1
REMARK SMILES IDX 7 1 6 2 4 3 5 4 3 6 2 7 1 8 77 9 78 10 79 11 80 12 81 13
REMARK SMILES IDX 82 15 83 16 84 18 85 19 87 20 90 21 86 22 88 23 89 24 8 25
REMARK SMILES IDX 9 26 10 27 11 28 12 29 13 31 14 32 15 33 76 34 16 35 75 36
REMARK SMILES IDX 17 37 18 38 19 39 69 40 20 41 74 42 68 43 70 44 21 45 73 46
REMARK SMILES IDX 67 47 66 48 22 50 54 51 34 52 53 53 35 54 38 55 52 56 71 57
REMARK SMILES IDX 36 58 37 59 51 61 72 62 39 63 23 64 24 65 32 66 25 67 26 68
REMARK SMILES IDX 30 69 33 70 27 71 28 72 31 73 29 74 55 75 56 76 64 77 57 78
REMARK SMILES IDX 58 79 62 80 65 81 59 82 60 83 63 84 61 85 40 86 41 87 49 88
REMARK SMILES IDX 42 89 43 90 47 91 50 92 44 93 45 94 48 95 46 96
REMARK H PARENT 6 5 80 14 83 17 11 30 70 49 38 60
REMARK Flexibility Score: inf
ROOT
ATOM      1  C   UNL A   1      34.069  21.334  26.811  1.00  0.00     0.116 C 
ENDROOT
BRANCH   1   2
ATOM      2  N   UNL A   1      32.871  22.154  27.212  1.00  0.00    -0.356 N 
ATOM      3  C   UNL A   1      32.112  23.257  26.891  1.00  0.00     0.220 C 
ATOM      4  O   UNL A   1      30.940  23.172  27.293  1.00  0.00    -0.275 OA
ATOM      5  H   UNL A   1      32.478  21.741  28.014  1.00  0.00     0.163 HD
BRANCH   3   6
ATOM      6  C   UNL A   1      32.478  24.580  26.134  1.00  0.00     0.103 C 
BRANCH   6   7
ATOM      7  C   UNL A   1      31.840  24.905  24.714  1.00  0.00     0.004 C 
ATOM      8  C   UNL A   1      30.291  24.831  24.570  1.00  0.00     0.009 C 
BRANCH   7   9
ATOM      9  C   UNL A   1      32.539  24.288  23.493  1.00  0.00     0.104 C 
BRANCH   9  10
ATOM     10  C   UNL A   1      33.768  25.009  22.935  1.00  0.00     0.228 C 
ATOM     11  O   UNL A   1      34.908  24.664  23.255  1.00  0.00    -0.275 OA
ATOM     12  N   UNL A   1      33.608  25.999  22.003  1.00  0.00    -0.278 N 
ATOM     13  C   UNL A   1      32.513  26.008  21.225  1.00  0.00     0.321 C 
ATOM     14  H   UNL A   1      34.292  26.699  21.904  1.00  0.00     0.174 HD
ATOM     15  O   UNL A   1      32.429  25.251  20.262  1.00  0.00    -0.248 OA
ATOM     16  N   UNL A   1      31.470  26.799  21.615  1.00  0.00    -0.335 N 
ATOM     17  H   UNL A   1      30.593  26.524  21.261  1.00  0.00     0.165 HD
BRANCH  16  18
ATOM     18  C   UNL A   1      31.435  27.973  22.461  1.00  0.00     0.152 C 
BRANCH  18  19
ATOM     19  C   UNL A   1      30.168  28.875  22.765  1.00  0.00     0.083 C 
ATOM     20  C   UNL A   1      28.729  28.404  23.128  1.00  0.00     0.039 C 
ATOM     21  O   UNL A   1      29.983  29.805  21.683  1.00  0.00    -0.373 OA
ATOM     22  C   UNL A   1      30.634  29.637  24.036  1.00  0.00     0.044 C 
ATOM     23  C   UNL A   1      27.790  29.333  22.370  1.00  0.00     0.031 C 
ATOM     24  C   UNL A   1      28.696  30.415  21.838  1.00  0.00     0.161 C 
ENDBRANCH  18  19
ENDBRANCH  16  18
ENDBRANCH   9  10
ENDBRANCH   7   9
ENDBRANCH   6   7
ENDBRANCH   3   6
ENDBRANCH   1   2
BRANCH   1  25
ATOM     25  C   UNL A   1      34.332  21.176  25.290  1.00  0.00     0.023 C 
BRANCH  25  26
ATOM     26  C   UNL A   1      35.577  21.819  24.723  1.00  0.00     0.023 C 
BRANCH  26  27
ATOM     27  C   UNL A   1      36.682  21.978  25.747  1.00  0.00     0.116 C 
BRANCH  27  28
ATOM     28  N   UNL A   1      37.782  21.018  25.612  1.00  0.00    -0.352 N 
ATOM     29  C   UNL A   1      39.107  21.164  25.995  1.00  0.00     0.251 C 
ATOM     30  H   UNL A   1      37.549  20.157  25.195  1.00  0.00     0.163 HD
ATOM     31  O   UNL A   1      39.940  20.314  25.779  1.00  0.00    -0.269 OA
BRANCH  29  32
ATOM     32  C   UNL A   1      39.479  22.440  26.644  1.00  0.00     0.039 A 
ATOM     33  C   UNL A   1      40.464  22.441  27.633  1.00  0.00     0.014 A 
ATOM     34  C   UNL A   1      38.984  23.632  26.120  1.00  0.00     0.014 A 
ATOM     35  C   UNL A   1      41.027  23.657  28.021  1.00  0.00     0.010 A 
ATOM     36  C   UNL A   1      39.657  24.811  26.387  1.00  0.00     0.010 A 
ATOM     37  C   UNL A   1      40.667  24.843  27.360  1.00  0.00    -0.014 A 
BRANCH  37  38
ATOM     38  C   UNL A   1      41.288  26.144  27.702  1.00  0.00     0.031 A 
ATOM     39  C   UNL A   1      42.687  26.433  27.226  1.00  0.00     0.074 A 
ATOM     40  C   UNL A   1      40.633  27.024  28.483  1.00  0.00     0.049 A 
ATOM     41  N   UNL A   1      43.441  27.478  27.448  1.00  0.00    -0.248 NA
ATOM     42  C   UNL A   1      43.352  25.379  26.439  1.00  0.00     0.031 C 
ATOM     43  C   UNL A   1      39.311  26.813  29.081  1.00  0.00     0.029 A 
ATOM     44  N   UNL A   1      40.988  28.280  28.905  1.00  0.00    -0.354 N 
ATOM     45  C   UNL A   1      44.663  27.189  26.856  1.00  0.00     0.074 A 
ATOM     46  C   UNL A   1      44.589  25.838  26.356  1.00  0.00     0.031 C 
ATOM     47  C   UNL A   1      38.945  27.924  29.743  1.00  0.00     0.029 A 
ATOM     48  C   UNL A   1      40.014  28.911  29.641  1.00  0.00     0.049 A 
ATOM     49  H   UNL A   1      41.858  28.691  28.698  1.00  0.00     0.167 HD
ATOM     50  C   UNL A   1      45.735  27.997  26.691  1.00  0.00     0.037 A 
ATOM     51  C   UNL A   1      39.989  30.156  30.153  1.00  0.00     0.037 A 
ATOM     52  C   UNL A   1      45.774  29.360  27.138  1.00  0.00     0.049 A 
ATOM     53  C   UNL A   1      41.169  31.058  29.908  1.00  0.00     0.074 A 
ATOM     54  C   UNL A   1      46.774  30.299  26.969  1.00  0.00     0.029 A 
ATOM     55  N   UNL A   1      44.748  29.983  27.835  1.00  0.00    -0.354 N 
ATOM     56  N   UNL A   1      42.289  30.804  29.274  1.00  0.00    -0.248 NA
ATOM     57  C   UNL A   1      41.075  32.426  30.435  1.00  0.00     0.031 C 
ATOM     58  C   UNL A   1      46.367  31.481  27.598  1.00  0.00     0.029 A 
ATOM     59  C   UNL A   1      45.094  31.293  28.114  1.00  0.00     0.049 A 
ATOM     60  H   UNL A   1      43.899  29.556  28.092  1.00  0.00     0.167 HD
ATOM     61  C   UNL A   1      43.020  31.984  29.299  1.00  0.00     0.074 A 
ATOM     62  C   UNL A   1      42.204  32.961  29.994  1.00  0.00     0.031 C 
ATOM     63  C   UNL A   1      44.255  32.241  28.800  1.00  0.00     0.037 A 
BRANCH  50  64
ATOM     64  C   UNL A   1      46.927  27.423  25.978  1.00  0.00     0.064 A 
ATOM     65  C   UNL A   1      47.936  26.730  26.667  1.00  0.00     0.173 A 
ATOM     66  C   UNL A   1      47.070  27.579  24.592  1.00  0.00     0.173 A 
ATOM     67  F   UNL A   1      47.860  26.572  27.998  1.00  0.00    -0.203 F 
ATOM     68  C   UNL A   1      49.062  26.253  26.003  1.00  0.00     0.198 A 
ATOM     69  C   UNL A   1      48.181  27.066  23.925  1.00  0.00     0.198 A 
ATOM     70  F   UNL A   1      46.138  28.233  23.883  1.00  0.00    -0.203 F 
ATOM     71  F   UNL A   1      50.045  25.661  26.695  1.00  0.00    -0.200 F 
ATOM     72  C   UNL A   1      49.181  26.416  24.632  1.00  0.00     0.200 A 
ATOM     73  F   UNL A   1      48.291  27.217  22.598  1.00  0.00    -0.200 F 
ATOM     74  F   UNL A   1      50.266  25.956  23.993  1.00  0.00    -0.200 F 
ENDBRANCH  50  64
BRANCH  51  75
ATOM     75  C   UNL A   1      38.786  30.645  30.881  1.00  0.00     0.064 A 
ATOM     76  C   UNL A   1      38.684  30.508  32.273  1.00  0.00     0.173 A 
ATOM     77  C   UNL A   1      37.716  31.252  30.207  1.00  0.00     0.173 A 
ATOM     78  F   UNL A   1      39.672  29.919  32.961  1.00  0.00    -0.203 F 
ATOM     79  C   UNL A   1      37.549  30.936  32.960  1.00  0.00     0.198 A 
ATOM     80  C   UNL A   1      36.593  31.705  30.899  1.00  0.00     0.198 A 
ATOM     81  F   UNL A   1      37.766  31.415  28.878  1.00  0.00    -0.203 F 
ATOM     82  F   UNL A   1      37.459  30.748  34.284  1.00  0.00    -0.200 F 
ATOM     83  C   UNL A   1      36.507  31.539  32.273  1.00  0.00     0.200 A 
ATOM     84  F   UNL A   1      35.594  32.300  30.234  1.00  0.00    -0.200 F 
ATOM     85  F   UNL A   1      35.417  31.952  32.934  1.00  0.00    -0.200 F 
ENDBRANCH  51  75
BRANCH  63  86
ATOM     86  C   UNL A   1      44.774  33.639  28.958  1.00  0.00     0.064 A 
ATOM     87  C   UNL A   1      45.549  34.015  30.065  1.00  0.00     0.173 A 
ATOM     88  C   UNL A   1      44.515  34.606  27.975  1.00  0.00     0.173 A 
ATOM     89  F   UNL A   1      45.815  33.129  31.037  1.00  0.00    -0.203 F 
ATOM     90  C   UNL A   1      46.013  35.320  30.199  1.00  0.00     0.198 A 
ATOM     91  C   UNL A   1      45.009  35.900  28.097  1.00  0.00     0.198 A 
ATOM     92  F   UNL A   1      43.788  34.292  26.891  1.00  0.00    -0.203 F 
ATOM     93  F   UNL A   1      46.701  35.674  31.294  1.00  0.00    -0.200 F 
ATOM     94  C   UNL A   1      45.748  36.259  29.214  1.00  0.00     0.200 A 
ATOM     95  F   UNL A   1      44.767  36.801  27.135  1.00  0.00    -0.200 F 
ATOM     96  F   UNL A   1      46.198  37.515  29.346  1.00  0.00    -0.200 F 
ENDBRANCH  63  86
ENDBRANCH  37  38
ENDBRANCH  29  32
ENDBRANCH  27  28
ENDBRANCH  26  27
ENDBRANCH  25  26
ENDBRANCH   1  25
TORSDOF 16
ENDMDL
