MODEL 1
REMARK VINA RESULT:     -12.2      0.000      0.000
REMARK SMILES O=C(NCCCCNC(=O)c1cc(Cl)nc(I)c1C(F)(F)F)c1ccc(-c2c3nc(c(-c4c(F)c(F)c(F)c(F)c4F)c4ccc([nH]4)c(-c4c(F)c(F)c(F)c(F)c4F)c4nc(c(-c5c(F)c(F)c(F)c(F)c5F)c5ccc2[nH]5)C=C4)C=C3)cc1
REMARK SMILES IDX 5 1 4 2 3 3 1 4 2 5 23 7 24 8 85 9 25 10 84 11 26 12 27 13
REMARK SMILES IDX 28 14 78 15 29 16 83 17 77 18 79 19 30 20 82 21 76 22 75 23
REMARK SMILES IDX 31 25 63 26 43 27 62 28 44 29 47 30 61 31 80 32 45 33 46 34
REMARK SMILES IDX 60 36 81 37 48 38 32 39 33 40 41 41 34 42 35 43 39 44 42 45
REMARK SMILES IDX 36 46 37 47 40 48 38 49 64 50 65 51 73 52 66 53 67 54 71 55
REMARK SMILES IDX 74 56 68 57 69 58 72 59 70 60 49 61 50 62 58 63 51 64 52 65
REMARK SMILES IDX 56 66 59 67 53 68 54 69 57 70 55 71 6 72 7 73 8 74 9 75
REMARK SMILES IDX 10 77 11 78 12 79 18 80 13 81 16 82 14 83 15 84 17 85 19 86
REMARK SMILES IDX 20 87 21 88 22 89
REMARK H PARENT 3 6 79 24 47 35 8 76
REMARK Flexibility Score: inf
ROOT
ATOM      1  C   UNL A   1      31.306  32.091  26.872  1.00  0.00     0.023 C 
ENDROOT
BRANCH   1   2
ATOM      2  C   UNL A   1      32.593  32.855  27.174  1.00  0.00     0.116 C 
BRANCH   2   3
ATOM      3  N   UNL A   1      32.348  34.226  27.596  1.00  0.00    -0.352 N 
ATOM      4  O   UNL A   1      32.536  36.067  28.886  1.00  0.00    -0.269 OA
ATOM      5  C   UNL A   1      32.976  34.967  28.566  1.00  0.00     0.251 C 
ATOM      6  H   UNL A   1      31.624  34.689  27.115  1.00  0.00     0.163 HD
BRANCH   5   7
ATOM      7  C   UNL A   1      34.170  34.428  29.251  1.00  0.00     0.039 A 
ATOM      8  C   UNL A   1      35.446  34.594  28.708  1.00  0.00     0.014 A 
ATOM      9  C   UNL A   1      33.999  33.748  30.461  1.00  0.00     0.014 A 
ATOM     10  C   UNL A   1      36.539  33.973  29.309  1.00  0.00     0.010 A 
ATOM     11  C   UNL A   1      35.103  33.164  31.088  1.00  0.00     0.010 A 
ATOM     12  C   UNL A   1      36.373  33.238  30.495  1.00  0.00    -0.014 A 
BRANCH  12  13
ATOM     13  C   UNL A   1      37.532  32.540  31.098  1.00  0.00     0.031 A 
ATOM     14  C   UNL A   1      38.017  32.917  32.468  1.00  0.00     0.074 A 
ATOM     15  C   UNL A   1      38.128  31.539  30.423  1.00  0.00     0.049 A 
ATOM     16  N   UNL A   1      38.994  32.402  33.171  1.00  0.00    -0.248 NA
ATOM     17  C   UNL A   1      37.311  34.019  33.141  1.00  0.00     0.031 C 
ATOM     18  C   UNL A   1      37.738  31.076  29.091  1.00  0.00     0.029 A 
ATOM     19  N   UNL A   1      39.178  30.728  30.768  1.00  0.00    -0.354 N 
ATOM     20  C   UNL A   1      39.016  33.106  34.366  1.00  0.00     0.074 A 
ATOM     21  C   UNL A   1      37.981  34.115  34.282  1.00  0.00     0.031 C 
ATOM     22  C   UNL A   1      38.524  30.047  28.740  1.00  0.00     0.029 A 
ATOM     23  C   UNL A   1      39.494  29.802  29.806  1.00  0.00     0.049 A 
ATOM     24  H   UNL A   1      39.660  30.802  31.623  1.00  0.00     0.167 HD
ATOM     25  C   UNL A   1      39.814  32.917  35.444  1.00  0.00     0.037 A 
ATOM     26  C   UNL A   1      40.461  28.865  29.783  1.00  0.00     0.037 A 
ATOM     27  C   UNL A   1      40.844  31.915  35.527  1.00  0.00     0.049 A 
ATOM     28  C   UNL A   1      41.381  28.726  30.962  1.00  0.00     0.074 A 
ATOM     29  C   UNL A   1      41.689  31.631  36.588  1.00  0.00     0.029 A 
ATOM     30  N   UNL A   1      41.177  31.037  34.506  1.00  0.00    -0.354 N 
ATOM     31  N   UNL A   1      41.373  29.377  32.099  1.00  0.00    -0.248 NA
ATOM     32  C   UNL A   1      42.451  27.724  30.853  1.00  0.00     0.031 C 
ATOM     33  C   UNL A   1      42.559  30.610  36.192  1.00  0.00     0.029 A 
ATOM     34  C   UNL A   1      42.231  30.229  34.902  1.00  0.00     0.049 A 
ATOM     35  H   UNL A   1      40.728  30.993  33.630  1.00  0.00     0.167 HD
ATOM     36  C   UNL A   1      42.421  28.858  32.844  1.00  0.00     0.074 A 
ATOM     37  C   UNL A   1      43.037  27.824  32.038  1.00  0.00     0.031 C 
ATOM     38  C   UNL A   1      42.838  29.209  34.085  1.00  0.00     0.037 A 
BRANCH  25  39
ATOM     39  C   UNL A   1      39.609  33.810  36.631  1.00  0.00     0.064 A 
ATOM     40  C   UNL A   1      38.796  33.418  37.706  1.00  0.00     0.173 A 
ATOM     41  C   UNL A   1      40.280  35.037  36.727  1.00  0.00     0.173 A 
ATOM     42  F   UNL A   1      38.124  32.258  37.656  1.00  0.00    -0.203 F 
ATOM     43  C   UNL A   1      38.655  34.229  38.828  1.00  0.00     0.198 A 
ATOM     44  C   UNL A   1      40.154  35.836  37.861  1.00  0.00     0.198 A 
ATOM     45  F   UNL A   1      41.072  35.454  35.727  1.00  0.00    -0.203 F 
ATOM     46  F   UNL A   1      37.851  33.848  39.831  1.00  0.00    -0.200 F 
ATOM     47  C   UNL A   1      39.340  35.433  38.908  1.00  0.00     0.200 A 
ATOM     48  F   UNL A   1      40.824  36.993  37.941  1.00  0.00    -0.200 F 
ATOM     49  F   UNL A   1      39.212  36.207  39.995  1.00  0.00    -0.200 F 
ENDBRANCH  25  39
BRANCH  26  50
ATOM     50  C   UNL A   1      40.594  27.979  28.600  1.00  0.00     0.064 A 
ATOM     51  C   UNL A   1      39.936  26.743  28.552  1.00  0.00     0.173 A 
ATOM     52  C   UNL A   1      41.361  28.357  27.488  1.00  0.00     0.173 A 
ATOM     53  F   UNL A   1      39.209  26.331  29.600  1.00  0.00    -0.203 F 
ATOM     54  C   UNL A   1      40.045  25.915  27.437  1.00  0.00     0.198 A 
ATOM     55  C   UNL A   1      41.450  27.539  26.365  1.00  0.00     0.198 A 
ATOM     56  F   UNL A   1      42.009  29.531  27.489  1.00  0.00    -0.203 F 
ATOM     57  F   UNL A   1      39.429  24.724  27.427  1.00  0.00    -0.200 F 
ATOM     58  C   UNL A   1      40.795  26.316  26.342  1.00  0.00     0.200 A 
ATOM     59  F   UNL A   1      42.167  27.936  25.305  1.00  0.00    -0.200 F 
ATOM     60  F   UNL A   1      40.891  25.524  25.266  1.00  0.00    -0.200 F 
ENDBRANCH  26  50
BRANCH  38  61
ATOM     61  C   UNL A   1      44.013  28.471  34.653  1.00  0.00     0.064 A 
ATOM     62  C   UNL A   1      45.318  28.969  34.522  1.00  0.00     0.173 A 
ATOM     63  C   UNL A   1      43.829  27.290  35.387  1.00  0.00     0.173 A 
ATOM     64  F   UNL A   1      45.545  30.089  33.818  1.00  0.00    -0.203 F 
ATOM     65  C   UNL A   1      46.397  28.303  35.094  1.00  0.00     0.198 A 
ATOM     66  C   UNL A   1      44.908  26.640  35.978  1.00  0.00     0.198 A 
ATOM     67  F   UNL A   1      42.599  26.777  35.545  1.00  0.00    -0.203 F 
ATOM     68  F   UNL A   1      47.639  28.778  34.930  1.00  0.00    -0.200 F 
ATOM     69  C   UNL A   1      46.191  27.144  35.829  1.00  0.00     0.200 A 
ATOM     70  F   UNL A   1      44.706  25.526  36.697  1.00  0.00    -0.200 F 
ATOM     71  F   UNL A   1      47.230  26.510  36.388  1.00  0.00    -0.200 F 
ENDBRANCH  38  61
ENDBRANCH  12  13
ENDBRANCH   5   7
ENDBRANCH   2   3
ENDBRANCH   1   2
BRANCH   1  72
ATOM     72  C   UNL A   1      31.428  30.960  25.849  1.00  0.00     0.023 C 
BRANCH  72  73
ATOM     73  C   UNL A   1      32.638  30.045  26.016  1.00  0.00     0.116 C 
BRANCH  73  74
ATOM     74  N   UNL A   1      33.267  29.696  24.752  1.00  0.00    -0.352 N 
ATOM     75  C   UNL A   1      33.000  28.657  23.903  1.00  0.00     0.252 C 
ATOM     76  H   UNL A   1      33.992  30.297  24.465  1.00  0.00     0.163 HD
ATOM     77  O   UNL A   1      33.634  28.498  22.867  1.00  0.00    -0.269 OA
BRANCH  75  78
ATOM     78  C   UNL A   1      31.969  27.671  24.262  1.00  0.00     0.057 A 
ATOM     79  C   UNL A   1      30.680  27.975  23.825  1.00  0.00     0.055 A 
ATOM     80  C   UNL A   1      32.248  26.504  24.993  1.00  0.00     0.100 A 
ATOM     81  C   UNL A   1      29.704  27.049  24.079  1.00  0.00     0.131 A 
ATOM     82  C   UNL A   1      31.185  25.620  25.139  1.00  0.00     0.116 A 
ATOM     83  Cl  UNL A   1      28.086  27.302  23.581  1.00  0.00    -0.062 Cl
ATOM     84  N   UNL A   1      29.930  25.878  24.694  1.00  0.00    -0.229 NA
ATOM     85  I   UNL A   1      31.393  23.698  25.988  1.00  0.00    -0.021 I 
BRANCH  80  86
ATOM     86  C   UNL A   1      33.606  26.222  25.555  1.00  0.00     0.419 C 
ATOM     87  F   UNL A   1      33.637  25.137  26.376  1.00  0.00    -0.166 F 
ATOM     88  F   UNL A   1      34.523  25.986  24.575  1.00  0.00    -0.166 F 
ATOM     89  F   UNL A   1      34.136  27.226  26.305  1.00  0.00    -0.166 F 
ENDBRANCH  80  86
ENDBRANCH  75  78
ENDBRANCH  73  74
ENDBRANCH  72  73
ENDBRANCH   1  72
TORSDOF 12
ENDMDL
MODEL 2
REMARK VINA RESULT:     -12.2      0.237      2.051
REMARK SMILES O=C(NCCCCNC(=O)c1cc(Cl)nc(I)c1C(F)(F)F)c1ccc(-c2c3nc(c(-c4c(F)c(F)c(F)c(F)c4F)c4ccc([nH]4)c(-c4c(F)c(F)c(F)c(F)c4F)c4nc(c(-c5c(F)c(F)c(F)c(F)c5F)c5ccc2[nH]5)C=C4)C=C3)cc1
REMARK SMILES IDX 5 1 4 2 3 3 1 4 2 5 23 7 24 8 85 9 25 10 84 11 26 12 27 13
REMARK SMILES IDX 28 14 78 15 29 16 83 17 77 18 79 19 30 20 82 21 76 22 75 23
REMARK SMILES IDX 31 25 63 26 43 27 62 28 44 29 47 30 61 31 80 32 45 33 46 34
REMARK SMILES IDX 60 36 81 37 48 38 32 39 33 40 41 41 34 42 35 43 39 44 42 45
REMARK SMILES IDX 36 46 37 47 40 48 38 49 64 50 65 51 73 52 66 53 67 54 71 55
REMARK SMILES IDX 74 56 68 57 69 58 72 59 70 60 49 61 50 62 58 63 51 64 52 65
REMARK SMILES IDX 56 66 59 67 53 68 54 69 57 70 55 71 6 72 7 73 8 74 9 75
REMARK SMILES IDX 10 77 11 78 12 79 18 80 13 81 16 82 14 83 15 84 17 85 19 86
REMARK SMILES IDX 20 87 21 88 22 89
REMARK H PARENT 3 6 79 24 47 35 8 76
REMARK Flexibility Score: inf
ROOT
ATOM      1  C   UNL A   1      31.288  32.117  26.831  1.00  0.00     0.023 C 
ENDROOT
BRANCH   1   2
ATOM      2  C   UNL A   1      32.587  32.826  27.206  1.00  0.00     0.116 C 
BRANCH   2   3
ATOM      3  N   UNL A   1      32.375  34.203  27.626  1.00  0.00    -0.352 N 
ATOM      4  O   UNL A   1      32.613  36.043  28.909  1.00  0.00    -0.269 OA
ATOM      5  C   UNL A   1      33.026  34.933  28.590  1.00  0.00     0.251 C 
ATOM      6  H   UNL A   1      31.658  34.681  27.149  1.00  0.00     0.163 HD
BRANCH   5   7
ATOM      7  C   UNL A   1      34.212  34.369  29.268  1.00  0.00     0.039 A 
ATOM      8  C   UNL A   1      35.495  34.565  28.752  1.00  0.00     0.014 A 
ATOM      9  C   UNL A   1      34.028  33.637  30.445  1.00  0.00     0.014 A 
ATOM     10  C   UNL A   1      36.582  33.922  29.341  1.00  0.00     0.010 A 
ATOM     11  C   UNL A   1      35.125  33.030  31.061  1.00  0.00     0.010 A 
ATOM     12  C   UNL A   1      36.403  33.136  30.491  1.00  0.00    -0.014 A 
BRANCH  12  13
ATOM     13  C   UNL A   1      37.557  32.417  31.079  1.00  0.00     0.031 A 
ATOM     14  C   UNL A   1      38.043  32.761  32.458  1.00  0.00     0.074 A 
ATOM     15  C   UNL A   1      38.146  31.427  30.384  1.00  0.00     0.049 A 
ATOM     16  N   UNL A   1      39.016  32.225  33.151  1.00  0.00    -0.248 NA
ATOM     17  C   UNL A   1      37.344  33.854  33.153  1.00  0.00     0.031 C 
ATOM     18  C   UNL A   1      37.755  30.995  29.042  1.00  0.00     0.029 A 
ATOM     19  N   UNL A   1      39.191  30.601  30.712  1.00  0.00    -0.354 N 
ATOM     20  C   UNL A   1      39.041  32.903  34.361  1.00  0.00     0.074 A 
ATOM     21  C   UNL A   1      38.013  33.920  34.297  1.00  0.00     0.031 C 
ATOM     22  C   UNL A   1      38.534  29.968  28.670  1.00  0.00     0.029 A 
ATOM     23  C   UNL A   1      39.501  29.694  29.731  1.00  0.00     0.049 A 
ATOM     24  H   UNL A   1      39.672  30.654  31.569  1.00  0.00     0.167 HD
ATOM     25  C   UNL A   1      39.837  32.685  35.435  1.00  0.00     0.037 A 
ATOM     26  C   UNL A   1      40.461  28.751  29.689  1.00  0.00     0.037 A 
ATOM     27  C   UNL A   1      40.861  31.675  35.497  1.00  0.00     0.049 A 
ATOM     28  C   UNL A   1      41.380  28.580  30.865  1.00  0.00     0.074 A 
ATOM     29  C   UNL A   1      41.702  31.362  36.552  1.00  0.00     0.029 A 
ATOM     30  N   UNL A   1      41.188  30.816  34.458  1.00  0.00    -0.354 N 
ATOM     31  N   UNL A   1      41.375  29.207  32.015  1.00  0.00    -0.248 NA
ATOM     32  C   UNL A   1      42.443  27.573  30.735  1.00  0.00     0.031 C 
ATOM     33  C   UNL A   1      42.566  30.344  36.135  1.00  0.00     0.029 A 
ATOM     34  C   UNL A   1      42.236  29.993  34.837  1.00  0.00     0.049 A 
ATOM     35  H   UNL A   1      40.740  30.794  33.580  1.00  0.00     0.167 HD
ATOM     36  C   UNL A   1      42.419  28.665  32.751  1.00  0.00     0.074 A 
ATOM     37  C   UNL A   1      43.028  27.644  31.923  1.00  0.00     0.031 C 
ATOM     38  C   UNL A   1      42.837  28.987  33.999  1.00  0.00     0.037 A 
BRANCH  25  39
ATOM     39  C   UNL A   1      39.637  33.554  36.640  1.00  0.00     0.064 A 
ATOM     40  C   UNL A   1      40.244  34.815  36.739  1.00  0.00     0.173 A 
ATOM     41  C   UNL A   1      38.779  33.154  37.675  1.00  0.00     0.173 A 
ATOM     42  F   UNL A   1      41.082  35.237  35.780  1.00  0.00    -0.203 F 
ATOM     43  C   UNL A   1      40.008  35.638  37.835  1.00  0.00     0.198 A 
ATOM     44  C   UNL A   1      38.528  33.990  38.760  1.00  0.00     0.198 A 
ATOM     45  F   UNL A   1      38.171  31.959  37.625  1.00  0.00    -0.203 F 
ATOM     46  F   UNL A   1      40.620  36.827  37.923  1.00  0.00    -0.200 F 
ATOM     47  C   UNL A   1      39.144  35.229  38.841  1.00  0.00     0.200 A 
ATOM     48  F   UNL A   1      37.685  33.597  39.726  1.00  0.00    -0.200 F 
ATOM     49  F   UNL A   1      38.909  36.029  39.890  1.00  0.00    -0.200 F 
ENDBRANCH  25  39
BRANCH  26  50
ATOM     50  C   UNL A   1      40.589  27.890  28.487  1.00  0.00     0.064 A 
ATOM     51  C   UNL A   1      41.350  28.303  27.386  1.00  0.00     0.173 A 
ATOM     52  C   UNL A   1      39.973  26.631  28.422  1.00  0.00     0.173 A 
ATOM     53  F   UNL A   1      41.940  29.508  27.394  1.00  0.00    -0.203 F 
ATOM     54  C   UNL A   1      41.487  27.491  26.262  1.00  0.00     0.198 A 
ATOM     55  C   UNL A   1      40.129  25.811  27.309  1.00  0.00     0.198 A 
ATOM     56  F   UNL A   1      39.235  26.194  29.452  1.00  0.00    -0.203 F 
ATOM     57  F   UNL A   1      42.197  27.922  25.210  1.00  0.00    -0.200 F 
ATOM     58  C   UNL A   1      40.883  26.244  26.227  1.00  0.00     0.200 A 
ATOM     59  F   UNL A   1      39.553  24.602  27.284  1.00  0.00    -0.200 F 
ATOM     60  F   UNL A   1      41.023  25.459  25.150  1.00  0.00    -0.200 F 
ENDBRANCH  26  50
BRANCH  38  61
ATOM     61  C   UNL A   1      44.006  28.229  34.552  1.00  0.00     0.064 A 
ATOM     62  C   UNL A   1      43.833  27.004  35.214  1.00  0.00     0.173 A 
ATOM     63  C   UNL A   1      45.315  28.699  34.368  1.00  0.00     0.173 A 
ATOM     64  F   UNL A   1      42.599  26.521  35.425  1.00  0.00    -0.203 F 
ATOM     65  C   UNL A   1      44.928  26.284  35.681  1.00  0.00     0.198 A 
ATOM     66  C   UNL A   1      46.409  27.964  34.816  1.00  0.00     0.198 A 
ATOM     67  F   UNL A   1      45.532  29.862  33.737  1.00  0.00    -0.203 F 
ATOM     68  F   UNL A   1      44.738  25.132  36.339  1.00  0.00    -0.200 F 
ATOM     69  C   UNL A   1      46.215  26.760  35.475  1.00  0.00     0.200 A 
ATOM     70  F   UNL A   1      47.652  28.419  34.606  1.00  0.00    -0.200 F 
ATOM     71  F   UNL A   1      47.268  26.059  35.916  1.00  0.00    -0.200 F 
ENDBRANCH  38  61
ENDBRANCH  12  13
ENDBRANCH   5   7
ENDBRANCH   2   3
ENDBRANCH   1   2
BRANCH   1  72
ATOM     72  C   UNL A   1      31.424  30.965  25.833  1.00  0.00     0.023 C 
BRANCH  72  73
ATOM     73  C   UNL A   1      32.605  30.026  26.064  1.00  0.00     0.116 C 
BRANCH  73  74
ATOM     74  N   UNL A   1      33.266  29.629  24.831  1.00  0.00    -0.352 N 
ATOM     75  C   UNL A   1      32.986  28.589  23.988  1.00  0.00     0.252 C 
ATOM     76  H   UNL A   1      34.028  30.193  24.564  1.00  0.00     0.163 HD
ATOM     77  O   UNL A   1      33.652  28.384  22.980  1.00  0.00    -0.269 OA
BRANCH  75  78
ATOM     78  C   UNL A   1      31.900  27.654  24.321  1.00  0.00     0.057 A 
ATOM     79  C   UNL A   1      30.643  28.009  23.832  1.00  0.00     0.055 A 
ATOM     80  C   UNL A   1      32.099  26.487  25.077  1.00  0.00     0.100 A 
ATOM     81  C   UNL A   1      29.617  27.131  24.062  1.00  0.00     0.131 A 
ATOM     82  C   UNL A   1      30.993  25.654  25.195  1.00  0.00     0.116 A 
ATOM     83  Cl  UNL A   1      28.031  27.449  23.501  1.00  0.00    -0.062 Cl
ATOM     84  N   UNL A   1      29.767  25.960  24.700  1.00  0.00    -0.229 NA
ATOM     85  I   UNL A   1      31.083  23.736  26.076  1.00  0.00    -0.021 I 
BRANCH  80  86
ATOM     86  C   UNL A   1      33.422  26.154  25.693  1.00  0.00     0.419 C 
ATOM     87  F   UNL A   1      34.403  25.930  24.777  1.00  0.00    -0.166 F 
ATOM     88  F   UNL A   1      33.873  27.154  26.501  1.00  0.00    -0.166 F 
ATOM     89  F   UNL A   1      33.427  25.038  26.471  1.00  0.00    -0.166 F 
ENDBRANCH  80  86
ENDBRANCH  75  78
ENDBRANCH  73  74
ENDBRANCH  72  73
ENDBRANCH   1  72
TORSDOF 12
ENDMDL
MODEL 3
REMARK VINA RESULT:     -12.2      0.257      7.565
REMARK SMILES O=C(NCCCCNC(=O)c1cc(Cl)nc(I)c1C(F)(F)F)c1ccc(-c2c3nc(c(-c4c(F)c(F)c(F)c(F)c4F)c4ccc([nH]4)c(-c4c(F)c(F)c(F)c(F)c4F)c4nc(c(-c5c(F)c(F)c(F)c(F)c5F)c5ccc2[nH]5)C=C4)C=C3)cc1
REMARK SMILES IDX 5 1 4 2 3 3 1 4 2 5 23 7 24 8 85 9 25 10 84 11 26 12 27 13
REMARK SMILES IDX 28 14 78 15 29 16 83 17 77 18 79 19 30 20 82 21 76 22 75 23
REMARK SMILES IDX 31 25 63 26 43 27 62 28 44 29 47 30 61 31 80 32 45 33 46 34
REMARK SMILES IDX 60 36 81 37 48 38 32 39 33 40 41 41 34 42 35 43 39 44 42 45
REMARK SMILES IDX 36 46 37 47 40 48 38 49 64 50 65 51 73 52 66 53 67 54 71 55
REMARK SMILES IDX 74 56 68 57 69 58 72 59 70 60 49 61 50 62 58 63 51 64 52 65
REMARK SMILES IDX 56 66 59 67 53 68 54 69 57 70 55 71 6 72 7 73 8 74 9 75
REMARK SMILES IDX 10 77 11 78 12 79 18 80 13 81 16 82 14 83 15 84 17 85 19 86
REMARK SMILES IDX 20 87 21 88 22 89
REMARK H PARENT 3 6 79 24 47 35 8 76
REMARK Flexibility Score: inf
ROOT
ATOM      1  C   UNL A   1      31.288  32.094  26.841  1.00  0.00     0.023 C 
ENDROOT
BRANCH   1   2
ATOM      2  C   UNL A   1      32.581  32.810  27.227  1.00  0.00     0.116 C 
BRANCH   2   3
ATOM      3  N   UNL A   1      32.367  34.204  27.581  1.00  0.00    -0.352 N 
ATOM      4  O   UNL A   1      32.574  36.093  28.797  1.00  0.00    -0.269 OA
ATOM      5  C   UNL A   1      32.988  34.967  28.540  1.00  0.00     0.251 C 
ATOM      6  H   UNL A   1      31.675  34.669  27.057  1.00  0.00     0.163 HD
BRANCH   5   7
ATOM      7  C   UNL A   1      34.140  34.421  29.286  1.00  0.00     0.039 A 
ATOM      8  C   UNL A   1      35.440  34.538  28.788  1.00  0.00     0.014 A 
ATOM      9  C   UNL A   1      33.907  33.785  30.510  1.00  0.00     0.014 A 
ATOM     10  C   UNL A   1      36.493  33.910  29.449  1.00  0.00     0.010 A 
ATOM     11  C   UNL A   1      34.972  33.194  31.196  1.00  0.00     0.010 A 
ATOM     12  C   UNL A   1      36.264  33.218  30.650  1.00  0.00    -0.014 A 
BRANCH  12  13
ATOM     13  C   UNL A   1      37.382  32.511  31.319  1.00  0.00     0.031 A 
ATOM     14  C   UNL A   1      38.090  31.383  30.624  1.00  0.00     0.074 A 
ATOM     15  C   UNL A   1      37.782  32.910  32.540  1.00  0.00     0.049 A 
ATOM     16  N   UNL A   1      39.105  30.666  31.035  1.00  0.00    -0.248 NA
ATOM     17  C   UNL A   1      37.593  31.010  29.290  1.00  0.00     0.031 C 
ATOM     18  C   UNL A   1      37.180  34.000  33.307  1.00  0.00     0.029 A 
ATOM     19  N   UNL A   1      38.794  32.451  33.344  1.00  0.00    -0.354 N 
ATOM     20  C   UNL A   1      39.375  29.767  30.013  1.00  0.00     0.074 A 
ATOM     21  C   UNL A   1      38.391  29.998  28.976  1.00  0.00     0.031 C 
ATOM     22  C   UNL A   1      37.848  34.141  34.462  1.00  0.00     0.029 A 
ATOM     23  C   UNL A   1      38.901  33.131  34.531  1.00  0.00     0.049 A 
ATOM     24  H   UNL A   1      39.387  31.706  33.093  1.00  0.00     0.167 HD
ATOM     25  C   UNL A   1      40.365  28.845  29.938  1.00  0.00     0.037 A 
ATOM     26  C   UNL A   1      39.749  32.954  35.561  1.00  0.00     0.037 A 
ATOM     27  C   UNL A   1      41.341  28.615  30.970  1.00  0.00     0.049 A 
ATOM     28  C   UNL A   1      40.791  31.874  35.484  1.00  0.00     0.074 A 
ATOM     29  C   UNL A   1      42.397  27.719  30.974  1.00  0.00     0.029 A 
ATOM     30  N   UNL A   1      41.378  29.281  32.186  1.00  0.00    -0.354 N 
ATOM     31  N   UNL A   1      41.055  31.050  34.500  1.00  0.00    -0.248 NA
ATOM     32  C   UNL A   1      41.649  31.695  36.664  1.00  0.00     0.031 C 
ATOM     33  C   UNL A   1      43.045  27.813  32.210  1.00  0.00     0.029 A 
ATOM     34  C   UNL A   1      42.420  28.796  32.959  1.00  0.00     0.049 A 
ATOM     35  H   UNL A   1      40.755  29.994  32.460  1.00  0.00     0.167 HD
ATOM     36  C   UNL A   1      42.115  30.266  34.933  1.00  0.00     0.074 A 
ATOM     37  C   UNL A   1      42.457  30.723  36.264  1.00  0.00     0.031 C 
ATOM     38  C   UNL A   1      42.744  29.256  34.286  1.00  0.00     0.037 A 
BRANCH  25  39
ATOM     39  C   UNL A   1      40.449  28.011  28.695  1.00  0.00     0.064 A 
ATOM     40  C   UNL A   1      41.220  28.416  27.596  1.00  0.00     0.173 A 
ATOM     41  C   UNL A   1      39.809  26.765  28.626  1.00  0.00     0.173 A 
ATOM     42  F   UNL A   1      41.842  29.605  27.610  1.00  0.00    -0.203 F 
ATOM     43  C   UNL A   1      41.337  27.609  26.468  1.00  0.00     0.198 A 
ATOM     44  C   UNL A   1      39.946  25.951  27.505  1.00  0.00     0.198 A 
ATOM     45  F   UNL A   1      39.062  26.330  29.654  1.00  0.00    -0.203 F 
ATOM     46  F   UNL A   1      42.056  28.029  25.417  1.00  0.00    -0.200 F 
ATOM     47  C   UNL A   1      40.707  26.374  26.427  1.00  0.00     0.200 A 
ATOM     48  F   UNL A   1      39.345  24.753  27.470  1.00  0.00    -0.200 F 
ATOM     49  F   UNL A   1      40.831  25.593  25.344  1.00  0.00    -0.200 F 
ENDBRANCH  25  39
BRANCH  26  50
ATOM     50  C   UNL A   1      39.649  33.836  36.751  1.00  0.00     0.064 A 
ATOM     51  C   UNL A   1      40.320  35.066  36.790  1.00  0.00     0.173 A 
ATOM     52  C   UNL A   1      38.869  33.479  37.860  1.00  0.00     0.173 A 
ATOM     53  F   UNL A   1      41.095  35.439  35.762  1.00  0.00    -0.203 F 
ATOM     54  C   UNL A   1      40.216  35.904  37.898  1.00  0.00     0.198 A 
ATOM     55  C   UNL A   1      38.747  34.328  38.956  1.00  0.00     0.198 A 
ATOM     56  F   UNL A   1      38.209  32.312  37.867  1.00  0.00    -0.203 F 
ATOM     57  F   UNL A   1      40.890  37.063  37.923  1.00  0.00    -0.200 F 
ATOM     58  C   UNL A   1      39.424  35.539  38.976  1.00  0.00     0.200 A 
ATOM     59  F   UNL A   1      37.972  33.976  39.991  1.00  0.00    -0.200 F 
ATOM     60  F   UNL A   1      39.317  36.350  40.037  1.00  0.00    -0.200 F 
ENDBRANCH  26  50
BRANCH  38  61
ATOM     61  C   UNL A   1      43.872  28.573  35.002  1.00  0.00     0.064 A 
ATOM     62  C   UNL A   1      45.185  29.061  34.925  1.00  0.00     0.173 A 
ATOM     63  C   UNL A   1      43.629  27.460  35.820  1.00  0.00     0.173 A 
ATOM     64  F   UNL A   1      45.467  30.116  34.144  1.00  0.00    -0.203 F 
ATOM     65  C   UNL A   1      46.216  28.451  35.631  1.00  0.00     0.198 A 
ATOM     66  C   UNL A   1      44.659  26.867  36.544  1.00  0.00     0.198 A 
ATOM     67  F   UNL A   1      42.389  26.960  35.931  1.00  0.00    -0.203 F 
ATOM     68  F   UNL A   1      47.468  28.913  35.518  1.00  0.00    -0.200 F 
ATOM     69  C   UNL A   1      45.951  27.359  36.447  1.00  0.00     0.200 A 
ATOM     70  F   UNL A   1      44.400  25.820  37.341  1.00  0.00    -0.200 F 
ATOM     71  F   UNL A   1      46.944  26.780  37.135  1.00  0.00    -0.200 F 
ENDBRANCH  38  61
ENDBRANCH  12  13
ENDBRANCH   5   7
ENDBRANCH   2   3
ENDBRANCH   1   2
BRANCH   1  72
ATOM     72  C   UNL A   1      31.434  30.958  25.826  1.00  0.00     0.023 C 
BRANCH  72  73
ATOM     73  C   UNL A   1      32.652  30.058  26.011  1.00  0.00     0.116 C 
BRANCH  73  74
ATOM     74  N   UNL A   1      33.293  29.703  24.755  1.00  0.00    -0.352 N 
ATOM     75  C   UNL A   1      33.026  28.667  23.903  1.00  0.00     0.252 C 
ATOM     76  H   UNL A   1      34.028  30.296  24.477  1.00  0.00     0.163 HD
ATOM     77  O   UNL A   1      33.671  28.500  22.875  1.00  0.00    -0.269 OA
BRANCH  75  78
ATOM     78  C   UNL A   1      31.980  27.691  24.249  1.00  0.00     0.057 A 
ATOM     79  C   UNL A   1      30.698  28.016  23.806  1.00  0.00     0.055 A 
ATOM     80  C   UNL A   1      32.239  26.517  24.975  1.00  0.00     0.100 A 
ATOM     81  C   UNL A   1      29.708  27.101  24.048  1.00  0.00     0.131 A 
ATOM     82  C   UNL A   1      31.163  25.646  25.109  1.00  0.00     0.116 A 
ATOM     83  Cl  UNL A   1      28.097  27.378  23.541  1.00  0.00    -0.062 Cl
ATOM     84  N   UNL A   1      29.915  25.922  24.657  1.00  0.00    -0.229 NA
ATOM     85  I   UNL A   1      31.341  23.716  25.947  1.00  0.00    -0.021 I 
BRANCH  80  86
ATOM     86  C   UNL A   1      33.589  26.214  25.544  1.00  0.00     0.419 C 
ATOM     87  F   UNL A   1      33.595  25.138  26.378  1.00  0.00    -0.166 F 
ATOM     88  F   UNL A   1      34.503  25.947  24.569  1.00  0.00    -0.166 F 
ATOM     89  F   UNL A   1      34.138  27.215  26.283  1.00  0.00    -0.166 F 
ENDBRANCH  80  86
ENDBRANCH  75  78
ENDBRANCH  73  74
ENDBRANCH  72  73
ENDBRANCH   1  72
TORSDOF 12
ENDMDL
