MODEL 1
REMARK VINA RESULT:     -13.0      0.000      0.000
REMARK SMILES Cc1c(Br)c(C)c2c(c1Br)O[C@H](C(F)(F)F)C(C(=O)NCCCCNC(=O)c1ccc(-c3c4nc(c(-c5c(F)c(F)c(F)c(F)c5F)c5ccc([nH]5)c(-c5c(F)c(F)c(F)c(F)c5F)c5nc(c(-c6c(F)c(F)c(F)c(F)c6F)c6ccc3[nH]6)C=C5)C=C4)cc1)=C2
REMARK SMILES IDX 23 1 22 2 21 3 20 4 18 5 19 6 17 8 1 9 2 10 3 11 9 12 4 13
REMARK SMILES IDX 5 14 8 15 10 16 6 17 7 18 11 19 91 20 12 21 13 22 14 23
REMARK SMILES IDX 15 24 16 25 24 26 25 27 26 28 27 30 28 31 29 32 90 33 30 34
REMARK SMILES IDX 89 35 31 36 32 37 33 38 83 39 34 40 88 41 82 42 84 43 35 44
REMARK SMILES IDX 87 45 81 46 80 47 36 49 68 50 48 51 67 52 49 53 52 54 66 55
REMARK SMILES IDX 85 56 50 57 51 58 65 60 86 61 53 62 37 63 38 64 46 65 39 66
REMARK SMILES IDX 40 67 44 68 47 69 41 70 42 71 45 72 43 73 69 74 70 75 78 76
REMARK SMILES IDX 71 77 72 78 76 79 79 80 73 81 74 82 77 83 75 84 54 85 55 86
REMARK SMILES IDX 63 87 56 88 57 89 61 90 64 91 58 92 59 93 62 94 60 95
REMARK H PARENT 20 7 25 29 84 48 52 59
REMARK Flexibility Score: inf
ROOT
ATOM      1  C   UNL A   1      38.071  20.118  25.022  1.00  0.00     0.023 C 
ENDROOT
BRANCH   1   2
ATOM      2  C   UNL A   1      37.403  21.398  24.515  1.00  0.00     0.023 C 
BRANCH   2   3
ATOM      3  C   UNL A   1      37.420  22.547  25.518  1.00  0.00     0.116 C 
BRANCH   3   4
ATOM      4  N   UNL A   1      36.325  22.452  26.467  1.00  0.00    -0.352 N 
ATOM      5  C   UNL A   1      35.066  22.938  26.571  1.00  0.00     0.251 C 
ATOM      6  O   UNL A   1      34.462  22.605  27.596  1.00  0.00    -0.270 OA
ATOM      7  H   UNL A   1      36.560  21.886  27.236  1.00  0.00     0.163 HD
BRANCH   5   8
ATOM      8  C   UNL A   1      34.389  23.809  25.566  1.00  0.00     0.067 C 
ATOM      9  C   UNL A   1      31.509  28.636  22.173  1.00  0.00     0.047 C 
ATOM     10  C   UNL A   1      32.170  27.731  23.188  1.00  0.00    -0.019 A 
ATOM     11  C   UNL A   1      32.262  28.084  24.559  1.00  0.00     0.025 A 
ATOM     12  C   UNL A   1      32.663  26.472  22.795  1.00  0.00     0.064 A 
ATOM     13  Br  UNL A   1      31.485  29.741  25.142  1.00  0.00    -0.050 Br
ATOM     14  C   UNL A   1      32.891  27.232  25.507  1.00  0.00    -0.026 A 
ATOM     15  C   UNL A   1      33.280  25.620  23.724  1.00  0.00     0.142 A 
ATOM     16  Br  UNL A   1      32.470  25.847  20.993  1.00  0.00    -0.046 Br
ATOM     17  C   UNL A   1      33.026  27.601  26.969  1.00  0.00     0.046 C 
ATOM     18  C   UNL A   1      33.416  25.993  25.066  1.00  0.00     0.022 A 
ATOM     19  O   UNL A   1      33.793  24.439  23.253  1.00  0.00    -0.474 OA
ATOM     20  C   UNL A   1      34.128  25.069  25.961  1.00  0.00     0.026 C 
ATOM     21  C   UNL A   1      33.962  23.361  24.204  1.00  0.00     0.314 C 
BRANCH  21  22
ATOM     22  C   UNL A   1      32.700  22.479  24.230  1.00  0.00     0.429 C 
ATOM     23  F   UNL A   1      33.038  21.166  24.259  1.00  0.00    -0.167 F 
ATOM     24  F   UNL A   1      31.939  22.701  25.328  1.00  0.00    -0.167 F 
ATOM     25  F   UNL A   1      31.906  22.672  23.154  1.00  0.00    -0.167 F 
ENDBRANCH  21  22
ENDBRANCH   5   8
ENDBRANCH   3   4
ENDBRANCH   2   3
ENDBRANCH   1   2
BRANCH   1  26
ATOM     26  C   UNL A   1      39.310  20.326  25.890  1.00  0.00     0.116 C 
BRANCH  26  27
ATOM     27  N   UNL A   1      40.222  19.191  25.898  1.00  0.00    -0.352 N 
ATOM     28  C   UNL A   1      41.580  19.199  26.107  1.00  0.00     0.251 C 
ATOM     29  H   UNL A   1      39.816  18.310  25.734  1.00  0.00     0.163 HD
ATOM     30  O   UNL A   1      42.240  18.169  26.015  1.00  0.00    -0.269 OA
BRANCH  28  31
ATOM     31  C   UNL A   1      42.242  20.483  26.397  1.00  0.00     0.039 A 
ATOM     32  C   UNL A   1      42.745  21.234  25.334  1.00  0.00     0.014 A 
ATOM     33  C   UNL A   1      42.289  20.969  27.706  1.00  0.00     0.014 A 
ATOM     34  C   UNL A   1      43.235  22.516  25.576  1.00  0.00     0.010 A 
ATOM     35  C   UNL A   1      42.724  22.269  27.937  1.00  0.00     0.010 A 
ATOM     36  C   UNL A   1      43.193  23.055  26.872  1.00  0.00    -0.014 A 
BRANCH  36  37
ATOM     37  C   UNL A   1      43.634  24.443  27.136  1.00  0.00     0.031 A 
ATOM     38  C   UNL A   1      42.654  25.449  27.662  1.00  0.00     0.074 A 
ATOM     39  C   UNL A   1      44.897  24.807  26.847  1.00  0.00     0.049 A 
ATOM     40  N   UNL A   1      42.821  26.726  27.891  1.00  0.00    -0.248 NA
ATOM     41  C   UNL A   1      41.295  24.958  27.947  1.00  0.00     0.031 C 
ATOM     42  C   UNL A   1      45.927  23.925  26.296  1.00  0.00     0.029 A 
ATOM     43  N   UNL A   1      45.529  26.019  26.973  1.00  0.00    -0.354 N 
ATOM     44  C   UNL A   1      41.592  27.191  28.335  1.00  0.00     0.074 A 
ATOM     45  C   UNL A   1      40.673  26.075  28.296  1.00  0.00     0.031 C 
ATOM     46  C   UNL A   1      47.069  24.617  26.158  1.00  0.00     0.029 A 
ATOM     47  C   UNL A   1      46.844  25.997  26.579  1.00  0.00     0.049 A 
ATOM     48  H   UNL A   1      45.082  26.827  27.312  1.00  0.00     0.167 HD
ATOM     49  C   UNL A   1      41.268  28.434  28.760  1.00  0.00     0.037 A 
ATOM     50  C   UNL A   1      47.763  26.980  26.565  1.00  0.00     0.037 A 
ATOM     51  C   UNL A   1      42.192  29.534  28.824  1.00  0.00     0.049 A 
ATOM     52  C   UNL A   1      47.375  28.355  27.038  1.00  0.00     0.074 A 
ATOM     53  C   UNL A   1      41.971  30.821  29.282  1.00  0.00     0.029 A 
ATOM     54  N   UNL A   1      43.517  29.473  28.421  1.00  0.00    -0.354 N 
ATOM     55  N   UNL A   1      46.221  28.775  27.494  1.00  0.00    -0.248 NA
ATOM     56  C   UNL A   1      48.418  29.390  26.995  1.00  0.00     0.031 C 
ATOM     57  C   UNL A   1      43.156  31.547  29.129  1.00  0.00     0.029 A 
ATOM     58  C   UNL A   1      44.124  30.704  28.608  1.00  0.00     0.049 A 
ATOM     59  H   UNL A   1      43.960  28.674  28.054  1.00  0.00     0.167 HD
ATOM     60  C   UNL A   1      46.400  30.115  27.808  1.00  0.00     0.074 A 
ATOM     61  C   UNL A   1      47.779  30.435  27.504  1.00  0.00     0.031 C 
ATOM     62  C   UNL A   1      45.501  30.999  28.302  1.00  0.00     0.037 A 
BRANCH  49  63
ATOM     63  C   UNL A   1      39.856  28.662  29.209  1.00  0.00     0.064 A 
ATOM     64  C   UNL A   1      39.468  28.437  30.538  1.00  0.00     0.173 A 
ATOM     65  C   UNL A   1      38.891  29.144  28.313  1.00  0.00     0.173 A 
ATOM     66  F   UNL A   1      40.353  27.962  31.428  1.00  0.00    -0.203 F 
ATOM     67  C   UNL A   1      38.158  28.665  30.949  1.00  0.00     0.198 A 
ATOM     68  C   UNL A   1      37.587  29.395  28.735  1.00  0.00     0.198 A 
ATOM     69  F   UNL A   1      39.213  29.378  27.031  1.00  0.00    -0.203 F 
ATOM     70  F   UNL A   1      37.801  28.403  32.214  1.00  0.00    -0.200 F 
ATOM     71  C   UNL A   1      37.221  29.150  30.049  1.00  0.00     0.200 A 
ATOM     72  F   UNL A   1      36.685  29.872  27.866  1.00  0.00    -0.200 F 
ATOM     73  F   UNL A   1      35.962  29.376  30.449  1.00  0.00    -0.200 F 
ENDBRANCH  49  63
BRANCH  50  74
ATOM     74  C   UNL A   1      49.150  26.689  26.125  1.00  0.00     0.064 A 
ATOM     75  C   UNL A   1      50.091  26.173  27.027  1.00  0.00     0.173 A 
ATOM     76  C   UNL A   1      49.559  26.895  24.800  1.00  0.00     0.173 A 
ATOM     77  F   UNL A   1      49.750  25.977  28.309  1.00  0.00    -0.203 F 
ATOM     78  C   UNL A   1      51.392  25.884  26.623  1.00  0.00     0.198 A 
ATOM     79  C   UNL A   1      50.855  26.586  24.392  1.00  0.00     0.198 A 
ATOM     80  F   UNL A   1      48.694  27.382  23.898  1.00  0.00    -0.203 F 
ATOM     81  F   UNL A   1      52.279  25.419  27.512  1.00  0.00    -0.200 F 
ATOM     82  C   UNL A   1      51.772  26.085  25.304  1.00  0.00     0.200 A 
ATOM     83  F   UNL A   1      51.215  26.770  23.114  1.00  0.00    -0.200 F 
ATOM     84  F   UNL A   1      53.021  25.798  24.914  1.00  0.00    -0.200 F 
ENDBRANCH  50  74
BRANCH  62  85
ATOM     85  C   UNL A   1      45.978  32.396  28.561  1.00  0.00     0.064 A 
ATOM     86  C   UNL A   1      46.580  32.747  29.778  1.00  0.00     0.173 A 
ATOM     87  C   UNL A   1      45.897  33.372  27.557  1.00  0.00     0.173 A 
ATOM     88  F   UNL A   1      46.666  31.850  30.772  1.00  0.00    -0.203 F 
ATOM     89  C   UNL A   1      47.076  34.030  29.983  1.00  0.00     0.198 A 
ATOM     90  C   UNL A   1      46.416  34.647  27.757  1.00  0.00     0.198 A 
ATOM     91  F   UNL A   1      45.335  33.080  26.374  1.00  0.00    -0.203 F 
ATOM     92  F   UNL A   1      47.623  34.354  31.163  1.00  0.00    -0.200 F 
ATOM     93  C   UNL A   1      47.003  34.976  28.971  1.00  0.00     0.200 A 
ATOM     94  F   UNL A   1      46.355  35.557  26.776  1.00  0.00    -0.200 F 
ATOM     95  F   UNL A   1      47.495  36.207  29.166  1.00  0.00    -0.200 F 
ENDBRANCH  62  85
ENDBRANCH  36  37
ENDBRANCH  28  31
ENDBRANCH  26  27
ENDBRANCH   1  26
TORSDOF 12
ENDMDL
MODEL 2
REMARK VINA RESULT:     -13.0      5.774     11.055
REMARK SMILES Cc1c(Br)c(C)c2c(c1Br)O[C@H](C(F)(F)F)C(C(=O)NCCCCNC(=O)c1ccc(-c3c4nc(c(-c5c(F)c(F)c(F)c(F)c5F)c5ccc([nH]5)c(-c5c(F)c(F)c(F)c(F)c5F)c5nc(c(-c6c(F)c(F)c(F)c(F)c6F)c6ccc3[nH]6)C=C5)C=C4)cc1)=C2
REMARK SMILES IDX 23 1 22 2 21 3 20 4 18 5 19 6 17 8 1 9 2 10 3 11 9 12 4 13
REMARK SMILES IDX 5 14 8 15 10 16 6 17 7 18 11 19 91 20 12 21 13 22 14 23
REMARK SMILES IDX 15 24 16 25 24 26 25 27 26 28 27 30 28 31 29 32 90 33 30 34
REMARK SMILES IDX 89 35 31 36 32 37 33 38 83 39 34 40 88 41 82 42 84 43 35 44
REMARK SMILES IDX 87 45 81 46 80 47 36 49 68 50 48 51 67 52 49 53 52 54 66 55
REMARK SMILES IDX 85 56 50 57 51 58 65 60 86 61 53 62 37 63 38 64 46 65 39 66
REMARK SMILES IDX 40 67 44 68 47 69 41 70 42 71 45 72 43 73 69 74 70 75 78 76
REMARK SMILES IDX 71 77 72 78 76 79 79 80 73 81 74 82 77 83 75 84 54 85 55 86
REMARK SMILES IDX 63 87 56 88 57 89 61 90 64 91 58 92 59 93 62 94 60 95
REMARK H PARENT 20 7 25 29 84 48 52 59
REMARK Flexibility Score: inf
ROOT
ATOM      1  C   UNL A   1      31.770  31.835  26.704  1.00  0.00     0.023 C 
ENDROOT
BRANCH   1   2
ATOM      2  C   UNL A   1      31.917  30.323  26.889  1.00  0.00     0.023 C 
BRANCH   2   3
ATOM      3  C   UNL A   1      33.340  29.808  26.694  1.00  0.00     0.116 C 
BRANCH   3   4
ATOM      4  N   UNL A   1      33.636  29.551  25.297  1.00  0.00    -0.352 N 
ATOM      5  C   UNL A   1      33.606  28.486  24.462  1.00  0.00     0.251 C 
ATOM      6  O   UNL A   1      33.970  28.719  23.305  1.00  0.00    -0.270 OA
ATOM      7  H   UNL A   1      33.936  30.366  24.834  1.00  0.00     0.163 HD
BRANCH   5   8
ATOM      8  C   UNL A   1      33.176  27.106  24.836  1.00  0.00     0.067 C 
ATOM      9  C   UNL A   1      32.675  20.732  26.328  1.00  0.00     0.047 C 
ATOM     10  C   UNL A   1      33.088  22.130  25.926  1.00  0.00    -0.019 A 
ATOM     11  C   UNL A   1      34.356  22.399  25.349  1.00  0.00     0.025 A 
ATOM     12  C   UNL A   1      32.184  23.200  26.064  1.00  0.00     0.064 A 
ATOM     13  Br  UNL A   1      35.559  20.935  25.036  1.00  0.00    -0.050 Br
ATOM     14  C   UNL A   1      34.741  23.715  24.979  1.00  0.00    -0.026 A 
ATOM     15  C   UNL A   1      32.551  24.504  25.695  1.00  0.00     0.142 A 
ATOM     16  Br  UNL A   1      30.401  22.919  26.710  1.00  0.00    -0.046 Br
ATOM     17  C   UNL A   1      36.099  24.031  24.389  1.00  0.00     0.046 C 
ATOM     18  C   UNL A   1      33.822  24.775  25.174  1.00  0.00     0.022 A 
ATOM     19  O   UNL A   1      31.640  25.503  25.919  1.00  0.00    -0.474 OA
ATOM     20  C   UNL A   1      34.148  26.176  24.870  1.00  0.00     0.026 C 
ATOM     21  C   UNL A   1      31.764  26.706  25.124  1.00  0.00     0.314 C 
BRANCH  21  22
ATOM     22  C   UNL A   1      30.902  26.588  23.854  1.00  0.00     0.429 C 
ATOM     23  F   UNL A   1      29.909  25.681  24.035  1.00  0.00    -0.167 F 
ATOM     24  F   UNL A   1      30.297  27.756  23.530  1.00  0.00    -0.167 F 
ATOM     25  F   UNL A   1      31.615  26.201  22.773  1.00  0.00    -0.167 F 
ENDBRANCH  21  22
ENDBRANCH   5   8
ENDBRANCH   3   4
ENDBRANCH   2   3
ENDBRANCH   1   2
BRANCH   1  26
ATOM     26  C   UNL A   1      32.866  32.682  27.348  1.00  0.00     0.116 C 
BRANCH  26  27
ATOM     27  N   UNL A   1      32.457  34.046  27.649  1.00  0.00    -0.352 N 
ATOM     28  C   UNL A   1      32.998  34.908  28.572  1.00  0.00     0.251 C 
ATOM     29  H   UNL A   1      31.699  34.395  27.127  1.00  0.00     0.163 HD
ATOM     30  O   UNL A   1      32.505  36.013  28.772  1.00  0.00    -0.269 OA
BRANCH  28  31
ATOM     31  C   UNL A   1      34.161  34.459  29.358  1.00  0.00     0.039 A 
ATOM     32  C   UNL A   1      33.941  33.829  30.583  1.00  0.00     0.014 A 
ATOM     33  C   UNL A   1      35.453  34.594  28.842  1.00  0.00     0.014 A 
ATOM     34  C   UNL A   1      35.017  33.264  31.264  1.00  0.00     0.010 A 
ATOM     35  C   UNL A   1      36.517  33.981  29.493  1.00  0.00     0.010 A 
ATOM     36  C   UNL A   1      36.305  33.304  30.705  1.00  0.00    -0.014 A 
BRANCH  36  37
ATOM     37  C   UNL A   1      37.448  32.641  31.373  1.00  0.00     0.031 A 
ATOM     38  C   UNL A   1      38.162  31.515  30.686  1.00  0.00     0.074 A 
ATOM     39  C   UNL A   1      37.801  33.015  32.617  1.00  0.00     0.049 A 
ATOM     40  N   UNL A   1      39.135  30.761  31.127  1.00  0.00    -0.248 NA
ATOM     41  C   UNL A   1      37.704  31.176  29.328  1.00  0.00     0.031 C 
ATOM     42  C   UNL A   1      37.155  34.071  33.398  1.00  0.00     0.029 A 
ATOM     43  N   UNL A   1      38.789  32.545  33.446  1.00  0.00    -0.354 N 
ATOM     44  C   UNL A   1      39.398  29.855  30.110  1.00  0.00     0.074 A 
ATOM     45  C   UNL A   1      38.451  30.118  29.049  1.00  0.00     0.031 C 
ATOM     46  C   UNL A   1      37.782  34.187  34.581  1.00  0.00     0.029 A 
ATOM     47  C   UNL A   1      38.850  33.195  34.653  1.00  0.00     0.049 A 
ATOM     48  H   UNL A   1      39.396  31.811  33.197  1.00  0.00     0.167 HD
ATOM     49  C   UNL A   1      40.361  28.906  30.058  1.00  0.00     0.037 A 
ATOM     50  C   UNL A   1      39.679  33.011  35.697  1.00  0.00     0.037 A 
ATOM     51  C   UNL A   1      41.318  28.667  31.103  1.00  0.00     0.049 A 
ATOM     52  C   UNL A   1      40.737  31.945  35.616  1.00  0.00     0.074 A 
ATOM     53  C   UNL A   1      42.361  27.758  31.127  1.00  0.00     0.029 A 
ATOM     54  N   UNL A   1      41.352  29.348  32.311  1.00  0.00    -0.354 N 
ATOM     55  N   UNL A   1      41.003  31.120  34.633  1.00  0.00    -0.248 NA
ATOM     56  C   UNL A   1      41.609  31.785  36.789  1.00  0.00     0.031 C 
ATOM     57  C   UNL A   1      43.008  27.869  32.361  1.00  0.00     0.029 A 
ATOM     58  C   UNL A   1      42.391  28.871  33.092  1.00  0.00     0.049 A 
ATOM     59  H   UNL A   1      40.729  30.064  32.573  1.00  0.00     0.167 HD
ATOM     60  C   UNL A   1      42.081  30.356  35.058  1.00  0.00     0.074 A 
ATOM     61  C   UNL A   1      42.430  30.825  36.383  1.00  0.00     0.031 C 
ATOM     62  C   UNL A   1      42.723  29.356  34.408  1.00  0.00     0.037 A 
BRANCH  49  63
ATOM     63  C   UNL A   1      40.435  28.068  28.818  1.00  0.00     0.064 A 
ATOM     64  C   UNL A   1      41.208  28.464  27.716  1.00  0.00     0.173 A 
ATOM     65  C   UNL A   1      39.759  26.842  28.742  1.00  0.00     0.173 A 
ATOM     66  F   UNL A   1      41.861  29.636  27.736  1.00  0.00    -0.203 F 
ATOM     67  C   UNL A   1      41.283  27.673  26.573  1.00  0.00     0.198 A 
ATOM     68  C   UNL A   1      39.857  26.042  27.606  1.00  0.00     0.198 A 
ATOM     69  F   UNL A   1      39.008  26.418  29.770  1.00  0.00    -0.203 F 
ATOM     70  F   UNL A   1      41.994  28.091  25.517  1.00  0.00    -0.200 F 
ATOM     71  C   UNL A   1      40.613  26.459  26.523  1.00  0.00     0.200 A 
ATOM     72  F   UNL A   1      39.216  24.865  27.561  1.00  0.00    -0.200 F 
ATOM     73  F   UNL A   1      40.692  25.695  25.424  1.00  0.00    -0.200 F 
ENDBRANCH  49  63
BRANCH  50  74
ATOM     74  C   UNL A   1      39.566  33.884  36.893  1.00  0.00     0.064 A 
ATOM     75  C   UNL A   1      40.205  35.131  36.928  1.00  0.00     0.173 A 
ATOM     76  C   UNL A   1      38.806  33.507  38.009  1.00  0.00     0.173 A 
ATOM     77  F   UNL A   1      40.959  35.525  35.890  1.00  0.00    -0.203 F 
ATOM     78  C   UNL A   1      40.097  35.964  38.038  1.00  0.00     0.198 A 
ATOM     79  C   UNL A   1      38.681  34.350  39.111  1.00  0.00     0.198 A 
ATOM     80  F   UNL A   1      38.171  32.325  38.020  1.00  0.00    -0.203 F 
ATOM     81  F   UNL A   1      40.741  37.138  38.057  1.00  0.00    -0.200 F 
ATOM     82  C   UNL A   1      39.330  35.576  39.127  1.00  0.00     0.200 A 
ATOM     83  F   UNL A   1      37.929  33.977  40.156  1.00  0.00    -0.200 F 
ATOM     84  F   UNL A   1      39.219  36.382  40.191  1.00  0.00    -0.200 F 
ENDBRANCH  50  74
BRANCH  62  85
ATOM     85  C   UNL A   1      43.876  28.706  35.109  1.00  0.00     0.064 A 
ATOM     86  C   UNL A   1      43.690  27.592  35.940  1.00  0.00     0.173 A 
ATOM     87  C   UNL A   1      45.186  29.157  34.891  1.00  0.00     0.173 A 
ATOM     88  F   UNL A   1      42.454  27.134  36.189  1.00  0.00    -0.203 F 
ATOM     89  C   UNL A   1      44.776  26.958  36.536  1.00  0.00     0.198 A 
ATOM     90  C   UNL A   1      46.272  28.506  35.469  1.00  0.00     0.198 A 
ATOM     91  F   UNL A   1      45.414  30.216  34.098  1.00  0.00    -0.203 F 
ATOM     92  F   UNL A   1      44.575  25.911  37.348  1.00  0.00    -0.200 F 
ATOM     93  C   UNL A   1      46.066  27.409  36.293  1.00  0.00     0.200 A 
ATOM     94  F   UNL A   1      47.518  28.935  35.225  1.00  0.00    -0.200 F 
ATOM     95  F   UNL A   1      47.111  26.787  36.855  1.00  0.00    -0.200 F 
ENDBRANCH  62  85
ENDBRANCH  36  37
ENDBRANCH  28  31
ENDBRANCH  26  27
ENDBRANCH   1  26
TORSDOF 12
ENDMDL
MODEL 3
REMARK VINA RESULT:     -13.0      5.626      9.794
REMARK SMILES Cc1c(Br)c(C)c2c(c1Br)O[C@H](C(F)(F)F)C(C(=O)NCCCCNC(=O)c1ccc(-c3c4nc(c(-c5c(F)c(F)c(F)c(F)c5F)c5ccc([nH]5)c(-c5c(F)c(F)c(F)c(F)c5F)c5nc(c(-c6c(F)c(F)c(F)c(F)c6F)c6ccc3[nH]6)C=C5)C=C4)cc1)=C2
REMARK SMILES IDX 23 1 22 2 21 3 20 4 18 5 19 6 17 8 1 9 2 10 3 11 9 12 4 13
REMARK SMILES IDX 5 14 8 15 10 16 6 17 7 18 11 19 91 20 12 21 13 22 14 23
REMARK SMILES IDX 15 24 16 25 24 26 25 27 26 28 27 30 28 31 29 32 90 33 30 34
REMARK SMILES IDX 89 35 31 36 32 37 33 38 83 39 34 40 88 41 82 42 84 43 35 44
REMARK SMILES IDX 87 45 81 46 80 47 36 49 68 50 48 51 67 52 49 53 52 54 66 55
REMARK SMILES IDX 85 56 50 57 51 58 65 60 86 61 53 62 37 63 38 64 46 65 39 66
REMARK SMILES IDX 40 67 44 68 47 69 41 70 42 71 45 72 43 73 69 74 70 75 78 76
REMARK SMILES IDX 71 77 72 78 76 79 79 80 73 81 74 82 77 83 75 84 54 85 55 86
REMARK SMILES IDX 63 87 56 88 57 89 61 90 64 91 58 92 59 93 62 94 60 95
REMARK H PARENT 20 7 25 29 84 48 52 59
REMARK Flexibility Score: inf
ROOT
ATOM      1  C   UNL A   1      31.587  31.913  26.798  1.00  0.00     0.023 C 
ENDROOT
BRANCH   1   2
ATOM      2  C   UNL A   1      31.775  30.396  26.869  1.00  0.00     0.023 C 
BRANCH   2   3
ATOM      3  C   UNL A   1      33.220  29.940  26.693  1.00  0.00     0.116 C 
BRANCH   3   4
ATOM      4  N   UNL A   1      33.532  29.656  25.304  1.00  0.00    -0.352 N 
ATOM      5  C   UNL A   1      33.511  28.575  24.489  1.00  0.00     0.251 C 
ATOM      6  O   UNL A   1      33.890  28.787  23.332  1.00  0.00    -0.270 OA
ATOM      7  H   UNL A   1      33.841  30.461  24.830  1.00  0.00     0.163 HD
BRANCH   5   8
ATOM      8  C   UNL A   1      33.072  27.204  24.882  1.00  0.00     0.067 C 
ATOM      9  C   UNL A   1      32.523  20.842  26.408  1.00  0.00     0.047 C 
ATOM     10  C   UNL A   1      32.944  22.232  25.986  1.00  0.00    -0.019 A 
ATOM     11  C   UNL A   1      34.191  22.478  25.358  1.00  0.00     0.025 A 
ATOM     12  C   UNL A   1      32.064  23.318  26.158  1.00  0.00     0.064 A 
ATOM     13  Br  UNL A   1      35.356  20.994  25.001  1.00  0.00    -0.050 Br
ATOM     14  C   UNL A   1      34.584  23.787  24.970  1.00  0.00    -0.026 A 
ATOM     15  C   UNL A   1      32.438  24.614  25.772  1.00  0.00     0.142 A 
ATOM     16  Br  UNL A   1      30.303  23.068  26.876  1.00  0.00    -0.046 Br
ATOM     17  C   UNL A   1      35.922  24.078  24.326  1.00  0.00     0.046 C 
ATOM     18  C   UNL A   1      33.691  24.863  25.200  1.00  0.00     0.022 A 
ATOM     19  O   UNL A   1      31.554  25.629  26.030  1.00  0.00    -0.474 OA
ATOM     20  C   UNL A   1      34.029  26.257  24.880  1.00  0.00     0.026 C 
ATOM     21  C   UNL A   1      31.666  26.829  25.228  1.00  0.00     0.314 C 
BRANCH  21  22
ATOM     22  C   UNL A   1      30.752  26.723  23.993  1.00  0.00     0.429 C 
ATOM     23  F   UNL A   1      30.136  27.908  23.755  1.00  0.00    -0.167 F 
ATOM     24  F   UNL A   1      31.440  26.418  22.867  1.00  0.00    -0.167 F 
ATOM     25  F   UNL A   1      29.790  25.785  24.134  1.00  0.00    -0.167 F 
ENDBRANCH  21  22
ENDBRANCH   5   8
ENDBRANCH   3   4
ENDBRANCH   2   3
ENDBRANCH   1   2
BRANCH   1  26
ATOM     26  C   UNL A   1      32.787  32.742  27.248  1.00  0.00     0.116 C 
BRANCH  26  27
ATOM     27  N   UNL A   1      32.453  34.108  27.626  1.00  0.00    -0.352 N 
ATOM     28  C   UNL A   1      33.057  34.895  28.576  1.00  0.00     0.251 C 
ATOM     29  H   UNL A   1      31.702  34.518  27.141  1.00  0.00     0.163 HD
ATOM     30  O   UNL A   1      32.623  36.011  28.842  1.00  0.00    -0.269 OA
BRANCH  28  31
ATOM     31  C   UNL A   1      34.214  34.352  29.310  1.00  0.00     0.039 A 
ATOM     32  C   UNL A   1      33.985  33.606  30.466  1.00  0.00     0.014 A 
ATOM     33  C   UNL A   1      35.507  34.520  28.807  1.00  0.00     0.014 A 
ATOM     34  C   UNL A   1      35.054  32.959  31.084  1.00  0.00     0.010 A 
ATOM     35  C   UNL A   1      36.562  33.828  29.390  1.00  0.00     0.010 A 
ATOM     36  C   UNL A   1      36.342  33.036  30.529  1.00  0.00    -0.014 A 
BRANCH  36  37
ATOM     37  C   UNL A   1      37.475  32.293  31.124  1.00  0.00     0.031 A 
ATOM     38  C   UNL A   1      37.956  32.642  32.501  1.00  0.00     0.074 A 
ATOM     39  C   UNL A   1      38.104  31.346  30.401  1.00  0.00     0.049 A 
ATOM     40  N   UNL A   1      38.972  32.162  33.169  1.00  0.00    -0.248 NA
ATOM     41  C   UNL A   1      37.206  33.691  33.213  1.00  0.00     0.031 C 
ATOM     42  C   UNL A   1      37.749  30.948  29.038  1.00  0.00     0.029 A 
ATOM     43  N   UNL A   1      39.178  30.551  30.712  1.00  0.00    -0.354 N 
ATOM     44  C   UNL A   1      38.990  32.854  34.371  1.00  0.00     0.074 A 
ATOM     45  C   UNL A   1      37.917  33.822  34.323  1.00  0.00     0.031 C 
ATOM     46  C   UNL A   1      38.572  29.964  28.640  1.00  0.00     0.029 A 
ATOM     47  C   UNL A   1      39.530  29.685  29.706  1.00  0.00     0.049 A 
ATOM     48  H   UNL A   1      39.651  30.597  31.574  1.00  0.00     0.167 HD
ATOM     49  C   UNL A   1      39.815  32.678  35.430  1.00  0.00     0.037 A 
ATOM     50  C   UNL A   1      40.514  28.768  29.655  1.00  0.00     0.037 A 
ATOM     51  C   UNL A   1      40.862  31.694  35.484  1.00  0.00     0.049 A 
ATOM     52  C   UNL A   1      41.419  28.596  30.844  1.00  0.00     0.074 A 
ATOM     53  C   UNL A   1      41.723  31.408  36.529  1.00  0.00     0.029 A 
ATOM     54  N   UNL A   1      41.187  30.832  34.448  1.00  0.00    -0.354 N 
ATOM     55  N   UNL A   1      41.403  29.227  31.991  1.00  0.00    -0.248 NA
ATOM     56  C   UNL A   1      42.480  27.584  30.729  1.00  0.00     0.031 C 
ATOM     57  C   UNL A   1      42.588  30.390  36.114  1.00  0.00     0.029 A 
ATOM     58  C   UNL A   1      42.244  30.019  34.824  1.00  0.00     0.049 A 
ATOM     59  H   UNL A   1      40.734  30.802  33.574  1.00  0.00     0.167 HD
ATOM     60  C   UNL A   1      42.435  28.680  32.742  1.00  0.00     0.074 A 
ATOM     61  C   UNL A   1      43.049  27.655  31.925  1.00  0.00     0.031 C 
ATOM     62  C   UNL A   1      42.836  29.001  33.995  1.00  0.00     0.037 A 
BRANCH  49  63
ATOM     63  C   UNL A   1      39.601  33.558  36.623  1.00  0.00     0.064 A 
ATOM     64  C   UNL A   1      40.200  34.823  36.712  1.00  0.00     0.173 A 
ATOM     65  C   UNL A   1      38.762  33.151  37.671  1.00  0.00     0.173 A 
ATOM     66  F   UNL A   1      41.022  35.250  35.742  1.00  0.00    -0.203 F 
ATOM     67  C   UNL A   1      39.985  35.641  37.818  1.00  0.00     0.198 A 
ATOM     68  C   UNL A   1      38.529  33.982  38.764  1.00  0.00     0.198 A 
ATOM     69  F   UNL A   1      38.163  31.951  37.631  1.00  0.00    -0.203 F 
ATOM     70  F   UNL A   1      40.601  36.828  37.901  1.00  0.00    -0.200 F 
ATOM     71  C   UNL A   1      39.144  35.222  38.839  1.00  0.00     0.200 A 
ATOM     72  F   UNL A   1      37.710  33.581  39.745  1.00  0.00    -0.200 F 
ATOM     73  F   UNL A   1      38.932  36.014  39.900  1.00  0.00    -0.200 F 
ENDBRANCH  49  63
BRANCH  50  74
ATOM     74  C   UNL A   1      40.665  27.914  28.450  1.00  0.00     0.064 A 
ATOM     75  C   UNL A   1      40.014  26.676  28.367  1.00  0.00     0.173 A 
ATOM     76  C   UNL A   1      41.439  28.320  27.355  1.00  0.00     0.173 A 
ATOM     77  F   UNL A   1      39.278  26.238  29.400  1.00  0.00    -0.203 F 
ATOM     78  C   UNL A   1      40.138  25.872  27.237  1.00  0.00     0.198 A 
ATOM     79  C   UNL A   1      41.547  27.524  26.216  1.00  0.00     0.198 A 
ATOM     80  F   UNL A   1      42.078  29.500  27.385  1.00  0.00    -0.203 F 
ATOM     81  F   UNL A   1      39.528  24.680  27.196  1.00  0.00    -0.200 F 
ATOM     82  C   UNL A   1      40.900  26.299  26.160  1.00  0.00     0.200 A 
ATOM     83  F   UNL A   1      42.274  27.946  25.172  1.00  0.00    -0.200 F 
ATOM     84  F   UNL A   1      41.013  25.528  25.070  1.00  0.00    -0.200 F 
ENDBRANCH  50  74
BRANCH  62  85
ATOM     85  C   UNL A   1      43.985  28.229  34.570  1.00  0.00     0.064 A 
ATOM     86  C   UNL A   1      45.301  28.703  34.477  1.00  0.00     0.173 A 
ATOM     87  C   UNL A   1      43.758  27.043  35.283  1.00  0.00     0.173 A 
ATOM     88  F   UNL A   1      45.567  29.827  33.794  1.00  0.00    -0.203 F 
ATOM     89  C   UNL A   1      46.352  28.010  35.070  1.00  0.00     0.198 A 
ATOM     90  C   UNL A   1      44.808  26.364  35.894  1.00  0.00     0.198 A 
ATOM     91  F   UNL A   1      42.514  26.554  35.403  1.00  0.00    -0.203 F 
ATOM     92  F   UNL A   1      47.606  28.465  34.947  1.00  0.00    -0.200 F 
ATOM     93  C   UNL A   1      46.104  26.847  35.785  1.00  0.00     0.200 A 
ATOM     94  F   UNL A   1      44.567  25.248  36.594  1.00  0.00    -0.200 F 
ATOM     95  F   UNL A   1      47.116  26.189  36.368  1.00  0.00    -0.200 F 
ENDBRANCH  62  85
ENDBRANCH  36  37
ENDBRANCH  28  31
ENDBRANCH  26  27
ENDBRANCH   1  26
TORSDOF 12
ENDMDL
