MODEL 1
REMARK VINA RESULT:     -12.3      0.000      0.000
REMARK SMILES Cc1cnc(N2CCO[C@H](CC(=O)NCCCCNC(=O)c3ccc(-c4c5nc(c(-c6c(F)c(F)c(F)c(F)c6F)c6ccc([nH]6)c(-c6c(F)c(F)c(F)c(F)c6F)c6nc(c(-c7c(F)c(F)c(F)c(F)c7F)c7ccc4[nH]7)C=C6)C=C5)cc3)C2)c([N+](=O)[O-])c1
REMARK SMILES IDX 16 1 15 2 14 3 12 4 13 5 11 7 10 8 6 9 7 10 85 11 8 12 9 13
REMARK SMILES IDX 5 14 1 15 2 16 3 17 90 18 4 19 86 20 87 21 88 22 89 23 17 24
REMARK SMILES IDX 18 25 19 26 20 27 21 29 22 30 23 31 84 32 24 33 83 34 25 35
REMARK SMILES IDX 26 36 27 37 77 38 28 39 82 40 76 41 78 42 29 43 81 44 75 45
REMARK SMILES IDX 74 46 30 48 62 49 42 50 61 51 43 52 46 53 60 54 79 55 44 56
REMARK SMILES IDX 45 57 59 59 80 60 47 61 31 62 32 63 40 64 33 65 34 66 38 67
REMARK SMILES IDX 41 68 35 69 36 70 39 71 37 72 63 73 64 74 72 75 65 76 66 77
REMARK SMILES IDX 70 78 73 79 67 80 68 81 71 82 69 83 48 84 49 85 57 86 50 87
REMARK SMILES IDX 51 88 55 89 58 90 52 91 53 92 56 93 54 94
REMARK H PARENT 14 6 19 28 78 47 46 58
REMARK Flexibility Score: inf
ROOT
ATOM      1  C   UNL A   1      31.685  30.528  26.850  1.00  0.00     0.023 C 
ENDROOT
BRANCH   1   2
ATOM      2  C   UNL A   1      32.371  30.016  25.586  1.00  0.00     0.116 C 
BRANCH   2   3
ATOM      3  N   UNL A   1      31.417  29.908  24.501  1.00  0.00    -0.356 N 
ATOM      4  C   UNL A   1      31.175  28.831  23.707  1.00  0.00     0.222 C 
ATOM      5  O   UNL A   1      30.477  28.974  22.702  1.00  0.00    -0.275 OA
ATOM      6  H   UNL A   1      30.879  30.711  24.317  1.00  0.00     0.163 HD
BRANCH   4   7
ATOM      7  C   UNL A   1      31.727  27.485  24.093  1.00  0.00     0.133 C 
BRANCH   7   8
ATOM      8  C   UNL A   1      30.805  26.715  25.053  1.00  0.00     0.147 C 
ATOM      9  N   UNL A   1      32.047  24.684  24.731  1.00  0.00    -0.346 N 
ATOM     10  C   UNL A   1      30.931  23.976  24.107  1.00  0.00     0.147 C 
ATOM     11  C   UNL A   1      31.618  25.619  25.773  1.00  0.00     0.151 C 
ATOM     12  C   UNL A   1      29.978  25.026  23.501  1.00  0.00     0.182 C 
ATOM     13  O   UNL A   1      29.657  26.115  24.397  1.00  0.00    -0.374 OA
BRANCH   9  14
ATOM     14  C   UNL A   1      33.313  24.169  24.782  1.00  0.00     0.208 A 
ATOM     15  C   UNL A   1      37.403  23.022  25.368  1.00  0.00     0.046 C 
ATOM     16  C   UNL A   1      35.978  23.398  25.119  1.00  0.00    -0.026 A 
ATOM     17  C   UNL A   1      35.069  23.484  26.163  1.00  0.00     0.117 A 
ATOM     18  C   UNL A   1      35.511  23.703  23.845  1.00  0.00     0.094 A 
ATOM     19  N   UNL A   1      33.776  23.859  26.018  1.00  0.00    -0.233 NA
ATOM     20  C   UNL A   1      34.171  24.090  23.681  1.00  0.00     0.311 A 
BRANCH  20  21
ATOM     21  N   UNL A   1      33.776  24.560  22.365  1.00  0.00     0.066 N 
ATOM     22  O   UNL A   1      33.279  23.754  21.568  1.00  0.00    -0.258 OA
ATOM     23  O   UNL A   1      34.024  25.745  22.095  1.00  0.00    -0.258 OA
ENDBRANCH  20  21
ENDBRANCH   9  14
ENDBRANCH   7   8
ENDBRANCH   4   7
ENDBRANCH   2   3
ENDBRANCH   1   2
BRANCH   1  24
ATOM     24  C   UNL A   1      31.468  32.044  26.861  1.00  0.00     0.023 C 
BRANCH  24  25
ATOM     25  C   UNL A   1      32.727  32.866  27.118  1.00  0.00     0.116 C 
BRANCH  25  26
ATOM     26  N   UNL A   1      32.435  34.196  27.626  1.00  0.00    -0.352 N 
ATOM     27  C   UNL A   1      33.031  34.876  28.659  1.00  0.00     0.251 C 
ATOM     28  H   UNL A   1      31.710  34.676  27.166  1.00  0.00     0.163 HD
ATOM     29  O   UNL A   1      32.565  35.939  29.049  1.00  0.00    -0.269 OA
BRANCH  27  30
ATOM     30  C   UNL A   1      34.220  34.302  29.326  1.00  0.00     0.039 A 
ATOM     31  C   UNL A   1      34.027  33.489  30.444  1.00  0.00     0.014 A 
ATOM     32  C   UNL A   1      35.511  34.556  28.853  1.00  0.00     0.014 A 
ATOM     33  C   UNL A   1      35.125  32.883  31.054  1.00  0.00     0.010 A 
ATOM     34  C   UNL A   1      36.598  33.890  29.416  1.00  0.00     0.010 A 
ATOM     35  C   UNL A   1      36.416  33.050  30.524  1.00  0.00    -0.014 A 
BRANCH  35  36
ATOM     36  C   UNL A   1      37.572  32.331  31.118  1.00  0.00     0.031 A 
ATOM     37  C   UNL A   1      38.056  32.667  32.500  1.00  0.00     0.074 A 
ATOM     38  C   UNL A   1      38.205  31.390  30.391  1.00  0.00     0.049 A 
ATOM     39  N   UNL A   1      39.032  32.127  33.188  1.00  0.00    -0.248 NA
ATOM     40  C   UNL A   1      37.375  33.770  33.194  1.00  0.00     0.031 C 
ATOM     41  C   UNL A   1      37.871  31.020  29.015  1.00  0.00     0.029 A 
ATOM     42  N   UNL A   1      39.258  30.570  30.709  1.00  0.00    -0.354 N 
ATOM     43  C   UNL A   1      39.080  32.824  34.388  1.00  0.00     0.074 A 
ATOM     44  C   UNL A   1      38.079  33.866  34.311  1.00  0.00     0.031 C 
ATOM     45  C   UNL A   1      38.676  30.021  28.620  1.00  0.00     0.029 A 
ATOM     46  C   UNL A   1      39.603  29.702  29.701  1.00  0.00     0.049 A 
ATOM     47  H   UNL A   1      39.724  30.601  31.577  1.00  0.00     0.167 HD
ATOM     48  C   UNL A   1      39.867  32.597  35.467  1.00  0.00     0.037 A 
ATOM     49  C   UNL A   1      40.557  28.754  29.656  1.00  0.00     0.037 A 
ATOM     50  C   UNL A   1      40.854  31.550  35.545  1.00  0.00     0.049 A 
ATOM     51  C   UNL A   1      41.416  28.521  30.869  1.00  0.00     0.074 A 
ATOM     52  C   UNL A   1      41.661  31.201  36.613  1.00  0.00     0.029 A 
ATOM     53  N   UNL A   1      41.173  30.687  34.506  1.00  0.00    -0.354 N 
ATOM     54  N   UNL A   1      41.393  29.128  32.030  1.00  0.00    -0.248 NA
ATOM     55  C   UNL A   1      42.427  27.460  30.767  1.00  0.00     0.031 C 
ATOM     56  C   UNL A   1      42.504  30.162  36.204  1.00  0.00     0.029 A 
ATOM     57  C   UNL A   1      42.182  29.823  34.901  1.00  0.00     0.049 A 
ATOM     58  H   UNL A   1      40.743  30.687  33.619  1.00  0.00     0.167 HD
ATOM     59  C   UNL A   1      42.366  28.510  32.804  1.00  0.00     0.074 A 
ATOM     60  C   UNL A   1      42.942  27.462  31.988  1.00  0.00     0.031 C 
ATOM     61  C   UNL A   1      42.750  28.786  34.075  1.00  0.00     0.037 A 
BRANCH  48  62
ATOM     62  C   UNL A   1      39.691  33.497  36.657  1.00  0.00     0.064 A 
ATOM     63  C   UNL A   1      40.357  34.729  36.754  1.00  0.00     0.173 A 
ATOM     64  C   UNL A   1      38.816  33.145  37.696  1.00  0.00     0.173 A 
ATOM     65  F   UNL A   1      41.213  35.111  35.794  1.00  0.00    -0.203 F 
ATOM     66  C   UNL A   1      40.179  35.558  37.859  1.00  0.00     0.198 A 
ATOM     67  C   UNL A   1      38.615  33.990  38.784  1.00  0.00     0.198 A 
ATOM     68  F   UNL A   1      38.148  31.982  37.653  1.00  0.00    -0.203 F 
ATOM     69  F   UNL A   1      40.866  36.704  37.952  1.00  0.00    -0.200 F 
ATOM     70  C   UNL A   1      39.302  35.193  38.868  1.00  0.00     0.200 A 
ATOM     71  F   UNL A   1      37.755  33.643  39.751  1.00  0.00    -0.200 F 
ATOM     72  F   UNL A   1      39.124  35.994  39.926  1.00  0.00    -0.200 F 
ENDBRANCH  48  62
BRANCH  49  73
ATOM     73  C   UNL A   1      40.727  27.928  28.432  1.00  0.00     0.064 A 
ATOM     74  C   UNL A   1      40.091  26.684  28.306  1.00  0.00     0.173 A 
ATOM     75  C   UNL A   1      41.532  28.358  27.368  1.00  0.00     0.173 A 
ATOM     76  F   UNL A   1      39.326  26.220  29.305  1.00  0.00    -0.203 F 
ATOM     77  C   UNL A   1      40.274  25.892  27.175  1.00  0.00     0.198 A 
ATOM     78  C   UNL A   1      41.691  27.578  26.224  1.00  0.00     0.198 A 
ATOM     79  F   UNL A   1      42.158  29.541  27.435  1.00  0.00    -0.203 F 
ATOM     80  F   UNL A   1      39.697  24.685  27.105  1.00  0.00    -0.200 F 
ATOM     81  C   UNL A   1      41.069  26.342  26.132  1.00  0.00     0.200 A 
ATOM     82  F   UNL A   1      42.447  28.024  25.211  1.00  0.00    -0.200 F 
ATOM     83  F   UNL A   1      41.244  25.581  25.043  1.00  0.00    -0.200 F 
ENDBRANCH  49  73
BRANCH  61  84
ATOM     84  C   UNL A   1      43.829  27.924  34.665  1.00  0.00     0.064 A 
ATOM     85  C   UNL A   1      45.181  28.299  34.617  1.00  0.00     0.173 A 
ATOM     86  C   UNL A   1      43.507  26.711  35.293  1.00  0.00     0.173 A 
ATOM     87  F   UNL A   1      45.545  29.441  34.015  1.00  0.00    -0.203 F 
ATOM     88  C   UNL A   1      46.173  27.472  35.141  1.00  0.00     0.198 A 
ATOM     89  C   UNL A   1      44.498  25.905  35.846  1.00  0.00     0.198 A 
ATOM     90  F   UNL A   1      42.230  26.309  35.374  1.00  0.00    -0.203 F 
ATOM     91  F   UNL A   1      47.462  27.819  35.024  1.00  0.00    -0.200 F 
ATOM     92  C   UNL A   1      45.830  26.279  35.759  1.00  0.00     0.200 A 
ATOM     93  F   UNL A   1      44.163  24.760  36.458  1.00  0.00    -0.200 F 
ATOM     94  F   UNL A   1      46.785  25.484  36.261  1.00  0.00    -0.200 F 
ENDBRANCH  61  84
ENDBRANCH  35  36
ENDBRANCH  27  30
ENDBRANCH  25  26
ENDBRANCH  24  25
ENDBRANCH   1  24
TORSDOF 14
ENDMDL
MODEL 2
REMARK VINA RESULT:     -12.2      5.169     10.622
REMARK SMILES Cc1cnc(N2CCO[C@H](CC(=O)NCCCCNC(=O)c3ccc(-c4c5nc(c(-c6c(F)c(F)c(F)c(F)c6F)c6ccc([nH]6)c(-c6c(F)c(F)c(F)c(F)c6F)c6nc(c(-c7c(F)c(F)c(F)c(F)c7F)c7ccc4[nH]7)C=C6)C=C5)cc3)C2)c([N+](=O)[O-])c1
REMARK SMILES IDX 16 1 15 2 14 3 12 4 13 5 11 7 10 8 6 9 7 10 85 11 8 12 9 13
REMARK SMILES IDX 5 14 1 15 2 16 3 17 90 18 4 19 86 20 87 21 88 22 89 23 17 24
REMARK SMILES IDX 18 25 19 26 20 27 21 29 22 30 23 31 84 32 24 33 83 34 25 35
REMARK SMILES IDX 26 36 27 37 77 38 28 39 82 40 76 41 78 42 29 43 81 44 75 45
REMARK SMILES IDX 74 46 30 48 62 49 42 50 61 51 43 52 46 53 60 54 79 55 44 56
REMARK SMILES IDX 45 57 59 59 80 60 47 61 31 62 32 63 40 64 33 65 34 66 38 67
REMARK SMILES IDX 41 68 35 69 36 70 39 71 37 72 63 73 64 74 72 75 65 76 66 77
REMARK SMILES IDX 70 78 73 79 67 80 68 81 71 82 69 83 48 84 49 85 57 86 50 87
REMARK SMILES IDX 51 88 55 89 58 90 52 91 53 92 56 93 54 94
REMARK H PARENT 14 6 19 28 78 47 46 58
REMARK Flexibility Score: inf
ROOT
ATOM      1  C   UNL A   1      37.289  20.938  24.632  1.00  0.00     0.023 C 
ENDROOT
BRANCH   1   2
ATOM      2  C   UNL A   1      36.314  21.354  25.731  1.00  0.00     0.116 C 
BRANCH   2   3
ATOM      3  N   UNL A   1      35.067  20.629  25.601  1.00  0.00    -0.356 N 
ATOM      4  C   UNL A   1      33.811  21.140  25.504  1.00  0.00     0.222 C 
ATOM      5  O   UNL A   1      32.847  20.380  25.605  1.00  0.00    -0.275 OA
ATOM      6  H   UNL A   1      35.138  19.647  25.581  1.00  0.00     0.163 HD
BRANCH   4   7
ATOM      7  C   UNL A   1      33.626  22.609  25.233  1.00  0.00     0.133 C 
BRANCH   7   8
ATOM      8  C   UNL A   1      33.716  22.956  23.737  1.00  0.00     0.147 C 
ATOM      9  N   UNL A   1      32.545  25.026  24.073  1.00  0.00    -0.346 N 
ATOM     10  C   UNL A   1      31.397  24.630  23.261  1.00  0.00     0.147 C 
ATOM     11  C   UNL A   1      33.810  24.487  23.573  1.00  0.00     0.151 C 
ATOM     12  C   UNL A   1      31.332  23.090  23.242  1.00  0.00     0.182 C 
ATOM     13  O   UNL A   1      32.599  22.453  22.958  1.00  0.00    -0.374 OA
BRANCH   9  14
ATOM     14  C   UNL A   1      32.561  26.170  24.823  1.00  0.00     0.208 A 
ATOM     15  C   UNL A   1      33.240  29.639  27.251  1.00  0.00     0.046 C 
ATOM     16  C   UNL A   1      32.954  28.432  26.417  1.00  0.00    -0.026 A 
ATOM     17  C   UNL A   1      33.656  28.191  25.245  1.00  0.00     0.117 A 
ATOM     18  C   UNL A   1      32.001  27.490  26.789  1.00  0.00     0.094 A 
ATOM     19  N   UNL A   1      33.480  27.099  24.463  1.00  0.00    -0.233 NA
ATOM     20  C   UNL A   1      31.808  26.356  25.986  1.00  0.00     0.311 A 
BRANCH  20  21
ATOM     21  N   UNL A   1      30.927  25.323  26.501  1.00  0.00     0.066 N 
ATOM     22  O   UNL A   1      29.713  25.404  26.272  1.00  0.00    -0.258 OA
ATOM     23  O   UNL A   1      31.446  24.444  27.206  1.00  0.00    -0.258 OA
ENDBRANCH  20  21
ENDBRANCH   9  14
ENDBRANCH   7   8
ENDBRANCH   4   7
ENDBRANCH   2   3
ENDBRANCH   1   2
BRANCH   1  24
ATOM     24  C   UNL A   1      38.151  19.727  25.001  1.00  0.00     0.023 C 
BRANCH  24  25
ATOM     25  C   UNL A   1      39.301  20.029  25.955  1.00  0.00     0.116 C 
BRANCH  25  26
ATOM     26  N   UNL A   1      40.379  19.059  25.862  1.00  0.00    -0.352 N 
ATOM     27  C   UNL A   1      41.730  19.253  26.006  1.00  0.00     0.251 C 
ATOM     28  H   UNL A   1      40.102  18.135  25.668  1.00  0.00     0.163 HD
ATOM     29  O   UNL A   1      42.515  18.346  25.752  1.00  0.00    -0.269 OA
BRANCH  27  30
ATOM     30  C   UNL A   1      42.241  20.573  26.433  1.00  0.00     0.039 A 
ATOM     31  C   UNL A   1      42.653  21.476  25.451  1.00  0.00     0.014 A 
ATOM     32  C   UNL A   1      42.308  20.923  27.784  1.00  0.00     0.014 A 
ATOM     33  C   UNL A   1      43.079  22.751  25.822  1.00  0.00     0.010 A 
ATOM     34  C   UNL A   1      42.660  22.221  28.147  1.00  0.00     0.010 A 
ATOM     35  C   UNL A   1      43.053  23.147  27.170  1.00  0.00    -0.014 A 
BRANCH  35  36
ATOM     36  C   UNL A   1      43.418  24.534  27.554  1.00  0.00     0.031 A 
ATOM     37  C   UNL A   1      44.855  24.973  27.569  1.00  0.00     0.074 A 
ATOM     38  C   UNL A   1      42.447  25.393  27.919  1.00  0.00     0.049 A 
ATOM     39  N   UNL A   1      45.357  26.149  27.852  1.00  0.00    -0.248 NA
ATOM     40  C   UNL A   1      45.865  23.953  27.250  1.00  0.00     0.031 C 
ATOM     41  C   UNL A   1      41.022  25.068  28.008  1.00  0.00     0.029 A 
ATOM     42  N   UNL A   1      42.508  26.715  28.280  1.00  0.00    -0.354 N 
ATOM     43  C   UNL A   1      46.735  26.009  27.747  1.00  0.00     0.074 A 
ATOM     44  C   UNL A   1      46.994  24.620  27.436  1.00  0.00     0.031 C 
ATOM     45  C   UNL A   1      40.341  26.169  28.359  1.00  0.00     0.029 A 
ATOM     46  C   UNL A   1      41.280  27.268  28.553  1.00  0.00     0.049 A 
ATOM     47  H   UNL A   1      43.352  27.220  28.339  1.00  0.00     0.167 HD
ATOM     48  C   UNL A   1      47.694  26.958  27.870  1.00  0.00     0.037 A 
ATOM     49  C   UNL A   1      40.950  28.522  28.914  1.00  0.00     0.037 A 
ATOM     50  C   UNL A   1      47.430  28.343  28.166  1.00  0.00     0.049 A 
ATOM     51  C   UNL A   1      42.034  29.557  29.041  1.00  0.00     0.074 A 
ATOM     52  C   UNL A   1      48.327  29.393  28.254  1.00  0.00     0.029 A 
ATOM     53  N   UNL A   1      46.174  28.868  28.432  1.00  0.00    -0.354 N 
ATOM     54  N   UNL A   1      43.326  29.433  28.852  1.00  0.00    -0.248 NA
ATOM     55  C   UNL A   1      41.611  30.912  29.419  1.00  0.00     0.031 C 
ATOM     56  C   UNL A   1      47.620  30.543  28.624  1.00  0.00     0.029 A 
ATOM     57  C   UNL A   1      46.275  30.223  28.708  1.00  0.00     0.049 A 
ATOM     58  H   UNL A   1      45.333  28.355  28.423  1.00  0.00     0.167 HD
ATOM     59  C   UNL A   1      43.866  30.694  29.065  1.00  0.00     0.074 A 
ATOM     60  C   UNL A   1      42.758  31.574  29.371  1.00  0.00     0.031 C 
ATOM     61  C   UNL A   1      45.163  31.087  29.016  1.00  0.00     0.037 A 
BRANCH  48  62
ATOM     62  C   UNL A   1      49.122  26.531  27.678  1.00  0.00     0.064 A 
ATOM     63  C   UNL A   1      49.678  26.376  26.398  1.00  0.00     0.173 A 
ATOM     64  C   UNL A   1      49.956  26.311  28.783  1.00  0.00     0.173 A 
ATOM     65  F   UNL A   1      48.921  26.563  25.306  1.00  0.00    -0.203 F 
ATOM     66  C   UNL A   1      51.005  25.988  26.233  1.00  0.00     0.198 A 
ATOM     67  C   UNL A   1      51.292  25.955  28.616  1.00  0.00     0.198 A 
ATOM     68  F   UNL A   1      49.479  26.451  30.030  1.00  0.00    -0.203 F 
ATOM     69  F   UNL A   1      51.498  25.795  25.002  1.00  0.00    -0.200 F 
ATOM     70  C   UNL A   1      51.813  25.785  27.341  1.00  0.00     0.200 A 
ATOM     71  F   UNL A   1      52.076  25.775  29.688  1.00  0.00    -0.200 F 
ATOM     72  F   UNL A   1      53.092  25.420  27.183  1.00  0.00    -0.200 F 
ENDBRANCH  48  62
BRANCH  49  73
ATOM     73  C   UNL A   1      39.526  28.878  29.147  1.00  0.00     0.064 A 
ATOM     74  C   UNL A   1      38.962  28.795  30.428  1.00  0.00     0.173 A 
ATOM     75  C   UNL A   1      38.697  29.299  28.097  1.00  0.00     0.173 A 
ATOM     76  F   UNL A   1      39.708  28.378  31.462  1.00  0.00    -0.203 F 
ATOM     77  C   UNL A   1      37.619  29.095  30.645  1.00  0.00     0.198 A 
ATOM     78  C   UNL A   1      37.362  29.628  28.321  1.00  0.00     0.198 A 
ATOM     79  F   UNL A   1      39.189  29.401  26.854  1.00  0.00    -0.203 F 
ATOM     80  F   UNL A   1      37.093  28.956  31.870  1.00  0.00    -0.200 F 
ATOM     81  C   UNL A   1      36.822  29.517  29.593  1.00  0.00     0.200 A 
ATOM     82  F   UNL A   1      36.600  30.052  27.304  1.00  0.00    -0.200 F 
ATOM     83  F   UNL A   1      35.531  29.808  29.802  1.00  0.00    -0.200 F 
ENDBRANCH  49  73
BRANCH  61  84
ATOM     84  C   UNL A   1      45.447  32.539  29.275  1.00  0.00     0.064 A 
ATOM     85  C   UNL A   1      45.431  33.490  28.242  1.00  0.00     0.173 A 
ATOM     86  C   UNL A   1      45.730  32.988  30.575  1.00  0.00     0.173 A 
ATOM     87  F   UNL A   1      45.181  33.112  26.980  1.00  0.00    -0.203 F 
ATOM     88  C   UNL A   1      45.727  34.828  28.496  1.00  0.00     0.198 A 
ATOM     89  C   UNL A   1      45.990  34.331  30.829  1.00  0.00     0.198 A 
ATOM     90  F   UNL A   1      45.750  32.123  31.600  1.00  0.00    -0.203 F 
ATOM     91  F   UNL A   1      45.771  35.705  27.483  1.00  0.00    -0.200 F 
ATOM     92  C   UNL A   1      46.001  35.247  29.788  1.00  0.00     0.200 A 
ATOM     93  F   UNL A   1      46.239  34.738  32.082  1.00  0.00    -0.200 F 
ATOM     94  F   UNL A   1      46.287  36.535  30.030  1.00  0.00    -0.200 F 
ENDBRANCH  61  84
ENDBRANCH  35  36
ENDBRANCH  27  30
ENDBRANCH  25  26
ENDBRANCH  24  25
ENDBRANCH   1  24
TORSDOF 14
ENDMDL
MODEL 3
REMARK VINA RESULT:     -12.2      0.700      7.220
REMARK SMILES Cc1cnc(N2CCO[C@H](CC(=O)NCCCCNC(=O)c3ccc(-c4c5nc(c(-c6c(F)c(F)c(F)c(F)c6F)c6ccc([nH]6)c(-c6c(F)c(F)c(F)c(F)c6F)c6nc(c(-c7c(F)c(F)c(F)c(F)c7F)c7ccc4[nH]7)C=C6)C=C5)cc3)C2)c([N+](=O)[O-])c1
REMARK SMILES IDX 16 1 15 2 14 3 12 4 13 5 11 7 10 8 6 9 7 10 85 11 8 12 9 13
REMARK SMILES IDX 5 14 1 15 2 16 3 17 90 18 4 19 86 20 87 21 88 22 89 23 17 24
REMARK SMILES IDX 18 25 19 26 20 27 21 29 22 30 23 31 84 32 24 33 83 34 25 35
REMARK SMILES IDX 26 36 27 37 77 38 28 39 82 40 76 41 78 42 29 43 81 44 75 45
REMARK SMILES IDX 74 46 30 48 62 49 42 50 61 51 43 52 46 53 60 54 79 55 44 56
REMARK SMILES IDX 45 57 59 59 80 60 47 61 31 62 32 63 40 64 33 65 34 66 38 67
REMARK SMILES IDX 41 68 35 69 36 70 39 71 37 72 63 73 64 74 72 75 65 76 66 77
REMARK SMILES IDX 70 78 73 79 67 80 68 81 71 82 69 83 48 84 49 85 57 86 50 87
REMARK SMILES IDX 51 88 55 89 58 90 52 91 53 92 56 93 54 94
REMARK H PARENT 14 6 19 28 78 47 46 58
REMARK Flexibility Score: inf
ROOT
ATOM      1  C   UNL A   1      31.422  30.666  26.541  1.00  0.00     0.023 C 
ENDROOT
BRANCH   1   2
ATOM      2  C   UNL A   1      32.171  30.077  25.347  1.00  0.00     0.116 C 
BRANCH   2   3
ATOM      3  N   UNL A   1      31.253  29.797  24.263  1.00  0.00    -0.356 N 
ATOM      4  C   UNL A   1      31.111  28.637  23.568  1.00  0.00     0.222 C 
ATOM      5  O   UNL A   1      30.427  28.633  22.543  1.00  0.00    -0.275 OA
ATOM      6  H   UNL A   1      30.659  30.536  23.997  1.00  0.00     0.163 HD
BRANCH   4   7
ATOM      7  C   UNL A   1      31.755  27.379  24.084  1.00  0.00     0.133 C 
BRANCH   7   8
ATOM      8  C   UNL A   1      30.846  26.593  25.045  1.00  0.00     0.147 C 
ATOM      9  N   UNL A   1      32.128  24.587  24.734  1.00  0.00    -0.346 N 
ATOM     10  C   UNL A   1      31.029  23.855  24.109  1.00  0.00     0.147 C 
ATOM     11  C   UNL A   1      31.678  25.516  25.771  1.00  0.00     0.151 C 
ATOM     12  C   UNL A   1      30.058  24.883  23.495  1.00  0.00     0.182 C 
ATOM     13  O   UNL A   1      29.712  25.968  24.387  1.00  0.00    -0.374 OA
BRANCH   9  14
ATOM     14  C   UNL A   1      33.405  24.097  24.791  1.00  0.00     0.208 A 
ATOM     15  C   UNL A   1      37.513  23.030  25.399  1.00  0.00     0.046 C 
ATOM     16  C   UNL A   1      36.082  23.379  25.142  1.00  0.00    -0.026 A 
ATOM     17  C   UNL A   1      35.165  23.442  26.180  1.00  0.00     0.117 A 
ATOM     18  C   UNL A   1      35.617  23.680  23.867  1.00  0.00     0.094 A 
ATOM     19  N   UNL A   1      33.866  23.791  26.029  1.00  0.00    -0.233 NA
ATOM     20  C   UNL A   1      34.272  24.041  23.696  1.00  0.00     0.311 A 
BRANCH  20  21
ATOM     21  N   UNL A   1      33.875  24.508  22.379  1.00  0.00     0.066 N 
ATOM     22  O   UNL A   1      34.027  25.704  22.099  1.00  0.00    -0.258 OA
ATOM     23  O   UNL A   1      33.341  23.679  21.627  1.00  0.00    -0.258 OA
ENDBRANCH  20  21
ENDBRANCH   9  14
ENDBRANCH   7   8
ENDBRANCH   4   7
ENDBRANCH   2   3
ENDBRANCH   1   2
BRANCH   1  24
ATOM     24  C   UNL A   1      31.402  32.197  26.560  1.00  0.00     0.023 C 
BRANCH  24  25
ATOM     25  C   UNL A   1      32.596  32.841  27.255  1.00  0.00     0.116 C 
BRANCH  25  26
ATOM     26  N   UNL A   1      32.353  34.225  27.625  1.00  0.00    -0.352 N 
ATOM     27  C   UNL A   1      32.954  34.977  28.604  1.00  0.00     0.251 C 
ATOM     28  H   UNL A   1      31.660  34.688  27.101  1.00  0.00     0.163 HD
ATOM     29  O   UNL A   1      32.526  36.091  28.877  1.00  0.00    -0.269 OA
BRANCH  27  30
ATOM     30  C   UNL A   1      34.100  34.422  29.355  1.00  0.00     0.039 A 
ATOM     31  C   UNL A   1      33.854  33.801  30.580  1.00  0.00     0.014 A 
ATOM     32  C   UNL A   1      35.404  34.505  28.857  1.00  0.00     0.014 A 
ATOM     33  C   UNL A   1      34.908  33.212  31.279  1.00  0.00     0.010 A 
ATOM     34  C   UNL A   1      36.441  33.851  29.518  1.00  0.00     0.010 A 
ATOM     35  C   UNL A   1      36.204  33.202  30.737  1.00  0.00    -0.014 A 
BRANCH  35  36
ATOM     36  C   UNL A   1      37.307  32.495  31.437  1.00  0.00     0.031 A 
ATOM     37  C   UNL A   1      38.011  31.337  30.786  1.00  0.00     0.074 A 
ATOM     38  C   UNL A   1      37.653  32.883  32.680  1.00  0.00     0.049 A 
ATOM     39  N   UNL A   1      39.010  30.619  31.237  1.00  0.00    -0.248 NA
ATOM     40  C   UNL A   1      37.514  30.912  29.470  1.00  0.00     0.031 C 
ATOM     41  C   UNL A   1      37.003  33.950  33.443  1.00  0.00     0.029 A 
ATOM     42  N   UNL A   1      38.640  32.430  33.519  1.00  0.00    -0.354 N 
ATOM     43  C   UNL A   1      39.257  29.661  30.262  1.00  0.00     0.074 A 
ATOM     44  C   UNL A   1      38.265  29.848  29.226  1.00  0.00     0.031 C 
ATOM     45  C   UNL A   1      37.631  34.094  34.620  1.00  0.00     0.029 A 
ATOM     46  C   UNL A   1      38.706  33.112  34.709  1.00  0.00     0.049 A 
ATOM     47  H   UNL A   1      39.243  31.685  33.290  1.00  0.00     0.167 HD
ATOM     48  C   UNL A   1      40.240  28.729  30.222  1.00  0.00     0.037 A 
ATOM     49  C   UNL A   1      39.543  32.964  35.753  1.00  0.00     0.037 A 
ATOM     50  C   UNL A   1      41.234  28.555  31.250  1.00  0.00     0.049 A 
ATOM     51  C   UNL A   1      40.626  31.923  35.682  1.00  0.00     0.074 A 
ATOM     52  C   UNL A   1      42.305  27.679  31.276  1.00  0.00     0.029 A 
ATOM     53  N   UNL A   1      41.273  29.268  32.440  1.00  0.00    -0.354 N 
ATOM     54  N   UNL A   1      40.905  31.082  34.716  1.00  0.00    -0.248 NA
ATOM     55  C   UNL A   1      41.520  31.822  36.843  1.00  0.00     0.031 C 
ATOM     56  C   UNL A   1      42.961  27.825  32.503  1.00  0.00     0.029 A 
ATOM     57  C   UNL A   1      42.335  28.833  33.218  1.00  0.00     0.049 A 
ATOM     58  H   UNL A   1      40.640  29.979  32.694  1.00  0.00     0.167 HD
ATOM     59  C   UNL A   1      42.018  30.368  35.140  1.00  0.00     0.074 A 
ATOM     60  C   UNL A   1      42.378  30.895  36.440  1.00  0.00     0.031 C 
ATOM     61  C   UNL A   1      42.680  29.364  34.513  1.00  0.00     0.037 A 
BRANCH  48  62
ATOM     62  C   UNL A   1      40.292  27.827  29.022  1.00  0.00     0.064 A 
ATOM     63  C   UNL A   1      41.036  28.163  27.879  1.00  0.00     0.173 A 
ATOM     64  C   UNL A   1      39.623  26.594  29.026  1.00  0.00     0.173 A 
ATOM     65  F   UNL A   1      41.687  29.335  27.819  1.00  0.00    -0.203 F 
ATOM     66  C   UNL A   1      41.083  27.314  26.777  1.00  0.00     0.198 A 
ATOM     67  C   UNL A   1      39.698  25.732  27.934  1.00  0.00     0.198 A 
ATOM     68  F   UNL A   1      38.902  26.218  30.093  1.00  0.00    -0.203 F 
ATOM     69  F   UNL A   1      41.757  27.681  25.679  1.00  0.00    -0.200 F 
ATOM     70  C   UNL A   1      40.421  26.096  26.807  1.00  0.00     0.200 A 
ATOM     71  F   UNL A   1      39.071  24.549  27.972  1.00  0.00    -0.200 F 
ATOM     72  F   UNL A   1      40.474  25.276  25.750  1.00  0.00    -0.200 F 
ENDBRANCH  48  62
BRANCH  49  73
ATOM     73  C   UNL A   1      39.412  33.848  36.942  1.00  0.00     0.064 A 
ATOM     74  C   UNL A   1      38.684  33.438  38.068  1.00  0.00     0.173 A 
ATOM     75  C   UNL A   1      40.001  35.119  36.975  1.00  0.00     0.173 A 
ATOM     76  F   UNL A   1      38.084  32.238  38.077  1.00  0.00    -0.203 F 
ATOM     77  C   UNL A   1      38.529  34.275  39.171  1.00  0.00     0.198 A 
ATOM     78  C   UNL A   1      39.873  35.944  38.090  1.00  0.00     0.198 A 
ATOM     79  F   UNL A   1      40.713  35.557  35.926  1.00  0.00    -0.203 F 
ATOM     80  F   UNL A   1      37.784  33.879  40.211  1.00  0.00    -0.200 F 
ATOM     81  C   UNL A   1      39.129  35.525  39.183  1.00  0.00     0.200 A 
ATOM     82  F   UNL A   1      40.467  37.144  38.105  1.00  0.00    -0.200 F 
ATOM     83  F   UNL A   1      38.984  36.330  40.245  1.00  0.00    -0.200 F 
ENDBRANCH  49  73
BRANCH  61  84
ATOM     84  C   UNL A   1      43.875  28.790  35.218  1.00  0.00     0.064 A 
ATOM     85  C   UNL A   1      45.167  29.301  35.015  1.00  0.00     0.173 A 
ATOM     86  C   UNL A   1      43.727  27.719  36.113  1.00  0.00     0.173 A 
ATOM     87  F   UNL A   1      45.366  30.314  34.158  1.00  0.00    -0.203 F 
ATOM     88  C   UNL A   1      46.269  28.736  35.652  1.00  0.00     0.198 A 
ATOM     89  C   UNL A   1      44.827  27.181  36.775  1.00  0.00     0.198 A 
ATOM     90  F   UNL A   1      42.514  27.198  36.350  1.00  0.00    -0.203 F 
ATOM     91  F   UNL A   1      47.500  29.199  35.393  1.00  0.00    -0.200 F 
ATOM     92  C   UNL A   1      46.098  27.681  36.535  1.00  0.00     0.200 A 
ATOM     93  F   UNL A   1      44.657  26.171  37.641  1.00  0.00    -0.200 F 
ATOM     94  F   UNL A   1      47.160  27.137  37.147  1.00  0.00    -0.200 F 
ENDBRANCH  61  84
ENDBRANCH  35  36
ENDBRANCH  27  30
ENDBRANCH  25  26
ENDBRANCH  24  25
ENDBRANCH   1  24
TORSDOF 14
ENDMDL
