MODEL 1
REMARK VINA RESULT:     -13.5      0.000      0.000
REMARK SMILES Cc1c2c([nH]c(=O)c1C(=O)NCCCCNC(=O)c1ccc(-c3c4nc(c(-c5c(F)c(F)c(F)c(F)c5F)c5ccc([nH]5)c(-c5c(F)c(F)c(F)c(F)c5F)c5nc(c(-c6c(F)c(F)c(F)c(F)c6F)c6ccc3[nH]6)C=C5)C=C4)cc1)CC(C)(C)CC2=O
REMARK SMILES IDX 14 1 13 2 12 3 11 4 9 5 10 6 8 8 1 9 2 10 3 11 4 12 87 13
REMARK SMILES IDX 6 14 5 15 82 16 86 17 88 18 7 19 83 21 84 22 85 23 15 24
REMARK SMILES IDX 16 25 17 26 18 28 19 29 20 30 81 31 21 32 80 33 22 34 23 35
REMARK SMILES IDX 24 36 74 37 25 38 79 39 73 40 75 41 26 42 78 43 72 44 71 45
REMARK SMILES IDX 27 47 59 48 39 49 58 50 40 51 43 52 57 53 76 54 41 55 42 56
REMARK SMILES IDX 56 58 77 59 44 60 28 61 29 62 37 63 30 64 31 65 35 66 38 67
REMARK SMILES IDX 32 68 33 69 36 70 34 71 60 72 61 73 69 74 62 75 63 76 67 77
REMARK SMILES IDX 70 78 64 79 65 80 68 81 66 82 45 83 46 84 54 85 47 86 48 87
REMARK SMILES IDX 52 88 55 89 49 90 50 91 53 92 51 93
REMARK H PARENT 11 7 5 20 16 27 75 46 43 57
REMARK Flexibility Score: inf
ROOT
ATOM      1  C   UNL A   1      32.288  29.620  25.316  1.00  0.00     0.023 C 
ENDROOT
BRANCH   1   2
ATOM      2  C   UNL A   1      33.414  28.695  24.852  1.00  0.00     0.023 C 
BRANCH   2   3
ATOM      3  C   UNL A   1      33.553  28.498  23.349  1.00  0.00     0.116 C 
BRANCH   3   4
ATOM      4  N   UNL A   1      32.329  28.656  22.584  1.00  0.00    -0.352 N 
ATOM      5  C   UNL A   1      31.337  27.732  22.352  1.00  0.00     0.257 C 
ATOM      6  O   UNL A   1      30.284  28.102  21.843  1.00  0.00    -0.269 OA
ATOM      7  H   UNL A   1      32.189  29.542  22.180  1.00  0.00     0.163 HD
BRANCH   5   8
ATOM      8  C   UNL A   1      31.575  26.305  22.704  1.00  0.00     0.108 A 
ATOM      9  C   UNL A   1      29.747  26.255  24.444  1.00  0.00     0.046 C 
ATOM     10  C   UNL A   1      30.945  25.681  23.728  1.00  0.00    -0.020 A 
ATOM     11  C   UNL A   1      31.351  24.326  24.114  1.00  0.00     0.041 A 
ATOM     12  C   UNL A   1      32.043  23.560  23.251  1.00  0.00     0.030 A 
ATOM     13  C   UNL A   1      31.091  23.774  25.485  1.00  0.00     0.165 C 
ATOM     14  C   UNL A   1      32.432  25.476  21.796  1.00  0.00     0.261 A 
ATOM     15  N   UNL A   1      32.519  24.134  22.094  1.00  0.00    -0.325 N 
ATOM     16  C   UNL A   1      32.419  22.116  23.486  1.00  0.00     0.061 C 
ATOM     17  C   UNL A   1      31.233  22.286  25.696  1.00  0.00     0.088 C 
ATOM     18  O   UNL A   1      30.776  24.506  26.421  1.00  0.00    -0.294 OA
ATOM     19  O   UNL A   1      33.034  25.932  20.830  1.00  0.00    -0.269 OA
ATOM     20  H   UNL A   1      32.951  23.545  21.434  1.00  0.00     0.169 HD
ATOM     21  C   UNL A   1      32.462  21.715  24.975  1.00  0.00    -0.023 C 
ATOM     22  C   UNL A   1      33.766  22.226  25.623  1.00  0.00     0.012 C 
ATOM     23  C   UNL A   1      32.433  20.182  25.100  1.00  0.00     0.012 C 
ENDBRANCH   5   8
ENDBRANCH   3   4
ENDBRANCH   2   3
ENDBRANCH   1   2
BRANCH   1  24
ATOM     24  C   UNL A   1      32.332  30.089  26.768  1.00  0.00     0.116 C 
BRANCH  24  25
ATOM     25  N   UNL A   1      32.395  31.533  26.930  1.00  0.00    -0.352 N 
ATOM     26  C   UNL A   1      33.387  32.334  27.451  1.00  0.00     0.251 C 
ATOM     27  H   UNL A   1      31.597  32.017  26.617  1.00  0.00     0.163 HD
ATOM     28  O   UNL A   1      33.211  33.542  27.549  1.00  0.00    -0.269 OA
BRANCH  26  29
ATOM     29  C   UNL A   1      34.648  31.739  27.946  1.00  0.00     0.039 A 
ATOM     30  C   UNL A   1      35.754  32.577  28.123  1.00  0.00     0.014 A 
ATOM     31  C   UNL A   1      34.744  30.382  28.254  1.00  0.00     0.014 A 
ATOM     32  C   UNL A   1      36.916  32.075  28.713  1.00  0.00     0.010 A 
ATOM     33  C   UNL A   1      35.871  29.902  28.917  1.00  0.00     0.010 A 
ATOM     34  C   UNL A   1      36.963  30.747  29.168  1.00  0.00    -0.014 A 
BRANCH  34  35
ATOM     35  C   UNL A   1      38.132  30.234  29.928  1.00  0.00     0.031 A 
ATOM     36  C   UNL A   1      38.377  30.688  31.339  1.00  0.00     0.074 A 
ATOM     37  C   UNL A   1      39.012  29.413  29.322  1.00  0.00     0.049 A 
ATOM     38  N   UNL A   1      39.386  30.423  32.129  1.00  0.00    -0.248 NA
ATOM     39  C   UNL A   1      37.370  31.583  31.931  1.00  0.00     0.031 C 
ATOM     40  C   UNL A   1      38.915  28.938  27.941  1.00  0.00     0.029 A 
ATOM     41  N   UNL A   1      40.170  28.838  29.787  1.00  0.00    -0.354 N 
ATOM     42  C   UNL A   1      39.145  31.128  33.300  1.00  0.00     0.074 A 
ATOM     43  C   UNL A   1      37.919  31.871  33.103  1.00  0.00     0.031 C 
ATOM     44  C   UNL A   1      39.950  28.123  27.681  1.00  0.00     0.029 A 
ATOM     45  C   UNL A   1      40.805  28.046  28.861  1.00  0.00     0.049 A 
ATOM     46  H   UNL A   1      40.513  28.980  30.699  1.00  0.00     0.167 HD
ATOM     47  C   UNL A   1      39.865  31.133  34.446  1.00  0.00     0.037 A 
ATOM     48  C   UNL A   1      41.948  27.340  28.952  1.00  0.00     0.037 A 
ATOM     49  C   UNL A   1      41.060  30.361  34.658  1.00  0.00     0.049 A 
ATOM     50  C   UNL A   1      42.725  27.358  30.240  1.00  0.00     0.074 A 
ATOM     51  C   UNL A   1      41.823  30.255  35.807  1.00  0.00     0.029 A 
ATOM     52  N   UNL A   1      41.661  29.559  33.700  1.00  0.00    -0.354 N 
ATOM     53  N   UNL A   1      42.456  27.987  31.358  1.00  0.00    -0.248 NA
ATOM     54  C   UNL A   1      43.965  26.567  30.280  1.00  0.00     0.031 C 
ATOM     55  C   UNL A   1      42.905  29.411  35.536  1.00  0.00     0.029 A 
ATOM     56  C   UNL A   1      42.794  28.963  34.229  1.00  0.00     0.049 A 
ATOM     57  H   UNL A   1      41.331  29.431  32.781  1.00  0.00     0.167 HD
ATOM     58  C   UNL A   1      43.476  27.656  32.237  1.00  0.00     0.074 A 
ATOM     59  C   UNL A   1      44.364  26.756  31.529  1.00  0.00     0.031 C 
ATOM     60  C   UNL A   1      43.662  28.064  33.515  1.00  0.00     0.037 A 
BRANCH  47  61
ATOM     61  C   UNL A   1      39.369  31.984  35.577  1.00  0.00     0.064 A 
ATOM     62  C   UNL A   1      38.480  31.475  36.535  1.00  0.00     0.173 A 
ATOM     63  C   UNL A   1      39.834  33.297  35.740  1.00  0.00     0.173 A 
ATOM     64  F   UNL A   1      37.998  30.228  36.415  1.00  0.00    -0.203 F 
ATOM     65  C   UNL A   1      38.061  32.256  37.608  1.00  0.00     0.198 A 
ATOM     66  C   UNL A   1      39.433  34.066  36.829  1.00  0.00     0.198 A 
ATOM     67  F   UNL A   1      40.690  33.827  34.854  1.00  0.00    -0.203 F 
ATOM     68  F   UNL A   1      37.185  31.762  38.493  1.00  0.00    -0.200 F 
ATOM     69  C   UNL A   1      38.544  33.548  37.759  1.00  0.00     0.200 A 
ATOM     70  F   UNL A   1      39.909  35.310  36.981  1.00  0.00    -0.200 F 
ATOM     71  F   UNL A   1      38.150  34.293  38.800  1.00  0.00    -0.200 F 
ENDBRANCH  47  61
BRANCH  48  72
ATOM     72  C   UNL A   1      42.410  26.528  27.797  1.00  0.00     0.064 A 
ATOM     73  C   UNL A   1      41.936  25.222  27.607  1.00  0.00     0.173 A 
ATOM     74  C   UNL A   1      43.323  27.035  26.861  1.00  0.00     0.173 A 
ATOM     75  F   UNL A   1      41.079  24.687  28.488  1.00  0.00    -0.203 F 
ATOM     76  C   UNL A   1      42.369  24.449  26.531  1.00  0.00     0.198 A 
ATOM     77  C   UNL A   1      43.736  26.269  25.772  1.00  0.00     0.198 A 
ATOM     78  F   UNL A   1      43.804  28.279  26.998  1.00  0.00    -0.203 F 
ATOM     79  F   UNL A   1      41.927  23.192  26.393  1.00  0.00    -0.200 F 
ATOM     80  C   UNL A   1      43.263  24.975  25.611  1.00  0.00     0.200 A 
ATOM     81  F   UNL A   1      44.592  26.785  24.879  1.00  0.00    -0.200 F 
ATOM     82  F   UNL A   1      43.673  24.234  24.573  1.00  0.00    -0.200 F 
ENDBRANCH  48  72
BRANCH  60  83
ATOM     83  C   UNL A   1      44.858  27.532  34.247  1.00  0.00     0.064 A 
ATOM     84  C   UNL A   1      46.071  28.233  34.265  1.00  0.00     0.173 A 
ATOM     85  C   UNL A   1      44.763  26.353  35.002  1.00  0.00     0.173 A 
ATOM     86  F   UNL A   1      46.212  29.358  33.549  1.00  0.00    -0.203 F 
ATOM     87  C   UNL A   1      47.153  27.767  35.008  1.00  0.00     0.198 A 
ATOM     88  C   UNL A   1      45.838  25.904  35.761  1.00  0.00     0.198 A 
ATOM     89  F   UNL A   1      43.620  25.652  35.020  1.00  0.00    -0.203 F 
ATOM     90  F   UNL A   1      48.313  28.438  34.991  1.00  0.00    -0.200 F 
ATOM     91  C   UNL A   1      47.033  26.609  35.762  1.00  0.00     0.200 A 
ATOM     92  F   UNL A   1      45.717  24.792  36.501  1.00  0.00    -0.200 F 
ATOM     93  F   UNL A   1      48.069  26.171  36.491  1.00  0.00    -0.200 F 
ENDBRANCH  60  83
ENDBRANCH  34  35
ENDBRANCH  26  29
ENDBRANCH  24  25
ENDBRANCH   1  24
TORSDOF 11
ENDMDL
MODEL 2
REMARK VINA RESULT:     -13.5      0.315      7.440
REMARK SMILES Cc1c2c([nH]c(=O)c1C(=O)NCCCCNC(=O)c1ccc(-c3c4nc(c(-c5c(F)c(F)c(F)c(F)c5F)c5ccc([nH]5)c(-c5c(F)c(F)c(F)c(F)c5F)c5nc(c(-c6c(F)c(F)c(F)c(F)c6F)c6ccc3[nH]6)C=C5)C=C4)cc1)CC(C)(C)CC2=O
REMARK SMILES IDX 14 1 13 2 12 3 11 4 9 5 10 6 8 8 1 9 2 10 3 11 4 12 87 13
REMARK SMILES IDX 6 14 5 15 82 16 86 17 88 18 7 19 83 21 84 22 85 23 15 24
REMARK SMILES IDX 16 25 17 26 18 28 19 29 20 30 81 31 21 32 80 33 22 34 23 35
REMARK SMILES IDX 24 36 74 37 25 38 79 39 73 40 75 41 26 42 78 43 72 44 71 45
REMARK SMILES IDX 27 47 59 48 39 49 58 50 40 51 43 52 57 53 76 54 41 55 42 56
REMARK SMILES IDX 56 58 77 59 44 60 28 61 29 62 37 63 30 64 31 65 35 66 38 67
REMARK SMILES IDX 32 68 33 69 36 70 34 71 60 72 61 73 69 74 62 75 63 76 67 77
REMARK SMILES IDX 70 78 64 79 65 80 68 81 66 82 45 83 46 84 54 85 47 86 48 87
REMARK SMILES IDX 52 88 55 89 49 90 50 91 53 92 51 93
REMARK H PARENT 11 7 5 20 16 27 75 46 43 57
REMARK Flexibility Score: inf
ROOT
ATOM      1  C   UNL A   1      32.277  29.105  25.344  1.00  0.00     0.023 C 
ENDROOT
BRANCH   1   2
ATOM      2  C   UNL A   1      33.591  28.530  24.811  1.00  0.00     0.023 C 
BRANCH   2   3
ATOM      3  C   UNL A   1      33.680  28.328  23.304  1.00  0.00     0.116 C 
BRANCH   3   4
ATOM      4  N   UNL A   1      32.438  28.516  22.577  1.00  0.00    -0.352 N 
ATOM      5  C   UNL A   1      31.440  27.603  22.332  1.00  0.00     0.257 C 
ATOM      6  O   UNL A   1      30.375  27.994  21.863  1.00  0.00    -0.269 OA
ATOM      7  H   UNL A   1      32.289  29.418  22.211  1.00  0.00     0.163 HD
BRANCH   5   8
ATOM      8  C   UNL A   1      31.684  26.163  22.620  1.00  0.00     0.108 A 
ATOM      9  C   UNL A   1      29.869  26.033  24.370  1.00  0.00     0.046 C 
ATOM     10  C   UNL A   1      31.063  25.494  23.622  1.00  0.00    -0.020 A 
ATOM     11  C   UNL A   1      31.476  24.125  23.947  1.00  0.00     0.041 A 
ATOM     12  C   UNL A   1      32.165  23.399  23.046  1.00  0.00     0.030 A 
ATOM     13  C   UNL A   1      31.228  23.514  25.295  1.00  0.00     0.165 C 
ATOM     14  C   UNL A   1      32.538  25.377  21.672  1.00  0.00     0.261 A 
ATOM     15  N   UNL A   1      32.631  24.024  21.912  1.00  0.00    -0.325 N 
ATOM     16  C   UNL A   1      32.547  21.948  23.217  1.00  0.00     0.061 C 
ATOM     17  C   UNL A   1      31.375  22.019  25.440  1.00  0.00     0.088 C 
ATOM     18  O   UNL A   1      30.917  24.205  26.263  1.00  0.00    -0.294 OA
ATOM     19  O   UNL A   1      33.130  25.875  20.722  1.00  0.00    -0.269 OA
ATOM     20  H   UNL A   1      33.059  23.465  21.224  1.00  0.00     0.169 HD
ATOM     21  C   UNL A   1      32.601  21.483  24.687  1.00  0.00    -0.023 C 
ATOM     22  C   UNL A   1      33.908  21.971  25.347  1.00  0.00     0.012 C 
ATOM     23  C   UNL A   1      32.577  19.946  24.746  1.00  0.00     0.012 C 
ENDBRANCH   5   8
ENDBRANCH   3   4
ENDBRANCH   2   3
ENDBRANCH   1   2
BRANCH   1  24
ATOM     24  C   UNL A   1      32.292  29.660  26.765  1.00  0.00     0.116 C 
BRANCH  24  25
ATOM     25  N   UNL A   1      32.258  31.112  26.842  1.00  0.00    -0.352 N 
ATOM     26  C   UNL A   1      33.193  32.007  27.310  1.00  0.00     0.251 C 
ATOM     27  H   UNL A   1      31.429  31.522  26.504  1.00  0.00     0.163 HD
ATOM     28  O   UNL A   1      32.937  33.204  27.338  1.00  0.00    -0.269 OA
BRANCH  26  29
ATOM     29  C   UNL A   1      34.492  31.529  27.834  1.00  0.00     0.039 A 
ATOM     30  C   UNL A   1      35.523  32.458  28.006  1.00  0.00     0.014 A 
ATOM     31  C   UNL A   1      34.694  30.192  28.175  1.00  0.00     0.014 A 
ATOM     32  C   UNL A   1      36.714  32.067  28.621  1.00  0.00     0.010 A 
ATOM     33  C   UNL A   1      35.848  29.820  28.862  1.00  0.00     0.010 A 
ATOM     34  C   UNL A   1      36.863  30.758  29.107  1.00  0.00    -0.014 A 
BRANCH  34  35
ATOM     35  C   UNL A   1      38.059  30.359  29.892  1.00  0.00     0.031 A 
ATOM     36  C   UNL A   1      39.060  29.399  29.314  1.00  0.00     0.074 A 
ATOM     37  C   UNL A   1      38.207  30.806  31.155  1.00  0.00     0.049 A 
ATOM     38  N   UNL A   1      40.115  28.865  29.877  1.00  0.00    -0.248 NA
ATOM     39  C   UNL A   1      38.831  28.957  27.929  1.00  0.00     0.031 C 
ATOM     40  C   UNL A   1      37.280  31.702  31.850  1.00  0.00     0.029 A 
ATOM     41  N   UNL A   1      39.188  30.561  32.085  1.00  0.00    -0.354 N 
ATOM     42  C   UNL A   1      40.662  28.016  28.925  1.00  0.00     0.074 A 
ATOM     43  C   UNL A   1      39.799  28.067  27.765  1.00  0.00     0.031 C 
ATOM     44  C   UNL A   1      37.751  31.954  33.081  1.00  0.00     0.029 A 
ATOM     45  C   UNL A   1      38.991  31.210  33.280  1.00  0.00     0.049 A 
ATOM     46  H   UNL A   1      39.960  29.975  31.912  1.00  0.00     0.167 HD
ATOM     47  C   UNL A   1      41.796  27.281  29.002  1.00  0.00     0.037 A 
ATOM     48  C   UNL A   1      39.725  31.204  34.409  1.00  0.00     0.037 A 
ATOM     49  C   UNL A   1      42.677  27.264  30.139  1.00  0.00     0.049 A 
ATOM     50  C   UNL A   1      40.985  30.385  34.464  1.00  0.00     0.074 A 
ATOM     51  C   UNL A   1      43.882  26.598  30.284  1.00  0.00     0.029 A 
ATOM     52  N   UNL A   1      42.450  27.948  31.323  1.00  0.00    -0.354 N 
ATOM     53  N   UNL A   1      41.520  29.628  33.537  1.00  0.00    -0.248 NA
ATOM     54  C   UNL A   1      41.746  30.419  35.723  1.00  0.00     0.031 C 
ATOM     55  C   UNL A   1      44.370  26.855  31.569  1.00  0.00     0.029 A 
ATOM     56  C   UNL A   1      43.488  27.710  32.210  1.00  0.00     0.049 A 
ATOM     57  H   UNL A   1      41.669  28.518  31.506  1.00  0.00     0.167 HD
ATOM     58  C   UNL A   1      42.683  29.112  34.089  1.00  0.00     0.074 A 
ATOM     59  C   UNL A   1      42.788  29.654  35.428  1.00  0.00     0.031 C 
ATOM     60  C   UNL A   1      43.582  28.264  33.536  1.00  0.00     0.037 A 
BRANCH  47  61
ATOM     61  C   UNL A   1      42.170  26.450  27.811  1.00  0.00     0.064 A 
ATOM     62  C   UNL A   1      43.084  26.915  26.855  1.00  0.00     0.173 A 
ATOM     63  C   UNL A   1      41.659  25.152  27.658  1.00  0.00     0.173 A 
ATOM     64  F   UNL A   1      43.591  28.154  26.953  1.00  0.00    -0.203 F 
ATOM     65  C   UNL A   1      43.461  26.119  25.778  1.00  0.00     0.198 A 
ATOM     66  C   UNL A   1      42.058  24.349  26.594  1.00  0.00     0.198 A 
ATOM     67  F   UNL A   1      40.786  24.659  28.549  1.00  0.00    -0.203 F 
ATOM     68  F   UNL A   1      44.310  26.597  24.858  1.00  0.00    -0.200 F 
ATOM     69  C   UNL A   1      42.955  24.833  25.653  1.00  0.00     0.200 A 
ATOM     70  F   UNL A   1      41.578  23.103  26.480  1.00  0.00    -0.200 F 
ATOM     71  F   UNL A   1      43.330  24.063  24.623  1.00  0.00    -0.200 F 
ENDBRANCH  47  61
BRANCH  48  72
ATOM     72  C   UNL A   1      39.303  32.030  35.570  1.00  0.00     0.064 A 
ATOM     73  C   UNL A   1      39.766  33.345  35.717  1.00  0.00     0.173 A 
ATOM     74  C   UNL A   1      38.433  31.530  36.548  1.00  0.00     0.173 A 
ATOM     75  F   UNL A   1      40.617  33.859  34.818  1.00  0.00    -0.203 F 
ATOM     76  C   UNL A   1      39.382  34.126  36.806  1.00  0.00     0.198 A 
ATOM     77  C   UNL A   1      38.031  32.320  37.625  1.00  0.00     0.198 A 
ATOM     78  F   UNL A   1      37.961  30.278  36.452  1.00  0.00    -0.203 F 
ATOM     79  F   UNL A   1      39.867  35.367  36.940  1.00  0.00    -0.200 F 
ATOM     80  C   UNL A   1      38.510  33.614  37.755  1.00  0.00     0.200 A 
ATOM     81  F   UNL A   1      37.179  31.826  38.534  1.00  0.00    -0.200 F 
ATOM     82  F   UNL A   1      38.137  34.367  38.799  1.00  0.00    -0.200 F 
ENDBRANCH  48  72
BRANCH  60  83
ATOM     83  C   UNL A   1      44.771  27.876  34.363  1.00  0.00     0.064 A 
ATOM     84  C   UNL A   1      45.933  28.658  34.381  1.00  0.00     0.173 A 
ATOM     85  C   UNL A   1      44.715  26.755  35.205  1.00  0.00     0.173 A 
ATOM     86  F   UNL A   1      46.036  29.732  33.583  1.00  0.00    -0.203 F 
ATOM     87  C   UNL A   1      47.003  28.328  35.208  1.00  0.00     0.198 A 
ATOM     88  C   UNL A   1      45.777  26.442  36.047  1.00  0.00     0.198 A 
ATOM     89  F   UNL A   1      43.621  25.979  35.227  1.00  0.00    -0.203 F 
ATOM     90  F   UNL A   1      48.116  29.075  35.191  1.00  0.00    -0.200 F 
ATOM     91  C   UNL A   1      46.920  27.227  36.047  1.00  0.00     0.200 A 
ATOM     92  F   UNL A   1      45.691  25.385  36.868  1.00  0.00    -0.200 F 
ATOM     93  F   UNL A   1      47.944  26.920  36.855  1.00  0.00    -0.200 F 
ENDBRANCH  60  83
ENDBRANCH  34  35
ENDBRANCH  26  29
ENDBRANCH  24  25
ENDBRANCH   1  24
TORSDOF 11
ENDMDL
MODEL 3
REMARK VINA RESULT:     -13.5      3.654      8.604
REMARK SMILES Cc1c2c([nH]c(=O)c1C(=O)NCCCCNC(=O)c1ccc(-c3c4nc(c(-c5c(F)c(F)c(F)c(F)c5F)c5ccc([nH]5)c(-c5c(F)c(F)c(F)c(F)c5F)c5nc(c(-c6c(F)c(F)c(F)c(F)c6F)c6ccc3[nH]6)C=C5)C=C4)cc1)CC(C)(C)CC2=O
REMARK SMILES IDX 14 1 13 2 12 3 11 4 9 5 10 6 8 8 1 9 2 10 3 11 4 12 87 13
REMARK SMILES IDX 6 14 5 15 82 16 86 17 88 18 7 19 83 21 84 22 85 23 15 24
REMARK SMILES IDX 16 25 17 26 18 28 19 29 20 30 81 31 21 32 80 33 22 34 23 35
REMARK SMILES IDX 24 36 74 37 25 38 79 39 73 40 75 41 26 42 78 43 72 44 71 45
REMARK SMILES IDX 27 47 59 48 39 49 58 50 40 51 43 52 57 53 76 54 41 55 42 56
REMARK SMILES IDX 56 58 77 59 44 60 28 61 29 62 37 63 30 64 31 65 35 66 38 67
REMARK SMILES IDX 32 68 33 69 36 70 34 71 60 72 61 73 69 74 62 75 63 76 67 77
REMARK SMILES IDX 70 78 64 79 65 80 68 81 66 82 45 83 46 84 54 85 47 86 48 87
REMARK SMILES IDX 52 88 55 89 49 90 50 91 53 92 51 93
REMARK H PARENT 11 7 5 20 16 27 75 46 43 57
REMARK Flexibility Score: inf
ROOT
ATOM      1  C   UNL A   1      35.964  23.354  26.091  1.00  0.00     0.023 C 
ENDROOT
BRANCH   1   2
ATOM      2  C   UNL A   1      35.562  21.911  26.403  1.00  0.00     0.023 C 
BRANCH   2   3
ATOM      3  C   UNL A   1      34.279  21.723  27.201  1.00  0.00     0.116 C 
BRANCH   3   4
ATOM      4  N   UNL A   1      33.199  21.057  26.496  1.00  0.00    -0.352 N 
ATOM      5  C   UNL A   1      32.183  21.617  25.757  1.00  0.00     0.257 C 
ATOM      6  O   UNL A   1      31.470  20.888  25.074  1.00  0.00    -0.269 OA
ATOM      7  H   UNL A   1      33.194  20.075  26.552  1.00  0.00     0.163 HD
BRANCH   5   8
ATOM      8  C   UNL A   1      31.961  23.087  25.822  1.00  0.00     0.108 A 
ATOM      9  C   UNL A   1      33.161  23.534  23.646  1.00  0.00     0.046 C 
ATOM     10  C   UNL A   1      32.508  23.957  24.939  1.00  0.00    -0.020 A 
ATOM     11  C   UNL A   1      32.376  25.401  25.165  1.00  0.00     0.041 A 
ATOM     12  C   UNL A   1      31.420  25.868  25.988  1.00  0.00     0.030 A 
ATOM     13  C   UNL A   1      33.330  26.393  24.566  1.00  0.00     0.165 C 
ATOM     14  C   UNL A   1      30.970  23.619  26.813  1.00  0.00     0.261 A 
ATOM     15  N   UNL A   1      30.707  24.970  26.748  1.00  0.00    -0.325 N 
ATOM     16  C   UNL A   1      31.112  27.329  26.213  1.00  0.00     0.061 C 
ATOM     17  C   UNL A   1      32.939  27.851  24.567  1.00  0.00     0.088 C 
ATOM     18  O   UNL A   1      34.407  26.039  24.092  1.00  0.00    -0.294 OA
ATOM     19  O   UNL A   1      30.402  22.921  27.644  1.00  0.00    -0.269 OA
ATOM     20  H   UNL A   1      29.956  25.316  27.283  1.00  0.00     0.169 HD
ATOM     21  C   UNL A   1      32.289  28.274  25.891  1.00  0.00    -0.023 C 
ATOM     22  C   UNL A   1      33.317  28.248  27.042  1.00  0.00     0.012 C 
ATOM     23  C   UNL A   1      31.771  29.715  25.742  1.00  0.00     0.012 C 
ENDBRANCH   5   8
ENDBRANCH   3   4
ENDBRANCH   2   3
ENDBRANCH   1   2
BRANCH   1  24
ATOM     24  C   UNL A   1      37.154  23.553  25.156  1.00  0.00     0.116 C 
BRANCH  24  25
ATOM     25  N   UNL A   1      38.313  22.736  25.478  1.00  0.00    -0.352 N 
ATOM     26  C   UNL A   1      39.443  23.030  26.208  1.00  0.00     0.251 C 
ATOM     27  H   UNL A   1      38.285  21.821  25.113  1.00  0.00     0.163 HD
ATOM     28  O   UNL A   1      40.339  22.202  26.311  1.00  0.00    -0.269 OA
BRANCH  26  29
ATOM     29  C   UNL A   1      39.610  24.363  26.827  1.00  0.00     0.039 A 
ATOM     30  C   UNL A   1      39.144  24.555  28.131  1.00  0.00     0.014 A 
ATOM     31  C   UNL A   1      40.235  25.410  26.148  1.00  0.00     0.014 A 
ATOM     32  C   UNL A   1      39.403  25.758  28.790  1.00  0.00     0.010 A 
ATOM     33  C   UNL A   1      40.566  26.577  26.832  1.00  0.00     0.010 A 
ATOM     34  C   UNL A   1      40.168  26.757  28.166  1.00  0.00    -0.014 A 
BRANCH  34  35
ATOM     35  C   UNL A   1      40.581  27.982  28.898  1.00  0.00     0.031 A 
ATOM     36  C   UNL A   1      41.981  28.111  29.431  1.00  0.00     0.074 A 
ATOM     37  C   UNL A   1      39.675  28.948  29.146  1.00  0.00     0.049 A 
ATOM     38  N   UNL A   1      42.500  29.060  30.168  1.00  0.00    -0.248 NA
ATOM     39  C   UNL A   1      42.912  27.016  29.117  1.00  0.00     0.031 C 
ATOM     40  C   UNL A   1      38.272  28.921  28.727  1.00  0.00     0.029 A 
ATOM     41  N   UNL A   1      39.794  30.140  29.819  1.00  0.00    -0.354 N 
ATOM     42  C   UNL A   1      43.808  28.668  30.419  1.00  0.00     0.074 A 
ATOM     43  C   UNL A   1      43.991  27.375  29.797  1.00  0.00     0.031 C 
ATOM     44  C   UNL A   1      37.671  30.053  29.126  1.00  0.00     0.029 A 
ATOM     45  C   UNL A   1      38.632  30.871  29.861  1.00  0.00     0.049 A 
ATOM     46  H   UNL A   1      40.635  30.442  30.233  1.00  0.00     0.167 HD
ATOM     47  C   UNL A   1      44.777  29.340  31.085  1.00  0.00     0.037 A 
ATOM     48  C   UNL A   1      38.368  32.062  30.429  1.00  0.00     0.037 A 
ATOM     49  C   UNL A   1      44.607  30.645  31.666  1.00  0.00     0.049 A 
ATOM     50  C   UNL A   1      39.465  32.790  31.156  1.00  0.00     0.074 A 
ATOM     51  C   UNL A   1      45.550  31.430  32.307  1.00  0.00     0.029 A 
ATOM     52  N   UNL A   1      43.419  31.357  31.673  1.00  0.00    -0.354 N 
ATOM     53  N   UNL A   1      40.713  32.433  31.341  1.00  0.00    -0.248 NA
ATOM     54  C   UNL A   1      39.119  34.088  31.755  1.00  0.00     0.031 C 
ATOM     55  C   UNL A   1      44.924  32.607  32.728  1.00  0.00     0.029 A 
ATOM     56  C   UNL A   1      43.601  32.570  32.317  1.00  0.00     0.049 A 
ATOM     57  H   UNL A   1      42.572  31.048  31.277  1.00  0.00     0.167 HD
ATOM     58  C   UNL A   1      41.304  33.464  32.056  1.00  0.00     0.074 A 
ATOM     59  C   UNL A   1      40.283  34.471  32.261  1.00  0.00     0.031 C 
ATOM     60  C   UNL A   1      42.577  33.565  32.505  1.00  0.00     0.037 A 
BRANCH  47  61
ATOM     61  C   UNL A   1      46.122  28.687  31.202  1.00  0.00     0.064 A 
ATOM     62  C   UNL A   1      47.122  28.902  30.243  1.00  0.00     0.173 A 
ATOM     63  C   UNL A   1      46.436  27.893  32.315  1.00  0.00     0.173 A 
ATOM     64  F   UNL A   1      46.865  29.646  29.155  1.00  0.00    -0.203 F 
ATOM     65  C   UNL A   1      48.383  28.331  30.383  1.00  0.00     0.198 A 
ATOM     66  C   UNL A   1      47.706  27.344  32.465  1.00  0.00     0.198 A 
ATOM     67  F   UNL A   1      45.515  27.663  33.263  1.00  0.00    -0.203 F 
ATOM     68  F   UNL A   1      49.312  28.522  29.437  1.00  0.00    -0.200 F 
ATOM     69  C   UNL A   1      48.677  27.560  31.498  1.00  0.00     0.200 A 
ATOM     70  F   UNL A   1      47.993  26.609  33.549  1.00  0.00    -0.200 F 
ATOM     71  F   UNL A   1      49.896  27.022  31.639  1.00  0.00    -0.200 F 
ENDBRANCH  47  61
BRANCH  48  72
ATOM     72  C   UNL A   1      37.014  32.659  30.303  1.00  0.00     0.064 A 
ATOM     73  C   UNL A   1      36.062  32.493  31.319  1.00  0.00     0.173 A 
ATOM     74  C   UNL A   1      36.644  33.408  29.177  1.00  0.00     0.173 A 
ATOM     75  F   UNL A   1      36.363  31.767  32.405  1.00  0.00    -0.203 F 
ATOM     76  C   UNL A   1      34.786  33.043  31.207  1.00  0.00     0.198 A 
ATOM     77  C   UNL A   1      35.375  33.977  29.077  1.00  0.00     0.198 A 
ATOM     78  F   UNL A   1      37.518  33.597  28.178  1.00  0.00    -0.203 F 
ATOM     79  F   UNL A   1      33.885  32.839  32.177  1.00  0.00    -0.200 F 
ATOM     80  C   UNL A   1      34.446  33.790  30.089  1.00  0.00     0.200 A 
ATOM     81  F   UNL A   1      35.053  34.708  28.000  1.00  0.00    -0.200 F 
ATOM     82  F   UNL A   1      33.222  34.324  29.986  1.00  0.00    -0.200 F 
ENDBRANCH  48  72
BRANCH  60  83
ATOM     83  C   UNL A   1      42.954  34.811  33.249  1.00  0.00     0.064 A 
ATOM     84  C   UNL A   1      43.326  35.979  32.572  1.00  0.00     0.173 A 
ATOM     85  C   UNL A   1      42.864  34.858  34.649  1.00  0.00     0.173 A 
ATOM     86  F   UNL A   1      43.438  35.978  31.235  1.00  0.00    -0.203 F 
ATOM     87  C   UNL A   1      43.604  37.152  33.270  1.00  0.00     0.198 A 
ATOM     88  C   UNL A   1      43.120  36.037  35.341  1.00  0.00     0.198 A 
ATOM     89  F   UNL A   1      42.506  33.766  35.340  1.00  0.00    -0.203 F 
ATOM     90  F   UNL A   1      43.984  38.252  32.605  1.00  0.00    -0.200 F 
ATOM     91  C   UNL A   1      43.492  37.182  34.652  1.00  0.00     0.200 A 
ATOM     92  F   UNL A   1      42.997  36.069  36.675  1.00  0.00    -0.200 F 
ATOM     93  F   UNL A   1      43.742  38.316  35.322  1.00  0.00    -0.200 F 
ENDBRANCH  60  83
ENDBRANCH  34  35
ENDBRANCH  26  29
ENDBRANCH  24  25
ENDBRANCH   1  24
TORSDOF 11
ENDMDL
