MODEL 1
REMARK VINA RESULT:     -11.8      0.000      0.000
REMARK SMILES C[C@H]1OCC[C@H]1c1nnnn1CCC(=O)NCCCCNC(=O)c1ccc(-c2c3nc(c(-c4c(F)c(F)c(F)c(F)c4F)c4ccc([nH]4)c(-c4c(F)c(F)c(F)c(F)c4F)c4nc(c(-c5c(F)c(F)c(F)c(F)c5F)c5ccc2[nH]5)C=C4)C=C3)cc1
REMARK SMILES IDX 18 1 17 2 16 3 14 4 15 5 13 7 12 8 11 9 7 10 8 11 9 12 10 13
REMARK SMILES IDX 6 14 1 15 2 16 3 17 4 18 5 19 19 20 20 21 21 22 22 23 23 25
REMARK SMILES IDX 24 26 25 27 86 28 26 29 85 30 27 31 28 32 29 33 79 34 30 35
REMARK SMILES IDX 84 36 78 37 80 38 31 39 83 40 77 41 76 42 32 44 64 45 44 46
REMARK SMILES IDX 63 47 45 48 48 49 62 50 81 51 46 52 47 53 61 55 82 56 49 57
REMARK SMILES IDX 33 58 34 59 42 60 35 61 36 62 40 63 43 64 37 65 38 66 41 67
REMARK SMILES IDX 39 68 65 69 66 70 74 71 67 72 68 73 72 74 75 75 69 76 70 77
REMARK SMILES IDX 73 78 71 79 50 80 51 81 59 82 52 83 53 84 57 85 60 86 54 87
REMARK SMILES IDX 55 88 58 89 56 90
REMARK H PARENT 16 6 21 24 80 43 48 54
REMARK Flexibility Score: inf
ROOT
ATOM      1  C   UNL A   1      40.368  21.155  26.378  1.00  0.00     0.023 C 
ENDROOT
BRANCH   1   2
ATOM      2  C   UNL A   1      38.986  21.162  25.728  1.00  0.00     0.116 C 
BRANCH   2   3
ATOM      3  N   UNL A   1      38.208  22.297  26.195  1.00  0.00    -0.356 N 
ATOM      4  C   UNL A   1      37.304  23.062  25.519  1.00  0.00     0.221 C 
ATOM      5  O   UNL A   1      36.936  24.125  26.020  1.00  0.00    -0.275 OA
ATOM      6  H   UNL A   1      38.357  22.553  27.135  1.00  0.00     0.163 HD
BRANCH   4   7
ATOM      7  C   UNL A   1      36.717  22.587  24.208  1.00  0.00     0.124 C 
BRANCH   7   8
ATOM      8  C   UNL A   1      35.278  22.100  24.319  1.00  0.00     0.158 C 
BRANCH   8   9
ATOM      9  N   UNL A   1      34.299  22.894  23.613  1.00  0.00    -0.229 N 
ATOM     10  C   UNL A   1      33.079  23.390  24.011  1.00  0.00     0.157 A 
ATOM     11  N   UNL A   1      32.543  23.992  22.966  1.00  0.00    -0.113 NA
ATOM     12  N   UNL A   1      33.542  24.105  22.042  1.00  0.00    -0.024 NA
ATOM     13  N   UNL A   1      34.647  23.511  22.471  1.00  0.00    -0.045 NA
BRANCH  10  14
ATOM     14  C   UNL A   1      32.601  23.488  25.421  1.00  0.00     0.090 C 
ATOM     15  C   UNL A   1      33.983  25.735  25.399  1.00  0.00     0.039 C 
ATOM     16  C   UNL A   1      32.899  24.875  26.044  1.00  0.00     0.126 C 
ATOM     17  O   UNL A   1      31.677  25.641  26.025  1.00  0.00    -0.378 OA
ATOM     18  C   UNL A   1      30.684  24.887  25.324  1.00  0.00     0.161 C 
ATOM     19  C   UNL A   1      31.079  23.438  25.520  1.00  0.00     0.043 C 
ENDBRANCH  10  14
ENDBRANCH   8   9
ENDBRANCH   7   8
ENDBRANCH   4   7
ENDBRANCH   2   3
ENDBRANCH   1   2
BRANCH   1  20
ATOM     20  C   UNL A   1      41.143  19.844  26.437  1.00  0.00     0.023 C 
BRANCH  20  21
ATOM     21  C   UNL A   1      42.596  20.012  26.819  1.00  0.00     0.116 C 
BRANCH  21  22
ATOM     22  N   UNL A   1      43.528  19.500  25.818  1.00  0.00    -0.352 N 
ATOM     23  C   UNL A   1      44.198  20.248  24.859  1.00  0.00     0.251 C 
ATOM     24  H   UNL A   1      43.699  18.530  25.823  1.00  0.00     0.163 HD
ATOM     25  O   UNL A   1      44.682  19.765  23.863  1.00  0.00    -0.269 OA
BRANCH  23  26
ATOM     26  C   UNL A   1      44.298  21.694  25.129  1.00  0.00     0.039 A 
ATOM     27  C   UNL A   1      43.367  22.587  24.601  1.00  0.00     0.014 A 
ATOM     28  C   UNL A   1      45.229  22.081  26.089  1.00  0.00     0.014 A 
ATOM     29  C   UNL A   1      43.309  23.870  25.139  1.00  0.00     0.010 A 
ATOM     30  C   UNL A   1      45.065  23.291  26.717  1.00  0.00     0.010 A 
ATOM     31  C   UNL A   1      44.131  24.203  26.230  1.00  0.00    -0.014 A 
BRANCH  31  32
ATOM     32  C   UNL A   1      43.911  25.448  26.965  1.00  0.00     0.031 A 
ATOM     33  C   UNL A   1      44.877  26.542  26.649  1.00  0.00     0.074 A 
ATOM     34  C   UNL A   1      42.810  25.673  27.717  1.00  0.00     0.049 A 
ATOM     35  N   UNL A   1      45.750  27.074  27.442  1.00  0.00    -0.248 NA
ATOM     36  C   UNL A   1      44.976  27.021  25.260  1.00  0.00     0.031 C 
ATOM     37  C   UNL A   1      41.628  24.817  27.877  1.00  0.00     0.029 A 
ATOM     38  N   UNL A   1      42.471  26.779  28.436  1.00  0.00    -0.354 N 
ATOM     39  C   UNL A   1      46.380  28.083  26.714  1.00  0.00     0.074 A 
ATOM     40  C   UNL A   1      45.983  27.895  25.344  1.00  0.00     0.031 C 
ATOM     41  C   UNL A   1      40.622  25.525  28.435  1.00  0.00     0.029 A 
ATOM     42  C   UNL A   1      41.143  26.812  28.847  1.00  0.00     0.049 A 
ATOM     43  H   UNL A   1      43.113  27.495  28.647  1.00  0.00     0.167 HD
ATOM     44  C   UNL A   1      46.981  29.126  27.352  1.00  0.00     0.037 A 
ATOM     45  C   UNL A   1      40.511  27.828  29.483  1.00  0.00     0.037 A 
ATOM     46  C   UNL A   1      47.204  28.810  28.741  1.00  0.00     0.049 A 
ATOM     47  C   UNL A   1      41.559  28.672  30.100  1.00  0.00     0.074 A 
ATOM     48  C   UNL A   1      47.951  27.879  29.432  1.00  0.00     0.029 A 
ATOM     49  N   UNL A   1      46.284  29.295  29.636  1.00  0.00    -0.354 N 
ATOM     50  N   UNL A   1      42.323  28.279  31.080  1.00  0.00    -0.248 NA
ATOM     51  C   UNL A   1      42.047  29.810  29.341  1.00  0.00     0.031 C 
ATOM     52  C   UNL A   1      47.154  27.528  30.563  1.00  0.00     0.029 A 
ATOM     53  C   UNL A   1      45.999  28.311  30.542  1.00  0.00     0.049 A 
ATOM     54  H   UNL A   1      45.896  30.199  29.628  1.00  0.00     0.167 HD
ATOM     55  C   UNL A   1      43.567  28.811  30.784  1.00  0.00     0.074 A 
ATOM     56  C   UNL A   1      43.308  29.839  29.779  1.00  0.00     0.031 C 
ATOM     57  C   UNL A   1      44.707  28.166  31.173  1.00  0.00     0.037 A 
BRANCH  44  58
ATOM     58  C   UNL A   1      46.974  30.565  26.866  1.00  0.00     0.064 A 
ATOM     59  C   UNL A   1      48.168  31.317  26.952  1.00  0.00     0.173 A 
ATOM     60  C   UNL A   1      45.804  31.322  26.646  1.00  0.00     0.173 A 
ATOM     61  F   UNL A   1      49.346  30.709  27.162  1.00  0.00    -0.203 F 
ATOM     62  C   UNL A   1      48.169  32.714  26.935  1.00  0.00     0.198 A 
ATOM     63  C   UNL A   1      45.817  32.717  26.579  1.00  0.00     0.198 A 
ATOM     64  F   UNL A   1      44.589  30.767  26.598  1.00  0.00    -0.203 F 
ATOM     65  F   UNL A   1      49.307  33.382  27.168  1.00  0.00    -0.200 F 
ATOM     66  C   UNL A   1      46.991  33.414  26.761  1.00  0.00     0.200 A 
ATOM     67  F   UNL A   1      44.661  33.376  26.426  1.00  0.00    -0.200 F 
ATOM     68  F   UNL A   1      46.977  34.752  26.819  1.00  0.00    -0.200 F 
ENDBRANCH  44  58
BRANCH  45  69
ATOM     69  C   UNL A   1      39.105  28.278  29.353  1.00  0.00     0.064 A 
ATOM     70  C   UNL A   1      38.289  28.435  30.484  1.00  0.00     0.173 A 
ATOM     71  C   UNL A   1      38.636  28.852  28.155  1.00  0.00     0.173 A 
ATOM     72  F   UNL A   1      38.683  27.953  31.672  1.00  0.00    -0.203 F 
ATOM     73  C   UNL A   1      37.091  29.156  30.430  1.00  0.00     0.198 A 
ATOM     74  C   UNL A   1      37.439  29.568  28.103  1.00  0.00     0.198 A 
ATOM     75  F   UNL A   1      39.379  28.815  27.039  1.00  0.00    -0.203 F 
ATOM     76  F   UNL A   1      36.373  29.344  31.547  1.00  0.00    -0.200 F 
ATOM     77  C   UNL A   1      36.675  29.735  29.243  1.00  0.00     0.200 A 
ATOM     78  F   UNL A   1      37.066  30.155  26.956  1.00  0.00    -0.200 F 
ATOM     79  F   UNL A   1      35.565  30.484  29.207  1.00  0.00    -0.200 F 
ENDBRANCH  45  69
BRANCH  57  80
ATOM     80  C   UNL A   1      44.571  27.074  32.199  1.00  0.00     0.064 A 
ATOM     81  C   UNL A   1      44.409  25.711  31.901  1.00  0.00     0.173 A 
ATOM     82  C   UNL A   1      44.736  27.422  33.547  1.00  0.00     0.173 A 
ATOM     83  F   UNL A   1      44.335  25.282  30.636  1.00  0.00    -0.203 F 
ATOM     84  C   UNL A   1      44.371  24.748  32.911  1.00  0.00     0.198 A 
ATOM     85  C   UNL A   1      44.737  26.457  34.549  1.00  0.00     0.198 A 
ATOM     86  F   UNL A   1      44.944  28.703  33.890  1.00  0.00    -0.203 F 
ATOM     87  F   UNL A   1      44.198  23.455  32.601  1.00  0.00    -0.200 F 
ATOM     88  C   UNL A   1      44.543  25.123  34.232  1.00  0.00     0.200 A 
ATOM     89  F   UNL A   1      44.950  26.819  35.821  1.00  0.00    -0.200 F 
ATOM     90  F   UNL A   1      44.545  24.195  35.200  1.00  0.00    -0.200 F 
ENDBRANCH  57  80
ENDBRANCH  31  32
ENDBRANCH  23  26
ENDBRANCH  21  22
ENDBRANCH  20  21
ENDBRANCH   1  20
TORSDOF 14
ENDMDL
MODEL 2
REMARK VINA RESULT:     -11.6      2.914      8.713
REMARK SMILES C[C@H]1OCC[C@H]1c1nnnn1CCC(=O)NCCCCNC(=O)c1ccc(-c2c3nc(c(-c4c(F)c(F)c(F)c(F)c4F)c4ccc([nH]4)c(-c4c(F)c(F)c(F)c(F)c4F)c4nc(c(-c5c(F)c(F)c(F)c(F)c5F)c5ccc2[nH]5)C=C4)C=C3)cc1
REMARK SMILES IDX 18 1 17 2 16 3 14 4 15 5 13 7 12 8 11 9 7 10 8 11 9 12 10 13
REMARK SMILES IDX 6 14 1 15 2 16 3 17 4 18 5 19 19 20 20 21 21 22 22 23 23 25
REMARK SMILES IDX 24 26 25 27 86 28 26 29 85 30 27 31 28 32 29 33 79 34 30 35
REMARK SMILES IDX 84 36 78 37 80 38 31 39 83 40 77 41 76 42 32 44 64 45 44 46
REMARK SMILES IDX 63 47 45 48 48 49 62 50 81 51 46 52 47 53 61 55 82 56 49 57
REMARK SMILES IDX 33 58 34 59 42 60 35 61 36 62 40 63 43 64 37 65 38 66 41 67
REMARK SMILES IDX 39 68 65 69 66 70 74 71 67 72 68 73 72 74 75 75 69 76 70 77
REMARK SMILES IDX 73 78 71 79 50 80 51 81 59 82 52 83 53 84 57 85 60 86 54 87
REMARK SMILES IDX 55 88 58 89 56 90
REMARK H PARENT 16 6 21 24 80 43 48 54
REMARK Flexibility Score: inf
ROOT
ATOM      1  C   UNL A   1      33.306  28.548  27.246  1.00  0.00     0.023 C 
ENDROOT
BRANCH   1   2
ATOM      2  C   UNL A   1      32.927  27.660  26.063  1.00  0.00     0.116 C 
BRANCH   2   3
ATOM      3  N   UNL A   1      31.935  26.676  26.462  1.00  0.00    -0.356 N 
ATOM      4  C   UNL A   1      30.747  26.359  25.875  1.00  0.00     0.221 C 
ATOM      5  O   UNL A   1      29.941  25.671  26.501  1.00  0.00    -0.275 OA
ATOM      6  H   UNL A   1      32.152  26.164  27.276  1.00  0.00     0.163 HD
BRANCH   4   7
ATOM      7  C   UNL A   1      30.445  26.793  24.457  1.00  0.00     0.124 C 
BRANCH   7   8
ATOM      8  C   UNL A   1      30.650  25.696  23.421  1.00  0.00     0.158 C 
BRANCH   8   9
ATOM      9  N   UNL A   1      31.932  25.705  22.753  1.00  0.00    -0.229 N 
ATOM     10  C   UNL A   1      33.162  25.235  23.150  1.00  0.00     0.157 A 
ATOM     11  N   UNL A   1      34.025  25.551  22.203  1.00  0.00    -0.113 NA
ATOM     12  N   UNL A   1      33.279  25.950  21.131  1.00  0.00    -0.024 NA
ATOM     13  N   UNL A   1      31.988  25.960  21.435  1.00  0.00    -0.045 NA
BRANCH  10  14
ATOM     14  C   UNL A   1      33.406  24.290  24.280  1.00  0.00     0.090 C 
ATOM     15  C   UNL A   1      32.807  22.468  22.469  1.00  0.00     0.039 C 
ATOM     16  C   UNL A   1      33.451  22.815  23.809  1.00  0.00     0.126 C 
ATOM     17  O   UNL A   1      34.835  22.415  23.735  1.00  0.00    -0.378 OA
ATOM     18  C   UNL A   1      35.649  23.561  23.997  1.00  0.00     0.161 C 
ATOM     19  C   UNL A   1      34.801  24.454  24.878  1.00  0.00     0.043 C 
ENDBRANCH  10  14
ENDBRANCH   8   9
ENDBRANCH   7   8
ENDBRANCH   4   7
ENDBRANCH   2   3
ENDBRANCH   1   2
BRANCH   1  20
ATOM     20  C   UNL A   1      32.840  29.999  27.252  1.00  0.00     0.023 C 
BRANCH  20  21
ATOM     21  C   UNL A   1      33.969  31.003  27.251  1.00  0.00     0.116 C 
BRANCH  21  22
ATOM     22  N   UNL A   1      33.990  31.865  28.430  1.00  0.00    -0.352 N 
ATOM     23  C   UNL A   1      34.944  31.855  29.439  1.00  0.00     0.251 C 
ATOM     24  H   UNL A   1      33.257  32.516  28.518  1.00  0.00     0.163 HD
ATOM     25  O   UNL A   1      34.753  32.330  30.534  1.00  0.00    -0.269 OA
BRANCH  23  26
ATOM     26  C   UNL A   1      36.234  31.230  29.096  1.00  0.00     0.039 A 
ATOM     27  C   UNL A   1      37.422  31.957  29.164  1.00  0.00     0.014 A 
ATOM     28  C   UNL A   1      36.223  29.850  28.909  1.00  0.00     0.014 A 
ATOM     29  C   UNL A   1      38.624  31.254  29.152  1.00  0.00     0.010 A 
ATOM     30  C   UNL A   1      37.399  29.156  29.052  1.00  0.00     0.010 A 
ATOM     31  C   UNL A   1      38.605  29.847  29.142  1.00  0.00    -0.014 A 
BRANCH  31  32
ATOM     32  C   UNL A   1      39.835  29.092  29.381  1.00  0.00     0.031 A 
ATOM     33  C   UNL A   1      40.174  28.887  30.821  1.00  0.00     0.074 A 
ATOM     34  C   UNL A   1      40.508  28.454  28.398  1.00  0.00     0.049 A 
ATOM     35  N   UNL A   1      41.193  29.357  31.464  1.00  0.00    -0.248 NA
ATOM     36  C   UNL A   1      39.210  28.182  31.683  1.00  0.00     0.031 C 
ATOM     37  C   UNL A   1      40.133  28.304  26.987  1.00  0.00     0.029 A 
ATOM     38  N   UNL A   1      41.646  27.710  28.479  1.00  0.00    -0.354 N 
ATOM     39  C   UNL A   1      41.106  28.856  32.761  1.00  0.00     0.074 A 
ATOM     40  C   UNL A   1      39.792  28.280  32.881  1.00  0.00     0.031 C 
ATOM     41  C   UNL A   1      40.883  27.338  26.413  1.00  0.00     0.029 A 
ATOM     42  C   UNL A   1      41.913  26.942  27.351  1.00  0.00     0.049 A 
ATOM     43  H   UNL A   1      42.233  27.716  29.271  1.00  0.00     0.167 HD
ATOM     44  C   UNL A   1      42.219  28.749  33.541  1.00  0.00     0.037 A 
ATOM     45  C   UNL A   1      42.910  26.039  27.195  1.00  0.00     0.037 A 
ATOM     46  C   UNL A   1      43.288  29.557  33.008  1.00  0.00     0.049 A 
ATOM     47  C   UNL A   1      43.944  26.357  28.206  1.00  0.00     0.074 A 
ATOM     48  C   UNL A   1      43.493  30.904  32.794  1.00  0.00     0.029 A 
ATOM     49  N   UNL A   1      44.228  28.907  32.249  1.00  0.00    -0.354 N 
ATOM     50  N   UNL A   1      44.664  27.442  28.191  1.00  0.00    -0.248 NA
ATOM     51  C   UNL A   1      43.881  25.664  29.481  1.00  0.00     0.031 C 
ATOM     52  C   UNL A   1      44.239  30.979  31.580  1.00  0.00     0.029 A 
ATOM     53  C   UNL A   1      44.511  29.677  31.154  1.00  0.00     0.049 A 
ATOM     54  H   UNL A   1      44.632  28.034  32.458  1.00  0.00     0.167 HD
ATOM     55  C   UNL A   1      44.768  27.809  29.522  1.00  0.00     0.074 A 
ATOM     56  C   UNL A   1      44.378  26.617  30.272  1.00  0.00     0.031 C 
ATOM     57  C   UNL A   1      44.883  29.124  29.872  1.00  0.00     0.037 A 
BRANCH  44  58
ATOM     58  C   UNL A   1      42.501  27.613  34.507  1.00  0.00     0.064 A 
ATOM     59  C   UNL A   1      43.019  26.400  33.997  1.00  0.00     0.173 A 
ATOM     60  C   UNL A   1      41.983  27.538  35.817  1.00  0.00     0.173 A 
ATOM     61  F   UNL A   1      43.537  26.343  32.760  1.00  0.00    -0.203 F 
ATOM     62  C   UNL A   1      42.917  25.195  34.698  1.00  0.00     0.198 A 
ATOM     63  C   UNL A   1      41.930  26.341  36.534  1.00  0.00     0.198 A 
ATOM     64  F   UNL A   1      41.405  28.582  36.420  1.00  0.00    -0.203 F 
ATOM     65  F   UNL A   1      43.289  24.049  34.111  1.00  0.00    -0.200 F 
ATOM     66  C   UNL A   1      42.361  25.164  35.962  1.00  0.00     0.200 A 
ATOM     67  F   UNL A   1      41.371  26.331  37.752  1.00  0.00    -0.200 F 
ATOM     68  F   UNL A   1      42.194  24.003  36.606  1.00  0.00    -0.200 F 
ENDBRANCH  44  58
BRANCH  45  69
ATOM     69  C   UNL A   1      42.904  24.763  26.443  1.00  0.00     0.064 A 
ATOM     70  C   UNL A   1      43.781  24.555  25.365  1.00  0.00     0.173 A 
ATOM     71  C   UNL A   1      42.257  23.621  26.955  1.00  0.00     0.173 A 
ATOM     72  F   UNL A   1      44.466  25.583  24.845  1.00  0.00    -0.203 F 
ATOM     73  C   UNL A   1      44.025  23.275  24.856  1.00  0.00     0.198 A 
ATOM     74  C   UNL A   1      42.500  22.346  26.443  1.00  0.00     0.198 A 
ATOM     75  F   UNL A   1      41.456  23.710  28.027  1.00  0.00    -0.203 F 
ATOM     76  F   UNL A   1      44.922  23.107  23.873  1.00  0.00    -0.200 F 
ATOM     77  C   UNL A   1      43.396  22.170  25.405  1.00  0.00     0.200 A 
ATOM     78  F   UNL A   1      41.914  21.280  27.009  1.00  0.00    -0.200 F 
ATOM     79  F   UNL A   1      43.684  20.938  24.965  1.00  0.00    -0.200 F 
ENDBRANCH  45  69
BRANCH  57  80
ATOM     80  C   UNL A   1      45.229  30.104  28.785  1.00  0.00     0.064 A 
ATOM     81  C   UNL A   1      44.291  30.753  27.964  1.00  0.00     0.173 A 
ATOM     82  C   UNL A   1      46.571  30.490  28.657  1.00  0.00     0.173 A 
ATOM     83  F   UNL A   1      42.981  30.512  28.084  1.00  0.00    -0.203 F 
ATOM     84  C   UNL A   1      44.687  31.712  27.030  1.00  0.00     0.198 A 
ATOM     85  C   UNL A   1      46.958  31.474  27.752  1.00  0.00     0.198 A 
ATOM     86  F   UNL A   1      47.505  29.941  29.448  1.00  0.00    -0.203 F 
ATOM     87  F   UNL A   1      43.774  32.304  26.246  1.00  0.00    -0.200 F 
ATOM     88  C   UNL A   1      46.019  32.075  26.931  1.00  0.00     0.200 A 
ATOM     89  F   UNL A   1      48.241  31.855  27.694  1.00  0.00    -0.200 F 
ATOM     90  F   UNL A   1      46.395  33.023  26.061  1.00  0.00    -0.200 F 
ENDBRANCH  57  80
ENDBRANCH  31  32
ENDBRANCH  23  26
ENDBRANCH  21  22
ENDBRANCH  20  21
ENDBRANCH   1  20
TORSDOF 14
ENDMDL
MODEL 3
REMARK VINA RESULT:     -11.5      4.531      9.967
REMARK SMILES C[C@H]1OCC[C@H]1c1nnnn1CCC(=O)NCCCCNC(=O)c1ccc(-c2c3nc(c(-c4c(F)c(F)c(F)c(F)c4F)c4ccc([nH]4)c(-c4c(F)c(F)c(F)c(F)c4F)c4nc(c(-c5c(F)c(F)c(F)c(F)c5F)c5ccc2[nH]5)C=C4)C=C3)cc1
REMARK SMILES IDX 18 1 17 2 16 3 14 4 15 5 13 7 12 8 11 9 7 10 8 11 9 12 10 13
REMARK SMILES IDX 6 14 1 15 2 16 3 17 4 18 5 19 19 20 20 21 21 22 22 23 23 25
REMARK SMILES IDX 24 26 25 27 86 28 26 29 85 30 27 31 28 32 29 33 79 34 30 35
REMARK SMILES IDX 84 36 78 37 80 38 31 39 83 40 77 41 76 42 32 44 64 45 44 46
REMARK SMILES IDX 63 47 45 48 48 49 62 50 81 51 46 52 47 53 61 55 82 56 49 57
REMARK SMILES IDX 33 58 34 59 42 60 35 61 36 62 40 63 43 64 37 65 38 66 41 67
REMARK SMILES IDX 39 68 65 69 66 70 74 71 67 72 68 73 72 74 75 75 69 76 70 77
REMARK SMILES IDX 73 78 71 79 50 80 51 81 59 82 52 83 53 84 57 85 60 86 54 87
REMARK SMILES IDX 55 88 58 89 56 90
REMARK H PARENT 16 6 21 24 80 43 48 54
REMARK Flexibility Score: inf
ROOT
ATOM      1  C   UNL A   1      34.369  33.135  28.329  1.00  0.00     0.023 C 
ENDROOT
BRANCH   1   2
ATOM      2  C   UNL A   1      33.729  31.890  27.719  1.00  0.00     0.116 C 
BRANCH   2   3
ATOM      3  N   UNL A   1      34.745  30.905  27.387  1.00  0.00    -0.356 N 
ATOM      4  C   UNL A   1      34.643  29.548  27.314  1.00  0.00     0.221 C 
ATOM      5  O   UNL A   1      35.674  28.878  27.256  1.00  0.00    -0.275 OA
ATOM      6  H   UNL A   1      35.638  31.272  27.187  1.00  0.00     0.163 HD
BRANCH   4   7
ATOM      7  C   UNL A   1      33.287  28.878  27.245  1.00  0.00     0.124 C 
BRANCH   7   8
ATOM      8  C   UNL A   1      33.312  27.509  26.578  1.00  0.00     0.158 C 
BRANCH   8   9
ATOM      9  N   UNL A   1      32.023  26.986  26.189  1.00  0.00    -0.229 N 
ATOM     10  C   UNL A   1      31.155  27.368  25.191  1.00  0.00     0.157 A 
ATOM     11  N   UNL A   1      30.079  26.612  25.299  1.00  0.00    -0.113 NA
ATOM     12  N   UNL A   1      30.410  25.606  26.161  1.00  0.00    -0.024 NA
ATOM     13  N   UNL A   1      31.633  25.782  26.641  1.00  0.00    -0.045 NA
BRANCH  10  14
ATOM     14  C   UNL A   1      31.496  28.250  24.036  1.00  0.00     0.090 C 
ATOM     15  C   UNL A   1      31.862  25.950  22.796  1.00  0.00     0.039 C 
ATOM     16  C   UNL A   1      31.623  27.456  22.712  1.00  0.00     0.126 C 
ATOM     17  O   UNL A   1      30.409  27.655  21.959  1.00  0.00    -0.378 OA
ATOM     18  C   UNL A   1      29.495  28.401  22.766  1.00  0.00     0.161 C 
ATOM     19  C   UNL A   1      30.367  29.219  23.695  1.00  0.00     0.043 C 
ENDBRANCH  10  14
ENDBRANCH   8   9
ENDBRANCH   7   8
ENDBRANCH   4   7
ENDBRANCH   2   3
ENDBRANCH   1   2
BRANCH   1  20
ATOM     20  C   UNL A   1      33.486  34.342  28.623  1.00  0.00     0.023 C 
BRANCH  20  21
ATOM     21  C   UNL A   1      34.143  35.378  29.506  1.00  0.00     0.116 C 
BRANCH  21  22
ATOM     22  N   UNL A   1      33.308  35.811  30.624  1.00  0.00    -0.352 N 
ATOM     23  C   UNL A   1      33.244  35.221  31.879  1.00  0.00     0.251 C 
ATOM     24  H   UNL A   1      32.734  36.596  30.473  1.00  0.00     0.163 HD
ATOM     25  O   UNL A   1      32.323  35.390  32.643  1.00  0.00    -0.269 OA
BRANCH  23  26
ATOM     26  C   UNL A   1      34.388  34.366  32.245  1.00  0.00     0.039 A 
ATOM     27  C   UNL A   1      34.323  32.981  32.098  1.00  0.00     0.014 A 
ATOM     28  C   UNL A   1      35.581  35.020  32.540  1.00  0.00     0.014 A 
ATOM     29  C   UNL A   1      35.512  32.259  32.141  1.00  0.00     0.010 A 
ATOM     30  C   UNL A   1      36.760  34.325  32.429  1.00  0.00     0.010 A 
ATOM     31  C   UNL A   1      36.736  32.943  32.262  1.00  0.00    -0.014 A 
BRANCH  31  32
ATOM     32  C   UNL A   1      37.998  32.234  32.059  1.00  0.00     0.031 A 
ATOM     33  C   UNL A   1      38.769  31.957  33.307  1.00  0.00     0.074 A 
ATOM     34  C   UNL A   1      38.353  31.689  30.873  1.00  0.00     0.049 A 
ATOM     35  N   UNL A   1      39.925  32.433  33.640  1.00  0.00    -0.248 NA
ATOM     36  C   UNL A   1      38.136  31.155  34.368  1.00  0.00     0.031 C 
ATOM     37  C   UNL A   1      37.565  31.609  29.637  1.00  0.00     0.029 A 
ATOM     38  N   UNL A   1      39.479  30.996  30.548  1.00  0.00    -0.354 N 
ATOM     39  C   UNL A   1      40.255  31.850  34.862  1.00  0.00     0.074 A 
ATOM     40  C   UNL A   1      39.057  31.207  35.335  1.00  0.00     0.031 C 
ATOM     41  C   UNL A   1      38.126  30.717  28.792  1.00  0.00     0.029 A 
ATOM     42  C   UNL A   1      39.405  30.312  29.340  1.00  0.00     0.049 A 
ATOM     43  H   UNL A   1      40.281  30.981  31.121  1.00  0.00     0.167 HD
ATOM     44  C   UNL A   1      41.556  31.748  35.254  1.00  0.00     0.037 A 
ATOM     45  C   UNL A   1      40.329  29.469  28.821  1.00  0.00     0.037 A 
ATOM     46  C   UNL A   1      42.388  32.636  34.481  1.00  0.00     0.049 A 
ATOM     47  C   UNL A   1      41.615  29.772  29.488  1.00  0.00     0.074 A 
ATOM     48  C   UNL A   1      42.481  34.003  34.314  1.00  0.00     0.029 A 
ATOM     49  N   UNL A   1      43.065  32.080  33.426  1.00  0.00    -0.354 N 
ATOM     50  N   UNL A   1      42.267  30.890  29.333  1.00  0.00    -0.248 NA
ATOM     51  C   UNL A   1      41.967  29.000  30.667  1.00  0.00     0.031 C 
ATOM     52  C   UNL A   1      42.815  34.187  32.938  1.00  0.00     0.029 A 
ATOM     53  C   UNL A   1      42.976  32.929  32.356  1.00  0.00     0.049 A 
ATOM     54  H   UNL A   1      43.536  31.216  33.437  1.00  0.00     0.167 HD
ATOM     55  C   UNL A   1      42.767  31.178  30.592  1.00  0.00     0.074 A 
ATOM     56  C   UNL A   1      42.658  29.926  31.336  1.00  0.00     0.031 C 
ATOM     57  C   UNL A   1      42.949  32.474  30.985  1.00  0.00     0.037 A 
BRANCH  44  58
ATOM     58  C   UNL A   1      42.151  30.569  36.003  1.00  0.00     0.064 A 
ATOM     59  C   UNL A   1      43.095  30.820  37.025  1.00  0.00     0.173 A 
ATOM     60  C   UNL A   1      42.099  29.234  35.550  1.00  0.00     0.173 A 
ATOM     61  F   UNL A   1      43.240  32.052  37.536  1.00  0.00    -0.203 F 
ATOM     62  C   UNL A   1      43.988  29.840  37.468  1.00  0.00     0.198 A 
ATOM     63  C   UNL A   1      42.959  28.246  36.033  1.00  0.00     0.198 A 
ATOM     64  F   UNL A   1      41.302  28.846  34.550  1.00  0.00    -0.203 F 
ATOM     65  F   UNL A   1      44.960  30.166  38.331  1.00  0.00    -0.200 F 
ATOM     66  C   UNL A   1      43.928  28.556  36.962  1.00  0.00     0.200 A 
ATOM     67  F   UNL A   1      42.895  27.011  35.516  1.00  0.00    -0.200 F 
ATOM     68  F   UNL A   1      44.828  27.635  37.328  1.00  0.00    -0.200 F 
ENDBRANCH  44  58
BRANCH  45  69
ATOM     69  C   UNL A   1      40.125  28.243  28.015  1.00  0.00     0.064 A 
ATOM     70  C   UNL A   1      40.827  28.040  26.816  1.00  0.00     0.173 A 
ATOM     71  C   UNL A   1      39.471  27.119  28.557  1.00  0.00     0.173 A 
ATOM     72  F   UNL A   1      41.510  29.049  26.256  1.00  0.00    -0.203 F 
ATOM     73  C   UNL A   1      40.904  26.779  26.215  1.00  0.00     0.198 A 
ATOM     74  C   UNL A   1      39.546  25.863  27.954  1.00  0.00     0.198 A 
ATOM     75  F   UNL A   1      38.834  27.198  29.735  1.00  0.00    -0.203 F 
ATOM     76  F   UNL A   1      41.642  26.609  25.108  1.00  0.00    -0.200 F 
ATOM     77  C   UNL A   1      40.276  25.688  26.793  1.00  0.00     0.200 A 
ATOM     78  F   UNL A   1      38.965  24.807  28.544  1.00  0.00    -0.200 F 
ATOM     79  F   UNL A   1      40.407  24.468  26.257  1.00  0.00    -0.200 F 
ENDBRANCH  45  69
BRANCH  57  80
ATOM     80  C   UNL A   1      42.918  33.534  29.918  1.00  0.00     0.064 A 
ATOM     81  C   UNL A   1      41.787  34.297  29.581  1.00  0.00     0.173 A 
ATOM     82  C   UNL A   1      44.129  33.871  29.297  1.00  0.00     0.173 A 
ATOM     83  F   UNL A   1      40.613  34.103  30.193  1.00  0.00    -0.203 F 
ATOM     84  C   UNL A   1      41.860  35.319  28.634  1.00  0.00     0.198 A 
ATOM     85  C   UNL A   1      44.207  34.915  28.382  1.00  0.00     0.198 A 
ATOM     86  F   UNL A   1      45.253  33.209  29.615  1.00  0.00    -0.203 F 
ATOM     87  F   UNL A   1      40.762  36.022  28.317  1.00  0.00    -0.200 F 
ATOM     88  C   UNL A   1      43.071  35.631  28.042  1.00  0.00     0.200 A 
ATOM     89  F   UNL A   1      45.391  35.243  27.847  1.00  0.00    -0.200 F 
ATOM     90  F   UNL A   1      43.150  36.638  27.160  1.00  0.00    -0.200 F 
ENDBRANCH  57  80
ENDBRANCH  31  32
ENDBRANCH  23  26
ENDBRANCH  21  22
ENDBRANCH  20  21
ENDBRANCH   1  20
TORSDOF 14
ENDMDL
