MODEL 1
REMARK VINA RESULT:     -11.9      0.000      0.000
REMARK SMILES CCn1cnc(S(=O)(=O)N[C@H](Cc2cnc[nH]2)C(=O)NCCCCNC(=O)c2ccc(-c3c4nc(c(-c5c(F)c(F)c(F)c(F)c5F)c5ccc([nH]5)c(-c5c(F)c(F)c(F)c(F)c5F)c5nc(c(-c6c(F)c(F)c(F)c(F)c6F)c6ccc3[nH]6)C=C5)C=C4)cc2)c1
REMARK SMILES IDX 21 1 20 2 18 3 19 4 11 6 10 7 7 9 8 10 9 11 6 12 3 13 4 14
REMARK SMILES IDX 91 15 5 16 2 17 1 18 12 19 13 20 14 21 17 22 15 23 16 24
REMARK SMILES IDX 22 26 23 27 24 28 25 29 26 30 27 32 28 33 29 34 90 35 30 36
REMARK SMILES IDX 89 37 31 38 32 39 33 40 83 41 34 42 88 43 82 44 84 45 35 46
REMARK SMILES IDX 87 47 81 48 80 49 36 51 68 52 48 53 67 54 49 55 52 56 66 57
REMARK SMILES IDX 85 58 50 59 51 60 65 62 86 63 53 64 37 65 38 66 46 67 39 68
REMARK SMILES IDX 40 69 44 70 47 71 41 72 42 73 45 74 43 75 69 76 70 77 78 78
REMARK SMILES IDX 71 79 72 80 76 81 79 82 73 83 74 84 77 85 75 86 54 87 55 88
REMARK SMILES IDX 63 89 56 90 57 91 61 92 64 93 58 94 59 95 62 96 60 97
REMARK H PARENT 20 5 10 8 17 25 25 31 84 50 52 61
REMARK Flexibility Score: inf
ROOT
ATOM      1  C   UNL A   1      33.040  30.067  26.517  1.00  0.00     0.116 C 
ENDROOT
BRANCH   1   2
ATOM      2  N   UNL A   1      33.795  29.574  25.377  1.00  0.00    -0.355 N 
ATOM      3  C   UNL A   1      33.650  28.473  24.593  1.00  0.00     0.238 C 
ATOM      4  O   UNL A   1      34.308  28.479  23.542  1.00  0.00    -0.273 OA
ATOM      5  H   UNL A   1      34.555  30.147  25.123  1.00  0.00     0.163 HD
BRANCH   3   6
ATOM      6  C   UNL A   1      32.759  27.272  24.914  1.00  0.00     0.165 C 
BRANCH   6   7
ATOM      7  N   UNL A   1      31.288  27.439  24.829  1.00  0.00    -0.197 NA
ATOM      8  H   UNL A   1      30.908  26.955  25.641  1.00  0.00     0.142 HD
BRANCH   7   9
ATOM      9  S   UNL A   1      30.364  26.940  23.527  1.00  0.00     0.260 S 
ATOM     10  O   UNL A   1      29.601  25.787  23.941  1.00  0.00    -0.205 OA
ATOM     11  O   UNL A   1      31.271  26.902  22.401  1.00  0.00    -0.205 OA
BRANCH   9  12
ATOM     12  C   UNL A   1      29.187  28.149  23.090  1.00  0.00     0.188 A 
ATOM     13  N   UNL A   1      28.226  30.046  22.615  1.00  0.00    -0.336 N 
ATOM     14  C   UNL A   1      27.277  29.115  22.923  1.00  0.00     0.201 A 
ATOM     15  C   UNL A   1      29.442  29.420  22.614  1.00  0.00     0.129 A 
ATOM     16  N   UNL A   1      27.822  27.970  23.259  1.00  0.00    -0.224 NA
BRANCH  13  17
ATOM     17  C   UNL A   1      27.987  31.460  22.401  1.00  0.00     0.120 C 
ATOM     18  C   UNL A   1      28.767  32.340  23.367  1.00  0.00     0.027 C 
ENDBRANCH  13  17
ENDBRANCH   9  12
ENDBRANCH   7   9
ENDBRANCH   6   7
BRANCH   6  19
ATOM     19  C   UNL A   1      33.298  26.370  26.037  1.00  0.00     0.085 C 
BRANCH  19  20
ATOM     20  C   UNL A   1      32.577  25.088  26.267  1.00  0.00     0.037 A 
ATOM     21  C   UNL A   1      33.007  23.781  26.165  1.00  0.00     0.134 A 
ATOM     22  N   UNL A   1      31.243  24.990  26.583  1.00  0.00    -0.348 N 
ATOM     23  N   UNL A   1      31.982  22.909  26.412  1.00  0.00    -0.245 NA
ATOM     24  C   UNL A   1      30.936  23.661  26.659  1.00  0.00     0.196 A 
ATOM     25  H   UNL A   1      30.623  25.740  26.726  1.00  0.00     0.167 HD
ENDBRANCH  19  20
ENDBRANCH   6  19
ENDBRANCH   3   6
ENDBRANCH   1   2
BRANCH   1  26
ATOM     26  C   UNL A   1      31.698  30.683  26.129  1.00  0.00     0.023 C 
BRANCH  26  27
ATOM     27  C   UNL A   1      31.430  32.100  26.651  1.00  0.00     0.023 C 
BRANCH  27  28
ATOM     28  C   UNL A   1      32.610  32.838  27.284  1.00  0.00     0.116 C 
BRANCH  28  29
ATOM     29  N   UNL A   1      32.318  34.206  27.665  1.00  0.00    -0.352 N 
ATOM     30  C   UNL A   1      32.949  35.012  28.584  1.00  0.00     0.251 C 
ATOM     31  H   UNL A   1      31.557  34.620  27.198  1.00  0.00     0.163 HD
ATOM     32  O   UNL A   1      32.508  36.130  28.833  1.00  0.00    -0.269 OA
BRANCH  30  33
ATOM     33  C   UNL A   1      34.141  34.529  29.317  1.00  0.00     0.039 A 
ATOM     34  C   UNL A   1      33.964  34.004  30.601  1.00  0.00     0.014 A 
ATOM     35  C   UNL A   1      35.424  34.602  28.764  1.00  0.00     0.014 A 
ATOM     36  C   UNL A   1      35.055  33.475  31.295  1.00  0.00     0.010 A 
ATOM     37  C   UNL A   1      36.509  34.046  29.444  1.00  0.00     0.010 A 
ATOM     38  C   UNL A   1      36.329  33.457  30.705  1.00  0.00    -0.014 A 
BRANCH  38  39
ATOM     39  C   UNL A   1      37.450  32.737  31.357  1.00  0.00     0.031 A 
ATOM     40  C   UNL A   1      38.123  31.573  30.691  1.00  0.00     0.074 A 
ATOM     41  C   UNL A   1      37.822  33.109  32.596  1.00  0.00     0.049 A 
ATOM     42  N   UNL A   1      39.104  30.827  31.133  1.00  0.00    -0.248 NA
ATOM     43  C   UNL A   1      37.619  31.186  29.366  1.00  0.00     0.031 C 
ATOM     44  C   UNL A   1      37.211  34.191  33.370  1.00  0.00     0.029 A 
ATOM     45  N   UNL A   1      38.797  32.615  33.427  1.00  0.00    -0.354 N 
ATOM     46  C   UNL A   1      39.334  29.879  30.147  1.00  0.00     0.074 A 
ATOM     47  C   UNL A   1      38.368  30.124  29.096  1.00  0.00     0.031 C 
ATOM     48  C   UNL A   1      37.831  34.286  34.556  1.00  0.00     0.029 A 
ATOM     49  C   UNL A   1      38.871  33.264  34.634  1.00  0.00     0.049 A 
ATOM     50  H   UNL A   1      39.387  31.866  33.180  1.00  0.00     0.167 HD
ATOM     51  C   UNL A   1      40.275  28.904  30.118  1.00  0.00     0.037 A 
ATOM     52  C   UNL A   1      39.687  33.064  35.685  1.00  0.00     0.037 A 
ATOM     53  C   UNL A   1      41.250  28.673  31.151  1.00  0.00     0.049 A 
ATOM     54  C   UNL A   1      40.738  31.993  35.613  1.00  0.00     0.074 A 
ATOM     55  C   UNL A   1      42.280  27.747  31.176  1.00  0.00     0.029 A 
ATOM     56  N   UNL A   1      41.316  29.374  32.346  1.00  0.00    -0.354 N 
ATOM     57  N   UNL A   1      40.992  31.152  34.641  1.00  0.00    -0.248 NA
ATOM     58  C   UNL A   1      41.622  31.852  36.778  1.00  0.00     0.031 C 
ATOM     59  C   UNL A   1      42.952  27.869  32.398  1.00  0.00     0.029 A 
ATOM     60  C   UNL A   1      42.359  28.891  33.121  1.00  0.00     0.049 A 
ATOM     61  H   UNL A   1      40.713  30.107  32.605  1.00  0.00     0.167 HD
ATOM     62  C   UNL A   1      42.077  30.398  35.067  1.00  0.00     0.074 A 
ATOM     63  C   UNL A   1      42.440  30.887  36.380  1.00  0.00     0.031 C 
ATOM     64  C   UNL A   1      42.714  29.391  34.422  1.00  0.00     0.037 A 
BRANCH  51  65
ATOM     65  C   UNL A   1      40.305  28.009  28.917  1.00  0.00     0.064 A 
ATOM     66  C   UNL A   1      41.056  28.338  27.779  1.00  0.00     0.173 A 
ATOM     67  C   UNL A   1      39.626  26.781  28.925  1.00  0.00     0.173 A 
ATOM     68  F   UNL A   1      41.715  29.505  27.722  1.00  0.00    -0.203 F 
ATOM     69  C   UNL A   1      41.113  27.479  26.686  1.00  0.00     0.198 A 
ATOM     70  C   UNL A   1      39.700  25.915  27.838  1.00  0.00     0.198 A 
ATOM     71  F   UNL A   1      38.899  26.418  29.993  1.00  0.00    -0.203 F 
ATOM     72  F   UNL A   1      41.813  27.827  25.598  1.00  0.00    -0.200 F 
ATOM     73  C   UNL A   1      40.441  26.265  26.718  1.00  0.00     0.200 A 
ATOM     74  F   UNL A   1      39.058  24.739  27.874  1.00  0.00    -0.200 F 
ATOM     75  F   UNL A   1      40.503  25.436  25.668  1.00  0.00    -0.200 F 
ENDBRANCH  51  65
BRANCH  52  76
ATOM     76  C   UNL A   1      39.564  33.925  36.885  1.00  0.00     0.064 A 
ATOM     77  C   UNL A   1      40.212  35.167  36.945  1.00  0.00     0.173 A 
ATOM     78  C   UNL A   1      38.795  33.531  37.988  1.00  0.00     0.173 A 
ATOM     79  F   UNL A   1      40.973  35.573  35.918  1.00  0.00    -0.203 F 
ATOM     80  C   UNL A   1      40.107  35.977  38.072  1.00  0.00     0.198 A 
ATOM     81  C   UNL A   1      38.674  34.352  39.107  1.00  0.00     0.198 A 
ATOM     82  F   UNL A   1      38.153  32.353  37.973  1.00  0.00    -0.203 F 
ATOM     83  F   UNL A   1      40.762  37.144  38.119  1.00  0.00    -0.200 F 
ATOM     84  C   UNL A   1      39.335  35.571  39.150  1.00  0.00     0.200 A 
ATOM     85  F   UNL A   1      37.919  33.961  40.143  1.00  0.00    -0.200 F 
ATOM     86  F   UNL A   1      39.231  36.352  40.234  1.00  0.00    -0.200 F 
ENDBRANCH  52  76
BRANCH  64  87
ATOM     87  C   UNL A   1      43.885  28.767  35.119  1.00  0.00     0.064 A 
ATOM     88  C   UNL A   1      45.187  29.254  34.938  1.00  0.00     0.173 A 
ATOM     89  C   UNL A   1      43.697  27.692  35.999  1.00  0.00     0.173 A 
ATOM     90  F   UNL A   1      45.416  30.269  34.093  1.00  0.00    -0.203 F 
ATOM     91  C   UNL A   1      46.264  28.674  35.603  1.00  0.00     0.198 A 
ATOM     92  C   UNL A   1      44.773  27.127  36.677  1.00  0.00     0.198 A 
ATOM     93  F   UNL A   1      42.468  27.193  36.204  1.00  0.00    -0.203 F 
ATOM     94  F   UNL A   1      47.506  29.130  35.390  1.00  0.00    -0.200 F 
ATOM     95  C   UNL A   1      46.055  27.615  36.475  1.00  0.00     0.200 A 
ATOM     96  F   UNL A   1      44.570  26.107  37.523  1.00  0.00    -0.200 F 
ATOM     97  F   UNL A   1      47.094  27.059  37.116  1.00  0.00    -0.200 F 
ENDBRANCH  64  87
ENDBRANCH  38  39
ENDBRANCH  30  33
ENDBRANCH  28  29
ENDBRANCH  27  28
ENDBRANCH  26  27
ENDBRANCH   1  26
TORSDOF 17
ENDMDL
MODEL 2
REMARK VINA RESULT:     -11.9      5.718     11.017
REMARK SMILES CCn1cnc(S(=O)(=O)N[C@H](Cc2cnc[nH]2)C(=O)NCCCCNC(=O)c2ccc(-c3c4nc(c(-c5c(F)c(F)c(F)c(F)c5F)c5ccc([nH]5)c(-c5c(F)c(F)c(F)c(F)c5F)c5nc(c(-c6c(F)c(F)c(F)c(F)c6F)c6ccc3[nH]6)C=C5)C=C4)cc2)c1
REMARK SMILES IDX 21 1 20 2 18 3 19 4 11 6 10 7 7 9 8 10 9 11 6 12 3 13 4 14
REMARK SMILES IDX 91 15 5 16 2 17 1 18 12 19 13 20 14 21 17 22 15 23 16 24
REMARK SMILES IDX 22 26 23 27 24 28 25 29 26 30 27 32 28 33 29 34 90 35 30 36
REMARK SMILES IDX 89 37 31 38 32 39 33 40 83 41 34 42 88 43 82 44 84 45 35 46
REMARK SMILES IDX 87 47 81 48 80 49 36 51 68 52 48 53 67 54 49 55 52 56 66 57
REMARK SMILES IDX 85 58 50 59 51 60 65 62 86 63 53 64 37 65 38 66 46 67 39 68
REMARK SMILES IDX 40 69 44 70 47 71 41 72 42 73 45 74 43 75 69 76 70 77 78 78
REMARK SMILES IDX 71 79 72 80 76 81 79 82 73 83 74 84 77 85 75 86 54 87 55 88
REMARK SMILES IDX 63 89 56 90 57 91 61 92 64 93 58 94 59 95 62 96 60 97
REMARK H PARENT 20 5 10 8 17 25 25 31 84 50 52 61
REMARK Flexibility Score: inf
ROOT
ATOM      1  C   UNL A   1      35.621  21.288  25.745  1.00  0.00     0.116 C 
ENDROOT
BRANCH   1   2
ATOM      2  N   UNL A   1      34.572  20.282  25.737  1.00  0.00    -0.355 N 
ATOM      3  C   UNL A   1      33.283  20.310  25.307  1.00  0.00     0.238 C 
ATOM      4  O   UNL A   1      32.733  19.203  25.207  1.00  0.00    -0.273 OA
ATOM      5  H   UNL A   1      34.849  19.414  26.113  1.00  0.00     0.163 HD
BRANCH   3   6
ATOM      6  C   UNL A   1      32.498  21.574  24.952  1.00  0.00     0.165 C 
BRANCH   6   7
ATOM      7  N   UNL A   1      31.313  21.925  25.770  1.00  0.00    -0.197 NA
ATOM      8  H   UNL A   1      30.629  22.305  25.116  1.00  0.00     0.142 HD
BRANCH   7   9
ATOM      9  S   UNL A   1      31.349  22.988  27.061  1.00  0.00     0.260 S 
ATOM     10  O   UNL A   1      32.423  22.585  27.937  1.00  0.00    -0.205 OA
ATOM     11  O   UNL A   1      29.979  23.090  27.514  1.00  0.00    -0.205 OA
BRANCH   9  12
ATOM     12  C   UNL A   1      31.751  24.601  26.538  1.00  0.00     0.188 A 
ATOM     13  N   UNL A   1      32.845  26.419  26.046  1.00  0.00    -0.336 N 
ATOM     14  C   UNL A   1      31.515  26.702  26.166  1.00  0.00     0.201 A 
ATOM     15  C   UNL A   1      32.999  25.067  26.175  1.00  0.00     0.129 A 
ATOM     16  N   UNL A   1      30.829  25.637  26.506  1.00  0.00    -0.224 NA
BRANCH  13  17
ATOM     17  C   UNL A   1      33.905  27.395  25.883  1.00  0.00     0.120 C 
ATOM     18  C   UNL A   1      33.694  28.638  26.736  1.00  0.00     0.027 C 
ENDBRANCH  13  17
ENDBRANCH   9  12
ENDBRANCH   7   9
ENDBRANCH   6   7
BRANCH   6  19
ATOM     19  C   UNL A   1      32.419  21.860  23.443  1.00  0.00     0.085 C 
BRANCH  19  20
ATOM     20  C   UNL A   1      32.180  23.275  23.045  1.00  0.00     0.037 A 
ATOM     21  C   UNL A   1      33.051  24.244  22.590  1.00  0.00     0.134 A 
ATOM     22  N   UNL A   1      30.966  23.915  23.133  1.00  0.00    -0.348 N 
ATOM     23  N   UNL A   1      32.402  25.434  22.399  1.00  0.00    -0.245 NA
ATOM     24  C   UNL A   1      31.154  25.208  22.733  1.00  0.00     0.196 A 
ATOM     25  H   UNL A   1      30.118  23.515  23.431  1.00  0.00     0.167 HD
ENDBRANCH  19  20
ENDBRANCH   6  19
ENDBRANCH   3   6
ENDBRANCH   1   2
BRANCH   1  26
ATOM     26  C   UNL A   1      36.690  21.052  24.681  1.00  0.00     0.023 C 
BRANCH  26  27
ATOM     27  C   UNL A   1      37.688  19.924  24.967  1.00  0.00     0.023 C 
BRANCH  27  28
ATOM     28  C   UNL A   1      38.974  20.306  25.698  1.00  0.00     0.116 C 
BRANCH  28  29
ATOM     29  N   UNL A   1      39.946  19.235  25.789  1.00  0.00    -0.352 N 
ATOM     30  C   UNL A   1      41.288  19.293  26.083  1.00  0.00     0.251 C 
ATOM     31  H   UNL A   1      39.595  18.332  25.614  1.00  0.00     0.163 HD
ATOM     32  O   UNL A   1      41.977  18.278  26.037  1.00  0.00    -0.269 OA
BRANCH  30  33
ATOM     33  C   UNL A   1      41.931  20.584  26.418  1.00  0.00     0.039 A 
ATOM     34  C   UNL A   1      42.337  21.416  25.370  1.00  0.00     0.014 A 
ATOM     35  C   UNL A   1      42.151  20.974  27.744  1.00  0.00     0.014 A 
ATOM     36  C   UNL A   1      42.883  22.671  25.647  1.00  0.00     0.010 A 
ATOM     37  C   UNL A   1      42.669  22.241  28.021  1.00  0.00     0.010 A 
ATOM     38  C   UNL A   1      43.016  23.108  26.975  1.00  0.00    -0.014 A 
BRANCH  38  39
ATOM     39  C   UNL A   1      43.424  24.504  27.270  1.00  0.00     0.031 A 
ATOM     40  C   UNL A   1      42.442  25.510  27.794  1.00  0.00     0.074 A 
ATOM     41  C   UNL A   1      44.689  24.877  27.001  1.00  0.00     0.049 A 
ATOM     42  N   UNL A   1      42.633  26.772  28.086  1.00  0.00    -0.248 NA
ATOM     43  C   UNL A   1      41.064  25.044  28.002  1.00  0.00     0.031 C 
ATOM     44  C   UNL A   1      45.723  24.006  26.440  1.00  0.00     0.029 A 
ATOM     45  N   UNL A   1      45.320  26.087  27.155  1.00  0.00    -0.354 N 
ATOM     46  C   UNL A   1      41.403  27.255  28.507  1.00  0.00     0.074 A 
ATOM     47  C   UNL A   1      40.463  26.158  28.402  1.00  0.00     0.031 C 
ATOM     48  C   UNL A   1      46.861  24.706  26.307  1.00  0.00     0.029 A 
ATOM     49  C   UNL A   1      46.634  26.076  26.758  1.00  0.00     0.049 A 
ATOM     50  H   UNL A   1      44.873  26.886  27.516  1.00  0.00     0.167 HD
ATOM     51  C   UNL A   1      41.093  28.496  28.953  1.00  0.00     0.037 A 
ATOM     52  C   UNL A   1      47.555  27.057  26.760  1.00  0.00     0.037 A 
ATOM     53  C   UNL A   1      42.030  29.582  29.079  1.00  0.00     0.049 A 
ATOM     54  C   UNL A   1      47.189  28.416  27.285  1.00  0.00     0.074 A 
ATOM     55  C   UNL A   1      41.815  30.854  29.580  1.00  0.00     0.029 A 
ATOM     56  N   UNL A   1      43.362  29.523  28.698  1.00  0.00    -0.354 N 
ATOM     57  N   UNL A   1      46.039  28.837  27.750  1.00  0.00    -0.248 NA
ATOM     58  C   UNL A   1      48.251  29.430  27.296  1.00  0.00     0.031 C 
ATOM     59  C   UNL A   1      43.011  31.576  29.477  1.00  0.00     0.029 A 
ATOM     60  C   UNL A   1      43.977  30.741  28.940  1.00  0.00     0.049 A 
ATOM     61  H   UNL A   1      43.806  28.732  28.315  1.00  0.00     0.167 HD
ATOM     62  C   UNL A   1      46.244  30.156  28.130  1.00  0.00     0.074 A 
ATOM     63  C   UNL A   1      47.631  30.463  27.850  1.00  0.00     0.031 C 
ATOM     64  C   UNL A   1      45.360  31.032  28.664  1.00  0.00     0.037 A 
BRANCH  51  65
ATOM     65  C   UNL A   1      39.671  28.752  29.352  1.00  0.00     0.064 A 
ATOM     66  C   UNL A   1      39.229  28.529  30.664  1.00  0.00     0.173 A 
ATOM     67  C   UNL A   1      38.756  29.282  28.430  1.00  0.00     0.173 A 
ATOM     68  F   UNL A   1      40.066  28.014  31.578  1.00  0.00    -0.203 F 
ATOM     69  C   UNL A   1      37.918  28.811  31.035  1.00  0.00     0.198 A 
ATOM     70  C   UNL A   1      37.451  29.582  28.809  1.00  0.00     0.198 A 
ATOM     71  F   UNL A   1      39.133  29.520  27.164  1.00  0.00    -0.203 F 
ATOM     72  F   UNL A   1      37.509  28.562  32.286  1.00  0.00    -0.200 F 
ATOM     73  C   UNL A   1      37.032  29.343  30.110  1.00  0.00     0.200 A 
ATOM     74  F   UNL A   1      36.598  30.104  27.917  1.00  0.00    -0.200 F 
ATOM     75  F   UNL A   1      35.772  29.622  30.470  1.00  0.00    -0.200 F 
ENDBRANCH  51  65
BRANCH  52  76
ATOM     76  C   UNL A   1      48.929  26.775  26.279  1.00  0.00     0.064 A 
ATOM     77  C   UNL A   1      49.898  26.253  27.146  1.00  0.00     0.173 A 
ATOM     78  C   UNL A   1      49.297  27.014  24.948  1.00  0.00     0.173 A 
ATOM     79  F   UNL A   1      49.592  26.028  28.432  1.00  0.00    -0.203 F 
ATOM     80  C   UNL A   1      51.192  25.993  26.703  1.00  0.00     0.198 A 
ATOM     81  C   UNL A   1      50.586  26.735  24.501  1.00  0.00     0.198 A 
ATOM     82  F   UNL A   1      48.400  27.508  24.081  1.00  0.00    -0.203 F 
ATOM     83  F   UNL A   1      52.110  25.525  27.559  1.00  0.00    -0.200 F 
ATOM     84  C   UNL A   1      51.533  26.230  25.380  1.00  0.00     0.200 A 
ATOM     85  F   UNL A   1      50.910  26.955  23.219  1.00  0.00    -0.200 F 
ATOM     86  F   UNL A   1      52.778  25.978  24.952  1.00  0.00    -0.200 F 
ENDBRANCH  52  76
BRANCH  64  87
ATOM     87  C   UNL A   1      45.871  32.399  29.003  1.00  0.00     0.064 A 
ATOM     88  C   UNL A   1      46.448  32.674  30.251  1.00  0.00     0.173 A 
ATOM     89  C   UNL A   1      45.811  33.434  28.059  1.00  0.00     0.173 A 
ATOM     90  F   UNL A   1      46.511  31.719  31.190  1.00  0.00    -0.203 F 
ATOM     91  C   UNL A   1      46.933  33.945  30.547  1.00  0.00     0.198 A 
ATOM     92  C   UNL A   1      46.314  34.699  28.352  1.00  0.00     0.198 A 
ATOM     93  F   UNL A   1      45.268  33.217  26.851  1.00  0.00    -0.203 F 
ATOM     94  F   UNL A   1      47.448  34.198  31.758  1.00  0.00    -0.200 F 
ATOM     95  C   UNL A   1      46.870  34.953  29.597  1.00  0.00     0.200 A 
ATOM     96  F   UNL A   1      46.258  35.671  27.431  1.00  0.00    -0.200 F 
ATOM     97  F   UNL A   1      47.339  36.176  29.884  1.00  0.00    -0.200 F 
ENDBRANCH  64  87
ENDBRANCH  38  39
ENDBRANCH  30  33
ENDBRANCH  28  29
ENDBRANCH  27  28
ENDBRANCH  26  27
ENDBRANCH   1  26
TORSDOF 17
ENDMDL
MODEL 3
REMARK VINA RESULT:     -11.9      0.463      7.225
REMARK SMILES CCn1cnc(S(=O)(=O)N[C@H](Cc2cnc[nH]2)C(=O)NCCCCNC(=O)c2ccc(-c3c4nc(c(-c5c(F)c(F)c(F)c(F)c5F)c5ccc([nH]5)c(-c5c(F)c(F)c(F)c(F)c5F)c5nc(c(-c6c(F)c(F)c(F)c(F)c6F)c6ccc3[nH]6)C=C5)C=C4)cc2)c1
REMARK SMILES IDX 21 1 20 2 18 3 19 4 11 6 10 7 7 9 8 10 9 11 6 12 3 13 4 14
REMARK SMILES IDX 91 15 5 16 2 17 1 18 12 19 13 20 14 21 17 22 15 23 16 24
REMARK SMILES IDX 22 26 23 27 24 28 25 29 26 30 27 32 28 33 29 34 90 35 30 36
REMARK SMILES IDX 89 37 31 38 32 39 33 40 83 41 34 42 88 43 82 44 84 45 35 46
REMARK SMILES IDX 87 47 81 48 80 49 36 51 68 52 48 53 67 54 49 55 52 56 66 57
REMARK SMILES IDX 85 58 50 59 51 60 65 62 86 63 53 64 37 65 38 66 46 67 39 68
REMARK SMILES IDX 40 69 44 70 47 71 41 72 42 73 45 74 43 75 69 76 70 77 78 78
REMARK SMILES IDX 71 79 72 80 76 81 79 82 73 83 74 84 77 85 75 86 54 87 55 88
REMARK SMILES IDX 63 89 56 90 57 91 61 92 64 93 58 94 59 95 62 96 60 97
REMARK H PARENT 20 5 10 8 17 25 25 31 84 50 52 61
REMARK Flexibility Score: inf
ROOT
ATOM      1  C   UNL A   1      33.017  30.054  26.401  1.00  0.00     0.116 C 
ENDROOT
BRANCH   1   2
ATOM      2  N   UNL A   1      33.737  29.592  25.226  1.00  0.00    -0.355 N 
ATOM      3  C   UNL A   1      33.591  28.493  24.439  1.00  0.00     0.238 C 
ATOM      4  O   UNL A   1      34.203  28.527  23.362  1.00  0.00    -0.273 OA
ATOM      5  H   UNL A   1      34.470  30.188  24.946  1.00  0.00     0.163 HD
BRANCH   3   6
ATOM      6  C   UNL A   1      32.747  27.265  24.785  1.00  0.00     0.165 C 
BRANCH   6   7
ATOM      7  N   UNL A   1      31.271  27.393  24.769  1.00  0.00    -0.197 NA
ATOM      8  H   UNL A   1      30.932  26.784  25.513  1.00  0.00     0.142 HD
BRANCH   7   9
ATOM      9  S   UNL A   1      30.317  27.057  23.436  1.00  0.00     0.260 S 
ATOM     10  O   UNL A   1      29.548  25.871  23.729  1.00  0.00    -0.205 OA
ATOM     11  O   UNL A   1      31.204  27.140  22.296  1.00  0.00    -0.205 OA
BRANCH   9  12
ATOM     12  C   UNL A   1      29.147  28.319  23.164  1.00  0.00     0.188 A 
ATOM     13  N   UNL A   1      28.164  30.261  23.052  1.00  0.00    -0.336 N 
ATOM     14  C   UNL A   1      27.228  29.268  22.999  1.00  0.00     0.201 A 
ATOM     15  C   UNL A   1      29.399  29.672  23.052  1.00  0.00     0.129 A 
ATOM     16  N   UNL A   1      27.781  28.084  23.109  1.00  0.00    -0.224 NA
BRANCH  13  17
ATOM     17  C   UNL A   1      27.888  31.679  23.164  1.00  0.00     0.120 C 
ATOM     18  C   UNL A   1      28.294  32.455  21.918  1.00  0.00     0.027 C 
ENDBRANCH  13  17
ENDBRANCH   9  12
ENDBRANCH   7   9
ENDBRANCH   6   7
BRANCH   6  19
ATOM     19  C   UNL A   1      33.361  26.367  25.872  1.00  0.00     0.085 C 
BRANCH  19  20
ATOM     20  C   UNL A   1      32.703  25.050  26.099  1.00  0.00     0.037 A 
ATOM     21  C   UNL A   1      33.025  23.790  25.638  1.00  0.00     0.134 A 
ATOM     22  N   UNL A   1      31.541  24.873  26.810  1.00  0.00    -0.348 N 
ATOM     23  N   UNL A   1      32.101  22.869  26.052  1.00  0.00    -0.245 NA
ATOM     24  C   UNL A   1      31.222  23.546  26.751  1.00  0.00     0.196 A 
ATOM     25  H   UNL A   1      31.030  25.574  27.275  1.00  0.00     0.167 HD
ENDBRANCH  19  20
ENDBRANCH   6  19
ENDBRANCH   3   6
ENDBRANCH   1   2
BRANCH   1  26
ATOM     26  C   UNL A   1      31.664  30.678  26.070  1.00  0.00     0.023 C 
BRANCH  26  27
ATOM     27  C   UNL A   1      31.411  32.080  26.638  1.00  0.00     0.023 C 
BRANCH  27  28
ATOM     28  C   UNL A   1      32.617  32.821  27.212  1.00  0.00     0.116 C 
BRANCH  28  29
ATOM     29  N   UNL A   1      32.337  34.183  27.622  1.00  0.00    -0.352 N 
ATOM     30  C   UNL A   1      32.976  34.966  28.555  1.00  0.00     0.251 C 
ATOM     31  H   UNL A   1      31.578  34.612  27.165  1.00  0.00     0.163 HD
ATOM     32  O   UNL A   1      32.544  36.082  28.828  1.00  0.00    -0.269 OA
BRANCH  30  33
ATOM     33  C   UNL A   1      34.166  34.459  29.275  1.00  0.00     0.039 A 
ATOM     34  C   UNL A   1      33.985  33.886  30.538  1.00  0.00     0.014 A 
ATOM     35  C   UNL A   1      35.452  34.558  28.732  1.00  0.00     0.014 A 
ATOM     36  C   UNL A   1      35.074  33.334  31.216  1.00  0.00     0.010 A 
ATOM     37  C   UNL A   1      36.535  33.980  29.396  1.00  0.00     0.010 A 
ATOM     38  C   UNL A   1      36.351  33.343  30.632  1.00  0.00    -0.014 A 
BRANCH  38  39
ATOM     39  C   UNL A   1      37.472  32.602  31.261  1.00  0.00     0.031 A 
ATOM     40  C   UNL A   1      37.988  32.974  32.620  1.00  0.00     0.074 A 
ATOM     41  C   UNL A   1      38.067  31.617  30.564  1.00  0.00     0.049 A 
ATOM     42  N   UNL A   1      38.970  32.440  33.302  1.00  0.00    -0.248 NA
ATOM     43  C   UNL A   1      37.329  34.102  33.293  1.00  0.00     0.031 C 
ATOM     44  C   UNL A   1      37.693  31.196  29.212  1.00  0.00     0.029 A 
ATOM     45  N   UNL A   1      39.119  30.796  30.888  1.00  0.00    -0.354 N 
ATOM     46  C   UNL A   1      39.052  33.166  34.481  1.00  0.00     0.074 A 
ATOM     47  C   UNL A   1      38.041  34.200  34.409  1.00  0.00     0.031 C 
ATOM     48  C   UNL A   1      38.493  30.190  28.828  1.00  0.00     0.029 A 
ATOM     49  C   UNL A   1      39.446  29.905  29.897  1.00  0.00     0.049 A 
ATOM     50  H   UNL A   1      39.593  30.841  31.750  1.00  0.00     0.167 HD
ATOM     51  C   UNL A   1      39.886  32.975  35.532  1.00  0.00     0.037 A 
ATOM     52  C   UNL A   1      40.403  28.960  29.853  1.00  0.00     0.037 A 
ATOM     53  C   UNL A   1      40.877  31.934  35.616  1.00  0.00     0.049 A 
ATOM     54  C   UNL A   1      41.295  28.754  31.044  1.00  0.00     0.074 A 
ATOM     55  C   UNL A   1      41.722  31.629  36.669  1.00  0.00     0.029 A 
ATOM     56  N   UNL A   1      41.156  31.027  34.604  1.00  0.00    -0.354 N 
ATOM     57  N   UNL A   1      41.312  29.400  32.183  1.00  0.00    -0.248 NA
ATOM     58  C   UNL A   1      42.293  27.680  30.946  1.00  0.00     0.031 C 
ATOM     59  C   UNL A   1      42.534  30.554  36.285  1.00  0.00     0.029 A 
ATOM     60  C   UNL A   1      42.172  30.172  35.004  1.00  0.00     0.049 A 
ATOM     61  H   UNL A   1      40.700  30.994  33.733  1.00  0.00     0.167 HD
ATOM     62  C   UNL A   1      42.303  28.798  32.946  1.00  0.00     0.074 A 
ATOM     63  C   UNL A   1      42.859  27.729  32.145  1.00  0.00     0.031 C 
ATOM     64  C   UNL A   1      42.711  29.107  34.200  1.00  0.00     0.037 A 
BRANCH  51  65
ATOM     65  C   UNL A   1      39.759  33.913  36.694  1.00  0.00     0.064 A 
ATOM     66  C   UNL A   1      38.931  33.615  37.786  1.00  0.00     0.173 A 
ATOM     67  C   UNL A   1      40.518  35.091  36.745  1.00  0.00     0.173 A 
ATOM     68  F   UNL A   1      38.180  32.502  37.777  1.00  0.00    -0.203 F 
ATOM     69  C   UNL A   1      38.854  34.471  38.880  1.00  0.00     0.198 A 
ATOM     70  C   UNL A   1      40.454  35.936  37.850  1.00  0.00     0.198 A 
ATOM     71  F   UNL A   1      41.330  35.417  35.728  1.00  0.00    -0.203 F 
ATOM     72  F   UNL A   1      38.034  34.182  39.899  1.00  0.00    -0.200 F 
ATOM     73  C   UNL A   1      39.620  35.627  38.915  1.00  0.00     0.200 A 
ATOM     74  F   UNL A   1      41.201  37.048  37.886  1.00  0.00    -0.200 F 
ATOM     75  F   UNL A   1      39.550  36.447  39.972  1.00  0.00    -0.200 F 
ENDBRANCH  51  65
BRANCH  52  76
ATOM     76  C   UNL A   1      40.541  28.109  28.646  1.00  0.00     0.064 A 
ATOM     77  C   UNL A   1      41.342  28.517  27.571  1.00  0.00     0.173 A 
ATOM     78  C   UNL A   1      39.883  26.876  28.547  1.00  0.00     0.173 A 
ATOM     79  F   UNL A   1      41.973  29.699  27.619  1.00  0.00    -0.203 F 
ATOM     80  C   UNL A   1      41.470  27.726  26.432  1.00  0.00     0.198 A 
ATOM     81  C   UNL A   1      40.029  26.077  27.415  1.00  0.00     0.198 A 
ATOM     82  F   UNL A   1      39.110  26.443  29.554  1.00  0.00    -0.203 F 
ATOM     83  F   UNL A   1      42.216  28.152  25.404  1.00  0.00    -0.200 F 
ATOM     84  C   UNL A   1      40.817  26.505  26.357  1.00  0.00     0.200 A 
ATOM     85  F   UNL A   1      39.404  24.893  27.350  1.00  0.00    -0.200 F 
ATOM     86  F   UNL A   1      40.942  25.743  25.262  1.00  0.00    -0.200 F 
ENDBRANCH  52  76
BRANCH  64  87
ATOM     87  C   UNL A   1      43.798  28.262  34.792  1.00  0.00     0.064 A 
ATOM     88  C   UNL A   1      45.145  28.640  34.706  1.00  0.00     0.173 A 
ATOM     89  C   UNL A   1      43.485  27.079  35.476  1.00  0.00     0.173 A 
ATOM     90  F   UNL A   1      45.493  29.754  34.046  1.00  0.00    -0.203 F 
ATOM     91  C   UNL A   1      46.144  27.853  35.273  1.00  0.00     0.198 A 
ATOM     92  C   UNL A   1      44.485  26.304  36.059  1.00  0.00     0.198 A 
ATOM     93  F   UNL A   1      42.209  26.677  35.583  1.00  0.00    -0.203 F 
ATOM     94  F   UNL A   1      47.430  28.213  35.150  1.00  0.00    -0.200 F 
ATOM     95  C   UNL A   1      45.813  26.690  35.952  1.00  0.00     0.200 A 
ATOM     96  F   UNL A   1      44.163  25.183  36.719  1.00  0.00    -0.200 F 
ATOM     97  F   UNL A   1      46.776  25.934  36.499  1.00  0.00    -0.200 F 
ENDBRANCH  64  87
ENDBRANCH  38  39
ENDBRANCH  30  33
ENDBRANCH  28  29
ENDBRANCH  27  28
ENDBRANCH  26  27
ENDBRANCH   1  26
TORSDOF 17
ENDMDL
