MODEL 1
REMARK VINA RESULT:     -14.5      0.000      0.000
REMARK SMILES O=C(Cn1c(-c2nc(-c3ccc(C(F)(F)F)cc3)no2)cc2ccccc21)NCCCCNC(=O)c1ccc(-c2c3nc(c(-c4c(F)c(F)c(F)c(F)c4F)c4ccc([nH]4)c(-c4c(F)c(F)c(F)c(F)c4F)c4nc(c(-c5c(F)c(F)c(F)c(F)c5F)c5ccc2[nH]5)C=C4)C=C3)cc1
REMARK SMILES IDX 29 1 28 2 1 3 2 4 3 6 4 7 5 8 27 9 21 10 22 11 26 12 23 13
REMARK SMILES IDX 25 14 24 15 6 16 7 17 20 18 8 19 19 20 9 21 10 22 18 23
REMARK SMILES IDX 11 24 17 25 12 26 13 27 14 28 15 29 16 30 30 31 31 32 32 33
REMARK SMILES IDX 33 34 34 35 35 37 36 38 37 39 98 40 38 41 97 42 39 43 40 44
REMARK SMILES IDX 41 45 91 46 42 47 96 48 90 49 92 50 43 51 95 52 89 53 88 54
REMARK SMILES IDX 44 56 76 57 56 58 75 59 57 60 60 61 74 62 93 63 58 64 59 65
REMARK SMILES IDX 73 67 94 68 61 69 45 70 46 71 54 72 47 73 48 74 52 75 55 76
REMARK SMILES IDX 49 77 50 78 53 79 51 80 77 81 78 82 86 83 79 84 80 85 84 86
REMARK SMILES IDX 87 87 81 88 82 89 85 90 83 91 62 92 63 93 71 94 64 95 65 96
REMARK SMILES IDX 69 97 72 98 66 99 67 100 70 101 68 102
REMARK H PARENT 28 5 33 36 92 55 60 66
REMARK Flexibility Score: inf
ROOT
ATOM      1  C   UNL A   1      37.250  21.735  24.551  1.00  0.00     0.116 C 
ENDROOT
BRANCH   1   2
ATOM      2  N   UNL A   1      35.880  21.406  24.898  1.00  0.00    -0.355 N 
ATOM      3  O   UNL A   1      35.233  23.491  25.601  1.00  0.00    -0.273 OA
ATOM      4  C   UNL A   1      34.960  22.309  25.389  1.00  0.00     0.239 C 
ATOM      5  H   UNL A   1      35.588  20.474  24.775  1.00  0.00     0.163 HD
BRANCH   4   6
ATOM      6  C   UNL A   1      33.584  21.725  25.686  1.00  0.00     0.222 C 
BRANCH   6   7
ATOM      7  N   UNL A   1      32.995  21.047  24.533  1.00  0.00    -0.327 N 
ATOM      8  C   UNL A   1      32.414  21.653  23.432  1.00  0.00     0.109 A 
ATOM      9  C   UNL A   1      32.945  19.663  24.389  1.00  0.00     0.049 A 
ATOM     10  C   UNL A   1      32.101  20.650  22.534  1.00  0.00     0.042 A 
ATOM     11  C   UNL A   1      32.512  19.409  23.086  1.00  0.00     0.000 A 
ATOM     12  C   UNL A   1      33.269  18.613  25.266  1.00  0.00     0.027 A 
ATOM     13  C   UNL A   1      32.538  18.085  22.603  1.00  0.00     0.010 A 
ATOM     14  C   UNL A   1      33.317  17.312  24.761  1.00  0.00     0.002 A 
ATOM     15  C   UNL A   1      32.980  17.052  23.437  1.00  0.00     0.001 A 
BRANCH   8  16
ATOM     16  C   UNL A   1      32.284  23.068  23.235  1.00  0.00     0.274 A 
ATOM     17  N   UNL A   1      31.232  23.797  23.565  1.00  0.00    -0.185 NA
ATOM     18  O   UNL A   1      33.254  23.803  22.612  1.00  0.00    -0.332 OA
ATOM     19  C   UNL A   1      31.573  25.047  23.091  1.00  0.00     0.202 A 
ATOM     20  N   UNL A   1      32.779  25.099  22.507  1.00  0.00    -0.057 NA
BRANCH  19  21
ATOM     21  C   UNL A   1      30.758  26.248  23.213  1.00  0.00     0.023 A 
ATOM     22  C   UNL A   1      29.535  26.180  23.894  1.00  0.00     0.013 A 
ATOM     23  C   UNL A   1      31.075  27.413  22.503  1.00  0.00     0.013 A 
ATOM     24  C   UNL A   1      28.606  27.220  23.802  1.00  0.00     0.014 A 
ATOM     25  C   UNL A   1      30.138  28.453  22.400  1.00  0.00     0.014 A 
ATOM     26  C   UNL A   1      28.880  28.350  23.017  1.00  0.00     0.056 A 
BRANCH  26  27
ATOM     27  C   UNL A   1      27.799  29.382  22.795  1.00  0.00     0.416 C 
ATOM     28  F   UNL A   1      26.566  28.917  23.143  1.00  0.00    -0.166 F 
ATOM     29  F   UNL A   1      27.989  30.513  23.530  1.00  0.00    -0.166 F 
ATOM     30  F   UNL A   1      27.687  29.790  21.500  1.00  0.00    -0.166 F 
ENDBRANCH  26  27
ENDBRANCH  19  21
ENDBRANCH   8  16
ENDBRANCH   6   7
ENDBRANCH   4   6
ENDBRANCH   1   2
BRANCH   1  31
ATOM     31  C   UNL A   1      38.246  21.155  25.561  1.00  0.00     0.023 C 
BRANCH  31  32
ATOM     32  C   UNL A   1      39.138  22.169  26.300  1.00  0.00     0.023 C 
BRANCH  32  33
ATOM     33  C   UNL A   1      40.510  21.654  26.733  1.00  0.00     0.116 C 
BRANCH  33  34
ATOM     34  N   UNL A   1      41.612  22.192  25.966  1.00  0.00    -0.352 N 
ATOM     35  C   UNL A   1      42.292  23.377  25.939  1.00  0.00     0.251 C 
ATOM     36  H   UNL A   1      41.954  21.551  25.302  1.00  0.00     0.163 HD
ATOM     37  O   UNL A   1      43.340  23.378  25.286  1.00  0.00    -0.269 OA
BRANCH  35  38
ATOM     38  C   UNL A   1      41.844  24.661  26.550  1.00  0.00     0.039 A 
ATOM     39  C   UNL A   1      40.998  25.599  25.960  1.00  0.00     0.014 A 
ATOM     40  C   UNL A   1      42.416  24.969  27.802  1.00  0.00     0.014 A 
ATOM     41  C   UNL A   1      40.830  26.852  26.550  1.00  0.00     0.010 A 
ATOM     42  C   UNL A   1      42.245  26.214  28.399  1.00  0.00     0.010 A 
ATOM     43  C   UNL A   1      41.498  27.179  27.740  1.00  0.00    -0.014 A 
BRANCH  43  44
ATOM     44  C   UNL A   1      41.291  28.509  28.311  1.00  0.00     0.031 A 
ATOM     45  C   UNL A   1      42.376  29.473  27.984  1.00  0.00     0.074 A 
ATOM     46  C   UNL A   1      40.201  28.879  29.021  1.00  0.00     0.049 A 
ATOM     47  N   UNL A   1      43.217  30.015  28.803  1.00  0.00    -0.248 NA
ATOM     48  C   UNL A   1      42.647  29.773  26.570  1.00  0.00     0.031 C 
ATOM     49  C   UNL A   1      38.951  28.134  29.200  1.00  0.00     0.029 A 
ATOM     50  N   UNL A   1      39.953  30.048  29.693  1.00  0.00    -0.354 N 
ATOM     51  C   UNL A   1      44.009  30.867  28.036  1.00  0.00     0.074 A 
ATOM     52  C   UNL A   1      43.710  30.576  26.661  1.00  0.00     0.031 C 
ATOM     53  C   UNL A   1      38.009  28.946  29.738  1.00  0.00     0.029 A 
ATOM     54  C   UNL A   1      38.629  30.211  30.094  1.00  0.00     0.049 A 
ATOM     55  H   UNL A   1      40.652  30.717  29.876  1.00  0.00     0.167 HD
ATOM     56  C   UNL A   1      44.664  31.909  28.619  1.00  0.00     0.037 A 
ATOM     57  C   UNL A   1      38.083  31.310  30.674  1.00  0.00     0.037 A 
ATOM     58  C   UNL A   1      44.721  31.748  30.047  1.00  0.00     0.049 A 
ATOM     59  C   UNL A   1      39.180  32.064  31.315  1.00  0.00     0.074 A 
ATOM     60  C   UNL A   1      45.498  31.061  30.951  1.00  0.00     0.029 A 
ATOM     61  N   UNL A   1      43.570  32.110  30.688  1.00  0.00    -0.354 N 
ATOM     62  N   UNL A   1      39.833  31.636  32.358  1.00  0.00    -0.248 NA
ATOM     63  C   UNL A   1      39.775  33.200  30.617  1.00  0.00     0.031 C 
ATOM     64  C   UNL A   1      44.697  30.891  32.121  1.00  0.00     0.029 A 
ATOM     65  C   UNL A   1      43.471  31.514  31.914  1.00  0.00     0.049 A 
ATOM     66  H   UNL A   1      42.897  32.724  30.314  1.00  0.00     0.167 HD
ATOM     67  C   UNL A   1      41.100  32.147  32.187  1.00  0.00     0.074 A 
ATOM     68  C   UNL A   1      40.962  33.235  31.228  1.00  0.00     0.031 C 
ATOM     69  C   UNL A   1      42.190  31.429  32.571  1.00  0.00     0.037 A 
BRANCH  56  70
ATOM     70  C   UNL A   1      44.834  33.277  27.991  1.00  0.00     0.064 A 
ATOM     71  C   UNL A   1      46.120  33.707  27.601  1.00  0.00     0.173 A 
ATOM     72  C   UNL A   1      43.853  34.291  28.057  1.00  0.00     0.173 A 
ATOM     73  F   UNL A   1      47.141  32.839  27.535  1.00  0.00    -0.203 F 
ATOM     74  C   UNL A   1      46.408  35.053  27.348  1.00  0.00     0.198 A 
ATOM     75  C   UNL A   1      44.132  35.624  27.758  1.00  0.00     0.198 A 
ATOM     76  F   UNL A   1      42.621  34.055  28.522  1.00  0.00    -0.203 F 
ATOM     77  F   UNL A   1      47.668  35.430  27.086  1.00  0.00    -0.200 F 
ATOM     78  C   UNL A   1      45.414  36.011  27.429  1.00  0.00     0.200 A 
ATOM     79  F   UNL A   1      43.161  36.541  27.870  1.00  0.00    -0.200 F 
ATOM     80  F   UNL A   1      45.695  37.306  27.238  1.00  0.00    -0.200 F 
ENDBRANCH  56  70
BRANCH  57  81
ATOM     81  C   UNL A   1      36.733  31.912  30.551  1.00  0.00     0.064 A 
ATOM     82  C   UNL A   1      35.849  31.925  31.647  1.00  0.00     0.173 A 
ATOM     83  C   UNL A   1      36.439  32.795  29.498  1.00  0.00     0.173 A 
ATOM     84  F   UNL A   1      36.069  31.127  32.702  1.00  0.00    -0.203 F 
ATOM     85  C   UNL A   1      34.783  32.826  31.721  1.00  0.00     0.198 A 
ATOM     86  C   UNL A   1      35.370  33.693  29.573  1.00  0.00     0.198 A 
ATOM     87  F   UNL A   1      37.249  32.882  28.433  1.00  0.00    -0.203 F 
ATOM     88  F   UNL A   1      34.022  32.874  32.825  1.00  0.00    -0.200 F 
ATOM     89  C   UNL A   1      34.559  33.727  30.694  1.00  0.00     0.200 A 
ATOM     90  F   UNL A   1      35.182  34.583  28.588  1.00  0.00    -0.200 F 
ATOM     91  F   UNL A   1      33.598  34.654  30.804  1.00  0.00    -0.200 F 
ENDBRANCH  57  81
BRANCH  69  92
ATOM     92  C   UNL A   1      41.984  30.384  33.618  1.00  0.00     0.064 A 
ATOM     93  C   UNL A   1      41.657  29.044  33.352  1.00  0.00     0.173 A 
ATOM     94  C   UNL A   1      42.188  30.754  34.952  1.00  0.00     0.173 A 
ATOM     95  F   UNL A   1      41.513  28.606  32.095  1.00  0.00    -0.203 F 
ATOM     96  C   UNL A   1      41.513  28.124  34.389  1.00  0.00     0.198 A 
ATOM     97  C   UNL A   1      42.076  29.827  35.981  1.00  0.00     0.198 A 
ATOM     98  F   UNL A   1      42.533  32.016  35.253  1.00  0.00    -0.203 F 
ATOM     99  F   UNL A   1      41.189  26.850  34.119  1.00  0.00    -0.200 F 
ATOM    100  C   UNL A   1      41.731  28.515  35.701  1.00  0.00     0.200 A 
ATOM    101  F   UNL A   1      42.326  30.202  37.243  1.00  0.00    -0.200 F 
ATOM    102  F   UNL A   1      41.629  27.622  36.696  1.00  0.00    -0.200 F 
ENDBRANCH  69  92
ENDBRANCH  43  44
ENDBRANCH  35  38
ENDBRANCH  33  34
ENDBRANCH  32  33
ENDBRANCH  31  32
ENDBRANCH   1  31
TORSDOF 15
ENDMDL
MODEL 2
REMARK VINA RESULT:     -14.4      3.176      8.309
REMARK SMILES O=C(Cn1c(-c2nc(-c3ccc(C(F)(F)F)cc3)no2)cc2ccccc21)NCCCCNC(=O)c1ccc(-c2c3nc(c(-c4c(F)c(F)c(F)c(F)c4F)c4ccc([nH]4)c(-c4c(F)c(F)c(F)c(F)c4F)c4nc(c(-c5c(F)c(F)c(F)c(F)c5F)c5ccc2[nH]5)C=C4)C=C3)cc1
REMARK SMILES IDX 29 1 28 2 1 3 2 4 3 6 4 7 5 8 27 9 21 10 22 11 26 12 23 13
REMARK SMILES IDX 25 14 24 15 6 16 7 17 20 18 8 19 19 20 9 21 10 22 18 23
REMARK SMILES IDX 11 24 17 25 12 26 13 27 14 28 15 29 16 30 30 31 31 32 32 33
REMARK SMILES IDX 33 34 34 35 35 37 36 38 37 39 98 40 38 41 97 42 39 43 40 44
REMARK SMILES IDX 41 45 91 46 42 47 96 48 90 49 92 50 43 51 95 52 89 53 88 54
REMARK SMILES IDX 44 56 76 57 56 58 75 59 57 60 60 61 74 62 93 63 58 64 59 65
REMARK SMILES IDX 73 67 94 68 61 69 45 70 46 71 54 72 47 73 48 74 52 75 55 76
REMARK SMILES IDX 49 77 50 78 53 79 51 80 77 81 78 82 86 83 79 84 80 85 84 86
REMARK SMILES IDX 87 87 81 88 82 89 85 90 83 91 62 92 63 93 71 94 64 95 65 96
REMARK SMILES IDX 69 97 72 98 66 99 67 100 70 101 68 102
REMARK H PARENT 28 5 33 36 92 55 60 66
REMARK Flexibility Score: inf
ROOT
ATOM      1  C   UNL A   1      31.884  26.751  26.650  1.00  0.00     0.116 C 
ENDROOT
BRANCH   1   2
ATOM      2  N   UNL A   1      32.654  25.603  26.212  1.00  0.00    -0.355 N 
ATOM      3  O   UNL A   1      31.392  23.980  27.230  1.00  0.00    -0.273 OA
ATOM      4  C   UNL A   1      32.350  24.294  26.521  1.00  0.00     0.239 C 
ATOM      5  H   UNL A   1      33.449  25.770  25.656  1.00  0.00     0.163 HD
BRANCH   4   6
ATOM      6  C   UNL A   1      33.312  23.259  25.950  1.00  0.00     0.222 C 
BRANCH   6   7
ATOM      7  N   UNL A   1      32.749  22.527  24.817  1.00  0.00    -0.327 N 
ATOM      8  C   UNL A   1      32.186  23.079  23.679  1.00  0.00     0.109 A 
ATOM      9  C   UNL A   1      32.709  21.138  24.736  1.00  0.00     0.049 A 
ATOM     10  C   UNL A   1      31.897  22.035  22.821  1.00  0.00     0.042 A 
ATOM     11  C   UNL A   1      32.303  20.823  23.437  1.00  0.00     0.000 A 
ATOM     12  C   UNL A   1      33.020  20.130  25.665  1.00  0.00     0.027 A 
ATOM     13  C   UNL A   1      32.345  19.478  23.015  1.00  0.00     0.010 A 
ATOM     14  C   UNL A   1      33.084  18.808  25.220  1.00  0.00     0.002 A 
ATOM     15  C   UNL A   1      32.775  18.487  23.904  1.00  0.00     0.001 A 
BRANCH   8  16
ATOM     16  C   UNL A   1      32.054  24.483  23.416  1.00  0.00     0.274 A 
ATOM     17  N   UNL A   1      30.916  25.155  23.378  1.00  0.00    -0.185 NA
ATOM     18  O   UNL A   1      33.132  25.267  23.113  1.00  0.00    -0.332 OA
ATOM     19  C   UNL A   1      31.325  26.418  23.005  1.00  0.00     0.202 A 
ATOM     20  N   UNL A   1      32.649  26.534  22.831  1.00  0.00    -0.057 NA
BRANCH  19  21
ATOM     21  C   UNL A   1      30.453  27.572  22.833  1.00  0.00     0.023 A 
ATOM     22  C   UNL A   1      31.019  28.821  22.543  1.00  0.00     0.013 A 
ATOM     23  C   UNL A   1      29.089  27.500  23.140  1.00  0.00     0.013 A 
ATOM     24  C   UNL A   1      30.258  29.990  22.639  1.00  0.00     0.014 A 
ATOM     25  C   UNL A   1      28.327  28.674  23.250  1.00  0.00     0.014 A 
ATOM     26  C   UNL A   1      28.914  29.933  23.037  1.00  0.00     0.056 A 
BRANCH  26  27
ATOM     27  C   UNL A   1      28.160  31.217  23.297  1.00  0.00     0.416 C 
ATOM     28  F   UNL A   1      28.959  32.182  23.832  1.00  0.00    -0.166 F 
ATOM     29  F   UNL A   1      27.630  31.757  22.165  1.00  0.00    -0.166 F 
ATOM     30  F   UNL A   1      27.121  31.075  24.168  1.00  0.00    -0.166 F 
ENDBRANCH  26  27
ENDBRANCH  19  21
ENDBRANCH   8  16
ENDBRANCH   6   7
ENDBRANCH   4   6
ENDBRANCH   1   2
BRANCH   1  31
ATOM     31  C   UNL A   1      32.534  28.069  26.216  1.00  0.00     0.023 C 
BRANCH  31  32
ATOM     32  C   UNL A   1      32.853  29.076  27.336  1.00  0.00     0.023 C 
BRANCH  32  33
ATOM     33  C   UNL A   1      33.983  30.062  27.041  1.00  0.00     0.116 C 
BRANCH  33  34
ATOM     34  N   UNL A   1      34.071  31.158  27.982  1.00  0.00    -0.352 N 
ATOM     35  C   UNL A   1      35.063  31.707  28.745  1.00  0.00     0.251 C 
ATOM     36  H   UNL A   1      33.210  31.618  28.102  1.00  0.00     0.163 HD
ATOM     37  O   UNL A   1      34.800  32.797  29.260  1.00  0.00    -0.269 OA
BRANCH  35  38
ATOM     38  C   UNL A   1      36.375  31.076  29.066  1.00  0.00     0.039 A 
ATOM     39  C   UNL A   1      37.618  31.707  29.039  1.00  0.00     0.014 A 
ATOM     40  C   UNL A   1      36.333  29.690  29.330  1.00  0.00     0.014 A 
ATOM     41  C   UNL A   1      38.784  30.950  29.153  1.00  0.00     0.010 A 
ATOM     42  C   UNL A   1      37.493  28.933  29.452  1.00  0.00     0.010 A 
ATOM     43  C   UNL A   1      38.722  29.556  29.303  1.00  0.00    -0.014 A 
BRANCH  43  44
ATOM     44  C   UNL A   1      39.977  28.812  29.410  1.00  0.00     0.031 A 
ATOM     45  C   UNL A   1      40.453  28.648  30.811  1.00  0.00     0.074 A 
ATOM     46  C   UNL A   1      40.634  28.260  28.366  1.00  0.00     0.049 A 
ATOM     47  N   UNL A   1      41.517  29.155  31.341  1.00  0.00    -0.248 NA
ATOM     48  C   UNL A   1      39.586  27.950  31.772  1.00  0.00     0.031 C 
ATOM     49  C   UNL A   1      40.164  28.112  26.985  1.00  0.00     0.029 A 
ATOM     50  N   UNL A   1      41.859  27.646  28.333  1.00  0.00    -0.354 N 
ATOM     51  C   UNL A   1      41.553  28.692  32.655  1.00  0.00     0.074 A 
ATOM     52  C   UNL A   1      40.280  28.075  32.905  1.00  0.00     0.031 C 
ATOM     53  C   UNL A   1      40.984  27.272  26.311  1.00  0.00     0.029 A 
ATOM     54  C   UNL A   1      42.124  26.952  27.154  1.00  0.00     0.049 A 
ATOM     55  H   UNL A   1      42.500  27.691  29.080  1.00  0.00     0.167 HD
ATOM     56  C   UNL A   1      42.730  28.647  33.338  1.00  0.00     0.037 A 
ATOM     57  C   UNL A   1      43.202  26.169  26.894  1.00  0.00     0.037 A 
ATOM     58  C   UNL A   1      43.733  29.450  32.691  1.00  0.00     0.049 A 
ATOM     59  C   UNL A   1      44.292  26.601  27.793  1.00  0.00     0.074 A 
ATOM     60  C   UNL A   1      44.080  30.781  32.645  1.00  0.00     0.029 A 
ATOM     61  N   UNL A   1      44.326  28.835  31.625  1.00  0.00    -0.354 N 
ATOM     62  N   UNL A   1      44.895  27.750  27.690  1.00  0.00    -0.248 NA
ATOM     63  C   UNL A   1      44.537  25.865  29.030  1.00  0.00     0.031 C 
ATOM     64  C   UNL A   1      44.783  30.970  31.417  1.00  0.00     0.029 A 
ATOM     65  C   UNL A   1      44.881  29.745  30.767  1.00  0.00     0.049 A 
ATOM     66  H   UNL A   1      44.351  27.860  31.490  1.00  0.00     0.167 HD
ATOM     67  C   UNL A   1      45.227  28.068  28.989  1.00  0.00     0.074 A 
ATOM     68  C   UNL A   1      45.160  26.816  29.730  1.00  0.00     0.031 C 
ATOM     69  C   UNL A   1      45.190  29.360  29.412  1.00  0.00     0.037 A 
BRANCH  56  70
ATOM     70  C   UNL A   1      43.129  27.542  34.294  1.00  0.00     0.064 A 
ATOM     71  C   UNL A   1      43.535  26.292  33.780  1.00  0.00     0.173 A 
ATOM     72  C   UNL A   1      42.822  27.557  35.672  1.00  0.00     0.173 A 
ATOM     73  F   UNL A   1      43.821  26.147  32.477  1.00  0.00    -0.203 F 
ATOM     74  C   UNL A   1      43.577  25.141  34.575  1.00  0.00     0.198 A 
ATOM     75  C   UNL A   1      42.912  26.418  36.472  1.00  0.00     0.198 A 
ATOM     76  F   UNL A   1      42.314  28.639  36.273  1.00  0.00    -0.203 F 
ATOM     77  F   UNL A   1      43.864  23.954  34.020  1.00  0.00    -0.200 F 
ATOM     78  C   UNL A   1      43.263  25.204  35.920  1.00  0.00     0.200 A 
ATOM     79  F   UNL A   1      42.575  26.495  37.767  1.00  0.00    -0.200 F 
ATOM     80  F   UNL A   1      43.253  24.097  36.673  1.00  0.00    -0.200 F 
ENDBRANCH  56  70
BRANCH  57  81
ATOM     81  C   UNL A   1      43.337  24.924  26.099  1.00  0.00     0.064 A 
ATOM     82  C   UNL A   1      44.384  24.775  25.169  1.00  0.00     0.173 A 
ATOM     83  C   UNL A   1      42.682  23.747  26.500  1.00  0.00     0.173 A 
ATOM     84  F   UNL A   1      45.073  25.846  24.749  1.00  0.00    -0.203 F 
ATOM     85  C   UNL A   1      44.803  23.515  24.731  1.00  0.00     0.198 A 
ATOM     86  C   UNL A   1      43.102  22.489  26.059  1.00  0.00     0.198 A 
ATOM     87  F   UNL A   1      41.702  23.789  27.414  1.00  0.00    -0.203 F 
ATOM     88  F   UNL A   1      45.868  23.409  23.922  1.00  0.00    -0.200 F 
ATOM     89  C   UNL A   1      44.178  22.372  25.196  1.00  0.00     0.200 A 
ATOM     90  F   UNL A   1      42.511  21.386  26.539  1.00  0.00    -0.200 F 
ATOM     91  F   UNL A   1      44.638  21.161  24.852  1.00  0.00    -0.200 F 
ENDBRANCH  57  81
BRANCH  69  92
ATOM     92  C   UNL A   1      45.313  30.423  28.371  1.00  0.00     0.064 A 
ATOM     93  C   UNL A   1      44.235  30.959  27.648  1.00  0.00     0.173 A 
ATOM     94  C   UNL A   1      46.584  30.963  28.143  1.00  0.00     0.173 A 
ATOM     95  F   UNL A   1      42.982  30.536  27.864  1.00  0.00    -0.203 F 
ATOM     96  C   UNL A   1      44.434  31.973  26.714  1.00  0.00     0.198 A 
ATOM     97  C   UNL A   1      46.775  31.998  27.235  1.00  0.00     0.198 A 
ATOM     98  F   UNL A   1      47.641  30.506  28.833  1.00  0.00    -0.203 F 
ATOM     99  F   UNL A   1      43.394  32.466  26.023  1.00  0.00    -0.200 F 
ATOM    100  C   UNL A   1      45.702  32.497  26.515  1.00  0.00     0.200 A 
ATOM    101  F   UNL A   1      47.996  32.526  27.076  1.00  0.00    -0.200 F 
ATOM    102  F   UNL A   1      45.888  33.499  25.644  1.00  0.00    -0.200 F 
ENDBRANCH  69  92
ENDBRANCH  43  44
ENDBRANCH  35  38
ENDBRANCH  33  34
ENDBRANCH  32  33
ENDBRANCH  31  32
ENDBRANCH   1  31
TORSDOF 15
ENDMDL
MODEL 3
REMARK VINA RESULT:     -14.4      4.160      9.678
REMARK SMILES O=C(Cn1c(-c2nc(-c3ccc(C(F)(F)F)cc3)no2)cc2ccccc21)NCCCCNC(=O)c1ccc(-c2c3nc(c(-c4c(F)c(F)c(F)c(F)c4F)c4ccc([nH]4)c(-c4c(F)c(F)c(F)c(F)c4F)c4nc(c(-c5c(F)c(F)c(F)c(F)c5F)c5ccc2[nH]5)C=C4)C=C3)cc1
REMARK SMILES IDX 29 1 28 2 1 3 2 4 3 6 4 7 5 8 27 9 21 10 22 11 26 12 23 13
REMARK SMILES IDX 25 14 24 15 6 16 7 17 20 18 8 19 19 20 9 21 10 22 18 23
REMARK SMILES IDX 11 24 17 25 12 26 13 27 14 28 15 29 16 30 30 31 31 32 32 33
REMARK SMILES IDX 33 34 34 35 35 37 36 38 37 39 98 40 38 41 97 42 39 43 40 44
REMARK SMILES IDX 41 45 91 46 42 47 96 48 90 49 92 50 43 51 95 52 89 53 88 54
REMARK SMILES IDX 44 56 76 57 56 58 75 59 57 60 60 61 74 62 93 63 58 64 59 65
REMARK SMILES IDX 73 67 94 68 61 69 45 70 46 71 54 72 47 73 48 74 52 75 55 76
REMARK SMILES IDX 49 77 50 78 53 79 51 80 77 81 78 82 86 83 79 84 80 85 84 86
REMARK SMILES IDX 87 87 81 88 82 89 85 90 83 91 62 92 63 93 71 94 64 95 65 96
REMARK SMILES IDX 69 97 72 98 66 99 67 100 70 101 68 102
REMARK H PARENT 28 5 33 36 92 55 60 66
REMARK Flexibility Score: inf
ROOT
ATOM      1  C   UNL A   1      33.411  30.263  26.987  1.00  0.00     0.116 C 
ENDROOT
BRANCH   1   2
ATOM      2  N   UNL A   1      33.101  29.522  25.779  1.00  0.00    -0.355 N 
ATOM      3  O   UNL A   1      31.419  28.221  26.639  1.00  0.00    -0.273 OA
ATOM      4  C   UNL A   1      32.119  28.559  25.683  1.00  0.00     0.239 C 
ATOM      5  H   UNL A   1      33.630  29.720  24.972  1.00  0.00     0.163 HD
BRANCH   4   6
ATOM      6  C   UNL A   1      31.985  27.914  24.308  1.00  0.00     0.222 C 
BRANCH   6   7
ATOM      7  N   UNL A   1      30.599  27.614  23.955  1.00  0.00    -0.327 N 
ATOM      8  C   UNL A   1      29.965  26.390  24.083  1.00  0.00     0.109 A 
ATOM      9  C   UNL A   1      29.713  28.551  23.431  1.00  0.00     0.049 A 
ATOM     10  C   UNL A   1      28.638  26.584  23.750  1.00  0.00     0.042 A 
ATOM     11  C   UNL A   1      28.451  27.953  23.427  1.00  0.00     0.000 A 
ATOM     12  C   UNL A   1      29.892  29.875  22.992  1.00  0.00     0.027 A 
ATOM     13  C   UNL A   1      27.324  28.739  23.111  1.00  0.00     0.010 A 
ATOM     14  C   UNL A   1      28.761  30.644  22.711  1.00  0.00     0.002 A 
ATOM     15  C   UNL A   1      27.489  30.091  22.794  1.00  0.00     0.001 A 
BRANCH   8  16
ATOM     16  C   UNL A   1      30.568  25.190  24.587  1.00  0.00     0.274 A 
ATOM     17  N   UNL A   1      31.077  24.218  23.851  1.00  0.00    -0.185 NA
ATOM     18  O   UNL A   1      30.620  24.914  25.926  1.00  0.00    -0.332 OA
ATOM     19  C   UNL A   1      31.437  23.281  24.798  1.00  0.00     0.202 A 
ATOM     20  N   UNL A   1      31.179  23.654  26.060  1.00  0.00    -0.057 NA
BRANCH  19  21
ATOM     21  C   UNL A   1      32.075  22.001  24.521  1.00  0.00     0.023 A 
ATOM     22  C   UNL A   1      32.014  21.472  23.225  1.00  0.00     0.013 A 
ATOM     23  C   UNL A   1      32.576  21.204  25.557  1.00  0.00     0.013 A 
ATOM     24  C   UNL A   1      32.367  20.142  22.979  1.00  0.00     0.014 A 
ATOM     25  C   UNL A   1      32.919  19.865  25.313  1.00  0.00     0.014 A 
ATOM     26  C   UNL A   1      32.782  19.310  24.030  1.00  0.00     0.056 A 
BRANCH  26  27
ATOM     27  C   UNL A   1      32.996  17.837  23.772  1.00  0.00     0.416 C 
ATOM     28  F   UNL A   1      32.590  17.469  22.524  1.00  0.00    -0.166 F 
ATOM     29  F   UNL A   1      34.305  17.470  23.860  1.00  0.00    -0.166 F 
ATOM     30  F   UNL A   1      32.320  17.026  24.634  1.00  0.00    -0.166 F 
ENDBRANCH  26  27
ENDBRANCH  19  21
ENDBRANCH   8  16
ENDBRANCH   6   7
ENDBRANCH   4   6
ENDBRANCH   1   2
BRANCH   1  31
ATOM     31  C   UNL A   1      34.785  29.883  27.549  1.00  0.00     0.023 C 
BRANCH  31  32
ATOM     32  C   UNL A   1      35.822  31.017  27.644  1.00  0.00     0.023 C 
BRANCH  32  33
ATOM     33  C   UNL A   1      35.310  32.337  28.220  1.00  0.00     0.116 C 
BRANCH  33  34
ATOM     34  N   UNL A   1      34.927  32.264  29.614  1.00  0.00    -0.352 N 
ATOM     35  C   UNL A   1      35.549  31.905  30.776  1.00  0.00     0.251 C 
ATOM     36  H   UNL A   1      33.993  32.538  29.759  1.00  0.00     0.163 HD
ATOM     37  O   UNL A   1      34.949  32.196  31.815  1.00  0.00    -0.269 OA
BRANCH  35  38
ATOM     38  C   UNL A   1      36.820  31.136  30.891  1.00  0.00     0.039 A 
ATOM     39  C   UNL A   1      38.108  31.668  30.856  1.00  0.00     0.014 A 
ATOM     40  C   UNL A   1      36.677  29.733  30.948  1.00  0.00     0.014 A 
ATOM     41  C   UNL A   1      39.210  30.818  30.758  1.00  0.00     0.010 A 
ATOM     42  C   UNL A   1      37.773  28.881  30.860  1.00  0.00     0.010 A 
ATOM     43  C   UNL A   1      39.039  29.427  30.704  1.00  0.00    -0.014 A 
BRANCH  43  44
ATOM     44  C   UNL A   1      40.229  28.583  30.596  1.00  0.00     0.031 A 
ATOM     45  C   UNL A   1      40.962  28.420  31.880  1.00  0.00     0.074 A 
ATOM     46  C   UNL A   1      40.619  27.948  29.468  1.00  0.00     0.049 A 
ATOM     47  N   UNL A   1      42.146  28.852  32.167  1.00  0.00    -0.248 NA
ATOM     48  C   UNL A   1      40.253  27.826  33.024  1.00  0.00     0.031 C 
ATOM     49  C   UNL A   1      39.872  27.801  28.215  1.00  0.00     0.029 A 
ATOM     50  N   UNL A   1      41.762  27.232  29.222  1.00  0.00    -0.354 N 
ATOM     51  C   UNL A   1      42.408  28.425  33.467  1.00  0.00     0.074 A 
ATOM     52  C   UNL A   1      41.168  27.925  33.992  1.00  0.00     0.031 C 
ATOM     53  C   UNL A   1      40.474  26.875  27.431  1.00  0.00     0.029 A 
ATOM     54  C   UNL A   1      41.732  26.485  28.047  1.00  0.00     0.049 A 
ATOM     55  H   UNL A   1      42.541  27.246  29.825  1.00  0.00     0.167 HD
ATOM     56  C   UNL A   1      43.692  28.301  33.907  1.00  0.00     0.037 A 
ATOM     57  C   UNL A   1      42.673  25.607  27.614  1.00  0.00     0.037 A 
ATOM     58  C   UNL A   1      44.603  28.999  33.039  1.00  0.00     0.049 A 
ATOM     59  C   UNL A   1      43.950  25.972  28.261  1.00  0.00     0.074 A 
ATOM     60  C   UNL A   1      45.035  30.293  32.866  1.00  0.00     0.029 A 
ATOM     61  N   UNL A   1      44.921  28.305  31.905  1.00  0.00    -0.354 N 
ATOM     62  N   UNL A   1      44.607  27.063  27.988  1.00  0.00    -0.248 NA
ATOM     63  C   UNL A   1      44.381  25.255  29.457  1.00  0.00     0.031 C 
ATOM     64  C   UNL A   1      45.490  30.387  31.516  1.00  0.00     0.029 A 
ATOM     65  C   UNL A   1      45.362  29.140  30.915  1.00  0.00     0.049 A 
ATOM     66  H   UNL A   1      44.844  27.328  31.813  1.00  0.00     0.167 HD
ATOM     67  C   UNL A   1      45.215  27.389  29.181  1.00  0.00     0.074 A 
ATOM     68  C   UNL A   1      45.203  26.169  29.977  1.00  0.00     0.031 C 
ATOM     69  C   UNL A   1      45.363  28.692  29.544  1.00  0.00     0.037 A 
BRANCH  56  70
ATOM     70  C   UNL A   1      44.188  27.195  34.814  1.00  0.00     0.064 A 
ATOM     71  C   UNL A   1      44.099  25.853  34.386  1.00  0.00     0.173 A 
ATOM     72  C   UNL A   1      44.441  27.373  36.192  1.00  0.00     0.173 A 
ATOM     73  F   UNL A   1      43.829  25.560  33.104  1.00  0.00    -0.203 F 
ATOM     74  C   UNL A   1      44.204  24.781  35.279  1.00  0.00     0.198 A 
ATOM     75  C   UNL A   1      44.592  26.301  37.070  1.00  0.00     0.198 A 
ATOM     76  F   UNL A   1      44.436  28.583  36.762  1.00  0.00    -0.203 F 
ATOM     77  F   UNL A   1      44.005  23.527  34.845  1.00  0.00    -0.200 F 
ATOM     78  C   UNL A   1      44.448  25.005  36.621  1.00  0.00     0.200 A 
ATOM     79  F   UNL A   1      44.800  26.541  38.372  1.00  0.00    -0.200 F 
ATOM     80  F   UNL A   1      44.498  23.985  37.487  1.00  0.00    -0.200 F 
ENDBRANCH  56  70
BRANCH  57  81
ATOM     81  C   UNL A   1      42.550  24.333  26.866  1.00  0.00     0.064 A 
ATOM     82  C   UNL A   1      43.076  24.210  25.565  1.00  0.00     0.173 A 
ATOM     83  C   UNL A   1      42.257  23.135  27.539  1.00  0.00     0.173 A 
ATOM     84  F   UNL A   1      43.401  25.304  24.861  1.00  0.00    -0.203 F 
ATOM     85  C   UNL A   1      43.368  22.962  25.006  1.00  0.00     0.198 A 
ATOM     86  C   UNL A   1      42.548  21.889  26.977  1.00  0.00     0.198 A 
ATOM     87  F   UNL A   1      41.793  23.155  28.797  1.00  0.00    -0.203 F 
ATOM     88  F   UNL A   1      43.959  22.890  23.804  1.00  0.00    -0.200 F 
ATOM     89  C   UNL A   1      43.127  21.803  25.722  1.00  0.00     0.200 A 
ATOM     90  F   UNL A   1      42.340  20.773  27.691  1.00  0.00    -0.200 F 
ATOM     91  F   UNL A   1      43.493  20.613  25.228  1.00  0.00    -0.200 F 
ENDBRANCH  57  81
BRANCH  69  92
ATOM     92  C   UNL A   1      45.356  29.710  28.453  1.00  0.00     0.064 A 
ATOM     93  C   UNL A   1      44.198  30.302  27.924  1.00  0.00     0.173 A 
ATOM     94  C   UNL A   1      46.593  30.146  27.965  1.00  0.00     0.173 A 
ATOM     95  F   UNL A   1      42.984  29.981  28.390  1.00  0.00    -0.203 F 
ATOM     96  C   UNL A   1      44.283  31.270  26.924  1.00  0.00     0.198 A 
ATOM     97  C   UNL A   1      46.676  31.135  26.992  1.00  0.00     0.198 A 
ATOM     98  F   UNL A   1      47.730  29.632  28.463  1.00  0.00    -0.203 F 
ATOM     99  F   UNL A   1      43.166  31.818  26.421  1.00  0.00    -0.200 F 
ATOM    100  C   UNL A   1      45.521  31.691  26.466  1.00  0.00     0.200 A 
ATOM    101  F   UNL A   1      47.877  31.565  26.582  1.00  0.00    -0.200 F 
ATOM    102  F   UNL A   1      45.605  32.649  25.532  1.00  0.00    -0.200 F 
ENDBRANCH  69  92
ENDBRANCH  43  44
ENDBRANCH  35  38
ENDBRANCH  33  34
ENDBRANCH  32  33
ENDBRANCH  31  32
ENDBRANCH   1  31
TORSDOF 15
ENDMDL
