MODEL 1
REMARK VINA RESULT:     -13.7      0.000      0.000
REMARK SMILES NS(=O)(=O)c1ccc(-c2cc(Cl)cc3c2O[C@H](C(F)(F)F)C(C(=O)NCCCCNC(=O)c2ccc(-c4c5nc(c(-c6c(F)c(F)c(F)c(F)c6F)c6ccc([nH]6)c(-c6c(F)c(F)c(F)c(F)c6F)c6nc(c(-c7c(F)c(F)c(F)c(F)c7F)c7ccc4[nH]7)C=C6)C=C5)cc2)=C3)cc1
REMARK SMILES IDX 27 1 26 2 25 3 23 4 24 5 22 7 9 8 10 9 15 10 11 11 14 12
REMARK SMILES IDX 16 13 12 14 13 15 96 16 17 17 8 18 5 19 6 20 98 21 7 22
REMARK SMILES IDX 97 23 2 24 3 25 4 26 1 27 18 30 19 31 20 32 21 33 28 34
REMARK SMILES IDX 29 35 30 36 31 37 32 39 33 40 34 41 95 42 35 43 94 44 36 45
REMARK SMILES IDX 37 46 38 47 88 48 39 49 93 50 87 51 89 52 40 53 92 54 86 55
REMARK SMILES IDX 85 56 41 58 73 59 53 60 72 61 54 62 57 63 71 64 90 65 55 66
REMARK SMILES IDX 56 67 70 69 91 70 58 71 42 72 43 73 51 74 44 75 45 76 49 77
REMARK SMILES IDX 52 78 46 79 47 80 50 81 48 82 74 83 75 84 83 85 76 86 77 87
REMARK SMILES IDX 81 88 84 89 78 90 79 91 82 92 80 93 59 94 60 95 68 96 61 97
REMARK SMILES IDX 62 98 66 99 69 100 63 101 64 102 67 103 65 104
REMARK H PARENT 25 6 1 28 1 29 30 38 89 57 57 68
REMARK Flexibility Score: inf
ROOT
ATOM      1  C   UNL A   1      36.859  21.079  24.650  1.00  0.00     0.023 C 
ENDROOT
BRANCH   1   2
ATOM      2  C   UNL A   1      35.865  21.453  25.759  1.00  0.00     0.116 C 
BRANCH   2   3
ATOM      3  N   UNL A   1      35.777  22.893  25.863  1.00  0.00    -0.352 N 
ATOM      4  C   UNL A   1      34.982  23.761  25.200  1.00  0.00     0.251 C 
ATOM      5  O   UNL A   1      35.422  24.888  24.990  1.00  0.00    -0.270 OA
ATOM      6  H   UNL A   1      36.390  23.303  26.517  1.00  0.00     0.163 HD
BRANCH   4   7
ATOM      7  C   UNL A   1      33.577  23.359  24.889  1.00  0.00     0.067 C 
ATOM      8  C   UNL A   1      31.926  27.013  24.157  1.00  0.00     0.026 A 
ATOM      9  C   UNL A   1      32.463  27.879  25.146  1.00  0.00     0.033 A 
ATOM     10  C   UNL A   1      32.131  25.636  24.364  1.00  0.00     0.135 A 
ATOM     11  C   UNL A   1      32.954  27.411  26.361  1.00  0.00     0.042 A 
ATOM     12  C   UNL A   1      32.505  25.186  25.652  1.00  0.00     0.019 A 
ATOM     13  O   UNL A   1      32.058  24.686  23.352  1.00  0.00    -0.475 OA
ATOM     14  Cl  UNL A   1      33.604  28.517  27.505  1.00  0.00    -0.084 Cl
ATOM     15  C   UNL A   1      32.889  26.066  26.659  1.00  0.00     0.032 A 
ATOM     16  C   UNL A   1      32.703  23.732  25.844  1.00  0.00     0.025 C 
ATOM     17  C   UNL A   1      33.109  23.618  23.461  1.00  0.00     0.314 C 
BRANCH   8  18
ATOM     18  C   UNL A   1      30.969  27.671  23.220  1.00  0.00    -0.015 A 
ATOM     19  C   UNL A   1      29.186  29.711  22.387  1.00  0.00     0.082 A 
ATOM     20  C   UNL A   1      30.522  29.753  21.990  1.00  0.00     0.022 A 
ATOM     21  C   UNL A   1      28.706  28.615  23.105  1.00  0.00     0.022 A 
ATOM     22  C   UNL A   1      31.396  28.726  22.380  1.00  0.00     0.010 A 
ATOM     23  C   UNL A   1      29.590  27.595  23.501  1.00  0.00     0.010 A 
BRANCH  19  24
ATOM     24  S   UNL A   1      28.146  31.126  22.134  1.00  0.00     0.238 S 
ATOM     25  O   UNL A   1      27.269  31.291  23.264  1.00  0.00    -0.207 OA
ATOM     26  O   UNL A   1      27.653  31.104  20.772  1.00  0.00    -0.207 OA
BRANCH  24  27
ATOM     27  N   UNL A   1      29.229  32.404  22.212  1.00  0.00    -0.225 NA
ATOM     28  H   UNL A   1      29.320  32.829  21.289  1.00  0.00     0.137 HD
ATOM     29  H   UNL A   1      30.140  32.060  22.519  1.00  0.00     0.137 HD
ENDBRANCH  24  27
ENDBRANCH  19  24
ENDBRANCH   8  18
BRANCH  17  30
ATOM     30  C   UNL A   1      32.626  22.271  22.870  1.00  0.00     0.429 C 
ATOM     31  F   UNL A   1      32.885  22.153  21.550  1.00  0.00    -0.167 F 
ATOM     32  F   UNL A   1      33.207  21.222  23.501  1.00  0.00    -0.167 F 
ATOM     33  F   UNL A   1      31.283  22.094  23.016  1.00  0.00    -0.167 F 
ENDBRANCH  17  30
ENDBRANCH   4   7
ENDBRANCH   2   3
ENDBRANCH   1   2
BRANCH   1  34
ATOM     34  C   UNL A   1      37.837  19.948  25.001  1.00  0.00     0.023 C 
BRANCH  34  35
ATOM     35  C   UNL A   1      39.081  20.392  25.760  1.00  0.00     0.116 C 
BRANCH  35  36
ATOM     36  N   UNL A   1      40.030  19.304  25.930  1.00  0.00    -0.352 N 
ATOM     37  C   UNL A   1      41.387  19.360  26.126  1.00  0.00     0.251 C 
ATOM     38  H   UNL A   1      39.644  18.399  25.899  1.00  0.00     0.163 HD
ATOM     39  O   UNL A   1      42.067  18.343  26.045  1.00  0.00    -0.269 OA
BRANCH  37  40
ATOM     40  C   UNL A   1      42.032  20.660  26.411  1.00  0.00     0.039 A 
ATOM     41  C   UNL A   1      42.381  21.493  25.346  1.00  0.00     0.014 A 
ATOM     42  C   UNL A   1      42.277  21.060  27.728  1.00  0.00     0.014 A 
ATOM     43  C   UNL A   1      42.911  22.759  25.604  1.00  0.00     0.010 A 
ATOM     44  C   UNL A   1      42.728  22.351  27.984  1.00  0.00     0.010 A 
ATOM     45  C   UNL A   1      43.048  23.215  26.925  1.00  0.00    -0.014 A 
BRANCH  45  46
ATOM     46  C   UNL A   1      43.517  24.594  27.224  1.00  0.00     0.031 A 
ATOM     47  C   UNL A   1      42.554  25.620  27.754  1.00  0.00     0.074 A 
ATOM     48  C   UNL A   1      44.789  24.942  26.948  1.00  0.00     0.049 A 
ATOM     49  N   UNL A   1      42.745  26.894  27.988  1.00  0.00    -0.248 NA
ATOM     50  C   UNL A   1      41.185  25.158  28.033  1.00  0.00     0.031 C 
ATOM     51  C   UNL A   1      45.808  24.051  26.394  1.00  0.00     0.029 A 
ATOM     52  N   UNL A   1      45.439  26.145  27.080  1.00  0.00    -0.354 N 
ATOM     53  C   UNL A   1      41.522  27.385  28.426  1.00  0.00     0.074 A 
ATOM     54  C   UNL A   1      40.582  26.287  28.371  1.00  0.00     0.031 C 
ATOM     55  C   UNL A   1      46.958  24.730  26.253  1.00  0.00     0.029 A 
ATOM     56  C   UNL A   1      46.747  26.115  26.660  1.00  0.00     0.049 A 
ATOM     57  H   UNL A   1      45.008  26.953  27.444  1.00  0.00     0.167 HD
ATOM     58  C   UNL A   1      41.218  28.633  28.856  1.00  0.00     0.037 A 
ATOM     59  C   UNL A   1      47.666  27.098  26.592  1.00  0.00     0.037 A 
ATOM     60  C   UNL A   1      42.163  29.718  28.923  1.00  0.00     0.049 A 
ATOM     61  C   UNL A   1      47.292  28.484  27.046  1.00  0.00     0.074 A 
ATOM     62  C   UNL A   1      41.967  31.003  29.397  1.00  0.00     0.029 A 
ATOM     63  N   UNL A   1      43.481  29.645  28.494  1.00  0.00    -0.354 N 
ATOM     64  N   UNL A   1      46.152  28.921  27.525  1.00  0.00    -0.248 NA
ATOM     65  C   UNL A   1      48.335  29.516  26.953  1.00  0.00     0.031 C 
ATOM     66  C   UNL A   1      43.146  31.726  29.197  1.00  0.00     0.029 A 
ATOM     67  C   UNL A   1      44.099  30.874  28.665  1.00  0.00     0.049 A 
ATOM     68  H   UNL A   1      43.912  28.841  28.125  1.00  0.00     0.167 HD
ATOM     69  C   UNL A   1      46.350  30.263  27.822  1.00  0.00     0.074 A 
ATOM     70  C   UNL A   1      47.724  30.567  27.481  1.00  0.00     0.031 C 
ATOM     71  C   UNL A   1      45.473  31.161  28.333  1.00  0.00     0.037 A 
BRANCH  58  72
ATOM     72  C   UNL A   1      39.802  28.897  29.284  1.00  0.00     0.064 A 
ATOM     73  C   UNL A   1      38.831  29.358  28.383  1.00  0.00     0.173 A 
ATOM     74  C   UNL A   1      39.402  28.648  30.606  1.00  0.00     0.173 A 
ATOM     75  F   UNL A   1      39.161  29.621  27.109  1.00  0.00    -0.203 F 
ATOM     76  C   UNL A   1      37.521  29.591  28.795  1.00  0.00     0.198 A 
ATOM     77  C   UNL A   1      38.082  28.848  31.006  1.00  0.00     0.198 A 
ATOM     78  F   UNL A   1      40.286  28.200  31.509  1.00  0.00    -0.203 F 
ATOM     79  F   UNL A   1      36.625  30.083  27.929  1.00  0.00    -0.200 F 
ATOM     80  C   UNL A   1      37.146  29.328  30.104  1.00  0.00     0.200 A 
ATOM     81  F   UNL A   1      37.718  28.577  32.268  1.00  0.00    -0.200 F 
ATOM     82  F   UNL A   1      35.883  29.543  30.497  1.00  0.00    -0.200 F 
ENDBRANCH  58  72
BRANCH  59  83
ATOM     83  C   UNL A   1      49.032  26.806  26.083  1.00  0.00     0.064 A 
ATOM     84  C   UNL A   1      49.359  27.011  24.735  1.00  0.00     0.173 A 
ATOM     85  C   UNL A   1      50.036  26.306  26.927  1.00  0.00     0.173 A 
ATOM     86  F   UNL A   1      48.430  27.469  23.883  1.00  0.00    -0.203 F 
ATOM     87  C   UNL A   1      50.627  26.703  24.245  1.00  0.00     0.198 A 
ATOM     88  C   UNL A   1      51.313  26.030  26.443  1.00  0.00     0.198 A 
ATOM     89  F   UNL A   1      49.779  26.096  28.226  1.00  0.00    -0.203 F 
ATOM     90  F   UNL A   1      50.895  26.859  22.942  1.00  0.00    -0.200 F 
ATOM     91  C   UNL A   1      51.605  26.219  25.100  1.00  0.00     0.200 A 
ATOM     92  F   UNL A   1      52.261  25.579  27.276  1.00  0.00    -0.200 F 
ATOM     93  F   UNL A   1      52.825  25.926  24.630  1.00  0.00    -0.200 F 
ENDBRANCH  59  83
BRANCH  71  94
ATOM     94  C   UNL A   1      45.978  32.550  28.602  1.00  0.00     0.064 A 
ATOM     95  C   UNL A   1      45.866  33.576  27.653  1.00  0.00     0.173 A 
ATOM     96  C   UNL A   1      46.529  32.870  29.853  1.00  0.00     0.173 A 
ATOM     97  F   UNL A   1      45.360  33.320  26.437  1.00  0.00    -0.203 F 
ATOM     98  C   UNL A   1      46.308  34.866  27.939  1.00  0.00     0.198 A 
ATOM     99  C   UNL A   1      46.937  34.168  30.147  1.00  0.00     0.198 A 
ATOM    100  F   UNL A   1      46.653  31.928  30.800  1.00  0.00    -0.203 F 
ATOM    101  F   UNL A   1      46.235  35.820  26.999  1.00  0.00    -0.200 F 
ATOM    102  C   UNL A   1      46.834  35.162  29.187  1.00  0.00     0.200 A 
ATOM    103  F   UNL A   1      47.428  34.456  31.360  1.00  0.00    -0.200 F 
ATOM    104  F   UNL A   1      47.244  36.408  29.464  1.00  0.00    -0.200 F 
ENDBRANCH  71  94
ENDBRANCH  45  46
ENDBRANCH  37  40
ENDBRANCH  35  36
ENDBRANCH  34  35
ENDBRANCH   1  34
TORSDOF 15
ENDMDL
MODEL 2
REMARK VINA RESULT:     -13.4      5.647     11.128
REMARK SMILES NS(=O)(=O)c1ccc(-c2cc(Cl)cc3c2O[C@H](C(F)(F)F)C(C(=O)NCCCCNC(=O)c2ccc(-c4c5nc(c(-c6c(F)c(F)c(F)c(F)c6F)c6ccc([nH]6)c(-c6c(F)c(F)c(F)c(F)c6F)c6nc(c(-c7c(F)c(F)c(F)c(F)c7F)c7ccc4[nH]7)C=C6)C=C5)cc2)=C3)cc1
REMARK SMILES IDX 27 1 26 2 25 3 23 4 24 5 22 7 9 8 10 9 15 10 11 11 14 12
REMARK SMILES IDX 16 13 12 14 13 15 96 16 17 17 8 18 5 19 6 20 98 21 7 22
REMARK SMILES IDX 97 23 2 24 3 25 4 26 1 27 18 30 19 31 20 32 21 33 28 34
REMARK SMILES IDX 29 35 30 36 31 37 32 39 33 40 34 41 95 42 35 43 94 44 36 45
REMARK SMILES IDX 37 46 38 47 88 48 39 49 93 50 87 51 89 52 40 53 92 54 86 55
REMARK SMILES IDX 85 56 41 58 73 59 53 60 72 61 54 62 57 63 71 64 90 65 55 66
REMARK SMILES IDX 56 67 70 69 91 70 58 71 42 72 43 73 51 74 44 75 45 76 49 77
REMARK SMILES IDX 52 78 46 79 47 80 50 81 48 82 74 83 75 84 83 85 76 86 77 87
REMARK SMILES IDX 81 88 84 89 78 90 79 91 82 92 80 93 59 94 60 95 68 96 61 97
REMARK SMILES IDX 62 98 66 99 69 100 63 101 64 102 67 103 65 104
REMARK H PARENT 25 6 1 28 1 29 30 38 89 57 57 68
REMARK Flexibility Score: inf
ROOT
ATOM      1  C   UNL A   1      31.500  30.464  26.570  1.00  0.00     0.023 C 
ENDROOT
BRANCH   1   2
ATOM      2  C   UNL A   1      32.162  29.753  25.381  1.00  0.00     0.116 C 
BRANCH   2   3
ATOM      3  N   UNL A   1      32.970  28.655  25.863  1.00  0.00    -0.352 N 
ATOM      4  C   UNL A   1      32.705  27.330  25.882  1.00  0.00     0.251 C 
ATOM      5  O   UNL A   1      33.193  26.666  26.793  1.00  0.00    -0.270 OA
ATOM      6  H   UNL A   1      33.846  28.912  26.234  1.00  0.00     0.163 HD
BRANCH   4   7
ATOM      7  C   UNL A   1      31.967  26.725  24.733  1.00  0.00     0.067 C 
ATOM      8  C   UNL A   1      33.207  22.854  25.034  1.00  0.00     0.026 A 
ATOM      9  C   UNL A   1      34.594  22.920  25.335  1.00  0.00     0.033 A 
ATOM     10  C   UNL A   1      32.608  24.056  24.612  1.00  0.00     0.135 A 
ATOM     11  C   UNL A   1      35.375  24.027  25.016  1.00  0.00     0.042 A 
ATOM     12  C   UNL A   1      33.436  25.115  24.170  1.00  0.00     0.019 A 
ATOM     13  O   UNL A   1      31.241  24.297  24.668  1.00  0.00    -0.475 OA
ATOM     14  Cl  UNL A   1      37.044  24.043  25.425  1.00  0.00    -0.084 Cl
ATOM     15  C   UNL A   1      34.817  25.094  24.343  1.00  0.00     0.032 A 
ATOM     16  C   UNL A   1      32.780  26.362  23.721  1.00  0.00     0.025 C 
ATOM     17  C   UNL A   1      30.899  25.697  25.092  1.00  0.00     0.314 C 
BRANCH   8  18
ATOM     18  C   UNL A   1      32.671  21.466  24.915  1.00  0.00    -0.015 A 
ATOM     19  C   UNL A   1      32.859  18.672  24.486  1.00  0.00     0.082 A 
ATOM     20  C   UNL A   1      32.899  19.178  25.785  1.00  0.00     0.022 A 
ATOM     21  C   UNL A   1      32.623  19.528  23.410  1.00  0.00     0.022 A 
ATOM     22  C   UNL A   1      32.777  20.561  25.995  1.00  0.00     0.010 A 
ATOM     23  C   UNL A   1      32.512  20.913  23.628  1.00  0.00     0.010 A 
BRANCH  19  24
ATOM     24  S   UNL A   1      33.281  16.974  24.188  1.00  0.00     0.238 S 
ATOM     25  O   UNL A   1      33.508  16.771  22.780  1.00  0.00    -0.207 OA
ATOM     26  O   UNL A   1      32.389  16.129  24.955  1.00  0.00    -0.207 OA
BRANCH  24  27
ATOM     27  N   UNL A   1      34.787  16.831  24.913  1.00  0.00    -0.225 NA
ATOM     28  H   UNL A   1      35.016  17.700  25.394  1.00  0.00     0.137 HD
ATOM     29  H   UNL A   1      35.491  16.642  24.199  1.00  0.00     0.137 HD
ENDBRANCH  24  27
ENDBRANCH  19  24
ENDBRANCH   8  18
BRANCH  17  30
ATOM     30  C   UNL A   1      29.559  26.174  24.481  1.00  0.00     0.429 C 
ATOM     31  F   UNL A   1      28.512  26.009  25.318  1.00  0.00    -0.167 F 
ATOM     32  F   UNL A   1      29.614  27.484  24.141  1.00  0.00    -0.167 F 
ATOM     33  F   UNL A   1      29.246  25.505  23.337  1.00  0.00    -0.167 F 
ENDBRANCH  17  30
ENDBRANCH   4   7
ENDBRANCH   2   3
ENDBRANCH   1   2
BRANCH   1  34
ATOM     34  C   UNL A   1      31.518  31.998  26.508  1.00  0.00     0.023 C 
BRANCH  34  35
ATOM     35  C   UNL A   1      32.665  32.654  27.265  1.00  0.00     0.116 C 
BRANCH  35  36
ATOM     36  N   UNL A   1      32.387  34.049  27.569  1.00  0.00    -0.352 N 
ATOM     37  C   UNL A   1      32.949  34.855  28.527  1.00  0.00     0.251 C 
ATOM     38  H   UNL A   1      31.699  34.474  27.008  1.00  0.00     0.163 HD
ATOM     39  O   UNL A   1      32.454  35.948  28.784  1.00  0.00    -0.269 OA
BRANCH  37  40
ATOM     40  C   UNL A   1      34.140  34.391  29.269  1.00  0.00     0.039 A 
ATOM     41  C   UNL A   1      33.971  33.787  30.516  1.00  0.00     0.014 A 
ATOM     42  C   UNL A   1      35.420  34.538  28.726  1.00  0.00     0.014 A 
ATOM     43  C   UNL A   1      35.079  33.266  31.188  1.00  0.00     0.010 A 
ATOM     44  C   UNL A   1      36.509  33.947  29.357  1.00  0.00     0.010 A 
ATOM     45  C   UNL A   1      36.351  33.303  30.595  1.00  0.00    -0.014 A 
BRANCH  45  46
ATOM     46  C   UNL A   1      37.528  32.668  31.244  1.00  0.00     0.031 A 
ATOM     47  C   UNL A   1      38.231  31.521  30.575  1.00  0.00     0.074 A 
ATOM     48  C   UNL A   1      37.916  33.076  32.468  1.00  0.00     0.049 A 
ATOM     49  N   UNL A   1      39.213  30.777  31.019  1.00  0.00    -0.248 NA
ATOM     50  C   UNL A   1      37.748  31.140  29.238  1.00  0.00     0.031 C 
ATOM     51  C   UNL A   1      37.291  34.151  33.239  1.00  0.00     0.029 A 
ATOM     52  N   UNL A   1      38.921  32.623  33.288  1.00  0.00    -0.354 N 
ATOM     53  C   UNL A   1      39.453  29.836  30.027  1.00  0.00     0.074 A 
ATOM     54  C   UNL A   1      38.479  30.065  28.982  1.00  0.00     0.031 C 
ATOM     55  C   UNL A   1      37.938  34.289  34.408  1.00  0.00     0.029 A 
ATOM     56  C   UNL A   1      38.990  33.282  34.492  1.00  0.00     0.049 A 
ATOM     57  H   UNL A   1      39.535  31.895  33.035  1.00  0.00     0.167 HD
ATOM     58  C   UNL A   1      40.414  28.882  29.981  1.00  0.00     0.037 A 
ATOM     59  C   UNL A   1      39.799  33.084  35.551  1.00  0.00     0.037 A 
ATOM     60  C   UNL A   1      41.392  28.670  31.017  1.00  0.00     0.049 A 
ATOM     61  C   UNL A   1      40.838  31.995  35.487  1.00  0.00     0.074 A 
ATOM     62  C   UNL A   1      42.441  27.768  31.040  1.00  0.00     0.029 A 
ATOM     63  N   UNL A   1      41.433  29.362  32.218  1.00  0.00    -0.354 N 
ATOM     64  N   UNL A   1      41.103  31.158  34.514  1.00  0.00    -0.248 NA
ATOM     65  C   UNL A   1      41.694  31.827  36.670  1.00  0.00     0.031 C 
ATOM     66  C   UNL A   1      43.078  27.870  32.280  1.00  0.00     0.029 A 
ATOM     67  C   UNL A   1      42.472  28.885  33.002  1.00  0.00     0.049 A 
ATOM     68  H   UNL A   1      40.817  30.086  32.476  1.00  0.00     0.167 HD
ATOM     69  C   UNL A   1      42.174  30.389  34.951  1.00  0.00     0.074 A 
ATOM     70  C   UNL A   1      42.518  30.868  36.273  1.00  0.00     0.031 C 
ATOM     71  C   UNL A   1      42.814  29.379  34.313  1.00  0.00     0.037 A 
BRANCH  58  72
ATOM     72  C   UNL A   1      40.455  27.991  28.773  1.00  0.00     0.064 A 
ATOM     73  C   UNL A   1      41.202  28.323  27.633  1.00  0.00     0.173 A 
ATOM     74  C   UNL A   1      39.768  26.766  28.769  1.00  0.00     0.173 A 
ATOM     75  F   UNL A   1      41.870  29.486  27.578  1.00  0.00    -0.203 F 
ATOM     76  C   UNL A   1      41.235  27.482  26.524  1.00  0.00     0.198 A 
ATOM     77  C   UNL A   1      39.833  25.910  27.673  1.00  0.00     0.198 A 
ATOM     78  F   UNL A   1      39.044  26.393  29.834  1.00  0.00    -0.203 F 
ATOM     79  F   UNL A   1      41.912  27.847  25.427  1.00  0.00    -0.200 F 
ATOM     80  C   UNL A   1      40.557  26.272  26.547  1.00  0.00     0.200 A 
ATOM     81  F   UNL A   1      39.190  24.734  27.704  1.00  0.00    -0.200 F 
ATOM     82  F   UNL A   1      40.598  25.458  25.484  1.00  0.00    -0.200 F 
ENDBRANCH  58  72
BRANCH  59  83
ATOM     83  C   UNL A   1      39.667  33.940  36.760  1.00  0.00     0.064 A 
ATOM     84  C   UNL A   1      38.890  33.529  37.853  1.00  0.00     0.173 A 
ATOM     85  C   UNL A   1      40.300  35.189  36.845  1.00  0.00     0.173 A 
ATOM     86  F   UNL A   1      38.248  32.353  37.813  1.00  0.00    -0.203 F 
ATOM     87  C   UNL A   1      38.732  34.345  38.972  1.00  0.00     0.198 A 
ATOM     88  C   UNL A   1      40.169  35.988  37.979  1.00  0.00     0.198 A 
ATOM     89  F   UNL A   1      41.059  35.628  35.830  1.00  0.00    -0.203 F 
ATOM     90  F   UNL A   1      37.941  33.950  39.979  1.00  0.00    -0.200 F 
ATOM     91  C   UNL A   1      39.376  35.570  39.037  1.00  0.00     0.200 A 
ATOM     92  F   UNL A   1      40.807  37.165  38.044  1.00  0.00    -0.200 F 
ATOM     93  F   UNL A   1      39.227  36.353  40.115  1.00  0.00    -0.200 F 
ENDBRANCH  59  83
BRANCH  71  94
ATOM     94  C   UNL A   1      43.986  28.749  35.010  1.00  0.00     0.064 A 
ATOM     95  C   UNL A   1      45.285  29.261  34.885  1.00  0.00     0.173 A 
ATOM     96  C   UNL A   1      43.793  27.650  35.862  1.00  0.00     0.173 A 
ATOM     97  F   UNL A   1      45.527  30.301  34.072  1.00  0.00    -0.203 F 
ATOM     98  C   UNL A   1      46.352  28.682  35.570  1.00  0.00     0.198 A 
ATOM     99  C   UNL A   1      44.855  27.097  36.571  1.00  0.00     0.198 A 
ATOM    100  F   UNL A   1      42.569  27.124  36.023  1.00  0.00    -0.203 F 
ATOM    101  F   UNL A   1      47.593  29.159  35.398  1.00  0.00    -0.200 F 
ATOM    102  C   UNL A   1      46.134  27.608  36.419  1.00  0.00     0.200 A 
ATOM    103  F   UNL A   1      44.639  26.070  37.406  1.00  0.00    -0.200 F 
ATOM    104  F   UNL A   1      47.159  27.063  37.089  1.00  0.00    -0.200 F 
ENDBRANCH  71  94
ENDBRANCH  45  46
ENDBRANCH  37  40
ENDBRANCH  35  36
ENDBRANCH  34  35
ENDBRANCH   1  34
TORSDOF 15
ENDMDL
MODEL 3
REMARK VINA RESULT:     -13.4      4.985      8.888
REMARK SMILES NS(=O)(=O)c1ccc(-c2cc(Cl)cc3c2O[C@H](C(F)(F)F)C(C(=O)NCCCCNC(=O)c2ccc(-c4c5nc(c(-c6c(F)c(F)c(F)c(F)c6F)c6ccc([nH]6)c(-c6c(F)c(F)c(F)c(F)c6F)c6nc(c(-c7c(F)c(F)c(F)c(F)c7F)c7ccc4[nH]7)C=C6)C=C5)cc2)=C3)cc1
REMARK SMILES IDX 27 1 26 2 25 3 23 4 24 5 22 7 9 8 10 9 15 10 11 11 14 12
REMARK SMILES IDX 16 13 12 14 13 15 96 16 17 17 8 18 5 19 6 20 98 21 7 22
REMARK SMILES IDX 97 23 2 24 3 25 4 26 1 27 18 30 19 31 20 32 21 33 28 34
REMARK SMILES IDX 29 35 30 36 31 37 32 39 33 40 34 41 95 42 35 43 94 44 36 45
REMARK SMILES IDX 37 46 38 47 88 48 39 49 93 50 87 51 89 52 40 53 92 54 86 55
REMARK SMILES IDX 85 56 41 58 73 59 53 60 72 61 54 62 57 63 71 64 90 65 55 66
REMARK SMILES IDX 56 67 70 69 91 70 58 71 42 72 43 73 51 74 44 75 45 76 49 77
REMARK SMILES IDX 52 78 46 79 47 80 50 81 48 82 74 83 75 84 83 85 76 86 77 87
REMARK SMILES IDX 81 88 84 89 78 90 79 91 82 92 80 93 59 94 60 95 68 96 61 97
REMARK SMILES IDX 62 98 66 99 69 100 63 101 64 102 67 103 65 104
REMARK H PARENT 25 6 1 28 1 29 30 38 89 57 57 68
REMARK Flexibility Score: inf
ROOT
ATOM      1  C   UNL A   1      30.698  29.786  24.564  1.00  0.00     0.023 C 
ENDROOT
BRANCH   1   2
ATOM      2  C   UNL A   1      30.068  28.970  23.426  1.00  0.00     0.116 C 
BRANCH   2   3
ATOM      3  N   UNL A   1      29.612  27.697  23.938  1.00  0.00    -0.352 N 
ATOM      4  C   UNL A   1      30.133  26.462  23.772  1.00  0.00     0.251 C 
ATOM      5  O   UNL A   1      29.354  25.513  23.769  1.00  0.00    -0.270 OA
ATOM      6  H   UNL A   1      28.799  27.738  24.493  1.00  0.00     0.163 HD
BRANCH   4   7
ATOM      7  C   UNL A   1      31.618  26.302  23.746  1.00  0.00     0.067 C 
ATOM      8  C   UNL A   1      31.928  22.304  24.475  1.00  0.00     0.026 A 
ATOM      9  C   UNL A   1      30.965  22.024  25.482  1.00  0.00     0.033 A 
ATOM     10  C   UNL A   1      32.205  23.665  24.246  1.00  0.00     0.135 A 
ATOM     11  C   UNL A   1      30.493  23.000  26.355  1.00  0.00     0.042 A 
ATOM     12  C   UNL A   1      31.822  24.615  25.222  1.00  0.00     0.019 A 
ATOM     13  O   UNL A   1      32.774  24.148  23.074  1.00  0.00    -0.475 OA
ATOM     14  Cl  UNL A   1      29.316  22.592  27.539  1.00  0.00    -0.084 Cl
ATOM     15  C   UNL A   1      30.993  24.284  26.290  1.00  0.00     0.032 A 
ATOM     16  C   UNL A   1      32.137  26.037  24.961  1.00  0.00     0.025 C 
ATOM     17  C   UNL A   1      32.178  25.448  22.614  1.00  0.00     0.314 C 
BRANCH   8  18
ATOM     18  C   UNL A   1      32.715  21.116  24.034  1.00  0.00    -0.015 A 
ATOM     19  C   UNL A   1      33.465  18.383  24.053  1.00  0.00     0.082 A 
ATOM     20  C   UNL A   1      32.519  18.836  23.134  1.00  0.00     0.022 A 
ATOM     21  C   UNL A   1      34.116  19.291  24.889  1.00  0.00     0.022 A 
ATOM     22  C   UNL A   1      32.171  20.196  23.109  1.00  0.00     0.010 A 
ATOM     23  C   UNL A   1      33.755  20.650  24.865  1.00  0.00     0.010 A 
BRANCH  19  24
ATOM     24  S   UNL A   1      33.711  16.641  24.279  1.00  0.00     0.238 S 
ATOM     25  O   UNL A   1      34.076  16.037  23.023  1.00  0.00    -0.207 OA
ATOM     26  O   UNL A   1      32.639  16.120  25.102  1.00  0.00    -0.207 OA
BRANCH  24  27
ATOM     27  N   UNL A   1      35.093  16.578  25.228  1.00  0.00    -0.225 NA
ATOM     28  H   UNL A   1      35.917  16.565  24.627  1.00  0.00     0.137 HD
ATOM     29  H   UNL A   1      35.075  15.733  25.799  1.00  0.00     0.137 HD
ENDBRANCH  24  27
ENDBRANCH  19  24
ENDBRANCH   8  18
BRANCH  17  30
ATOM     30  C   UNL A   1      33.202  26.308  21.834  1.00  0.00     0.429 C 
ATOM     31  F   UNL A   1      34.469  26.144  22.274  1.00  0.00    -0.167 F 
ATOM     32  F   UNL A   1      33.182  26.017  20.512  1.00  0.00    -0.167 F 
ATOM     33  F   UNL A   1      32.934  27.640  21.926  1.00  0.00    -0.167 F 
ENDBRANCH  17  30
ENDBRANCH   4   7
ENDBRANCH   2   3
ENDBRANCH   1   2
BRANCH   1  34
ATOM     34  C   UNL A   1      32.216  29.619  24.728  1.00  0.00     0.023 C 
BRANCH  34  35
ATOM     35  C   UNL A   1      32.744  29.927  26.123  1.00  0.00     0.116 C 
BRANCH  35  36
ATOM     36  N   UNL A   1      32.595  31.333  26.462  1.00  0.00    -0.352 N 
ATOM     37  C   UNL A   1      33.326  32.096  27.337  1.00  0.00     0.251 C 
ATOM     38  H   UNL A   1      31.865  31.803  25.998  1.00  0.00     0.163 HD
ATOM     39  O   UNL A   1      32.937  33.214  27.658  1.00  0.00    -0.269 OA
BRANCH  37  40
ATOM     40  C   UNL A   1      34.575  31.555  27.914  1.00  0.00     0.039 A 
ATOM     41  C   UNL A   1      35.673  32.403  28.074  1.00  0.00     0.014 A 
ATOM     42  C   UNL A   1      34.656  30.216  28.309  1.00  0.00     0.014 A 
ATOM     43  C   UNL A   1      36.829  31.928  28.696  1.00  0.00     0.010 A 
ATOM     44  C   UNL A   1      35.777  29.769  29.001  1.00  0.00     0.010 A 
ATOM     45  C   UNL A   1      36.874  30.620  29.204  1.00  0.00    -0.014 A 
BRANCH  45  46
ATOM     46  C   UNL A   1      38.056  30.121  29.957  1.00  0.00     0.031 A 
ATOM     47  C   UNL A   1      38.316  30.604  31.356  1.00  0.00     0.074 A 
ATOM     48  C   UNL A   1      38.932  29.294  29.355  1.00  0.00     0.049 A 
ATOM     49  N   UNL A   1      39.336  30.361  32.142  1.00  0.00    -0.248 NA
ATOM     50  C   UNL A   1      37.309  31.502  31.944  1.00  0.00     0.031 C 
ATOM     51  C   UNL A   1      38.813  28.787  27.987  1.00  0.00     0.029 A 
ATOM     52  N   UNL A   1      40.107  28.746  29.809  1.00  0.00    -0.354 N 
ATOM     53  C   UNL A   1      39.100  31.084  33.303  1.00  0.00     0.074 A 
ATOM     54  C   UNL A   1      37.871  31.820  33.100  1.00  0.00     0.031 C 
ATOM     55  C   UNL A   1      39.859  27.987  27.722  1.00  0.00     0.029 A 
ATOM     56  C   UNL A   1      40.747  27.963  28.879  1.00  0.00     0.049 A 
ATOM     57  H   UNL A   1      40.456  28.900  30.718  1.00  0.00     0.167 HD
ATOM     58  C   UNL A   1      39.830  31.114  34.443  1.00  0.00     0.037 A 
ATOM     59  C   UNL A   1      41.926  27.315  28.946  1.00  0.00     0.037 A 
ATOM     60  C   UNL A   1      41.044  30.367  34.645  1.00  0.00     0.049 A 
ATOM     61  C   UNL A   1      42.735  27.390  30.214  1.00  0.00     0.074 A 
ATOM     62  C   UNL A   1      41.827  30.285  35.783  1.00  0.00     0.029 A 
ATOM     63  N   UNL A   1      41.657  29.580  33.681  1.00  0.00    -0.354 N 
ATOM     64  N   UNL A   1      42.466  28.021  31.332  1.00  0.00    -0.248 NA
ATOM     65  C   UNL A   1      44.011  26.661  30.231  1.00  0.00     0.031 C 
ATOM     66  C   UNL A   1      42.946  29.501  35.489  1.00  0.00     0.029 A 
ATOM     67  C   UNL A   1      42.825  29.034  34.190  1.00  0.00     0.049 A 
ATOM     68  H   UNL A   1      41.313  29.430  32.770  1.00  0.00     0.167 HD
ATOM     69  C   UNL A   1      43.518  27.737  32.193  1.00  0.00     0.074 A 
ATOM     70  C   UNL A   1      44.423  26.867  31.473  1.00  0.00     0.031 C 
ATOM     71  C   UNL A   1      43.713  28.158  33.467  1.00  0.00     0.037 A 
BRANCH  58  72
ATOM     72  C   UNL A   1      39.339  31.987  35.563  1.00  0.00     0.064 A 
ATOM     73  C   UNL A   1      38.466  31.504  36.549  1.00  0.00     0.173 A 
ATOM     74  C   UNL A   1      39.781  33.316  35.674  1.00  0.00     0.173 A 
ATOM     75  F   UNL A   1      38.005  30.246  36.486  1.00  0.00    -0.203 F 
ATOM     76  C   UNL A   1      38.026  32.325  37.584  1.00  0.00     0.198 A 
ATOM     77  C   UNL A   1      39.368  34.123  36.732  1.00  0.00     0.198 A 
ATOM     78  F   UNL A   1      40.622  33.828  34.765  1.00  0.00    -0.203 F 
ATOM     79  F   UNL A   1      37.150  31.857  38.483  1.00  0.00    -0.200 F 
ATOM     80  C   UNL A   1      38.484  33.631  37.680  1.00  0.00     0.200 A 
ATOM     81  F   UNL A   1      39.824  35.379  36.831  1.00  0.00    -0.200 F 
ATOM     82  F   UNL A   1      38.069  34.417  38.682  1.00  0.00    -0.200 F 
ENDBRANCH  58  72
BRANCH  59  83
ATOM     83  C   UNL A   1      42.410  26.528  27.780  1.00  0.00     0.064 A 
ATOM     84  C   UNL A   1      43.301  27.088  26.852  1.00  0.00     0.173 A 
ATOM     85  C   UNL A   1      41.987  25.208  27.560  1.00  0.00     0.173 A 
ATOM     86  F   UNL A   1      43.720  28.353  27.005  1.00  0.00    -0.203 F 
ATOM     87  C   UNL A   1      43.727  26.368  25.737  1.00  0.00     0.198 A 
ATOM     88  C   UNL A   1      42.441  24.479  26.464  1.00  0.00     0.198 A 
ATOM     89  F   UNL A   1      41.140  24.623  28.419  1.00  0.00    -0.203 F 
ATOM     90  F   UNL A   1      44.535  26.947  24.839  1.00  0.00    -0.200 F 
ATOM     91  C   UNL A   1      43.303  25.063  25.547  1.00  0.00     0.200 A 
ATOM     92  F   UNL A   1      42.042  23.211  26.293  1.00  0.00    -0.200 F 
ATOM     93  F   UNL A   1      43.716  24.370  24.477  1.00  0.00    -0.200 F 
ENDBRANCH  59  83
BRANCH  71  94
ATOM     94  C   UNL A   1      44.929  27.649  34.188  1.00  0.00     0.064 A 
ATOM     95  C   UNL A   1      46.134  28.366  34.206  1.00  0.00     0.173 A 
ATOM     96  C   UNL A   1      44.865  26.454  34.922  1.00  0.00     0.173 A 
ATOM     97  F   UNL A   1      46.252  29.507  33.510  1.00  0.00    -0.203 F 
ATOM     98  C   UNL A   1      47.237  27.892  34.912  1.00  0.00     0.198 A 
ATOM     99  C   UNL A   1      45.958  26.002  35.655  1.00  0.00     0.198 A 
ATOM    100  F   UNL A   1      43.734  25.733  34.945  1.00  0.00    -0.203 F 
ATOM    101  F   UNL A   1      48.394  28.569  34.875  1.00  0.00    -0.200 F 
ATOM    102  C   UNL A   1      47.146  26.718  35.643  1.00  0.00     0.200 A 
ATOM    103  F   UNL A   1      45.861  24.877  36.375  1.00  0.00    -0.200 F 
ATOM    104  F   UNL A   1      48.204  26.272  36.335  1.00  0.00    -0.200 F 
ENDBRANCH  71  94
ENDBRANCH  45  46
ENDBRANCH  37  40
ENDBRANCH  35  36
ENDBRANCH  34  35
ENDBRANCH   1  34
TORSDOF 15
ENDMDL
