MODEL 1
REMARK VINA RESULT:     -12.8      0.000      0.000
REMARK SMILES CC[C@]1(C(=O)NCCCCNC(=O)c2ccc(-c3c4nc(c(-c5c(F)c(F)c(F)c(F)c5F)c5ccc([nH]5)c(-c5c(F)c(F)c(F)c(F)c5F)c5nc(c(-c6c(F)c(F)c(F)c(F)c6F)c6ccc3[nH]6)C=C5)C=C4)cc2)CC[N@H+](Cc2ccc(CC(C)C)cc2)C1
REMARK SMILES IDX 7 1 6 2 4 3 5 4 3 6 77 7 91 8 78 9 79 10 2 12 1 13 80 14
REMARK SMILES IDX 81 15 82 16 90 17 83 18 89 19 84 20 85 21 86 22 87 23 88 24
REMARK SMILES IDX 8 25 9 26 10 27 11 28 12 29 13 31 14 32 15 33 76 34 16 35
REMARK SMILES IDX 75 36 17 37 18 38 19 39 69 40 20 41 74 42 68 43 70 44 21 45
REMARK SMILES IDX 73 46 67 47 66 48 22 50 54 51 34 52 53 53 35 54 38 55 52 56
REMARK SMILES IDX 71 57 36 58 37 59 51 61 72 62 39 63 23 64 24 65 32 66 25 67
REMARK SMILES IDX 26 68 30 69 33 70 27 71 28 72 31 73 29 74 55 75 56 76 64 77
REMARK SMILES IDX 57 78 58 79 62 80 65 81 59 82 60 83 63 84 61 85 40 86 41 87
REMARK SMILES IDX 49 88 42 89 43 90 47 91 50 92 44 93 45 94 48 95 46 96
REMARK H PARENT 6 5 79 11 11 30 70 49 38 60
REMARK Flexibility Score: inf
ROOT
ATOM      1  C   UNL A   1      32.202  26.615  26.546  1.00  0.00     0.116 C 
ENDROOT
BRANCH   1   2
ATOM      2  N   UNL A   1      31.421  25.435  26.858  1.00  0.00    -0.355 N 
ATOM      3  C   UNL A   1      31.698  24.112  26.682  1.00  0.00     0.232 C 
ATOM      4  O   UNL A   1      31.226  23.389  27.574  1.00  0.00    -0.274 OA
ATOM      5  H   UNL A   1      30.543  25.620  27.264  1.00  0.00     0.163 HD
BRANCH   3   6
ATOM      6  C   UNL A   1      32.524  23.478  25.509  1.00  0.00     0.103 C 
ATOM      7  C   UNL A   1      31.755  22.431  24.670  1.00  0.00     0.084 C 
ATOM      8  C   UNL A   1      32.908  24.550  24.483  1.00  0.00     0.279 C 
ATOM      9  C   UNL A   1      31.639  23.020  23.256  1.00  0.00     0.263 C 
ATOM     10  N   UNL A   1      31.848  24.430  23.492  1.00  0.00    -0.330 N 
ATOM     11  H   UNL A   1      30.975  24.806  23.863  1.00  0.00     0.348 HD
BRANCH   6  12
ATOM     12  C   UNL A   1      33.784  22.831  26.181  1.00  0.00     0.020 C 
ATOM     13  C   UNL A   1      34.649  21.906  25.331  1.00  0.00     0.005 C 
ENDBRANCH   6  12
BRANCH  10  14
ATOM     14  C   UNL A   1      31.876  25.352  22.365  1.00  0.00     0.299 C 
BRANCH  14  15
ATOM     15  C   UNL A   1      31.332  26.684  22.867  1.00  0.00     0.006 A 
ATOM     16  C   UNL A   1      32.025  27.865  22.568  1.00  0.00     0.010 A 
ATOM     17  C   UNL A   1      30.006  26.769  23.314  1.00  0.00     0.010 A 
ATOM     18  C   UNL A   1      31.338  29.078  22.506  1.00  0.00     0.004 A 
ATOM     19  C   UNL A   1      29.315  27.976  23.225  1.00  0.00     0.004 A 
ATOM     20  C   UNL A   1      29.955  29.120  22.734  1.00  0.00    -0.048 A 
BRANCH  20  21
ATOM     21  C   UNL A   1      29.129  30.284  22.248  1.00  0.00     0.038 C 
BRANCH  21  22
ATOM     22  C   UNL A   1      28.800  31.410  23.236  1.00  0.00    -0.013 C 
ATOM     23  C   UNL A   1      28.928  32.805  22.627  1.00  0.00     0.008 C 
ATOM     24  C   UNL A   1      27.379  31.177  23.767  1.00  0.00     0.008 C 
ENDBRANCH  21  22
ENDBRANCH  20  21
ENDBRANCH  14  15
ENDBRANCH  10  14
ENDBRANCH   3   6
ENDBRANCH   1   2
BRANCH   1  25
ATOM     25  C   UNL A   1      31.702  27.915  27.176  1.00  0.00     0.023 C 
BRANCH  25  26
ATOM     26  C   UNL A   1      31.410  29.068  26.208  1.00  0.00     0.023 C 
BRANCH  26  27
ATOM     27  C   UNL A   1      32.562  30.037  25.928  1.00  0.00     0.116 C 
BRANCH  27  28
ATOM     28  N   UNL A   1      32.421  31.360  26.519  1.00  0.00    -0.352 N 
ATOM     29  C   UNL A   1      33.275  32.069  27.338  1.00  0.00     0.251 C 
ATOM     30  H   UNL A   1      31.580  31.824  26.298  1.00  0.00     0.163 HD
ATOM     31  O   UNL A   1      32.914  33.174  27.757  1.00  0.00    -0.269 OA
BRANCH  29  32
ATOM     32  C   UNL A   1      34.597  31.536  27.774  1.00  0.00     0.039 A 
ATOM     33  C   UNL A   1      35.645  32.431  28.031  1.00  0.00     0.014 A 
ATOM     34  C   UNL A   1      34.835  30.171  27.933  1.00  0.00     0.014 A 
ATOM     35  C   UNL A   1      36.866  31.970  28.549  1.00  0.00     0.010 A 
ATOM     36  C   UNL A   1      36.032  29.708  28.484  1.00  0.00     0.010 A 
ATOM     37  C   UNL A   1      37.044  30.605  28.835  1.00  0.00    -0.014 A 
BRANCH  37  38
ATOM     38  C   UNL A   1      38.167  30.130  29.684  1.00  0.00     0.031 A 
ATOM     39  C   UNL A   1      38.386  30.618  31.087  1.00  0.00     0.074 A 
ATOM     40  C   UNL A   1      39.104  29.357  29.098  1.00  0.00     0.049 A 
ATOM     41  N   UNL A   1      39.319  30.275  31.941  1.00  0.00    -0.248 NA
ATOM     42  C   UNL A   1      37.469  31.652  31.586  1.00  0.00     0.031 C 
ATOM     43  C   UNL A   1      39.089  28.945  27.692  1.00  0.00     0.029 A 
ATOM     44  N   UNL A   1      40.256  28.803  29.594  1.00  0.00    -0.354 N 
ATOM     45  C   UNL A   1      39.103  31.044  33.077  1.00  0.00     0.074 A 
ATOM     46  C   UNL A   1      37.982  31.913  32.782  1.00  0.00     0.031 C 
ATOM     47  C   UNL A   1      40.167  28.189  27.444  1.00  0.00     0.029 A 
ATOM     48  C   UNL A   1      40.950  28.064  28.668  1.00  0.00     0.049 A 
ATOM     49  H   UNL A   1      40.556  28.923  30.523  1.00  0.00     0.167 HD
ATOM     50  C   UNL A   1      39.768  31.009  34.259  1.00  0.00     0.037 A 
ATOM     51  C   UNL A   1      42.081  27.345  28.792  1.00  0.00     0.037 A 
ATOM     52  C   UNL A   1      40.881  30.135  34.541  1.00  0.00     0.049 A 
ATOM     53  C   UNL A   1      42.745  27.251  30.135  1.00  0.00     0.074 A 
ATOM     54  C   UNL A   1      41.542  29.933  35.741  1.00  0.00     0.029 A 
ATOM     55  N   UNL A   1      41.510  29.327  33.604  1.00  0.00    -0.354 N 
ATOM     56  N   UNL A   1      42.428  27.849  31.256  1.00  0.00    -0.248 NA
ATOM     57  C   UNL A   1      43.907  26.357  30.235  1.00  0.00     0.031 C 
ATOM     58  C   UNL A   1      42.598  29.042  35.521  1.00  0.00     0.029 A 
ATOM     59  C   UNL A   1      42.565  28.647  34.194  1.00  0.00     0.049 A 
ATOM     60  H   UNL A   1      41.246  29.248  32.658  1.00  0.00     0.167 HD
ATOM     61  C   UNL A   1      43.330  27.386  32.202  1.00  0.00     0.074 A 
ATOM     62  C   UNL A   1      44.198  26.444  31.525  1.00  0.00     0.031 C 
ATOM     63  C   UNL A   1      43.426  27.713  33.513  1.00  0.00     0.037 A 
BRANCH  50  64
ATOM     64  C   UNL A   1      39.299  31.919  35.361  1.00  0.00     0.064 A 
ATOM     65  C   UNL A   1      38.433  31.462  36.366  1.00  0.00     0.173 A 
ATOM     66  C   UNL A   1      39.785  33.232  35.466  1.00  0.00     0.173 A 
ATOM     67  F   UNL A   1      37.940  30.216  36.318  1.00  0.00    -0.203 F 
ATOM     68  C   UNL A   1      38.053  32.291  37.420  1.00  0.00     0.198 A 
ATOM     69  C   UNL A   1      39.426  34.048  36.536  1.00  0.00     0.198 A 
ATOM     70  F   UNL A   1      40.628  33.717  34.542  1.00  0.00    -0.203 F 
ATOM     71  F   UNL A   1      37.197  31.841  38.348  1.00  0.00    -0.200 F 
ATOM     72  C   UNL A   1      38.557  33.579  37.509  1.00  0.00     0.200 A 
ATOM     73  F   UNL A   1      39.929  35.287  36.631  1.00  0.00    -0.200 F 
ATOM     74  F   UNL A   1      38.203  34.369  38.532  1.00  0.00    -0.200 F 
ENDBRANCH  50  64
BRANCH  51  75
ATOM     75  C   UNL A   1      42.587  26.581  27.626  1.00  0.00     0.064 A 
ATOM     76  C   UNL A   1      43.556  27.137  26.778  1.00  0.00     0.173 A 
ATOM     77  C   UNL A   1      42.157  25.273  27.362  1.00  0.00     0.173 A 
ATOM     78  F   UNL A   1      43.989  28.388  26.989  1.00  0.00    -0.203 F 
ATOM     79  C   UNL A   1      44.063  26.419  25.700  1.00  0.00     0.198 A 
ATOM     80  C   UNL A   1      42.683  24.548  26.296  1.00  0.00     0.198 A 
ATOM     81  F   UNL A   1      41.245  24.693  28.156  1.00  0.00    -0.203 F 
ATOM     82  F   UNL A   1      44.965  26.985  24.886  1.00  0.00    -0.200 F 
ATOM     83  C   UNL A   1      43.631  25.123  25.463  1.00  0.00     0.200 A 
ATOM     84  F   UNL A   1      42.279  23.288  26.080  1.00  0.00    -0.200 F 
ATOM     85  F   UNL A   1      44.130  24.428  24.430  1.00  0.00    -0.200 F 
ENDBRANCH  51  75
BRANCH  63  86
ATOM     86  C   UNL A   1      44.498  27.028  34.310  1.00  0.00     0.064 A 
ATOM     87  C   UNL A   1      44.271  25.796  34.942  1.00  0.00     0.173 A 
ATOM     88  C   UNL A   1      45.772  27.603  34.430  1.00  0.00     0.173 A 
ATOM     89  F   UNL A   1      43.065  25.213  34.872  1.00  0.00    -0.203 F 
ATOM     90  C   UNL A   1      45.271  25.180  35.689  1.00  0.00     0.198 A 
ATOM     91  C   UNL A   1      46.778  26.971  35.155  1.00  0.00     0.198 A 
ATOM     92  F   UNL A   1      46.041  28.779  33.842  1.00  0.00    -0.203 F 
ATOM     93  F   UNL A   1      45.017  24.029  36.327  1.00  0.00    -0.200 F 
ATOM     94  C   UNL A   1      46.525  25.765  35.790  1.00  0.00     0.200 A 
ATOM     95  F   UNL A   1      47.992  27.532  35.243  1.00  0.00    -0.200 F 
ATOM     96  F   UNL A   1      47.487  25.170  36.509  1.00  0.00    -0.200 F 
ENDBRANCH  63  86
ENDBRANCH  37  38
ENDBRANCH  29  32
ENDBRANCH  27  28
ENDBRANCH  26  27
ENDBRANCH  25  26
ENDBRANCH   1  25
TORSDOF 16
ENDMDL
MODEL 2
REMARK VINA RESULT:     -12.6      5.133      9.079
REMARK SMILES CC[C@]1(C(=O)NCCCCNC(=O)c2ccc(-c3c4nc(c(-c5c(F)c(F)c(F)c(F)c5F)c5ccc([nH]5)c(-c5c(F)c(F)c(F)c(F)c5F)c5nc(c(-c6c(F)c(F)c(F)c(F)c6F)c6ccc3[nH]6)C=C5)C=C4)cc2)CC[N@H+](Cc2ccc(CC(C)C)cc2)C1
REMARK SMILES IDX 7 1 6 2 4 3 5 4 3 6 77 7 91 8 78 9 79 10 2 12 1 13 80 14
REMARK SMILES IDX 81 15 82 16 90 17 83 18 89 19 84 20 85 21 86 22 87 23 88 24
REMARK SMILES IDX 8 25 9 26 10 27 11 28 12 29 13 31 14 32 15 33 76 34 16 35
REMARK SMILES IDX 75 36 17 37 18 38 19 39 69 40 20 41 74 42 68 43 70 44 21 45
REMARK SMILES IDX 73 46 67 47 66 48 22 50 54 51 34 52 53 53 35 54 38 55 52 56
REMARK SMILES IDX 71 57 36 58 37 59 51 61 72 62 39 63 23 64 24 65 32 66 25 67
REMARK SMILES IDX 26 68 30 69 33 70 27 71 28 72 31 73 29 74 55 75 56 76 64 77
REMARK SMILES IDX 57 78 58 79 62 80 65 81 59 82 60 83 63 84 61 85 40 86 41 87
REMARK SMILES IDX 49 88 42 89 43 90 47 91 50 92 44 93 45 94 48 95 46 96
REMARK H PARENT 6 5 79 11 11 30 70 49 38 60
REMARK Flexibility Score: inf
ROOT
ATOM      1  C   UNL A   1      36.914  22.191  25.813  1.00  0.00     0.116 C 
ENDROOT
BRANCH   1   2
ATOM      2  N   UNL A   1      35.854  22.673  26.676  1.00  0.00    -0.355 N 
ATOM      3  C   UNL A   1      34.631  23.194  26.377  1.00  0.00     0.232 C 
ATOM      4  O   UNL A   1      33.755  22.898  27.204  1.00  0.00    -0.274 OA
ATOM      5  H   UNL A   1      36.051  22.614  27.639  1.00  0.00     0.163 HD
BRANCH   3   6
ATOM      6  C   UNL A   1      34.272  24.082  25.134  1.00  0.00     0.103 C 
ATOM      7  C   UNL A   1      35.250  23.949  23.943  1.00  0.00     0.084 C 
ATOM      8  C   UNL A   1      32.924  23.657  24.542  1.00  0.00     0.279 C 
ATOM      9  C   UNL A   1      34.436  23.344  22.789  1.00  0.00     0.263 C 
ATOM     10  N   UNL A   1      33.322  22.740  23.483  1.00  0.00    -0.330 N 
ATOM     11  H   UNL A   1      33.654  21.863  23.882  1.00  0.00     0.348 HD
BRANCH   6  12
ATOM     12  C   UNL A   1      34.242  25.557  25.662  1.00  0.00     0.020 C 
ATOM     13  C   UNL A   1      32.889  26.155  26.029  1.00  0.00     0.005 C 
ENDBRANCH   6  12
BRANCH  10  14
ATOM     14  C   UNL A   1      32.260  22.098  22.719  1.00  0.00     0.299 C 
BRANCH  14  15
ATOM     15  C   UNL A   1      32.192  20.650  23.184  1.00  0.00     0.006 A 
ATOM     16  C   UNL A   1      32.014  19.632  22.237  1.00  0.00     0.010 A 
ATOM     17  C   UNL A   1      32.637  20.311  24.469  1.00  0.00     0.010 A 
ATOM     18  C   UNL A   1      32.480  18.344  22.502  1.00  0.00     0.004 A 
ATOM     19  C   UNL A   1      33.127  19.030  24.724  1.00  0.00     0.004 A 
ATOM     20  C   UNL A   1      33.134  18.065  23.711  1.00  0.00    -0.048 A 
BRANCH  20  21
ATOM     21  C   UNL A   1      34.023  16.853  23.844  1.00  0.00     0.038 C 
BRANCH  21  22
ATOM     22  C   UNL A   1      34.155  16.193  25.222  1.00  0.00    -0.013 C 
ATOM     23  C   UNL A   1      33.153  15.062  25.448  1.00  0.00     0.008 C 
ATOM     24  C   UNL A   1      35.594  15.680  25.368  1.00  0.00     0.008 C 
ENDBRANCH  21  22
ENDBRANCH  20  21
ENDBRANCH  14  15
ENDBRANCH  10  14
ENDBRANCH   3   6
ENDBRANCH   1   2
BRANCH   1  25
ATOM     25  C   UNL A   1      36.663  20.824  25.173  1.00  0.00     0.023 C 
BRANCH  25  26
ATOM     26  C   UNL A   1      37.909  19.994  24.842  1.00  0.00     0.023 C 
BRANCH  26  27
ATOM     27  C   UNL A   1      39.151  20.249  25.702  1.00  0.00     0.116 C 
BRANCH  27  28
ATOM     28  N   UNL A   1      40.107  19.151  25.756  1.00  0.00    -0.352 N 
ATOM     29  C   UNL A   1      41.452  19.151  26.063  1.00  0.00     0.251 C 
ATOM     30  H   UNL A   1      39.733  18.266  25.539  1.00  0.00     0.163 HD
ATOM     31  O   UNL A   1      42.075  18.086  25.999  1.00  0.00    -0.269 OA
BRANCH  29  32
ATOM     32  C   UNL A   1      42.193  20.393  26.426  1.00  0.00     0.039 A 
ATOM     33  C   UNL A   1      42.921  21.069  25.436  1.00  0.00     0.014 A 
ATOM     34  C   UNL A   1      42.191  20.912  27.720  1.00  0.00     0.014 A 
ATOM     35  C   UNL A   1      43.536  22.298  25.718  1.00  0.00     0.010 A 
ATOM     36  C   UNL A   1      42.766  22.153  27.999  1.00  0.00     0.010 A 
ATOM     37  C   UNL A   1      43.410  22.878  26.993  1.00  0.00    -0.014 A 
BRANCH  37  38
ATOM     38  C   UNL A   1      43.744  24.306  27.233  1.00  0.00     0.031 A 
ATOM     39  C   UNL A   1      42.718  25.320  27.650  1.00  0.00     0.074 A 
ATOM     40  C   UNL A   1      44.985  24.717  26.902  1.00  0.00     0.049 A 
ATOM     41  N   UNL A   1      42.879  26.595  27.905  1.00  0.00    -0.248 NA
ATOM     42  C   UNL A   1      41.327  24.858  27.756  1.00  0.00     0.031 C 
ATOM     43  C   UNL A   1      46.027  23.859  26.333  1.00  0.00     0.029 A 
ATOM     44  N   UNL A   1      45.573  25.954  26.967  1.00  0.00    -0.354 N 
ATOM     45  C   UNL A   1      41.616  27.090  28.204  1.00  0.00     0.074 A 
ATOM     46  C   UNL A   1      40.691  25.986  28.045  1.00  0.00     0.031 C 
ATOM     47  C   UNL A   1      47.131  24.588  26.121  1.00  0.00     0.029 A 
ATOM     48  C   UNL A   1      46.876  25.964  26.534  1.00  0.00     0.049 A 
ATOM     49  H   UNL A   1      45.107  26.757  27.293  1.00  0.00     0.167 HD
ATOM     50  C   UNL A   1      41.271  28.342  28.595  1.00  0.00     0.037 A 
ATOM     51  C   UNL A   1      47.777  26.962  26.493  1.00  0.00     0.037 A 
ATOM     52  C   UNL A   1      42.204  29.431  28.754  1.00  0.00     0.049 A 
ATOM     53  C   UNL A   1      47.395  28.315  27.016  1.00  0.00     0.074 A 
ATOM     54  C   UNL A   1      41.977  30.700  29.262  1.00  0.00     0.029 A 
ATOM     55  N   UNL A   1      43.543  29.386  28.390  1.00  0.00    -0.354 N 
ATOM     56  N   UNL A   1      46.236  28.729  27.465  1.00  0.00    -0.248 NA
ATOM     57  C   UNL A   1      48.455  29.332  27.055  1.00  0.00     0.031 C 
ATOM     58  C   UNL A   1      43.164  31.435  29.163  1.00  0.00     0.029 A 
ATOM     59  C   UNL A   1      44.146  30.610  28.640  1.00  0.00     0.049 A 
ATOM     60  H   UNL A   1      43.998  28.599  28.011  1.00  0.00     0.167 HD
ATOM     61  C   UNL A   1      46.430  30.043  27.866  1.00  0.00     0.074 A 
ATOM     62  C   UNL A   1      47.825  30.351  27.621  1.00  0.00     0.031 C 
ATOM     63  C   UNL A   1      45.533  30.911  28.391  1.00  0.00     0.037 A 
BRANCH  50  64
ATOM     64  C   UNL A   1      39.825  28.611  28.912  1.00  0.00     0.064 A 
ATOM     65  C   UNL A   1      39.311  28.407  30.201  1.00  0.00     0.173 A 
ATOM     66  C   UNL A   1      38.966  29.158  27.946  1.00  0.00     0.173 A 
ATOM     67  F   UNL A   1      40.088  27.889  31.165  1.00  0.00    -0.203 F 
ATOM     68  C   UNL A   1      37.987  28.717  30.505  1.00  0.00     0.198 A 
ATOM     69  C   UNL A   1      37.652  29.494  28.261  1.00  0.00     0.198 A 
ATOM     70  F   UNL A   1      39.408  29.388  26.700  1.00  0.00    -0.203 F 
ATOM     71  F   UNL A   1      37.511  28.481  31.736  1.00  0.00    -0.200 F 
ATOM     72  C   UNL A   1      37.162  29.269  29.539  1.00  0.00     0.200 A 
ATOM     73  F   UNL A   1      36.860  30.046  27.330  1.00  0.00    -0.200 F 
ATOM     74  F   UNL A   1      35.893  29.584  29.837  1.00  0.00    -0.200 F 
ENDBRANCH  50  64
BRANCH  51  75
ATOM     75  C   UNL A   1      49.156  26.677  26.027  1.00  0.00     0.064 A 
ATOM     76  C   UNL A   1      49.542  26.987  24.715  1.00  0.00     0.173 A 
ATOM     77  C   UNL A   1      50.125  26.139  26.886  1.00  0.00     0.173 A 
ATOM     78  F   UNL A   1      48.644  27.494  23.857  1.00  0.00    -0.203 F 
ATOM     79  C   UNL A   1      50.841  26.755  24.274  1.00  0.00     0.198 A 
ATOM     80  C   UNL A   1      51.431  25.930  26.450  1.00  0.00     0.198 A 
ATOM     81  F   UNL A   1      49.808  25.844  28.155  1.00  0.00    -0.203 F 
ATOM     82  F   UNL A   1      51.174  27.031  23.006  1.00  0.00    -0.200 F 
ATOM     83  C   UNL A   1      51.787  26.233  25.144  1.00  0.00     0.200 A 
ATOM     84  F   UNL A   1      52.349  25.443  27.297  1.00  0.00    -0.200 F 
ATOM     85  F   UNL A   1      53.041  26.020  24.721  1.00  0.00    -0.200 F 
ENDBRANCH  51  75
BRANCH  63  86
ATOM     86  C   UNL A   1      46.038  32.276  28.758  1.00  0.00     0.064 A 
ATOM     87  C   UNL A   1      46.560  32.549  30.031  1.00  0.00     0.173 A 
ATOM     88  C   UNL A   1      46.014  33.318  27.819  1.00  0.00     0.173 A 
ATOM     89  F   UNL A   1      46.589  31.591  30.969  1.00  0.00    -0.203 F 
ATOM     90  C   UNL A   1      47.011  33.824  30.360  1.00  0.00     0.198 A 
ATOM     91  C   UNL A   1      46.492  34.585  28.143  1.00  0.00     0.198 A 
ATOM     92  F   UNL A   1      45.528  33.108  26.587  1.00  0.00    -0.203 F 
ATOM     93  F   UNL A   1      47.458  34.076  31.599  1.00  0.00    -0.200 F 
ATOM     94  C   UNL A   1      46.983  34.838  29.415  1.00  0.00     0.200 A 
ATOM     95  F   UNL A   1      46.473  35.561  27.226  1.00  0.00    -0.200 F 
ATOM     96  F   UNL A   1      47.419  36.065  29.733  1.00  0.00    -0.200 F 
ENDBRANCH  63  86
ENDBRANCH  37  38
ENDBRANCH  29  32
ENDBRANCH  27  28
ENDBRANCH  26  27
ENDBRANCH  25  26
ENDBRANCH   1  25
TORSDOF 16
ENDMDL
MODEL 3
REMARK VINA RESULT:     -12.5      2.108      7.765
REMARK SMILES CC[C@]1(C(=O)NCCCCNC(=O)c2ccc(-c3c4nc(c(-c5c(F)c(F)c(F)c(F)c5F)c5ccc([nH]5)c(-c5c(F)c(F)c(F)c(F)c5F)c5nc(c(-c6c(F)c(F)c(F)c(F)c6F)c6ccc3[nH]6)C=C5)C=C4)cc2)CC[N@H+](Cc2ccc(CC(C)C)cc2)C1
REMARK SMILES IDX 7 1 6 2 4 3 5 4 3 6 77 7 91 8 78 9 79 10 2 12 1 13 80 14
REMARK SMILES IDX 81 15 82 16 90 17 83 18 89 19 84 20 85 21 86 22 87 23 88 24
REMARK SMILES IDX 8 25 9 26 10 27 11 28 12 29 13 31 14 32 15 33 76 34 16 35
REMARK SMILES IDX 75 36 17 37 18 38 19 39 69 40 20 41 74 42 68 43 70 44 21 45
REMARK SMILES IDX 73 46 67 47 66 48 22 50 54 51 34 52 53 53 35 54 38 55 52 56
REMARK SMILES IDX 71 57 36 58 37 59 51 61 72 62 39 63 23 64 24 65 32 66 25 67
REMARK SMILES IDX 26 68 30 69 33 70 27 71 28 72 31 73 29 74 55 75 56 76 64 77
REMARK SMILES IDX 57 78 58 79 62 80 65 81 59 82 60 83 63 84 61 85 40 86 41 87
REMARK SMILES IDX 49 88 42 89 43 90 47 91 50 92 44 93 45 94 48 95 46 96
REMARK H PARENT 6 5 79 11 11 30 70 49 38 60
REMARK Flexibility Score: inf
ROOT
ATOM      1  C   UNL A   1      33.337  29.484  26.583  1.00  0.00     0.116 C 
ENDROOT
BRANCH   1   2
ATOM      2  N   UNL A   1      33.965  29.015  25.364  1.00  0.00    -0.355 N 
ATOM      3  C   UNL A   1      33.711  27.918  24.597  1.00  0.00     0.232 C 
ATOM      4  O   UNL A   1      33.892  28.113  23.385  1.00  0.00    -0.274 OA
ATOM      5  H   UNL A   1      34.699  29.584  25.036  1.00  0.00     0.163 HD
BRANCH   3   6
ATOM      6  C   UNL A   1      33.227  26.514  25.105  1.00  0.00     0.103 C 
ATOM      7  C   UNL A   1      32.568  26.527  26.505  1.00  0.00     0.084 C 
ATOM      8  C   UNL A   1      32.126  25.964  24.193  1.00  0.00     0.279 C 
ATOM      9  C   UNL A   1      31.106  26.106  26.290  1.00  0.00     0.263 C 
ATOM     10  N   UNL A   1      30.912  26.375  24.884  1.00  0.00    -0.330 N 
ATOM     11  H   UNL A   1      30.774  27.381  24.786  1.00  0.00     0.348 HD
BRANCH   6  12
ATOM     12  C   UNL A   1      34.501  25.601  25.104  1.00  0.00     0.020 C 
ATOM     13  C   UNL A   1      34.518  24.403  24.162  1.00  0.00     0.005 C 
ENDBRANCH   6  12
BRANCH  10  14
ATOM     14  C   UNL A   1      29.639  26.044  24.257  1.00  0.00     0.299 C 
BRANCH  14  15
ATOM     15  C   UNL A   1      29.208  27.266  23.455  1.00  0.00     0.006 A 
ATOM     16  C   UNL A   1      27.849  27.603  23.395  1.00  0.00     0.010 A 
ATOM     17  C   UNL A   1      30.162  28.220  23.077  1.00  0.00     0.010 A 
ATOM     18  C   UNL A   1      27.469  28.927  23.175  1.00  0.00     0.004 A 
ATOM     19  C   UNL A   1      29.783  29.548  22.884  1.00  0.00     0.004 A 
ATOM     20  C   UNL A   1      28.442  29.925  23.021  1.00  0.00    -0.048 A 
BRANCH  20  21
ATOM     21  C   UNL A   1      28.095  31.378  23.231  1.00  0.00     0.038 C 
BRANCH  21  22
ATOM     22  C   UNL A   1      28.759  32.425  22.327  1.00  0.00    -0.013 C 
ATOM     23  C   UNL A   1      27.945  32.742  21.073  1.00  0.00     0.008 C 
ATOM     24  C   UNL A   1      28.992  33.693  23.159  1.00  0.00     0.008 C 
ENDBRANCH  21  22
ENDBRANCH  20  21
ENDBRANCH  14  15
ENDBRANCH  10  14
ENDBRANCH   3   6
ENDBRANCH   1   2
BRANCH   1  25
ATOM     25  C   UNL A   1      31.902  29.990  26.424  1.00  0.00     0.023 C 
BRANCH  25  26
ATOM     26  C   UNL A   1      31.712  31.511  26.469  1.00  0.00     0.023 C 
BRANCH  26  27
ATOM     27  C   UNL A   1      32.752  32.309  27.261  1.00  0.00     0.116 C 
BRANCH  27  28
ATOM     28  N   UNL A   1      32.397  33.694  27.537  1.00  0.00    -0.352 N 
ATOM     29  C   UNL A   1      32.980  34.615  28.384  1.00  0.00     0.251 C 
ATOM     30  H   UNL A   1      31.615  34.027  27.039  1.00  0.00     0.163 HD
ATOM     31  O   UNL A   1      32.466  35.734  28.486  1.00  0.00    -0.269 OA
BRANCH  29  32
ATOM     32  C   UNL A   1      34.176  34.298  29.214  1.00  0.00     0.039 A 
ATOM     33  C   UNL A   1      33.996  33.848  30.530  1.00  0.00     0.014 A 
ATOM     34  C   UNL A   1      35.477  34.435  28.730  1.00  0.00     0.014 A 
ATOM     35  C   UNL A   1      35.096  33.435  31.298  1.00  0.00     0.010 A 
ATOM     36  C   UNL A   1      36.572  33.989  29.473  1.00  0.00     0.010 A 
ATOM     37  C   UNL A   1      36.390  33.448  30.749  1.00  0.00    -0.014 A 
BRANCH  37  38
ATOM     38  C   UNL A   1      37.513  32.715  31.389  1.00  0.00     0.031 A 
ATOM     39  C   UNL A   1      38.162  31.517  30.759  1.00  0.00     0.074 A 
ATOM     40  C   UNL A   1      37.835  33.055  32.653  1.00  0.00     0.049 A 
ATOM     41  N   UNL A   1      39.160  30.793  31.205  1.00  0.00    -0.248 NA
ATOM     42  C   UNL A   1      37.600  31.042  29.488  1.00  0.00     0.031 C 
ATOM     43  C   UNL A   1      37.167  34.098  33.436  1.00  0.00     0.029 A 
ATOM     44  N   UNL A   1      38.779  32.551  33.511  1.00  0.00    -0.354 N 
ATOM     45  C   UNL A   1      39.348  29.781  30.273  1.00  0.00     0.074 A 
ATOM     46  C   UNL A   1      38.324  29.953  29.262  1.00  0.00     0.031 C 
ATOM     47  C   UNL A   1      37.734  34.170  34.648  1.00  0.00     0.029 A 
ATOM     48  C   UNL A   1      38.801  33.179  34.731  1.00  0.00     0.049 A 
ATOM     49  H   UNL A   1      39.382  31.810  33.274  1.00  0.00     0.167 HD
ATOM     50  C   UNL A   1      40.300  28.815  30.255  1.00  0.00     0.037 A 
ATOM     51  C   UNL A   1      39.605  32.996  35.795  1.00  0.00     0.037 A 
ATOM     52  C   UNL A   1      41.318  28.658  31.266  1.00  0.00     0.049 A 
ATOM     53  C   UNL A   1      40.708  31.983  35.714  1.00  0.00     0.074 A 
ATOM     54  C   UNL A   1      42.401  27.794  31.280  1.00  0.00     0.029 A 
ATOM     55  N   UNL A   1      41.370  29.372  32.456  1.00  0.00    -0.354 N 
ATOM     56  N   UNL A   1      40.988  31.144  34.748  1.00  0.00    -0.248 NA
ATOM     57  C   UNL A   1      41.625  31.912  36.860  1.00  0.00     0.031 C 
ATOM     58  C   UNL A   1      43.078  27.951  32.494  1.00  0.00     0.029 A 
ATOM     59  C   UNL A   1      42.449  28.951  33.218  1.00  0.00     0.049 A 
ATOM     60  H   UNL A   1      40.733  30.076  32.719  1.00  0.00     0.167 HD
ATOM     61  C   UNL A   1      42.128  30.465  35.153  1.00  0.00     0.074 A 
ATOM     62  C   UNL A   1      42.496  31.002  36.447  1.00  0.00     0.031 C 
ATOM     63  C   UNL A   1      42.807  29.487  34.507  1.00  0.00     0.037 A 
BRANCH  50  64
ATOM     64  C   UNL A   1      40.319  27.861  29.093  1.00  0.00     0.064 A 
ATOM     65  C   UNL A   1      39.558  26.682  29.104  1.00  0.00     0.173 A 
ATOM     66  C   UNL A   1      41.033  28.165  27.923  1.00  0.00     0.173 A 
ATOM     67  F   UNL A   1      38.853  26.343  30.194  1.00  0.00    -0.203 F 
ATOM     68  C   UNL A   1      39.530  25.833  27.999  1.00  0.00     0.198 A 
ATOM     69  C   UNL A   1      40.980  27.329  26.810  1.00  0.00     0.198 A 
ATOM     70  F   UNL A   1      41.766  29.287  27.851  1.00  0.00    -0.203 F 
ATOM     71  F   UNL A   1      38.822  24.696  28.048  1.00  0.00    -0.200 F 
ATOM     72  C   UNL A   1      40.232  26.162  26.851  1.00  0.00     0.200 A 
ATOM     73  F   UNL A   1      41.645  27.658  25.693  1.00  0.00    -0.200 F 
ATOM     74  F   UNL A   1      40.191  25.353  25.783  1.00  0.00    -0.200 F 
ENDBRANCH  50  64
BRANCH  51  75
ATOM     75  C   UNL A   1      39.446  33.870  36.983  1.00  0.00     0.064 A 
ATOM     76  C   UNL A   1      38.737  33.421  38.106  1.00  0.00     0.173 A 
ATOM     77  C   UNL A   1      40.034  35.142  37.043  1.00  0.00     0.173 A 
ATOM     78  F   UNL A   1      38.151  32.215  38.088  1.00  0.00    -0.203 F 
ATOM     79  C   UNL A   1      38.608  34.218  39.240  1.00  0.00     0.198 A 
ATOM     80  C   UNL A   1      39.924  35.928  38.187  1.00  0.00     0.198 A 
ATOM     81  F   UNL A   1      40.737  35.607  36.000  1.00  0.00    -0.203 F 
ATOM     82  F   UNL A   1      37.899  33.777  40.288  1.00  0.00    -0.200 F 
ATOM     83  C   UNL A   1      39.207  35.468  39.283  1.00  0.00     0.200 A 
ATOM     84  F   UNL A   1      40.519  37.128  38.234  1.00  0.00    -0.200 F 
ATOM     85  F   UNL A   1      39.092  36.229  40.380  1.00  0.00    -0.200 F 
ENDBRANCH  51  75
BRANCH  63  86
ATOM     86  C   UNL A   1      44.034  28.947  35.182  1.00  0.00     0.064 A 
ATOM     87  C   UNL A   1      45.300  29.510  34.967  1.00  0.00     0.173 A 
ATOM     88  C   UNL A   1      43.938  27.863  36.068  1.00  0.00     0.173 A 
ATOM     89  F   UNL A   1      45.447  30.536  34.116  1.00  0.00    -0.203 F 
ATOM     90  C   UNL A   1      46.430  28.988  35.591  1.00  0.00     0.198 A 
ATOM     91  C   UNL A   1      45.066  27.362  36.711  1.00  0.00     0.198 A 
ATOM     92  F   UNL A   1      42.749  27.291  36.311  1.00  0.00    -0.203 F 
ATOM     93  F   UNL A   1      47.637  29.509  35.331  1.00  0.00    -0.200 F 
ATOM     94  C   UNL A   1      46.311  27.920  36.466  1.00  0.00     0.200 A 
ATOM     95  F   UNL A   1      44.948  26.335  37.565  1.00  0.00    -0.200 F 
ATOM     96  F   UNL A   1      47.400  27.420  37.067  1.00  0.00    -0.200 F 
ENDBRANCH  63  86
ENDBRANCH  37  38
ENDBRANCH  29  32
ENDBRANCH  27  28
ENDBRANCH  26  27
ENDBRANCH  25  26
ENDBRANCH   1  25
TORSDOF 16
ENDMDL
