MODEL 1
REMARK VINA RESULT:     -12.6      0.000      0.000
REMARK SMILES Cc1cc(NC(=O)c2sccc2/C=C/C(=O)NCCCCNC(=O)c2ccc(-c3c4nc(c(-c5c(F)c(F)c(F)c(F)c5F)c5ccc([nH]5)c(-c5c(F)c(F)c(F)c(F)c5F)c5nc(c(-c6c(F)c(F)c(F)c(F)c6F)c6ccc3[nH]6)C=C5)C=C4)cc2)ccn1
REMARK SMILES IDX 19 1 18 2 17 3 15 4 16 5 14 7 13 8 12 9 8 10 9 11 10 12
REMARK SMILES IDX 11 13 6 14 5 15 7 17 4 18 1 19 2 20 3 21 90 22 89 23 88 24
REMARK SMILES IDX 20 25 21 26 22 27 23 28 24 30 25 31 26 32 87 33 27 34 86 35
REMARK SMILES IDX 28 36 29 37 30 38 80 39 31 40 85 41 79 42 81 43 32 44 84 45
REMARK SMILES IDX 78 46 77 47 33 49 65 50 45 51 64 52 46 53 49 54 63 55 82 56
REMARK SMILES IDX 47 57 48 58 62 60 83 61 50 62 34 63 35 64 43 65 36 66 37 67
REMARK SMILES IDX 41 68 44 69 38 70 39 71 42 72 40 73 66 74 67 75 75 76 68 77
REMARK SMILES IDX 69 78 73 79 76 80 70 81 71 82 74 83 72 84 51 85 52 86 60 87
REMARK SMILES IDX 53 88 54 89 58 90 61 91 55 92 56 93 59 94 57 95
REMARK H PARENT 17 6 5 16 22 29 81 48 49 59
REMARK Flexibility Score: inf
ROOT
ATOM      1  C   UNL A   1      31.800  30.298  26.868  1.00  0.00     0.023 C 
ENDROOT
BRANCH   1   2
ATOM      2  C   UNL A   1      33.227  29.813  26.636  1.00  0.00     0.116 C 
BRANCH   2   3
ATOM      3  N   UNL A   1      33.579  29.838  25.233  1.00  0.00    -0.353 N 
ATOM      4  C   UNL A   1      33.641  28.821  24.330  1.00  0.00     0.243 C 
ATOM      5  O   UNL A   1      33.849  29.072  23.145  1.00  0.00    -0.270 OA
ATOM      6  H   UNL A   1      33.810  30.725  24.875  1.00  0.00     0.163 HD
BRANCH   4   7
ATOM      7  C   UNL A   1      33.367  27.424  24.735  1.00  0.00     0.072 C 
ATOM      8  C   UNL A   1      34.059  26.349  24.327  1.00  0.00     0.015 C 
BRANCH   8   9
ATOM      9  C   UNL A   1      33.784  25.011  24.762  1.00  0.00    -0.002 A 
ATOM     10  C   UNL A   1      33.269  24.020  23.939  1.00  0.00     0.099 A 
ATOM     11  S   UNL A   1      32.977  22.568  24.810  1.00  0.00    -0.138 S 
ATOM     12  C   UNL A   1      33.639  23.218  26.243  1.00  0.00     0.066 A 
ATOM     13  C   UNL A   1      34.025  24.531  26.087  1.00  0.00     0.020 A 
BRANCH  10  14
ATOM     14  C   UNL A   1      32.927  24.030  22.532  1.00  0.00     0.266 C 
ATOM     15  N   UNL A   1      31.860  24.765  22.054  1.00  0.00    -0.321 N 
ATOM     16  H   UNL A   1      31.674  24.606  21.099  1.00  0.00     0.170 HD
ATOM     17  O   UNL A   1      33.532  23.344  21.702  1.00  0.00    -0.268 OA
BRANCH  15  18
ATOM     18  C   UNL A   1      30.981  25.694  22.643  1.00  0.00     0.044 A 
ATOM     19  C   UNL A   1      30.152  29.355  22.103  1.00  0.00     0.067 C 
ATOM     20  C   UNL A   1      30.156  27.958  22.644  1.00  0.00     0.039 A 
ATOM     21  C   UNL A   1      31.085  27.020  22.205  1.00  0.00     0.049 A 
ATOM     22  N   UNL A   1      29.171  27.646  23.513  1.00  0.00    -0.261 NA
ATOM     23  C   UNL A   1      29.134  26.382  23.980  1.00  0.00     0.113 A 
ATOM     24  C   UNL A   1      30.013  25.387  23.588  1.00  0.00     0.046 A 
ENDBRANCH  15  18
ENDBRANCH  10  14
ENDBRANCH   8   9
ENDBRANCH   4   7
ENDBRANCH   2   3
ENDBRANCH   1   2
BRANCH   1  25
ATOM     25  C   UNL A   1      31.631  31.813  26.740  1.00  0.00     0.023 C 
BRANCH  25  26
ATOM     26  C   UNL A   1      32.773  32.638  27.325  1.00  0.00     0.116 C 
BRANCH  26  27
ATOM     27  N   UNL A   1      32.401  34.013  27.625  1.00  0.00    -0.352 N 
ATOM     28  C   UNL A   1      32.969  34.875  28.535  1.00  0.00     0.251 C 
ATOM     29  H   UNL A   1      31.644  34.374  27.110  1.00  0.00     0.163 HD
ATOM     30  O   UNL A   1      32.488  35.982  28.729  1.00  0.00    -0.269 OA
BRANCH  28  31
ATOM     31  C   UNL A   1      34.147  34.429  29.307  1.00  0.00     0.039 A 
ATOM     32  C   UNL A   1      33.945  33.789  30.531  1.00  0.00     0.014 A 
ATOM     33  C   UNL A   1      35.437  34.597  28.798  1.00  0.00     0.014 A 
ATOM     34  C   UNL A   1      35.035  33.249  31.214  1.00  0.00     0.010 A 
ATOM     35  C   UNL A   1      36.514  34.002  29.447  1.00  0.00     0.010 A 
ATOM     36  C   UNL A   1      36.322  33.317  30.658  1.00  0.00    -0.014 A 
BRANCH  36  37
ATOM     37  C   UNL A   1      37.483  32.673  31.320  1.00  0.00     0.031 A 
ATOM     38  C   UNL A   1      38.196  31.534  30.650  1.00  0.00     0.074 A 
ATOM     39  C   UNL A   1      37.844  33.063  32.559  1.00  0.00     0.049 A 
ATOM     40  N   UNL A   1      39.174  30.788  31.099  1.00  0.00    -0.248 NA
ATOM     41  C   UNL A   1      37.727  31.162  29.306  1.00  0.00     0.031 C 
ATOM     42  C   UNL A   1      37.197  34.121  33.334  1.00  0.00     0.029 A 
ATOM     43  N   UNL A   1      38.838  32.603  33.386  1.00  0.00    -0.354 N 
ATOM     44  C   UNL A   1      39.423  29.855  30.103  1.00  0.00     0.074 A 
ATOM     45  C   UNL A   1      38.463  30.092  29.048  1.00  0.00     0.031 C 
ATOM     46  C   UNL A   1      37.821  34.243  34.517  1.00  0.00     0.029 A 
ATOM     47  C   UNL A   1      38.889  33.250  34.597  1.00  0.00     0.049 A 
ATOM     48  H   UNL A   1      39.455  31.878  33.137  1.00  0.00     0.167 HD
ATOM     49  C   UNL A   1      40.383  28.899  30.063  1.00  0.00     0.037 A 
ATOM     50  C   UNL A   1      39.701  33.058  35.654  1.00  0.00     0.037 A 
ATOM     51  C   UNL A   1      41.356  28.685  31.101  1.00  0.00     0.049 A 
ATOM     52  C   UNL A   1      40.764  31.996  35.581  1.00  0.00     0.074 A 
ATOM     53  C   UNL A   1      42.410  27.787  31.126  1.00  0.00     0.029 A 
ATOM     54  N   UNL A   1      41.394  29.380  32.302  1.00  0.00    -0.354 N 
ATOM     55  N   UNL A   1      41.036  31.164  34.605  1.00  0.00    -0.248 NA
ATOM     56  C   UNL A   1      41.636  31.850  36.753  1.00  0.00     0.031 C 
ATOM     57  C   UNL A   1      43.061  27.912  32.358  1.00  0.00     0.029 A 
ATOM     58  C   UNL A   1      42.442  28.918  33.083  1.00  0.00     0.049 A 
ATOM     59  H   UNL A   1      40.770  30.095  32.561  1.00  0.00     0.167 HD
ATOM     60  C   UNL A   1      42.125  30.418  35.033  1.00  0.00     0.074 A 
ATOM     61  C   UNL A   1      42.473  30.903  36.352  1.00  0.00     0.031 C 
ATOM     62  C   UNL A   1      42.779  29.419  34.390  1.00  0.00     0.037 A 
BRANCH  49  63
ATOM     63  C   UNL A   1      40.430  28.016  28.851  1.00  0.00     0.064 A 
ATOM     64  C   UNL A   1      41.184  28.363  27.719  1.00  0.00     0.173 A 
ATOM     65  C   UNL A   1      39.740  26.795  28.832  1.00  0.00     0.173 A 
ATOM     66  F   UNL A   1      41.851  29.526  27.682  1.00  0.00    -0.203 F 
ATOM     67  C   UNL A   1      41.219  27.534  26.601  1.00  0.00     0.198 A 
ATOM     68  C   UNL A   1      39.803  25.954  27.722  1.00  0.00     0.198 A 
ATOM     69  F   UNL A   1      39.009  26.413  29.889  1.00  0.00    -0.203 F 
ATOM     70  F   UNL A   1      41.904  27.911  25.512  1.00  0.00    -0.200 F 
ATOM     71  C   UNL A   1      40.535  26.328  26.606  1.00  0.00     0.200 A 
ATOM     72  F   UNL A   1      39.150  24.784  27.734  1.00  0.00    -0.200 F 
ATOM     73  F   UNL A   1      40.575  25.529  25.531  1.00  0.00    -0.200 F 
ENDBRANCH  49  63
BRANCH  50  74
ATOM     74  C   UNL A   1      39.561  33.912  36.862  1.00  0.00     0.064 A 
ATOM     75  C   UNL A   1      38.789  33.491  37.953  1.00  0.00     0.173 A 
ATOM     76  C   UNL A   1      40.189  35.163  36.949  1.00  0.00     0.173 A 
ATOM     77  F   UNL A   1      38.152  32.312  37.907  1.00  0.00    -0.203 F 
ATOM     78  C   UNL A   1      38.636  34.296  39.079  1.00  0.00     0.198 A 
ATOM     79  C   UNL A   1      40.057  35.956  38.087  1.00  0.00     0.198 A 
ATOM     80  F   UNL A   1      40.943  35.609  35.933  1.00  0.00    -0.203 F 
ATOM     81  F   UNL A   1      37.858  33.888  40.092  1.00  0.00    -0.200 F 
ATOM     82  C   UNL A   1      39.274  35.525  39.148  1.00  0.00     0.200 A 
ATOM     83  F   UNL A   1      40.685  37.137  38.155  1.00  0.00    -0.200 F 
ATOM     84  F   UNL A   1      39.128  36.298  40.233  1.00  0.00    -0.200 F 
ENDBRANCH  50  74
BRANCH  62  85
ATOM     85  C   UNL A   1      43.957  28.807  35.089  1.00  0.00     0.064 A 
ATOM     86  C   UNL A   1      43.817  27.686  35.920  1.00  0.00     0.173 A 
ATOM     87  C   UNL A   1      45.246  29.324  34.891  1.00  0.00     0.173 A 
ATOM     88  F   UNL A   1      42.604  27.165  36.153  1.00  0.00    -0.203 F 
ATOM     89  C   UNL A   1      44.924  27.118  36.545  1.00  0.00     0.198 A 
ATOM     90  C   UNL A   1      46.354  28.737  35.494  1.00  0.00     0.198 A 
ATOM     91  F   UNL A   1      45.432  30.393  34.101  1.00  0.00    -0.203 F 
ATOM     92  F   UNL A   1      44.764  26.074  37.370  1.00  0.00    -0.200 F 
ATOM     93  C   UNL A   1      46.191  27.639  36.326  1.00  0.00     0.200 A 
ATOM     94  F   UNL A   1      47.578  29.234  35.272  1.00  0.00    -0.200 F 
ATOM     95  F   UNL A   1      47.257  27.087  36.923  1.00  0.00    -0.200 F 
ENDBRANCH  62  85
ENDBRANCH  36  37
ENDBRANCH  28  31
ENDBRANCH  26  27
ENDBRANCH  25  26
ENDBRANCH   1  25
TORSDOF 14
ENDMDL
MODEL 2
REMARK VINA RESULT:     -12.6      1.268      7.335
REMARK SMILES Cc1cc(NC(=O)c2sccc2/C=C/C(=O)NCCCCNC(=O)c2ccc(-c3c4nc(c(-c5c(F)c(F)c(F)c(F)c5F)c5ccc([nH]5)c(-c5c(F)c(F)c(F)c(F)c5F)c5nc(c(-c6c(F)c(F)c(F)c(F)c6F)c6ccc3[nH]6)C=C5)C=C4)cc2)ccn1
REMARK SMILES IDX 19 1 18 2 17 3 15 4 16 5 14 7 13 8 12 9 8 10 9 11 10 12
REMARK SMILES IDX 11 13 6 14 5 15 7 17 4 18 1 19 2 20 3 21 90 22 89 23 88 24
REMARK SMILES IDX 20 25 21 26 22 27 23 28 24 30 25 31 26 32 87 33 27 34 86 35
REMARK SMILES IDX 28 36 29 37 30 38 80 39 31 40 85 41 79 42 81 43 32 44 84 45
REMARK SMILES IDX 78 46 77 47 33 49 65 50 45 51 64 52 46 53 49 54 63 55 82 56
REMARK SMILES IDX 47 57 48 58 62 60 83 61 50 62 34 63 35 64 43 65 36 66 37 67
REMARK SMILES IDX 41 68 44 69 38 70 39 71 42 72 40 73 66 74 67 75 75 76 68 77
REMARK SMILES IDX 69 78 73 79 76 80 70 81 71 82 74 83 72 84 51 85 52 86 60 87
REMARK SMILES IDX 53 88 54 89 58 90 61 91 55 92 56 93 59 94 57 95
REMARK H PARENT 17 6 5 16 22 29 81 48 49 59
REMARK Flexibility Score: inf
ROOT
ATOM      1  C   UNL A   1      31.710  30.767  26.106  1.00  0.00     0.023 C 
ENDROOT
BRANCH   1   2
ATOM      2  C   UNL A   1      31.922  29.732  27.206  1.00  0.00     0.116 C 
BRANCH   2   3
ATOM      3  N   UNL A   1      33.319  29.611  27.564  1.00  0.00    -0.353 N 
ATOM      4  C   UNL A   1      34.288  28.812  27.041  1.00  0.00     0.243 C 
ATOM      5  O   UNL A   1      35.452  28.946  27.411  1.00  0.00    -0.270 OA
ATOM      6  H   UNL A   1      33.614  30.195  28.299  1.00  0.00     0.163 HD
BRANCH   4   7
ATOM      7  C   UNL A   1      33.980  27.845  25.964  1.00  0.00     0.072 C 
ATOM      8  C   UNL A   1      33.578  26.578  26.150  1.00  0.00     0.015 C 
BRANCH   8   9
ATOM      9  C   UNL A   1      33.261  25.676  25.083  1.00  0.00    -0.002 A 
ATOM     10  C   UNL A   1      31.973  25.261  24.776  1.00  0.00     0.099 A 
ATOM     11  S   UNL A   1      31.970  24.109  23.501  1.00  0.00    -0.138 S 
ATOM     12  C   UNL A   1      33.657  24.250  23.283  1.00  0.00     0.066 A 
ATOM     13  C   UNL A   1      34.228  25.110  24.194  1.00  0.00     0.020 A 
BRANCH  10  14
ATOM     14  C   UNL A   1      30.693  25.610  25.358  1.00  0.00     0.266 C 
ATOM     15  N   UNL A   1      29.974  26.703  24.916  1.00  0.00    -0.321 N 
ATOM     16  H   UNL A   1      29.173  26.888  25.460  1.00  0.00     0.170 HD
ATOM     17  O   UNL A   1      30.210  24.987  26.307  1.00  0.00    -0.268 OA
BRANCH  15  18
ATOM     18  C   UNL A   1      30.143  27.609  23.851  1.00  0.00     0.044 A 
ATOM     19  C   UNL A   1      27.873  29.914  21.870  1.00  0.00     0.067 C 
ATOM     20  C   UNL A   1      29.086  29.186  22.368  1.00  0.00     0.039 A 
ATOM     21  C   UNL A   1      28.979  28.181  23.324  1.00  0.00     0.049 A 
ATOM     22  N   UNL A   1      30.277  29.609  21.896  1.00  0.00    -0.261 NA
ATOM     23  C   UNL A   1      31.383  28.994  22.362  1.00  0.00     0.113 A 
ATOM     24  C   UNL A   1      31.365  27.994  23.319  1.00  0.00     0.046 A 
ENDBRANCH  15  18
ENDBRANCH  10  14
ENDBRANCH   8   9
ENDBRANCH   4   7
ENDBRANCH   2   3
ENDBRANCH   1   2
BRANCH   1  25
ATOM     25  C   UNL A   1      31.423  32.176  26.627  1.00  0.00     0.023 C 
BRANCH  25  26
ATOM     26  C   UNL A   1      32.611  32.874  27.281  1.00  0.00     0.116 C 
BRANCH  26  27
ATOM     27  N   UNL A   1      32.337  34.251  27.662  1.00  0.00    -0.352 N 
ATOM     28  C   UNL A   1      32.983  35.025  28.600  1.00  0.00     0.251 C 
ATOM     29  H   UNL A   1      31.593  34.687  27.187  1.00  0.00     0.163 HD
ATOM     30  O   UNL A   1      32.579  36.148  28.865  1.00  0.00    -0.269 OA
BRANCH  28  31
ATOM     31  C   UNL A   1      34.146  34.464  29.316  1.00  0.00     0.039 A 
ATOM     32  C   UNL A   1      33.937  33.814  30.533  1.00  0.00     0.014 A 
ATOM     33  C   UNL A   1      35.426  34.535  28.760  1.00  0.00     0.014 A 
ATOM     34  C   UNL A   1      35.003  33.169  31.162  1.00  0.00     0.010 A 
ATOM     35  C   UNL A   1      36.472  33.836  29.353  1.00  0.00     0.010 A 
ATOM     36  C   UNL A   1      36.269  33.142  30.557  1.00  0.00    -0.014 A 
BRANCH  36  37
ATOM     37  C   UNL A   1      37.395  32.386  31.159  1.00  0.00     0.031 A 
ATOM     38  C   UNL A   1      37.892  32.743  32.531  1.00  0.00     0.074 A 
ATOM     39  C   UNL A   1      38.018  31.432  30.440  1.00  0.00     0.049 A 
ATOM     40  N   UNL A   1      38.912  32.259  33.194  1.00  0.00    -0.248 NA
ATOM     41  C   UNL A   1      37.164  33.806  33.240  1.00  0.00     0.031 C 
ATOM     42  C   UNL A   1      37.662  31.032  29.078  1.00  0.00     0.029 A 
ATOM     43  N   UNL A   1      39.091  30.636  30.751  1.00  0.00    -0.354 N 
ATOM     44  C   UNL A   1      38.956  32.969  34.386  1.00  0.00     0.074 A 
ATOM     45  C   UNL A   1      37.895  33.950  34.336  1.00  0.00     0.031 C 
ATOM     46  C   UNL A   1      38.489  30.054  28.677  1.00  0.00     0.029 A 
ATOM     47  C   UNL A   1      39.454  29.781  29.739  1.00  0.00     0.049 A 
ATOM     48  H   UNL A   1      39.558  30.674  31.617  1.00  0.00     0.167 HD
ATOM     49  C   UNL A   1      39.793  32.801  35.438  1.00  0.00     0.037 A 
ATOM     50  C   UNL A   1      40.456  28.884  29.674  1.00  0.00     0.037 A 
ATOM     51  C   UNL A   1      40.828  31.804  35.498  1.00  0.00     0.049 A 
ATOM     52  C   UNL A   1      41.366  28.711  30.859  1.00  0.00     0.074 A 
ATOM     53  C   UNL A   1      41.685  31.511  36.544  1.00  0.00     0.029 A 
ATOM     54  N   UNL A   1      41.148  30.936  34.463  1.00  0.00    -0.354 N 
ATOM     55  N   UNL A   1      41.355  29.340  32.009  1.00  0.00    -0.248 NA
ATOM     56  C   UNL A   1      42.425  27.700  30.739  1.00  0.00     0.031 C 
ATOM     57  C   UNL A   1      42.549  30.492  36.129  1.00  0.00     0.029 A 
ATOM     58  C   UNL A   1      42.201  30.118  34.840  1.00  0.00     0.049 A 
ATOM     59  H   UNL A   1      40.693  30.905  33.591  1.00  0.00     0.167 HD
ATOM     60  C   UNL A   1      42.382  28.783  32.758  1.00  0.00     0.074 A 
ATOM     61  C   UNL A   1      42.989  27.756  31.937  1.00  0.00     0.031 C 
ATOM     62  C   UNL A   1      42.787  29.095  34.014  1.00  0.00     0.037 A 
BRANCH  49  63
ATOM     63  C   UNL A   1      39.616  33.716  36.615  1.00  0.00     0.064 A 
ATOM     64  C   UNL A   1      40.239  34.972  36.668  1.00  0.00     0.173 A 
ATOM     65  C   UNL A   1      38.792  33.346  37.688  1.00  0.00     0.173 A 
ATOM     66  F   UNL A   1      41.048  35.367  35.673  1.00  0.00    -0.203 F 
ATOM     67  C   UNL A   1      40.067  35.811  37.766  1.00  0.00     0.198 A 
ATOM     68  C   UNL A   1      38.598  34.201  38.770  1.00  0.00     0.198 A 
ATOM     69  F   UNL A   1      38.170  32.158  37.685  1.00  0.00    -0.203 F 
ATOM     70  F   UNL A   1      40.712  36.985  37.817  1.00  0.00    -0.200 F 
ATOM     71  C   UNL A   1      39.241  35.428  38.812  1.00  0.00     0.200 A 
ATOM     72  F   UNL A   1      37.792  33.833  39.775  1.00  0.00    -0.200 F 
ATOM     73  F   UNL A   1      39.073  36.239  39.865  1.00  0.00    -0.200 F 
ENDBRANCH  49  63
BRANCH  50  74
ATOM     74  C   UNL A   1      40.632  28.056  28.452  1.00  0.00     0.064 A 
ATOM     75  C   UNL A   1      40.024  26.798  28.344  1.00  0.00     0.173 A 
ATOM     76  C   UNL A   1      41.410  28.501  27.374  1.00  0.00     0.173 A 
ATOM     77  F   UNL A   1      39.288  26.321  29.358  1.00  0.00    -0.203 F 
ATOM     78  C   UNL A   1      40.203  26.007  27.212  1.00  0.00     0.198 A 
ATOM     79  C   UNL A   1      41.567  27.721  26.231  1.00  0.00     0.198 A 
ATOM     80  F   UNL A   1      42.009  29.700  27.426  1.00  0.00    -0.203 F 
ATOM     81  F   UNL A   1      39.645  24.790  27.152  1.00  0.00    -0.200 F 
ATOM     82  C   UNL A   1      40.970  26.471  26.153  1.00  0.00     0.200 A 
ATOM     83  F   UNL A   1      42.298  28.177  25.204  1.00  0.00    -0.200 F 
ATOM     84  F   UNL A   1      41.139  25.711  25.062  1.00  0.00    -0.200 F 
ENDBRANCH  50  74
BRANCH  62  85
ATOM     85  C   UNL A   1      43.917  28.295  34.591  1.00  0.00     0.064 A 
ATOM     86  C   UNL A   1      43.693  27.080  35.256  1.00  0.00     0.173 A 
ATOM     87  C   UNL A   1      45.243  28.729  34.440  1.00  0.00     0.173 A 
ATOM     88  F   UNL A   1      42.443  26.632  35.440  1.00  0.00    -0.203 F 
ATOM     89  C   UNL A   1      44.756  26.341  35.768  1.00  0.00     0.198 A 
ATOM     90  C   UNL A   1      46.304  27.973  34.928  1.00  0.00     0.198 A 
ATOM     91  F   UNL A   1      45.508  29.881  33.806  1.00  0.00    -0.203 F 
ATOM     92  F   UNL A   1      44.517  25.205  36.439  1.00  0.00    -0.200 F 
ATOM     93  C   UNL A   1      46.059  26.783  35.598  1.00  0.00     0.200 A 
ATOM     94  F   UNL A   1      47.563  28.396  34.751  1.00  0.00    -0.200 F 
ATOM     95  F   UNL A   1      47.081  26.066  36.085  1.00  0.00    -0.200 F 
ENDBRANCH  62  85
ENDBRANCH  36  37
ENDBRANCH  28  31
ENDBRANCH  26  27
ENDBRANCH  25  26
ENDBRANCH   1  25
TORSDOF 14
ENDMDL
MODEL 3
REMARK VINA RESULT:     -12.5      1.611      7.943
REMARK SMILES Cc1cc(NC(=O)c2sccc2/C=C/C(=O)NCCCCNC(=O)c2ccc(-c3c4nc(c(-c5c(F)c(F)c(F)c(F)c5F)c5ccc([nH]5)c(-c5c(F)c(F)c(F)c(F)c5F)c5nc(c(-c6c(F)c(F)c(F)c(F)c6F)c6ccc3[nH]6)C=C5)C=C4)cc2)ccn1
REMARK SMILES IDX 19 1 18 2 17 3 15 4 16 5 14 7 13 8 12 9 8 10 9 11 10 12
REMARK SMILES IDX 11 13 6 14 5 15 7 17 4 18 1 19 2 20 3 21 90 22 89 23 88 24
REMARK SMILES IDX 20 25 21 26 22 27 23 28 24 30 25 31 26 32 87 33 27 34 86 35
REMARK SMILES IDX 28 36 29 37 30 38 80 39 31 40 85 41 79 42 81 43 32 44 84 45
REMARK SMILES IDX 78 46 77 47 33 49 65 50 45 51 64 52 46 53 49 54 63 55 82 56
REMARK SMILES IDX 47 57 48 58 62 60 83 61 50 62 34 63 35 64 43 65 36 66 37 67
REMARK SMILES IDX 41 68 44 69 38 70 39 71 42 72 40 73 66 74 67 75 75 76 68 77
REMARK SMILES IDX 69 78 73 79 76 80 70 81 71 82 74 83 72 84 51 85 52 86 60 87
REMARK SMILES IDX 53 88 54 89 58 90 61 91 55 92 56 93 59 94 57 95
REMARK H PARENT 17 6 5 16 22 29 81 48 49 59
REMARK Flexibility Score: inf
ROOT
ATOM      1  C   UNL A   1      31.699  30.804  26.162  1.00  0.00     0.023 C 
ENDROOT
BRANCH   1   2
ATOM      2  C   UNL A   1      31.944  29.802  27.285  1.00  0.00     0.116 C 
BRANCH   2   3
ATOM      3  N   UNL A   1      33.356  29.630  27.550  1.00  0.00    -0.353 N 
ATOM      4  C   UNL A   1      34.262  28.806  26.957  1.00  0.00     0.243 C 
ATOM      5  O   UNL A   1      35.451  28.897  27.251  1.00  0.00    -0.270 OA
ATOM      6  H   UNL A   1      33.718  30.195  28.270  1.00  0.00     0.163 HD
BRANCH   4   7
ATOM      7  C   UNL A   1      33.852  27.864  25.891  1.00  0.00     0.072 C 
ATOM      8  C   UNL A   1      33.458  26.595  26.087  1.00  0.00     0.015 C 
BRANCH   8   9
ATOM      9  C   UNL A   1      33.041  25.718  25.034  1.00  0.00    -0.002 A 
ATOM     10  C   UNL A   1      32.444  24.484  25.245  1.00  0.00     0.099 A 
ATOM     11  S   UNL A   1      32.162  23.659  23.764  1.00  0.00    -0.138 S 
ATOM     12  C   UNL A   1      32.723  24.983  22.845  1.00  0.00     0.066 A 
ATOM     13  C   UNL A   1      33.172  26.014  23.641  1.00  0.00     0.020 A 
BRANCH  10  14
ATOM     14  C   UNL A   1      32.067  23.802  26.466  1.00  0.00     0.266 C 
ATOM     15  N   UNL A   1      32.653  22.606  26.834  1.00  0.00    -0.321 N 
ATOM     16  H   UNL A   1      32.238  22.198  27.630  1.00  0.00     0.170 HD
ATOM     17  O   UNL A   1      31.173  24.222  27.206  1.00  0.00    -0.268 OA
BRANCH  15  18
ATOM     18  C   UNL A   1      33.717  21.846  26.312  1.00  0.00     0.044 A 
ATOM     19  C   UNL A   1      34.030  18.623  24.338  1.00  0.00     0.067 C 
ATOM     20  C   UNL A   1      34.367  19.882  25.078  1.00  0.00     0.039 A 
ATOM     21  C   UNL A   1      33.384  20.615  25.735  1.00  0.00     0.049 A 
ATOM     22  N   UNL A   1      35.650  20.296  25.007  1.00  0.00    -0.261 NA
ATOM     23  C   UNL A   1      35.965  21.448  25.632  1.00  0.00     0.113 A 
ATOM     24  C   UNL A   1      35.047  22.241  26.299  1.00  0.00     0.046 A 
ENDBRANCH  15  18
ENDBRANCH  10  14
ENDBRANCH   8   9
ENDBRANCH   4   7
ENDBRANCH   2   3
ENDBRANCH   1   2
BRANCH   1  25
ATOM     25  C   UNL A   1      31.422  32.226  26.649  1.00  0.00     0.023 C 
BRANCH  25  26
ATOM     26  C   UNL A   1      32.613  32.929  27.292  1.00  0.00     0.116 C 
BRANCH  26  27
ATOM     27  N   UNL A   1      32.337  34.305  27.675  1.00  0.00    -0.352 N 
ATOM     28  C   UNL A   1      32.974  35.076  28.621  1.00  0.00     0.251 C 
ATOM     29  H   UNL A   1      31.598  34.744  27.194  1.00  0.00     0.163 HD
ATOM     30  O   UNL A   1      32.570  36.198  28.886  1.00  0.00    -0.269 OA
BRANCH  28  31
ATOM     31  C   UNL A   1      34.131  34.510  29.346  1.00  0.00     0.039 A 
ATOM     32  C   UNL A   1      33.909  33.859  30.561  1.00  0.00     0.014 A 
ATOM     33  C   UNL A   1      35.415  34.579  28.801  1.00  0.00     0.014 A 
ATOM     34  C   UNL A   1      34.969  33.211  31.197  1.00  0.00     0.010 A 
ATOM     35  C   UNL A   1      36.455  33.877  29.402  1.00  0.00     0.010 A 
ATOM     36  C   UNL A   1      36.240  33.181  30.603  1.00  0.00    -0.014 A 
BRANCH  36  37
ATOM     37  C   UNL A   1      37.359  32.423  31.214  1.00  0.00     0.031 A 
ATOM     38  C   UNL A   1      37.855  32.786  32.584  1.00  0.00     0.074 A 
ATOM     39  C   UNL A   1      37.977  31.459  30.503  1.00  0.00     0.049 A 
ATOM     40  N   UNL A   1      38.870  32.300  33.253  1.00  0.00    -0.248 NA
ATOM     41  C   UNL A   1      37.133  33.859  33.283  1.00  0.00     0.031 C 
ATOM     42  C   UNL A   1      37.621  31.051  29.144  1.00  0.00     0.029 A 
ATOM     43  N   UNL A   1      39.044  30.657  30.822  1.00  0.00    -0.354 N 
ATOM     44  C   UNL A   1      38.916  33.018  34.440  1.00  0.00     0.074 A 
ATOM     45  C   UNL A   1      37.862  34.006  34.380  1.00  0.00     0.031 C 
ATOM     46  C   UNL A   1      38.442  30.064  28.752  1.00  0.00     0.029 A 
ATOM     47  C   UNL A   1      39.403  29.792  29.818  1.00  0.00     0.049 A 
ATOM     48  H   UNL A   1      39.509  30.698  31.689  1.00  0.00     0.167 HD
ATOM     49  C   UNL A   1      39.749  32.852  35.495  1.00  0.00     0.037 A 
ATOM     50  C   UNL A   1      40.398  28.888  29.762  1.00  0.00     0.037 A 
ATOM     51  C   UNL A   1      40.778  31.849  35.565  1.00  0.00     0.049 A 
ATOM     52  C   UNL A   1      41.305  28.717  30.950  1.00  0.00     0.074 A 
ATOM     53  C   UNL A   1      41.630  31.557  36.616  1.00  0.00     0.029 A 
ATOM     54  N   UNL A   1      41.094  30.970  34.538  1.00  0.00    -0.354 N 
ATOM     55  N   UNL A   1      41.295  29.355  32.096  1.00  0.00    -0.248 NA
ATOM     56  C   UNL A   1      42.356  27.697  30.840  1.00  0.00     0.031 C 
ATOM     57  C   UNL A   1      42.487  30.528  36.210  1.00  0.00     0.029 A 
ATOM     58  C   UNL A   1      42.140  30.148  34.923  1.00  0.00     0.049 A 
ATOM     59  H   UNL A   1      40.640  30.936  33.664  1.00  0.00     0.167 HD
ATOM     60  C   UNL A   1      42.317  28.796  32.851  1.00  0.00     0.074 A 
ATOM     61  C   UNL A   1      42.918  27.758  32.040  1.00  0.00     0.031 C 
ATOM     62  C   UNL A   1      42.720  29.114  34.106  1.00  0.00     0.037 A 
BRANCH  49  63
ATOM     63  C   UNL A   1      39.577  33.777  36.665  1.00  0.00     0.064 A 
ATOM     64  C   UNL A   1      38.802  33.415  37.777  1.00  0.00     0.173 A 
ATOM     65  C   UNL A   1      40.218  35.024  36.689  1.00  0.00     0.173 A 
ATOM     66  F   UNL A   1      38.157  32.239  37.798  1.00  0.00    -0.203 F 
ATOM     67  C   UNL A   1      38.651  34.282  38.857  1.00  0.00     0.198 A 
ATOM     68  C   UNL A   1      40.089  35.875  37.784  1.00  0.00     0.198 A 
ATOM     69  F   UNL A   1      40.975  35.416  35.653  1.00  0.00    -0.203 F 
ATOM     70  F   UNL A   1      37.864  33.936  39.886  1.00  0.00    -0.200 F 
ATOM     71  C   UNL A   1      39.299  35.507  38.862  1.00  0.00     0.200 A 
ATOM     72  F   UNL A   1      40.725  37.054  37.791  1.00  0.00    -0.200 F 
ATOM     73  F   UNL A   1      39.157  36.338  39.905  1.00  0.00    -0.200 F 
ENDBRANCH  49  63
BRANCH  50  74
ATOM     74  C   UNL A   1      40.572  28.050  28.547  1.00  0.00     0.064 A 
ATOM     75  C   UNL A   1      41.353  28.496  27.472  1.00  0.00     0.173 A 
ATOM     76  C   UNL A   1      39.960  26.793  28.433  1.00  0.00     0.173 A 
ATOM     77  F   UNL A   1      41.940  29.701  27.527  1.00  0.00    -0.203 F 
ATOM     78  C   UNL A   1      41.502  27.726  26.322  1.00  0.00     0.198 A 
ATOM     79  C   UNL A   1      40.132  26.012  27.292  1.00  0.00     0.198 A 
ATOM     80  F   UNL A   1      39.207  26.317  29.435  1.00  0.00    -0.203 F 
ATOM     81  F   UNL A   1      42.220  28.195  25.291  1.00  0.00    -0.200 F 
ATOM     82  C   UNL A   1      40.896  26.482  26.234  1.00  0.00     0.200 A 
ATOM     83  F   UNL A   1      39.555  24.804  27.215  1.00  0.00    -0.200 F 
ATOM     84  F   UNL A   1      41.042  25.740  25.128  1.00  0.00    -0.200 F 
ENDBRANCH  50  74
BRANCH  62  85
ATOM     85  C   UNL A   1      43.844  28.310  34.691  1.00  0.00     0.064 A 
ATOM     86  C   UNL A   1      45.179  28.727  34.585  1.00  0.00     0.173 A 
ATOM     87  C   UNL A   1      43.576  27.131  35.403  1.00  0.00     0.173 A 
ATOM     88  F   UNL A   1      45.487  29.838  33.901  1.00  0.00    -0.203 F 
ATOM     89  C   UNL A   1      46.207  27.979  35.152  1.00  0.00     0.198 A 
ATOM     90  C   UNL A   1      44.603  26.402  35.993  1.00  0.00     0.198 A 
ATOM     91  F   UNL A   1      42.314  26.695  35.537  1.00  0.00    -0.203 F 
ATOM     92  F   UNL A   1      47.480  28.371  35.001  1.00  0.00    -0.200 F 
ATOM     93  C   UNL A   1      45.918  26.822  35.861  1.00  0.00     0.200 A 
ATOM     94  F   UNL A   1      44.321  25.291  36.687  1.00  0.00    -0.200 F 
ATOM     95  F   UNL A   1      46.909  26.108  36.412  1.00  0.00    -0.200 F 
ENDBRANCH  62  85
ENDBRANCH  36  37
ENDBRANCH  28  31
ENDBRANCH  26  27
ENDBRANCH  25  26
ENDBRANCH   1  25
TORSDOF 14
ENDMDL
