MODEL 1
REMARK VINA RESULT:     -13.8      0.000      0.000
REMARK SMILES Cc1nc2sc3c(c2c2nc(CCC(=O)NCCCCNC(=O)c4ccc(-c5c6nc(c(-c7c(F)c(F)c(F)c(F)c7F)c7ccc([nH]7)c(-c7c(F)c(F)c(F)c(F)c7F)c7nc(c(-c8c(F)c(F)c(F)c(F)c8F)c8ccc5[nH]8)C=C7)C=C6)cc4)nn12)[C@@H](C)CCC3
REMARK SMILES IDX 18 1 17 2 16 3 14 4 15 5 13 7 12 8 11 9 1 10 2 11 3 12 88 13
REMARK SMILES IDX 4 14 9 15 87 16 5 17 8 18 10 19 6 20 7 21 93 22 89 23 92 24
REMARK SMILES IDX 90 25 91 26 19 27 20 28 21 29 22 30 23 32 24 33 25 34 86 35
REMARK SMILES IDX 26 36 85 37 27 38 28 39 29 40 79 41 30 42 84 43 78 44 80 45
REMARK SMILES IDX 31 46 83 47 77 48 76 49 32 51 64 52 44 53 63 54 45 55 48 56
REMARK SMILES IDX 62 57 81 58 46 59 47 60 61 62 82 63 49 64 33 65 34 66 42 67
REMARK SMILES IDX 35 68 36 69 40 70 43 71 37 72 38 73 41 74 39 75 65 76 66 77
REMARK SMILES IDX 74 78 67 79 68 80 72 81 75 82 69 83 70 84 73 85 71 86 50 87
REMARK SMILES IDX 51 88 59 89 52 90 53 91 57 92 60 93 54 94 55 95 58 96 56 97
REMARK H PARENT 16 6 21 31 80 50 48 61
REMARK Flexibility Score: inf
ROOT
ATOM      1  C   UNL A   1      41.209  20.933  27.441  1.00  0.00     0.023 C 
ENDROOT
BRANCH   1   2
ATOM      2  C   UNL A   1      40.725  21.588  26.142  1.00  0.00     0.116 C 
BRANCH   2   3
ATOM      3  N   UNL A   1      39.475  21.023  25.645  1.00  0.00    -0.356 N 
ATOM      4  C   UNL A   1      38.212  21.536  25.645  1.00  0.00     0.220 C 
ATOM      5  O   UNL A   1      37.277  20.793  25.348  1.00  0.00    -0.275 OA
ATOM      6  H   UNL A   1      39.557  20.126  25.245  1.00  0.00     0.163 HD
BRANCH   4   7
ATOM      7  C   UNL A   1      38.000  23.005  25.925  1.00  0.00     0.108 C 
BRANCH   7   8
ATOM      8  C   UNL A   1      37.047  23.671  24.928  1.00  0.00     0.089 C 
BRANCH   8   9
ATOM      9  C   UNL A   1      35.709  24.025  25.492  1.00  0.00     0.152 A 
ATOM     10  C   UNL A   1      33.056  21.948  27.846  1.00  0.00     0.090 C 
ATOM     11  C   UNL A   1      32.825  23.285  27.208  1.00  0.00     0.131 A 
ATOM     12  N   UNL A   1      31.639  23.819  27.166  1.00  0.00    -0.222 NA
ATOM     13  N   UNL A   1      33.921  23.852  26.549  1.00  0.00    -0.199 N 
ATOM     14  C   UNL A   1      31.482  24.883  26.317  1.00  0.00     0.129 A 
ATOM     15  C   UNL A   1      33.805  24.936  25.696  1.00  0.00     0.168 A 
ATOM     16  N   UNL A   1      35.136  23.274  26.444  1.00  0.00    -0.150 NA
ATOM     17  S   UNL A   1      29.934  25.537  26.107  1.00  0.00    -0.120 S 
ATOM     18  C   UNL A   1      32.410  25.464  25.450  1.00  0.00     0.060 A 
ATOM     19  N   UNL A   1      34.936  25.080  25.036  1.00  0.00    -0.211 NA
ATOM     20  C   UNL A   1      30.399  26.291  24.659  1.00  0.00     0.011 A 
ATOM     21  C   UNL A   1      31.767  26.217  24.379  1.00  0.00    -0.018 A 
ATOM     22  C   UNL A   1      29.325  26.881  23.798  1.00  0.00     0.047 C 
ATOM     23  C   UNL A   1      32.290  26.875  23.088  1.00  0.00     0.018 C 
ATOM     24  C   UNL A   1      29.920  27.825  22.764  1.00  0.00     0.006 C 
ATOM     25  C   UNL A   1      33.320  26.127  22.245  1.00  0.00     0.013 C 
ATOM     26  C   UNL A   1      31.119  27.171  22.091  1.00  0.00     0.008 C 
ENDBRANCH   8   9
ENDBRANCH   7   8
ENDBRANCH   4   7
ENDBRANCH   2   3
ENDBRANCH   1   2
BRANCH   1  27
ATOM     27  C   UNL A   1      42.280  19.889  27.172  1.00  0.00     0.023 C 
BRANCH  27  28
ATOM     28  C   UNL A   1      42.819  19.778  25.778  1.00  0.00     0.116 C 
BRANCH  28  29
ATOM     29  N   UNL A   1      44.205  19.345  25.584  1.00  0.00    -0.352 N 
ATOM     30  C   UNL A   1      45.249  20.139  25.076  1.00  0.00     0.251 C 
ATOM     31  H   UNL A   1      44.425  18.418  25.831  1.00  0.00     0.163 HD
ATOM     32  O   UNL A   1      46.261  19.669  24.606  1.00  0.00    -0.269 OA
BRANCH  30  33
ATOM     33  C   UNL A   1      45.055  21.608  25.125  1.00  0.00     0.039 A 
ATOM     34  C   UNL A   1      44.165  22.323  24.327  1.00  0.00     0.014 A 
ATOM     35  C   UNL A   1      45.660  22.228  26.192  1.00  0.00     0.014 A 
ATOM     36  C   UNL A   1      43.834  23.618  24.739  1.00  0.00     0.010 A 
ATOM     37  C   UNL A   1      44.899  23.156  26.826  1.00  0.00     0.010 A 
ATOM     38  C   UNL A   1      44.185  24.018  26.041  1.00  0.00    -0.014 A 
BRANCH  38  39
ATOM     39  C   UNL A   1      43.850  25.294  26.662  1.00  0.00     0.031 A 
ATOM     40  C   UNL A   1      44.808  26.366  26.355  1.00  0.00     0.074 A 
ATOM     41  C   UNL A   1      42.733  25.517  27.406  1.00  0.00     0.049 A 
ATOM     42  N   UNL A   1      45.785  26.731  27.112  1.00  0.00    -0.248 NA
ATOM     43  C   UNL A   1      44.828  26.962  25.015  1.00  0.00     0.031 C 
ATOM     44  C   UNL A   1      41.554  24.653  27.617  1.00  0.00     0.029 A 
ATOM     45  N   UNL A   1      42.402  26.622  28.135  1.00  0.00    -0.354 N 
ATOM     46  C   UNL A   1      46.416  27.769  26.445  1.00  0.00     0.074 A 
ATOM     47  C   UNL A   1      45.913  27.740  25.097  1.00  0.00     0.031 C 
ATOM     48  C   UNL A   1      40.568  25.337  28.235  1.00  0.00     0.029 A 
ATOM     49  C   UNL A   1      41.108  26.611  28.656  1.00  0.00     0.049 A 
ATOM     50  H   UNL A   1      43.025  27.369  28.281  1.00  0.00     0.167 HD
ATOM     51  C   UNL A   1      47.079  28.712  27.169  1.00  0.00     0.037 A 
ATOM     52  C   UNL A   1      40.540  27.544  29.455  1.00  0.00     0.037 A 
ATOM     53  C   UNL A   1      47.249  28.262  28.533  1.00  0.00     0.049 A 
ATOM     54  C   UNL A   1      41.651  28.230  30.144  1.00  0.00     0.074 A 
ATOM     55  C   UNL A   1      48.000  27.301  29.177  1.00  0.00     0.029 A 
ATOM     56  N   UNL A   1      46.205  28.583  29.364  1.00  0.00    -0.354 N 
ATOM     57  N   UNL A   1      42.409  27.654  31.035  1.00  0.00    -0.248 NA
ATOM     58  C   UNL A   1      42.175  29.462  29.573  1.00  0.00     0.031 C 
ATOM     59  C   UNL A   1      47.219  26.879  30.296  1.00  0.00     0.029 A 
ATOM     60  C   UNL A   1      46.045  27.632  30.334  1.00  0.00     0.049 A 
ATOM     61  H   UNL A   1      45.648  29.389  29.275  1.00  0.00     0.167 HD
ATOM     62  C   UNL A   1      43.662  28.191  30.812  1.00  0.00     0.074 A 
ATOM     63  C   UNL A   1      43.425  29.405  30.039  1.00  0.00     0.031 C 
ATOM     64  C   UNL A   1      44.782  27.439  31.014  1.00  0.00     0.037 A 
BRANCH  51  65
ATOM     65  C   UNL A   1      47.119  30.186  26.834  1.00  0.00     0.064 A 
ATOM     66  C   UNL A   1      48.333  30.883  27.018  1.00  0.00     0.173 A 
ATOM     67  C   UNL A   1      45.976  30.996  26.672  1.00  0.00     0.173 A 
ATOM     68  F   UNL A   1      49.485  30.217  27.196  1.00  0.00    -0.203 F 
ATOM     69  C   UNL A   1      48.379  32.275  27.124  1.00  0.00     0.198 A 
ATOM     70  C   UNL A   1      46.032  32.388  26.731  1.00  0.00     0.198 A 
ATOM     71  F   UNL A   1      44.745  30.486  26.567  1.00  0.00    -0.203 F 
ATOM     72  F   UNL A   1      49.534  32.882  27.430  1.00  0.00    -0.200 F 
ATOM     73  C   UNL A   1      47.227  33.026  26.989  1.00  0.00     0.200 A 
ATOM     74  F   UNL A   1      44.901  33.096  26.621  1.00  0.00    -0.200 F 
ATOM     75  F   UNL A   1      47.254  34.354  27.155  1.00  0.00    -0.200 F 
ENDBRANCH  51  65
BRANCH  52  76
ATOM     76  C   UNL A   1      39.154  28.065  29.484  1.00  0.00     0.064 A 
ATOM     77  C   UNL A   1      38.451  28.166  30.699  1.00  0.00     0.173 A 
ATOM     78  C   UNL A   1      38.633  28.789  28.397  1.00  0.00     0.173 A 
ATOM     79  F   UNL A   1      38.892  27.520  31.789  1.00  0.00    -0.203 F 
ATOM     80  C   UNL A   1      37.344  29.006  30.839  1.00  0.00     0.198 A 
ATOM     81  C   UNL A   1      37.525  29.626  28.538  1.00  0.00     0.198 A 
ATOM     82  F   UNL A   1      39.256  28.780  27.209  1.00  0.00    -0.203 F 
ATOM     83  F   UNL A   1      36.759  29.148  32.036  1.00  0.00    -0.200 F 
ATOM     84  C   UNL A   1      36.895  29.754  29.763  1.00  0.00     0.200 A 
ATOM     85  F   UNL A   1      37.117  30.370  27.499  1.00  0.00    -0.200 F 
ATOM     86  F   UNL A   1      35.890  30.627  29.918  1.00  0.00    -0.200 F 
ENDBRANCH  52  76
BRANCH  64  87
ATOM     87  C   UNL A   1      44.643  26.230  31.892  1.00  0.00     0.064 A 
ATOM     88  C   UNL A   1      44.597  26.260  33.296  1.00  0.00     0.173 A 
ATOM     89  C   UNL A   1      44.457  24.991  31.265  1.00  0.00     0.173 A 
ATOM     90  F   UNL A   1      44.701  27.414  33.966  1.00  0.00    -0.203 F 
ATOM     91  C   UNL A   1      44.396  25.093  34.034  1.00  0.00     0.198 A 
ATOM     92  C   UNL A   1      44.223  23.835  32.003  1.00  0.00     0.198 A 
ATOM     93  F   UNL A   1      44.460  24.909  29.925  1.00  0.00    -0.203 F 
ATOM     94  F   UNL A   1      44.367  25.142  35.375  1.00  0.00    -0.200 F 
ATOM     95  C   UNL A   1      44.201  23.884  33.387  1.00  0.00     0.200 A 
ATOM     96  F   UNL A   1      43.997  22.677  31.369  1.00  0.00    -0.200 F 
ATOM     97  F   UNL A   1      43.970  22.769  34.094  1.00  0.00    -0.200 F 
ENDBRANCH  64  87
ENDBRANCH  38  39
ENDBRANCH  30  33
ENDBRANCH  28  29
ENDBRANCH  27  28
ENDBRANCH   1  27
TORSDOF 13
ENDMDL
MODEL 2
REMARK VINA RESULT:     -13.2      1.345      2.218
REMARK SMILES Cc1nc2sc3c(c2c2nc(CCC(=O)NCCCCNC(=O)c4ccc(-c5c6nc(c(-c7c(F)c(F)c(F)c(F)c7F)c7ccc([nH]7)c(-c7c(F)c(F)c(F)c(F)c7F)c7nc(c(-c8c(F)c(F)c(F)c(F)c8F)c8ccc5[nH]8)C=C7)C=C6)cc4)nn12)[C@@H](C)CCC3
REMARK SMILES IDX 18 1 17 2 16 3 14 4 15 5 13 7 12 8 11 9 1 10 2 11 3 12 88 13
REMARK SMILES IDX 4 14 9 15 87 16 5 17 8 18 10 19 6 20 7 21 93 22 89 23 92 24
REMARK SMILES IDX 90 25 91 26 19 27 20 28 21 29 22 30 23 32 24 33 25 34 86 35
REMARK SMILES IDX 26 36 85 37 27 38 28 39 29 40 79 41 30 42 84 43 78 44 80 45
REMARK SMILES IDX 31 46 83 47 77 48 76 49 32 51 64 52 44 53 63 54 45 55 48 56
REMARK SMILES IDX 62 57 81 58 46 59 47 60 61 62 82 63 49 64 33 65 34 66 42 67
REMARK SMILES IDX 35 68 36 69 40 70 43 71 37 72 38 73 41 74 39 75 65 76 66 77
REMARK SMILES IDX 74 78 67 79 68 80 72 81 75 82 69 83 70 84 73 85 71 86 50 87
REMARK SMILES IDX 51 88 59 89 52 90 53 91 57 92 60 93 54 94 55 95 58 96 56 97
REMARK H PARENT 16 6 21 31 80 50 48 61
REMARK Flexibility Score: inf
ROOT
ATOM      1  C   UNL A   1      40.838  21.811  26.157  1.00  0.00     0.023 C 
ENDROOT
BRANCH   1   2
ATOM      2  C   UNL A   1      39.328  21.861  26.414  1.00  0.00     0.116 C 
BRANCH   2   3
ATOM      3  N   UNL A   1      38.535  21.849  25.189  1.00  0.00    -0.356 N 
ATOM      4  C   UNL A   1      37.314  22.392  24.923  1.00  0.00     0.220 C 
ATOM      5  O   UNL A   1      36.752  22.085  23.872  1.00  0.00    -0.275 OA
ATOM      6  H   UNL A   1      38.950  21.372  24.433  1.00  0.00     0.163 HD
BRANCH   4   7
ATOM      7  C   UNL A   1      36.723  23.408  25.871  1.00  0.00     0.108 C 
BRANCH   7   8
ATOM      8  C   UNL A   1      35.453  22.907  26.567  1.00  0.00     0.089 C 
BRANCH   8   9
ATOM      9  C   UNL A   1      34.180  23.416  25.975  1.00  0.00     0.152 A 
ATOM     10  C   UNL A   1      32.067  22.353  22.613  1.00  0.00     0.090 C 
ATOM     11  C   UNL A   1      31.776  23.511  23.520  1.00  0.00     0.131 A 
ATOM     12  N   UNL A   1      30.930  24.439  23.181  1.00  0.00    -0.222 NA
ATOM     13  N   UNL A   1      32.562  23.604  24.674  1.00  0.00    -0.199 N 
ATOM     14  C   UNL A   1      30.955  25.586  23.932  1.00  0.00     0.129 A 
ATOM     15  C   UNL A   1      32.602  24.739  25.464  1.00  0.00     0.168 A 
ATOM     16  N   UNL A   1      33.549  22.744  25.000  1.00  0.00    -0.150 NA
ATOM     17  S   UNL A   1      29.979  26.888  23.462  1.00  0.00    -0.120 S 
ATOM     18  C   UNL A   1      31.792  25.926  24.996  1.00  0.00     0.060 A 
ATOM     19  N   UNL A   1      33.603  24.629  26.314  1.00  0.00    -0.211 NA
ATOM     20  C   UNL A   1      30.903  27.973  24.386  1.00  0.00     0.011 A 
ATOM     21  C   UNL A   1      31.861  27.367  25.205  1.00  0.00    -0.018 A 
ATOM     22  C   UNL A   1      30.670  29.439  24.188  1.00  0.00     0.047 C 
ATOM     23  C   UNL A   1      32.749  28.267  26.086  1.00  0.00     0.018 C 
ATOM     24  C   UNL A   1      31.281  30.240  25.328  1.00  0.00     0.006 C 
ATOM     25  C   UNL A   1      34.241  27.957  26.188  1.00  0.00     0.013 C 
ATOM     26  C   UNL A   1      32.698  29.757  25.604  1.00  0.00     0.008 C 
ENDBRANCH   8   9
ENDBRANCH   7   8
ENDBRANCH   4   7
ENDBRANCH   2   3
ENDBRANCH   1   2
BRANCH   1  27
ATOM     27  C   UNL A   1      41.354  20.381  26.145  1.00  0.00     0.023 C 
BRANCH  27  28
ATOM     28  C   UNL A   1      42.669  20.103  26.806  1.00  0.00     0.116 C 
BRANCH  28  29
ATOM     29  N   UNL A   1      43.738  19.476  26.025  1.00  0.00    -0.352 N 
ATOM     30  C   UNL A   1      44.537  20.119  25.062  1.00  0.00     0.251 C 
ATOM     31  H   UNL A   1      43.913  18.521  26.188  1.00  0.00     0.163 HD
ATOM     32  O   UNL A   1      45.147  19.515  24.207  1.00  0.00    -0.269 OA
BRANCH  30  33
ATOM     33  C   UNL A   1      44.597  21.599  25.125  1.00  0.00     0.039 A 
ATOM     34  C   UNL A   1      43.900  22.462  24.283  1.00  0.00     0.014 A 
ATOM     35  C   UNL A   1      45.225  22.097  26.241  1.00  0.00     0.014 A 
ATOM     36  C   UNL A   1      43.770  23.792  24.696  1.00  0.00     0.010 A 
ATOM     37  C   UNL A   1      44.594  23.139  26.840  1.00  0.00     0.010 A 
ATOM     38  C   UNL A   1      44.095  24.117  26.025  1.00  0.00    -0.014 A 
BRANCH  38  39
ATOM     39  C   UNL A   1      43.943  25.428  26.646  1.00  0.00     0.031 A 
ATOM     40  C   UNL A   1      45.064  26.339  26.374  1.00  0.00     0.074 A 
ATOM     41  C   UNL A   1      42.854  25.819  27.359  1.00  0.00     0.049 A 
ATOM     42  N   UNL A   1      46.063  26.546  27.161  1.00  0.00    -0.248 NA
ATOM     43  C   UNL A   1      45.216  26.929  25.040  1.00  0.00     0.031 C 
ATOM     44  C   UNL A   1      41.549  25.148  27.530  1.00  0.00     0.029 A 
ATOM     45  N   UNL A   1      42.676  26.960  28.086  1.00  0.00    -0.354 N 
ATOM     46  C   UNL A   1      46.867  27.476  26.521  1.00  0.00     0.074 A 
ATOM     47  C   UNL A   1      46.405  27.528  25.159  1.00  0.00     0.031 C 
ATOM     48  C   UNL A   1      40.663  25.975  28.125  1.00  0.00     0.029 A 
ATOM     49  C   UNL A   1      41.381  27.148  28.571  1.00  0.00     0.049 A 
ATOM     50  H   UNL A   1      43.403  27.601  28.256  1.00  0.00     0.167 HD
ATOM     51  C   UNL A   1      47.646  28.302  27.270  1.00  0.00     0.037 A 
ATOM     52  C   UNL A   1      40.941  28.155  29.360  1.00  0.00     0.037 A 
ATOM     53  C   UNL A   1      47.705  27.828  28.635  1.00  0.00     0.049 A 
ATOM     54  C   UNL A   1      42.125  28.659  30.085  1.00  0.00     0.074 A 
ATOM     55  C   UNL A   1      48.279  26.760  29.293  1.00  0.00     0.029 A 
ATOM     56  N   UNL A   1      46.700  28.304  29.438  1.00  0.00    -0.354 N 
ATOM     57  N   UNL A   1      42.758  27.970  30.993  1.00  0.00    -0.248 NA
ATOM     58  C   UNL A   1      42.849  29.797  29.538  1.00  0.00     0.031 C 
ATOM     59  C   UNL A   1      47.409  26.461  30.386  1.00  0.00     0.029 A 
ATOM     60  C   UNL A   1      46.366  27.387  30.396  1.00  0.00     0.049 A 
ATOM     61  H   UNL A   1      46.277  29.187  29.339  1.00  0.00     0.167 HD
ATOM     62  C   UNL A   1      44.085  28.307  30.811  1.00  0.00     0.074 A 
ATOM     63  C   UNL A   1      44.061  29.546  30.040  1.00  0.00     0.031 C 
ATOM     64  C   UNL A   1      45.068  27.390  31.038  1.00  0.00     0.037 A 
BRANCH  51  65
ATOM     65  C   UNL A   1      47.925  29.754  26.947  1.00  0.00     0.064 A 
ATOM     66  C   UNL A   1      49.236  30.242  27.131  1.00  0.00     0.173 A 
ATOM     67  C   UNL A   1      46.927  30.739  26.797  1.00  0.00     0.173 A 
ATOM     68  F   UNL A   1      50.265  29.397  27.298  1.00  0.00    -0.203 F 
ATOM     69  C   UNL A   1      49.507  31.608  27.248  1.00  0.00     0.198 A 
ATOM     70  C   UNL A   1      47.209  32.103  26.867  1.00  0.00     0.198 A 
ATOM     71  F   UNL A   1      45.629  30.437  26.694  1.00  0.00    -0.203 F 
ATOM     72  F   UNL A   1      50.747  32.017  27.554  1.00  0.00    -0.200 F 
ATOM     73  C   UNL A   1      48.492  32.537  27.125  1.00  0.00     0.200 A 
ATOM     74  F   UNL A   1      46.207  32.987  26.768  1.00  0.00    -0.200 F 
ATOM     75  F   UNL A   1      48.735  33.842  27.302  1.00  0.00    -0.200 F 
ENDBRANCH  51  65
BRANCH  52  76
ATOM     76  C   UNL A   1      39.652  28.885  29.353  1.00  0.00     0.064 A 
ATOM     77  C   UNL A   1      39.081  29.317  28.142  1.00  0.00     0.173 A 
ATOM     78  C   UNL A   1      38.803  28.860  30.474  1.00  0.00     0.173 A 
ATOM     79  F   UNL A   1      39.819  29.354  27.023  1.00  0.00    -0.203 F 
ATOM     80  C   UNL A   1      37.722  29.626  28.041  1.00  0.00     0.198 A 
ATOM     81  C   UNL A   1      37.446  29.171  30.371  1.00  0.00     0.198 A 
ATOM     82  F   UNL A   1      39.252  28.429  31.662  1.00  0.00    -0.203 F 
ATOM     83  F   UNL A   1      37.195  29.943  26.850  1.00  0.00    -0.200 F 
ATOM     84  C   UNL A   1      36.900  29.531  29.152  1.00  0.00     0.200 A 
ATOM     85  F   UNL A   1      36.653  29.045  31.445  1.00  0.00    -0.200 F 
ATOM     86  F   UNL A   1      35.581  29.738  29.038  1.00  0.00    -0.200 F 
ENDBRANCH  52  76
BRANCH  64  87
ATOM     87  C   UNL A   1      44.719  26.215  31.903  1.00  0.00     0.064 A 
ATOM     88  C   UNL A   1      44.355  24.945  31.424  1.00  0.00     0.173 A 
ATOM     89  C   UNL A   1      44.852  26.369  33.290  1.00  0.00     0.173 A 
ATOM     90  F   UNL A   1      44.271  24.701  30.111  1.00  0.00    -0.203 F 
ATOM     91  C   UNL A   1      44.113  23.887  32.301  1.00  0.00     0.198 A 
ATOM     92  C   UNL A   1      44.644  25.303  34.159  1.00  0.00     0.198 A 
ATOM     93  F   UNL A   1      45.228  27.552  33.801  1.00  0.00    -0.203 F 
ATOM     94  F   UNL A   1      43.756  22.686  31.822  1.00  0.00    -0.200 F 
ATOM     95  C   UNL A   1      44.267  24.065  33.666  1.00  0.00     0.200 A 
ATOM     96  F   UNL A   1      44.831  25.472  35.475  1.00  0.00    -0.200 F 
ATOM     97  F   UNL A   1      44.071  23.039  34.506  1.00  0.00    -0.200 F 
ENDBRANCH  64  87
ENDBRANCH  38  39
ENDBRANCH  30  33
ENDBRANCH  28  29
ENDBRANCH  27  28
ENDBRANCH   1  27
TORSDOF 13
ENDMDL
MODEL 3
REMARK VINA RESULT:     -13.1      4.753      8.763
REMARK SMILES Cc1nc2sc3c(c2c2nc(CCC(=O)NCCCCNC(=O)c4ccc(-c5c6nc(c(-c7c(F)c(F)c(F)c(F)c7F)c7ccc([nH]7)c(-c7c(F)c(F)c(F)c(F)c7F)c7nc(c(-c8c(F)c(F)c(F)c(F)c8F)c8ccc5[nH]8)C=C7)C=C6)cc4)nn12)[C@@H](C)CCC3
REMARK SMILES IDX 18 1 17 2 16 3 14 4 15 5 13 7 12 8 11 9 1 10 2 11 3 12 88 13
REMARK SMILES IDX 4 14 9 15 87 16 5 17 8 18 10 19 6 20 7 21 93 22 89 23 92 24
REMARK SMILES IDX 90 25 91 26 19 27 20 28 21 29 22 30 23 32 24 33 25 34 86 35
REMARK SMILES IDX 26 36 85 37 27 38 28 39 29 40 79 41 30 42 84 43 78 44 80 45
REMARK SMILES IDX 31 46 83 47 77 48 76 49 32 51 64 52 44 53 63 54 45 55 48 56
REMARK SMILES IDX 62 57 81 58 46 59 47 60 61 62 82 63 49 64 33 65 34 66 42 67
REMARK SMILES IDX 35 68 36 69 40 70 43 71 37 72 38 73 41 74 39 75 65 76 66 77
REMARK SMILES IDX 74 78 67 79 68 80 72 81 75 82 69 83 70 84 73 85 71 86 50 87
REMARK SMILES IDX 51 88 59 89 52 90 53 91 57 92 60 93 54 94 55 95 58 96 56 97
REMARK H PARENT 16 6 21 31 80 50 48 61
REMARK Flexibility Score: inf
ROOT
ATOM      1  C   UNL A   1      41.920  27.760  33.846  1.00  0.00     0.023 C 
ENDROOT
BRANCH   1   2
ATOM      2  C   UNL A   1      40.844  28.847  33.939  1.00  0.00     0.116 C 
BRANCH   2   3
ATOM      3  N   UNL A   1      40.802  29.716  32.767  1.00  0.00    -0.356 N 
ATOM      4  C   UNL A   1      39.800  30.508  32.292  1.00  0.00     0.220 C 
ATOM      5  O   UNL A   1      39.924  31.002  31.171  1.00  0.00    -0.275 OA
ATOM      6  H   UNL A   1      41.631  29.732  32.235  1.00  0.00     0.163 HD
BRANCH   4   7
ATOM      7  C   UNL A   1      38.613  30.824  33.170  1.00  0.00     0.108 C 
BRANCH   7   8
ATOM      8  C   UNL A   1      37.362  30.023  32.794  1.00  0.00     0.089 C 
BRANCH   8   9
ATOM      9  C   UNL A   1      36.425  30.734  31.873  1.00  0.00     0.152 A 
ATOM     10  C   UNL A   1      36.216  30.972  27.775  1.00  0.00     0.090 C 
ATOM     11  C   UNL A   1      35.382  31.740  28.756  1.00  0.00     0.131 A 
ATOM     12  N   UNL A   1      34.646  32.744  28.379  1.00  0.00    -0.222 NA
ATOM     13  N   UNL A   1      35.548  31.402  30.104  1.00  0.00    -0.199 N 
ATOM     14  C   UNL A   1      34.162  33.550  29.376  1.00  0.00     0.129 A 
ATOM     15  C   UNL A   1      35.061  32.182  31.138  1.00  0.00     0.168 A 
ATOM     16  N   UNL A   1      36.403  30.463  30.559  1.00  0.00    -0.150 NA
ATOM     17  S   UNL A   1      33.314  34.953  28.950  1.00  0.00    -0.120 S 
ATOM     18  C   UNL A   1      34.376  33.474  30.754  1.00  0.00     0.060 A 
ATOM     19  N   UNL A   1      35.583  31.759  32.271  1.00  0.00    -0.211 NA
ATOM     20  C   UNL A   1      33.556  35.621  30.492  1.00  0.00     0.011 A 
ATOM     21  C   UNL A   1      34.128  34.747  31.421  1.00  0.00    -0.018 A 
ATOM     22  C   UNL A   1      33.219  37.067  30.691  1.00  0.00     0.047 C 
ATOM     23  C   UNL A   1      34.385  35.258  32.852  1.00  0.00     0.018 C 
ATOM     24  C   UNL A   1      33.130  37.401  32.173  1.00  0.00     0.006 C 
ATOM     25  C   UNL A   1      35.703  34.903  33.536  1.00  0.00     0.013 C 
ATOM     26  C   UNL A   1      34.331  36.823  32.910  1.00  0.00     0.008 C 
ENDBRANCH   8   9
ENDBRANCH   7   8
ENDBRANCH   4   7
ENDBRANCH   2   3
ENDBRANCH   1   2
BRANCH   1  27
ATOM     27  C   UNL A   1      41.567  26.553  34.699  1.00  0.00     0.023 C 
BRANCH  27  28
ATOM     28  C   UNL A   1      42.689  25.787  35.332  1.00  0.00     0.116 C 
BRANCH  28  29
ATOM     29  N   UNL A   1      43.628  26.494  36.205  1.00  0.00    -0.352 N 
ATOM     30  C   UNL A   1      45.030  26.478  36.088  1.00  0.00     0.251 C 
ATOM     31  H   UNL A   1      43.245  27.027  36.939  1.00  0.00     0.163 HD
ATOM     32  O   UNL A   1      45.768  26.766  37.003  1.00  0.00    -0.269 OA
BRANCH  30  33
ATOM     33  C   UNL A   1      45.585  26.072  34.774  1.00  0.00     0.039 A 
ATOM     34  C   UNL A   1      45.812  24.757  34.376  1.00  0.00     0.014 A 
ATOM     35  C   UNL A   1      45.659  27.085  33.849  1.00  0.00     0.014 A 
ATOM     36  C   UNL A   1      45.982  24.523  33.007  1.00  0.00     0.010 A 
ATOM     37  C   UNL A   1      45.241  26.756  32.600  1.00  0.00     0.010 A 
ATOM     38  C   UNL A   1      45.648  25.549  32.104  1.00  0.00    -0.014 A 
BRANCH  38  39
ATOM     39  C   UNL A   1      45.684  25.452  30.650  1.00  0.00     0.031 A 
ATOM     40  C   UNL A   1      46.751  26.255  30.035  1.00  0.00     0.074 A 
ATOM     41  C   UNL A   1      44.865  24.657  29.913  1.00  0.00     0.049 A 
ATOM     42  N   UNL A   1      46.602  27.433  29.536  1.00  0.00    -0.248 NA
ATOM     43  C   UNL A   1      48.148  25.822  30.153  1.00  0.00     0.031 C 
ATOM     44  C   UNL A   1      43.916  23.614  30.354  1.00  0.00     0.029 A 
ATOM     45  N   UNL A   1      44.728  24.599  28.556  1.00  0.00    -0.354 N 
ATOM     46  C   UNL A   1      47.850  27.807  29.061  1.00  0.00     0.074 A 
ATOM     47  C   UNL A   1      48.786  26.875  29.632  1.00  0.00     0.031 C 
ATOM     48  C   UNL A   1      43.467  22.902  29.298  1.00  0.00     0.029 A 
ATOM     49  C   UNL A   1      43.921  23.560  28.093  1.00  0.00     0.049 A 
ATOM     50  H   UNL A   1      45.165  25.240  27.950  1.00  0.00     0.167 HD
ATOM     51  C   UNL A   1      47.926  28.681  28.022  1.00  0.00     0.037 A 
ATOM     52  C   UNL A   1      43.572  23.303  26.811  1.00  0.00     0.037 A 
ATOM     53  C   UNL A   1      46.639  29.303  27.800  1.00  0.00     0.049 A 
ATOM     54  C   UNL A   1      43.679  24.587  26.088  1.00  0.00     0.074 A 
ATOM     55  C   UNL A   1      45.851  30.222  28.461  1.00  0.00     0.029 A 
ATOM     56  N   UNL A   1      45.819  28.606  26.949  1.00  0.00    -0.354 N 
ATOM     57  N   UNL A   1      42.885  25.599  26.302  1.00  0.00    -0.248 NA
ATOM     58  C   UNL A   1      44.915  24.892  25.383  1.00  0.00     0.031 C 
ATOM     59  C   UNL A   1      44.500  29.866  28.163  1.00  0.00     0.029 A 
ATOM     60  C   UNL A   1      44.505  28.780  27.287  1.00  0.00     0.049 A 
ATOM     61  H   UNL A   1      46.133  28.057  26.196  1.00  0.00     0.167 HD
ATOM     62  C   UNL A   1      43.701  26.705  26.161  1.00  0.00     0.074 A 
ATOM     63  C   UNL A   1      44.871  26.226  25.432  1.00  0.00     0.031 C 
ATOM     64  C   UNL A   1      43.486  27.822  26.914  1.00  0.00     0.037 A 
BRANCH  51  65
ATOM     65  C   UNL A   1      48.950  28.615  26.910  1.00  0.00     0.064 A 
ATOM     66  C   UNL A   1      49.034  27.431  26.145  1.00  0.00     0.173 A 
ATOM     67  C   UNL A   1      50.044  29.495  26.785  1.00  0.00     0.173 A 
ATOM     68  F   UNL A   1      48.056  26.514  26.194  1.00  0.00    -0.203 F 
ATOM     69  C   UNL A   1      50.167  27.117  25.391  1.00  0.00     0.198 A 
ATOM     70  C   UNL A   1      51.153  29.199  25.993  1.00  0.00     0.198 A 
ATOM     71  F   UNL A   1      50.149  30.617  27.504  1.00  0.00    -0.203 F 
ATOM     72  F   UNL A   1      50.254  25.923  24.788  1.00  0.00    -0.200 F 
ATOM     73  C   UNL A   1      51.229  27.997  25.322  1.00  0.00     0.200 A 
ATOM     74  F   UNL A   1      52.183  30.055  25.959  1.00  0.00    -0.200 F 
ATOM     75  F   UNL A   1      52.343  27.672  24.654  1.00  0.00    -0.200 F 
ENDBRANCH  51  65
BRANCH  52  76
ATOM     76  C   UNL A   1      43.406  22.013  26.103  1.00  0.00     0.064 A 
ATOM     77  C   UNL A   1      44.528  21.294  25.652  1.00  0.00     0.173 A 
ATOM     78  C   UNL A   1      42.193  21.305  26.169  1.00  0.00     0.173 A 
ATOM     79  F   UNL A   1      45.727  21.892  25.576  1.00  0.00    -0.203 F 
ATOM     80  C   UNL A   1      44.458  19.928  25.365  1.00  0.00     0.198 A 
ATOM     81  C   UNL A   1      42.124  19.941  25.880  1.00  0.00     0.198 A 
ATOM     82  F   UNL A   1      41.078  21.899  26.621  1.00  0.00    -0.203 F 
ATOM     83  F   UNL A   1      45.569  19.258  25.029  1.00  0.00    -0.200 F 
ATOM     84  C   UNL A   1      43.260  19.247  25.500  1.00  0.00     0.200 A 
ATOM     85  F   UNL A   1      40.967  19.284  26.045  1.00  0.00    -0.200 F 
ATOM     86  F   UNL A   1      43.210  17.921  25.313  1.00  0.00    -0.200 F 
ENDBRANCH  52  76
BRANCH  64  87
ATOM     87  C   UNL A   1      42.124  27.983  27.523  1.00  0.00     0.064 A 
ATOM     88  C   UNL A   1      41.781  27.610  28.833  1.00  0.00     0.173 A 
ATOM     89  C   UNL A   1      41.146  28.636  26.760  1.00  0.00     0.173 A 
ATOM     90  F   UNL A   1      42.680  27.042  29.646  1.00  0.00    -0.203 F 
ATOM     91  C   UNL A   1      40.507  27.860  29.343  1.00  0.00     0.198 A 
ATOM     92  C   UNL A   1      39.888  28.915  27.283  1.00  0.00     0.198 A 
ATOM     93  F   UNL A   1      41.430  29.043  25.512  1.00  0.00    -0.203 F 
ATOM     94  F   UNL A   1      40.197  27.485  30.593  1.00  0.00    -0.200 F 
ATOM     95  C   UNL A   1      39.565  28.520  28.570  1.00  0.00     0.200 A 
ATOM     96  F   UNL A   1      38.996  29.587  26.543  1.00  0.00    -0.200 F 
ATOM     97  F   UNL A   1      38.353  28.795  29.072  1.00  0.00    -0.200 F 
ENDBRANCH  64  87
ENDBRANCH  38  39
ENDBRANCH  30  33
ENDBRANCH  28  29
ENDBRANCH  27  28
ENDBRANCH   1  27
TORSDOF 13
ENDMDL
