MODEL 1
REMARK VINA RESULT:     -13.7      0.000      0.000
REMARK SMILES Cc1ccccc1/C=C1\SC(=S)N(CCC(=O)N[C@@H](C)C(=O)NCCCCNC(=O)c2ccc(-c3c4nc(c(-c5c(F)c(F)c(F)c(F)c5F)c5ccc([nH]5)c(-c5c(F)c(F)c(F)c(F)c5F)c5nc(c(-c6c(F)c(F)c(F)c(F)c6F)c6ccc3[nH]6)C=C5)C=C4)cc2)C1=O
REMARK SMILES IDX 24 1 23 2 21 3 22 4 19 6 20 7 18 8 16 9 17 10 15 12 14 13
REMARK SMILES IDX 13 14 8 15 9 16 10 17 94 18 11 19 95 20 12 21 7 22 1 23 2 24
REMARK SMILES IDX 3 25 4 26 6 27 5 28 25 29 26 30 27 31 28 32 29 33 30 35
REMARK SMILES IDX 31 36 32 37 93 38 33 39 92 40 34 41 35 42 36 43 86 44 37 45
REMARK SMILES IDX 91 46 85 47 87 48 38 49 90 50 84 51 83 52 39 54 71 55 51 56
REMARK SMILES IDX 70 57 52 58 55 59 69 60 88 61 53 62 54 63 68 65 89 66 56 67
REMARK SMILES IDX 40 68 41 69 49 70 42 71 43 72 47 73 50 74 44 75 45 76 48 77
REMARK SMILES IDX 46 78 72 79 73 80 81 81 74 82 75 83 79 84 82 85 76 86 77 87
REMARK SMILES IDX 80 88 78 89 57 90 58 91 66 92 59 93 60 94 64 95 67 96 61 97
REMARK SMILES IDX 62 98 65 99 63 100
REMARK H PARENT 23 5 18 11 28 34 87 53 55 64
REMARK Flexibility Score: inf
ROOT
ATOM      1  C   UNL A   1      35.066  22.779  23.785  1.00  0.00     0.116 C 
ENDROOT
BRANCH   1   2
ATOM      2  N   UNL A   1      34.424  21.551  24.227  1.00  0.00    -0.354 N 
ATOM      3  C   UNL A   1      33.671  21.276  25.325  1.00  0.00     0.242 C 
ATOM      4  O   UNL A   1      33.224  20.131  25.431  1.00  0.00    -0.273 OA
ATOM      5  H   UNL A   1      34.559  20.785  23.624  1.00  0.00     0.163 HD
BRANCH   3   6
ATOM      6  C   UNL A   1      33.274  22.366  26.327  1.00  0.00     0.168 C 
ATOM      7  C   UNL A   1      34.158  22.236  27.549  1.00  0.00     0.041 C 
BRANCH   6   8
ATOM      8  N   UNL A   1      31.884  22.429  26.750  1.00  0.00    -0.345 N 
ATOM      9  C   UNL A   1      31.022  23.476  26.556  1.00  0.00     0.222 C 
ATOM     10  O   UNL A   1      30.007  23.536  27.250  1.00  0.00    -0.275 OA
ATOM     11  H   UNL A   1      31.528  21.641  27.221  1.00  0.00     0.164 HD
BRANCH   9  12
ATOM     12  C   UNL A   1      31.283  24.499  25.456  1.00  0.00     0.122 C 
BRANCH  12  13
ATOM     13  C   UNL A   1      30.901  25.956  25.777  1.00  0.00     0.137 C 
BRANCH  13  14
ATOM     14  N   UNL A   1      30.782  26.857  24.610  1.00  0.00    -0.292 N 
ATOM     15  C   UNL A   1      28.483  28.943  22.894  1.00  0.00     0.029 C 
ATOM     16  C   UNL A   1      29.588  28.203  23.092  1.00  0.00     0.081 C 
ATOM     17  S   UNL A   1      31.219  28.595  22.740  1.00  0.00    -0.054 SA
ATOM     18  C   UNL A   1      29.546  27.019  23.999  1.00  0.00     0.266 C 
ATOM     19  C   UNL A   1      31.833  27.515  23.996  1.00  0.00     0.148 C 
ATOM     20  O   UNL A   1      28.532  26.375  24.223  1.00  0.00    -0.268 OA
ATOM     21  S   UNL A   1      33.463  27.396  24.331  1.00  0.00    -0.052 S 
BRANCH  15  22
ATOM     22  C   UNL A   1      28.434  30.291  22.304  1.00  0.00    -0.021 A 
ATOM     23  C   UNL A   1      29.285  31.346  24.452  1.00  0.00     0.045 C 
ATOM     24  C   UNL A   1      28.801  31.432  23.032  1.00  0.00    -0.044 A 
ATOM     25  C   UNL A   1      28.672  32.696  22.433  1.00  0.00     0.004 A 
ATOM     26  C   UNL A   1      28.226  32.828  21.116  1.00  0.00     0.000 A 
ATOM     27  C   UNL A   1      28.029  30.438  20.964  1.00  0.00     0.008 A 
ATOM     28  C   UNL A   1      27.923  31.696  20.372  1.00  0.00     0.001 A 
ENDBRANCH  15  22
ENDBRANCH  13  14
ENDBRANCH  12  13
ENDBRANCH   9  12
ENDBRANCH   6   8
ENDBRANCH   3   6
ENDBRANCH   1   2
BRANCH   1  29
ATOM     29  C   UNL A   1      36.579  22.625  23.681  1.00  0.00     0.023 C 
BRANCH  29  30
ATOM     30  C   UNL A   1      37.374  23.268  24.819  1.00  0.00     0.023 C 
BRANCH  30  31
ATOM     31  C   UNL A   1      37.687  22.326  25.969  1.00  0.00     0.116 C 
BRANCH  31  32
ATOM     32  N   UNL A   1      39.103  22.145  26.202  1.00  0.00    -0.352 N 
ATOM     33  C   UNL A   1      40.106  23.065  26.437  1.00  0.00     0.251 C 
ATOM     34  H   UNL A   1      39.402  21.207  26.191  1.00  0.00     0.163 HD
ATOM     35  O   UNL A   1      41.264  22.677  26.389  1.00  0.00    -0.269 OA
BRANCH  33  36
ATOM     36  C   UNL A   1      39.815  24.457  26.888  1.00  0.00     0.039 A 
ATOM     37  C   UNL A   1      40.399  25.508  26.154  1.00  0.00     0.014 A 
ATOM     38  C   UNL A   1      39.159  24.754  28.077  1.00  0.00     0.014 A 
ATOM     39  C   UNL A   1      40.505  26.783  26.711  1.00  0.00     0.010 A 
ATOM     40  C   UNL A   1      39.346  25.978  28.675  1.00  0.00     0.010 A 
ATOM     41  C   UNL A   1      40.066  26.971  28.016  1.00  0.00    -0.014 A 
BRANCH  41  42
ATOM     42  C   UNL A   1      40.356  28.134  28.831  1.00  0.00     0.031 A 
ATOM     43  C   UNL A   1      39.387  29.239  28.917  1.00  0.00     0.074 A 
ATOM     44  C   UNL A   1      41.396  28.049  29.689  1.00  0.00     0.049 A 
ATOM     45  N   UNL A   1      39.678  30.419  29.343  1.00  0.00    -0.248 NA
ATOM     46  C   UNL A   1      37.989  29.098  28.526  1.00  0.00     0.031 C 
ATOM     47  C   UNL A   1      41.657  28.891  30.851  1.00  0.00     0.029 A 
ATOM     48  N   UNL A   1      42.532  27.229  29.593  1.00  0.00    -0.354 N 
ATOM     49  C   UNL A   1      38.496  31.088  29.560  1.00  0.00     0.074 A 
ATOM     50  C   UNL A   1      37.477  30.249  28.974  1.00  0.00     0.031 C 
ATOM     51  C   UNL A   1      42.949  28.769  31.193  1.00  0.00     0.029 A 
ATOM     52  C   UNL A   1      43.588  27.988  30.151  1.00  0.00     0.049 A 
ATOM     53  H   UNL A   1      42.582  26.320  29.217  1.00  0.00     0.167 HD
ATOM     54  C   UNL A   1      38.506  32.208  30.340  1.00  0.00     0.037 A 
ATOM     55  C   UNL A   1      44.611  28.441  29.369  1.00  0.00     0.037 A 
ATOM     56  C   UNL A   1      39.858  32.505  30.807  1.00  0.00     0.049 A 
ATOM     57  C   UNL A   1      44.721  29.948  29.343  1.00  0.00     0.074 A 
ATOM     58  C   UNL A   1      40.512  32.233  31.999  1.00  0.00     0.029 A 
ATOM     59  N   UNL A   1      40.843  32.854  29.889  1.00  0.00    -0.354 N 
ATOM     60  N   UNL A   1      43.729  30.751  29.611  1.00  0.00    -0.248 NA
ATOM     61  C   UNL A   1      45.947  30.664  29.013  1.00  0.00     0.031 C 
ATOM     62  C   UNL A   1      41.903  32.381  31.783  1.00  0.00     0.029 A 
ATOM     63  C   UNL A   1      42.096  32.760  30.466  1.00  0.00     0.049 A 
ATOM     64  H   UNL A   1      40.672  33.129  28.959  1.00  0.00     0.167 HD
ATOM     65  C   UNL A   1      44.147  32.050  29.497  1.00  0.00     0.074 A 
ATOM     66  C   UNL A   1      45.546  31.943  29.128  1.00  0.00     0.031 C 
ATOM     67  C   UNL A   1      43.297  33.097  29.717  1.00  0.00     0.037 A 
BRANCH  54  68
ATOM     68  C   UNL A   1      37.263  32.851  30.915  1.00  0.00     0.064 A 
ATOM     69  C   UNL A   1      36.836  32.560  32.229  1.00  0.00     0.173 A 
ATOM     70  C   UNL A   1      36.430  33.738  30.209  1.00  0.00     0.173 A 
ATOM     71  F   UNL A   1      37.576  31.815  33.061  1.00  0.00    -0.203 F 
ATOM     72  C   UNL A   1      35.624  33.024  32.748  1.00  0.00     0.198 A 
ATOM     73  C   UNL A   1      35.191  34.160  30.707  1.00  0.00     0.198 A 
ATOM     74  F   UNL A   1      36.812  34.265  29.039  1.00  0.00    -0.203 F 
ATOM     75  F   UNL A   1      35.272  32.704  34.001  1.00  0.00    -0.200 F 
ATOM     76  C   UNL A   1      34.783  33.793  31.973  1.00  0.00     0.200 A 
ATOM     77  F   UNL A   1      34.397  34.928  29.947  1.00  0.00    -0.200 F 
ATOM     78  F   UNL A   1      33.601  34.200  32.452  1.00  0.00    -0.200 F 
ENDBRANCH  54  68
BRANCH  55  79
ATOM     79  C   UNL A   1      44.891  27.537  28.219  1.00  0.00     0.064 A 
ATOM     80  C   UNL A   1      45.489  26.290  28.491  1.00  0.00     0.173 A 
ATOM     81  C   UNL A   1      44.216  27.680  27.001  1.00  0.00     0.173 A 
ATOM     82  F   UNL A   1      46.145  26.100  29.647  1.00  0.00    -0.203 F 
ATOM     83  C   UNL A   1      45.300  25.198  27.647  1.00  0.00     0.198 A 
ATOM     84  C   UNL A   1      44.046  26.586  26.148  1.00  0.00     0.198 A 
ATOM     85  F   UNL A   1      43.614  28.837  26.689  1.00  0.00    -0.203 F 
ATOM     86  F   UNL A   1      45.771  23.992  27.998  1.00  0.00    -0.200 F 
ATOM     87  C   UNL A   1      44.552  25.341  26.491  1.00  0.00     0.200 A 
ATOM     88  F   UNL A   1      43.304  26.717  25.039  1.00  0.00    -0.200 F 
ATOM     89  F   UNL A   1      44.284  24.271  25.729  1.00  0.00    -0.200 F 
ENDBRANCH  55  79
BRANCH  67  90
ATOM     90  C   UNL A   1      43.536  34.545  29.351  1.00  0.00     0.064 A 
ATOM     91  C   UNL A   1      43.472  35.045  28.040  1.00  0.00     0.173 A 
ATOM     92  C   UNL A   1      43.680  35.526  30.366  1.00  0.00     0.173 A 
ATOM     93  F   UNL A   1      43.220  34.245  26.996  1.00  0.00    -0.203 F 
ATOM     94  C   UNL A   1      43.602  36.409  27.761  1.00  0.00     0.198 A 
ATOM     95  C   UNL A   1      43.743  36.890  30.088  1.00  0.00     0.198 A 
ATOM     96  F   UNL A   1      43.732  35.196  31.665  1.00  0.00    -0.203 F 
ATOM     97  F   UNL A   1      43.577  36.828  26.488  1.00  0.00    -0.200 F 
ATOM     98  C   UNL A   1      43.721  37.332  28.783  1.00  0.00     0.200 A 
ATOM     99  F   UNL A   1      43.799  37.773  31.096  1.00  0.00    -0.200 F 
ATOM    100  F   UNL A   1      43.790  38.641  28.512  1.00  0.00    -0.200 F 
ENDBRANCH  67  90
ENDBRANCH  41  42
ENDBRANCH  33  36
ENDBRANCH  31  32
ENDBRANCH  30  31
ENDBRANCH  29  30
ENDBRANCH   1  29
TORSDOF 16
ENDMDL
MODEL 2
REMARK VINA RESULT:     -13.7      3.704     10.010
REMARK SMILES Cc1ccccc1/C=C1\SC(=S)N(CCC(=O)N[C@@H](C)C(=O)NCCCCNC(=O)c2ccc(-c3c4nc(c(-c5c(F)c(F)c(F)c(F)c5F)c5ccc([nH]5)c(-c5c(F)c(F)c(F)c(F)c5F)c5nc(c(-c6c(F)c(F)c(F)c(F)c6F)c6ccc3[nH]6)C=C5)C=C4)cc2)C1=O
REMARK SMILES IDX 24 1 23 2 21 3 22 4 19 6 20 7 18 8 16 9 17 10 15 12 14 13
REMARK SMILES IDX 13 14 8 15 9 16 10 17 94 18 11 19 95 20 12 21 7 22 1 23 2 24
REMARK SMILES IDX 3 25 4 26 6 27 5 28 25 29 26 30 27 31 28 32 29 33 30 35
REMARK SMILES IDX 31 36 32 37 93 38 33 39 92 40 34 41 35 42 36 43 86 44 37 45
REMARK SMILES IDX 91 46 85 47 87 48 38 49 90 50 84 51 83 52 39 54 71 55 51 56
REMARK SMILES IDX 70 57 52 58 55 59 69 60 88 61 53 62 54 63 68 65 89 66 56 67
REMARK SMILES IDX 40 68 41 69 49 70 42 71 43 72 47 73 50 74 44 75 45 76 48 77
REMARK SMILES IDX 46 78 72 79 73 80 81 81 74 82 75 83 79 84 82 85 76 86 77 87
REMARK SMILES IDX 80 88 78 89 57 90 58 91 66 92 59 93 60 94 64 95 67 96 61 97
REMARK SMILES IDX 62 98 65 99 63 100
REMARK H PARENT 23 5 18 11 28 34 87 53 55 64
REMARK Flexibility Score: inf
ROOT
ATOM      1  C   UNL A   1      31.498  27.780  26.074  1.00  0.00     0.116 C 
ENDROOT
BRANCH   1   2
ATOM      2  N   UNL A   1      31.052  28.648  24.996  1.00  0.00    -0.354 N 
ATOM      3  C   UNL A   1      31.536  28.840  23.739  1.00  0.00     0.242 C 
ATOM      4  O   UNL A   1      30.929  29.634  23.016  1.00  0.00    -0.273 OA
ATOM      5  H   UNL A   1      30.261  29.192  25.214  1.00  0.00     0.163 HD
BRANCH   3   6
ATOM      6  C   UNL A   1      32.702  28.013  23.186  1.00  0.00     0.168 C 
ATOM      7  C   UNL A   1      33.863  28.945  22.918  1.00  0.00     0.041 C 
BRANCH   6   8
ATOM      8  N   UNL A   1      32.460  27.201  22.004  1.00  0.00    -0.345 N 
ATOM      9  C   UNL A   1      31.949  25.930  21.981  1.00  0.00     0.222 C 
ATOM     10  O   UNL A   1      32.117  25.248  20.970  1.00  0.00    -0.275 OA
ATOM     11  H   UNL A   1      32.685  27.605  21.135  1.00  0.00     0.164 HD
BRANCH   9  12
ATOM     12  C   UNL A   1      31.130  25.405  23.156  1.00  0.00     0.122 C 
BRANCH  12  13
ATOM     13  C   UNL A   1      31.063  23.874  23.308  1.00  0.00     0.137 C 
BRANCH  13  14
ATOM     14  N   UNL A   1      32.155  23.262  24.096  1.00  0.00    -0.292 N 
ATOM     15  C   UNL A   1      35.612  22.478  23.968  1.00  0.00     0.029 C 
ATOM     16  C   UNL A   1      34.337  22.429  24.391  1.00  0.00     0.081 C 
ATOM     17  S   UNL A   1      33.737  22.487  25.995  1.00  0.00    -0.054 SA
ATOM     18  C   UNL A   1      33.218  22.663  23.433  1.00  0.00     0.266 C 
ATOM     19  C   UNL A   1      32.183  23.150  25.474  1.00  0.00     0.148 C 
ATOM     20  O   UNL A   1      33.298  22.443  22.233  1.00  0.00    -0.268 OA
ATOM     21  S   UNL A   1      30.998  23.571  26.569  1.00  0.00    -0.052 S 
BRANCH  15  22
ATOM     22  C   UNL A   1      36.808  22.588  24.820  1.00  0.00    -0.021 A 
ATOM     23  C   UNL A   1      37.272  20.099  24.624  1.00  0.00     0.045 C 
ATOM     24  C   UNL A   1      37.593  21.471  25.143  1.00  0.00    -0.044 A 
ATOM     25  C   UNL A   1      38.685  21.632  26.012  1.00  0.00     0.004 A 
ATOM     26  C   UNL A   1      39.022  22.888  26.521  1.00  0.00     0.000 A 
ATOM     27  C   UNL A   1      37.188  23.853  25.307  1.00  0.00     0.008 A 
ATOM     28  C   UNL A   1      38.286  24.004  26.152  1.00  0.00     0.001 A 
ENDBRANCH  15  22
ENDBRANCH  13  14
ENDBRANCH  12  13
ENDBRANCH   9  12
ENDBRANCH   6   8
ENDBRANCH   3   6
ENDBRANCH   1   2
BRANCH   1  29
ATOM     29  C   UNL A   1      32.057  28.574  27.249  1.00  0.00     0.023 C 
BRANCH  29  30
ATOM     30  C   UNL A   1      33.582  28.672  27.298  1.00  0.00     0.023 C 
BRANCH  30  31
ATOM     31  C   UNL A   1      34.150  29.888  26.586  1.00  0.00     0.116 C 
BRANCH  31  32
ATOM     32  N   UNL A   1      34.574  30.940  27.484  1.00  0.00    -0.352 N 
ATOM     33  C   UNL A   1      35.573  30.967  28.437  1.00  0.00     0.251 C 
ATOM     34  H   UNL A   1      34.065  31.778  27.401  1.00  0.00     0.163 HD
ATOM     35  O   UNL A   1      35.594  31.905  29.220  1.00  0.00    -0.269 OA
BRANCH  33  36
ATOM     36  C   UNL A   1      36.692  29.980  28.443  1.00  0.00     0.039 A 
ATOM     37  C   UNL A   1      36.825  29.161  29.580  1.00  0.00     0.014 A 
ATOM     38  C   UNL A   1      37.693  29.957  27.479  1.00  0.00     0.014 A 
ATOM     39  C   UNL A   1      38.030  28.506  29.840  1.00  0.00     0.010 A 
ATOM     40  C   UNL A   1      38.915  29.398  27.774  1.00  0.00     0.010 A 
ATOM     41  C   UNL A   1      39.097  28.722  28.978  1.00  0.00    -0.014 A 
BRANCH  41  42
ATOM     42  C   UNL A   1      40.472  28.357  29.251  1.00  0.00     0.031 A 
ATOM     43  C   UNL A   1      41.057  27.155  28.631  1.00  0.00     0.074 A 
ATOM     44  C   UNL A   1      41.252  29.275  29.863  1.00  0.00     0.049 A 
ATOM     45  N   UNL A   1      42.134  26.584  29.046  1.00  0.00    -0.248 NA
ATOM     46  C   UNL A   1      40.465  26.494  27.474  1.00  0.00     0.031 C 
ATOM     47  C   UNL A   1      42.709  29.314  29.905  1.00  0.00     0.029 A 
ATOM     48  N   UNL A   1      40.852  30.322  30.710  1.00  0.00    -0.354 N 
ATOM     49  C   UNL A   1      42.533  25.693  28.077  1.00  0.00     0.074 A 
ATOM     50  C   UNL A   1      41.428  25.625  27.150  1.00  0.00     0.031 C 
ATOM     51  C   UNL A   1      43.093  30.109  30.917  1.00  0.00     0.029 A 
ATOM     52  C   UNL A   1      41.894  30.452  31.658  1.00  0.00     0.049 A 
ATOM     53  H   UNL A   1      40.024  30.852  30.654  1.00  0.00     0.167 HD
ATOM     54  C   UNL A   1      43.816  25.227  28.099  1.00  0.00     0.037 A 
ATOM     55  C   UNL A   1      41.686  30.139  32.971  1.00  0.00     0.037 A 
ATOM     56  C   UNL A   1      44.554  25.788  29.227  1.00  0.00     0.049 A 
ATOM     57  C   UNL A   1      42.571  29.019  33.465  1.00  0.00     0.074 A 
ATOM     58  C   UNL A   1      45.434  26.856  29.327  1.00  0.00     0.029 A 
ATOM     59  N   UNL A   1      44.172  25.472  30.527  1.00  0.00    -0.354 N 
ATOM     60  N   UNL A   1      43.118  28.129  32.684  1.00  0.00    -0.248 NA
ATOM     61  C   UNL A   1      42.907  28.811  34.869  1.00  0.00     0.031 C 
ATOM     62  C   UNL A   1      45.547  27.207  30.693  1.00  0.00     0.029 A 
ATOM     63  C   UNL A   1      44.752  26.344  31.428  1.00  0.00     0.049 A 
ATOM     64  H   UNL A   1      43.572  24.730  30.771  1.00  0.00     0.167 HD
ATOM     65  C   UNL A   1      43.855  27.251  33.433  1.00  0.00     0.074 A 
ATOM     66  C   UNL A   1      43.698  27.726  34.795  1.00  0.00     0.031 C 
ATOM     67  C   UNL A   1      44.528  26.209  32.859  1.00  0.00     0.037 A 
BRANCH  54  68
ATOM     68  C   UNL A   1      44.476  24.509  26.942  1.00  0.00     0.064 A 
ATOM     69  C   UNL A   1      44.173  23.160  26.656  1.00  0.00     0.173 A 
ATOM     70  C   UNL A   1      45.441  25.087  26.096  1.00  0.00     0.173 A 
ATOM     71  F   UNL A   1      43.203  22.503  27.304  1.00  0.00    -0.203 F 
ATOM     72  C   UNL A   1      44.860  22.423  25.686  1.00  0.00     0.198 A 
ATOM     73  C   UNL A   1      46.165  24.337  25.162  1.00  0.00     0.198 A 
ATOM     74  F   UNL A   1      45.676  26.405  26.112  1.00  0.00    -0.203 F 
ATOM     75  F   UNL A   1      44.530  21.142  25.469  1.00  0.00    -0.200 F 
ATOM     76  C   UNL A   1      45.881  23.001  24.965  1.00  0.00     0.200 A 
ATOM     77  F   UNL A   1      47.141  24.923  24.453  1.00  0.00    -0.200 F 
ATOM     78  F   UNL A   1      46.570  22.284  24.068  1.00  0.00    -0.200 F 
ENDBRANCH  54  68
BRANCH  55  79
ATOM     79  C   UNL A   1      40.279  30.375  33.396  1.00  0.00     0.064 A 
ATOM     80  C   UNL A   1      39.842  31.710  33.520  1.00  0.00     0.173 A 
ATOM     81  C   UNL A   1      39.300  29.385  33.253  1.00  0.00     0.173 A 
ATOM     82  F   UNL A   1      40.742  32.698  33.656  1.00  0.00    -0.203 F 
ATOM     83  C   UNL A   1      38.500  32.050  33.366  1.00  0.00     0.198 A 
ATOM     84  C   UNL A   1      37.952  29.729  33.119  1.00  0.00     0.198 A 
ATOM     85  F   UNL A   1      39.650  28.098  33.116  1.00  0.00    -0.203 F 
ATOM     86  F   UNL A   1      38.134  33.340  33.359  1.00  0.00    -0.200 F 
ATOM     87  C   UNL A   1      37.560  31.060  33.136  1.00  0.00     0.200 A 
ATOM     88  F   UNL A   1      37.042  28.775  32.874  1.00  0.00    -0.200 F 
ATOM     89  F   UNL A   1      36.285  31.391  32.889  1.00  0.00    -0.200 F 
ENDBRANCH  55  79
BRANCH  67  90
ATOM     90  C   UNL A   1      45.126  25.019  33.574  1.00  0.00     0.064 A 
ATOM     91  C   UNL A   1      44.478  23.782  33.720  1.00  0.00     0.173 A 
ATOM     92  C   UNL A   1      46.479  25.046  34.002  1.00  0.00     0.173 A 
ATOM     93  F   UNL A   1      43.240  23.580  33.251  1.00  0.00    -0.203 F 
ATOM     94  C   UNL A   1      45.110  22.679  34.302  1.00  0.00     0.198 A 
ATOM     95  C   UNL A   1      47.125  23.926  34.521  1.00  0.00     0.198 A 
ATOM     96  F   UNL A   1      47.230  26.154  33.902  1.00  0.00    -0.203 F 
ATOM     97  F   UNL A   1      44.430  21.534  34.457  1.00  0.00    -0.200 F 
ATOM     98  C   UNL A   1      46.435  22.745  34.687  1.00  0.00     0.200 A 
ATOM     99  F   UNL A   1      48.427  23.994  34.833  1.00  0.00    -0.200 F 
ATOM    100  F   UNL A   1      47.051  21.669  35.193  1.00  0.00    -0.200 F 
ENDBRANCH  67  90
ENDBRANCH  41  42
ENDBRANCH  33  36
ENDBRANCH  31  32
ENDBRANCH  30  31
ENDBRANCH  29  30
ENDBRANCH   1  29
TORSDOF 16
ENDMDL
MODEL 3
REMARK VINA RESULT:     -13.5      3.683     10.357
REMARK SMILES Cc1ccccc1/C=C1\SC(=S)N(CCC(=O)N[C@@H](C)C(=O)NCCCCNC(=O)c2ccc(-c3c4nc(c(-c5c(F)c(F)c(F)c(F)c5F)c5ccc([nH]5)c(-c5c(F)c(F)c(F)c(F)c5F)c5nc(c(-c6c(F)c(F)c(F)c(F)c6F)c6ccc3[nH]6)C=C5)C=C4)cc2)C1=O
REMARK SMILES IDX 24 1 23 2 21 3 22 4 19 6 20 7 18 8 16 9 17 10 15 12 14 13
REMARK SMILES IDX 13 14 8 15 9 16 10 17 94 18 11 19 95 20 12 21 7 22 1 23 2 24
REMARK SMILES IDX 3 25 4 26 6 27 5 28 25 29 26 30 27 31 28 32 29 33 30 35
REMARK SMILES IDX 31 36 32 37 93 38 33 39 92 40 34 41 35 42 36 43 86 44 37 45
REMARK SMILES IDX 91 46 85 47 87 48 38 49 90 50 84 51 83 52 39 54 71 55 51 56
REMARK SMILES IDX 70 57 52 58 55 59 69 60 88 61 53 62 54 63 68 65 89 66 56 67
REMARK SMILES IDX 40 68 41 69 49 70 42 71 43 72 47 73 50 74 44 75 45 76 48 77
REMARK SMILES IDX 46 78 72 79 73 80 81 81 74 82 75 83 79 84 82 85 76 86 77 87
REMARK SMILES IDX 80 88 78 89 57 90 58 91 66 92 59 93 60 94 64 95 67 96 61 97
REMARK SMILES IDX 62 98 65 99 63 100
REMARK H PARENT 23 5 18 11 28 34 87 53 55 64
REMARK Flexibility Score: inf
ROOT
ATOM      1  C   UNL A   1      31.789  28.839  25.265  1.00  0.00     0.116 C 
ENDROOT
BRANCH   1   2
ATOM      2  N   UNL A   1      30.976  28.746  24.062  1.00  0.00    -0.354 N 
ATOM      3  C   UNL A   1      31.244  28.227  22.834  1.00  0.00     0.242 C 
ATOM      4  O   UNL A   1      30.339  28.263  21.997  1.00  0.00    -0.273 OA
ATOM      5  H   UNL A   1      30.073  29.127  24.154  1.00  0.00     0.163 HD
BRANCH   3   6
ATOM      6  C   UNL A   1      32.563  27.507  22.531  1.00  0.00     0.168 C 
ATOM      7  C   UNL A   1      33.669  28.538  22.480  1.00  0.00     0.041 C 
BRANCH   6   8
ATOM      8  N   UNL A   1      32.627  26.679  21.337  1.00  0.00    -0.345 N 
ATOM      9  C   UNL A   1      32.791  25.320  21.298  1.00  0.00     0.222 C 
ATOM     10  O   UNL A   1      33.167  24.805  20.245  1.00  0.00    -0.275 OA
ATOM     11  H   UNL A   1      32.544  27.142  20.472  1.00  0.00     0.164 HD
BRANCH   9  12
ATOM     12  C   UNL A   1      32.446  24.464  22.512  1.00  0.00     0.122 C 
BRANCH  12  13
ATOM     13  C   UNL A   1      33.628  23.766  23.210  1.00  0.00     0.137 C 
BRANCH  13  14
ATOM     14  N   UNL A   1      33.284  22.562  23.997  1.00  0.00    -0.292 N 
ATOM     15  C   UNL A   1      32.729  19.072  23.693  1.00  0.00     0.029 C 
ATOM     16  C   UNL A   1      32.689  20.297  24.244  1.00  0.00     0.081 C 
ATOM     17  S   UNL A   1      33.065  20.764  25.850  1.00  0.00    -0.054 SA
ATOM     18  C   UNL A   1      32.625  21.509  23.376  1.00  0.00     0.266 C 
ATOM     19  C   UNL A   1      33.487  22.408  25.357  1.00  0.00     0.148 C 
ATOM     20  O   UNL A   1      32.148  21.510  22.251  1.00  0.00    -0.268 OA
ATOM     21  S   UNL A   1      34.062  23.531  26.449  1.00  0.00    -0.052 S 
BRANCH  15  22
ATOM     22  C   UNL A   1      33.109  17.823  24.376  1.00  0.00    -0.021 A 
ATOM     23  C   UNL A   1      35.572  18.436  24.291  1.00  0.00     0.045 C 
ATOM     24  C   UNL A   1      34.447  17.509  24.655  1.00  0.00    -0.044 A 
ATOM     25  C   UNL A   1      34.748  16.274  25.252  1.00  0.00     0.004 A 
ATOM     26  C   UNL A   1      33.738  15.379  25.608  1.00  0.00     0.000 A 
ATOM     27  C   UNL A   1      32.100  16.929  24.781  1.00  0.00     0.008 A 
ATOM     28  C   UNL A   1      32.409  15.715  25.391  1.00  0.00     0.001 A 
ENDBRANCH  15  22
ENDBRANCH  13  14
ENDBRANCH  12  13
ENDBRANCH   9  12
ENDBRANCH   6   8
ENDBRANCH   3   6
ENDBRANCH   1   2
BRANCH   1  29
ATOM     29  C   UNL A   1      31.742  30.233  25.878  1.00  0.00     0.023 C 
BRANCH  29  30
ATOM     30  C   UNL A   1      32.352  30.347  27.276  1.00  0.00     0.023 C 
BRANCH  30  31
ATOM     31  C   UNL A   1      33.870  30.295  27.299  1.00  0.00     0.116 C 
BRANCH  31  32
ATOM     32  N   UNL A   1      34.472  31.275  28.177  1.00  0.00    -0.352 N 
ATOM     33  C   UNL A   1      35.543  31.177  29.042  1.00  0.00     0.251 C 
ATOM     34  H   UNL A   1      34.045  32.161  28.153  1.00  0.00     0.163 HD
ATOM     35  O   UNL A   1      35.724  32.086  29.837  1.00  0.00    -0.269 OA
BRANCH  33  36
ATOM     36  C   UNL A   1      36.553  30.083  28.934  1.00  0.00     0.039 A 
ATOM     37  C   UNL A   1      36.741  29.263  30.063  1.00  0.00     0.014 A 
ATOM     38  C   UNL A   1      37.425  29.953  27.858  1.00  0.00     0.014 A 
ATOM     39  C   UNL A   1      37.898  28.494  30.191  1.00  0.00     0.010 A 
ATOM     40  C   UNL A   1      38.612  29.278  28.017  1.00  0.00     0.010 A 
ATOM     41  C   UNL A   1      38.871  28.597  29.204  1.00  0.00    -0.014 A 
BRANCH  41  42
ATOM     42  C   UNL A   1      40.226  28.098  29.319  1.00  0.00     0.031 A 
ATOM     43  C   UNL A   1      40.579  26.775  28.777  1.00  0.00     0.074 A 
ATOM     44  C   UNL A   1      41.184  28.975  29.694  1.00  0.00     0.049 A 
ATOM     45  N   UNL A   1      41.642  26.125  29.100  1.00  0.00    -0.248 NA
ATOM     46  C   UNL A   1      39.746  26.071  27.808  1.00  0.00     0.031 C 
ATOM     47  C   UNL A   1      42.625  28.842  29.520  1.00  0.00     0.029 A 
ATOM     48  N   UNL A   1      41.032  30.148  30.452  1.00  0.00    -0.354 N 
ATOM     49  C   UNL A   1      41.790  25.095  28.202  1.00  0.00     0.074 A 
ATOM     50  C   UNL A   1      40.551  25.062  27.460  1.00  0.00     0.031 C 
ATOM     51  C   UNL A   1      43.243  29.688  30.360  1.00  0.00     0.029 A 
ATOM     52  C   UNL A   1      42.218  30.252  31.218  1.00  0.00     0.049 A 
ATOM     53  H   UNL A   1      40.265  30.765  30.451  1.00  0.00     0.167 HD
ATOM     54  C   UNL A   1      43.005  24.481  28.096  1.00  0.00     0.037 A 
ATOM     55  C   UNL A   1      42.188  30.109  32.575  1.00  0.00     0.037 A 
ATOM     56  C   UNL A   1      43.965  25.066  29.028  1.00  0.00     0.049 A 
ATOM     57  C   UNL A   1      43.019  28.949  33.072  1.00  0.00     0.074 A 
ATOM     58  C   UNL A   1      44.955  26.024  28.866  1.00  0.00     0.029 A 
ATOM     59  N   UNL A   1      43.761  24.940  30.398  1.00  0.00    -0.354 N 
ATOM     60  N   UNL A   1      43.341  27.921  32.337  1.00  0.00    -0.248 NA
ATOM     61  C   UNL A   1      43.548  28.855  34.427  1.00  0.00     0.031 C 
ATOM     62  C   UNL A   1      45.318  26.504  30.147  1.00  0.00     0.029 A 
ATOM     63  C   UNL A   1      44.563  25.827  31.090  1.00  0.00     0.049 A 
ATOM     64  H   UNL A   1      43.133  24.307  30.816  1.00  0.00     0.167 HD
ATOM     65  C   UNL A   1      44.092  27.046  33.075  1.00  0.00     0.074 A 
ATOM     66  C   UNL A   1      44.201  27.679  34.376  1.00  0.00     0.031 C 
ATOM     67  C   UNL A   1      44.554  25.875  32.544  1.00  0.00     0.037 A 
BRANCH  54  68
ATOM     68  C   UNL A   1      43.396  23.569  26.954  1.00  0.00     0.064 A 
ATOM     69  C   UNL A   1      43.041  22.202  26.961  1.00  0.00     0.173 A 
ATOM     70  C   UNL A   1      44.151  23.974  25.838  1.00  0.00     0.173 A 
ATOM     71  F   UNL A   1      42.238  21.688  27.902  1.00  0.00    -0.203 F 
ATOM     72  C   UNL A   1      43.500  21.299  25.998  1.00  0.00     0.198 A 
ATOM     73  C   UNL A   1      44.654  23.062  24.902  1.00  0.00     0.198 A 
ATOM     74  F   UNL A   1      44.381  25.270  25.590  1.00  0.00    -0.203 F 
ATOM     75  F   UNL A   1      43.133  20.011  26.066  1.00  0.00    -0.200 F 
ATOM     76  C   UNL A   1      44.337  21.723  24.989  1.00  0.00     0.200 A 
ATOM     77  F   UNL A   1      45.450  23.497  23.914  1.00  0.00    -0.200 F 
ATOM     78  F   UNL A   1      44.814  20.851  24.091  1.00  0.00    -0.200 F 
ENDBRANCH  54  68
BRANCH  55  79
ATOM     79  C   UNL A   1      40.897  30.559  33.166  1.00  0.00     0.064 A 
ATOM     80  C   UNL A   1      40.630  31.942  33.191  1.00  0.00     0.173 A 
ATOM     81  C   UNL A   1      39.808  29.687  33.282  1.00  0.00     0.173 A 
ATOM     82  F   UNL A   1      41.640  32.821  33.080  1.00  0.00    -0.203 F 
ATOM     83  C   UNL A   1      39.324  32.427  33.192  1.00  0.00     0.198 A 
ATOM     84  C   UNL A   1      38.500  30.179  33.302  1.00  0.00     0.198 A 
ATOM     85  F   UNL A   1      39.994  28.359  33.250  1.00  0.00    -0.203 F 
ATOM     86  F   UNL A   1      39.100  33.745  33.084  1.00  0.00    -0.200 F 
ATOM     87  C   UNL A   1      38.260  31.543  33.217  1.00  0.00     0.200 A 
ATOM     88  F   UNL A   1      37.468  29.324  33.305  1.00  0.00    -0.200 F 
ATOM     89  F   UNL A   1      37.004  32.002  33.117  1.00  0.00    -0.200 F 
ENDBRANCH  55  79
BRANCH  67  90
ATOM     90  C   UNL A   1      45.131  24.704  33.308  1.00  0.00     0.064 A 
ATOM     91  C   UNL A   1      44.409  23.544  33.632  1.00  0.00     0.173 A 
ATOM     92  C   UNL A   1      46.519  24.653  33.600  1.00  0.00     0.173 A 
ATOM     93  F   UNL A   1      43.118  23.408  33.304  1.00  0.00    -0.203 F 
ATOM     94  C   UNL A   1      45.012  22.446  34.252  1.00  0.00     0.198 A 
ATOM     95  C   UNL A   1      47.129  23.531  34.158  1.00  0.00     0.198 A 
ATOM     96  F   UNL A   1      47.337  25.680  33.324  1.00  0.00    -0.203 F 
ATOM     97  F   UNL A   1      44.267  21.380  34.579  1.00  0.00    -0.200 F 
ATOM     98  C   UNL A   1      46.372  22.432  34.501  1.00  0.00     0.200 A 
ATOM     99  F   UNL A   1      48.457  23.515  34.337  1.00  0.00    -0.200 F 
ATOM    100  F   UNL A   1      46.952  21.355  35.044  1.00  0.00    -0.200 F 
ENDBRANCH  67  90
ENDBRANCH  41  42
ENDBRANCH  33  36
ENDBRANCH  31  32
ENDBRANCH  30  31
ENDBRANCH  29  30
ENDBRANCH   1  29
TORSDOF 16
ENDMDL
