MODEL 1
REMARK VINA RESULT:     -12.5      0.000      0.000
REMARK SMILES CC(C)[C@H](NS(=O)(=O)c1cccc(F)c1)C(=O)NCCCCNC(=O)c1ccc(-c2c3nc(c(-c4c(F)c(F)c(F)c(F)c4F)c4ccc([nH]4)c(-c4c(F)c(F)c(F)c(F)c4F)c4nc(c(-c5c(F)c(F)c(F)c(F)c5F)c5ccc2[nH]5)C=C4)C=C3)cc1
REMARK SMILES IDX 20 1 19 2 18 3 16 4 17 5 4 7 2 8 1 9 3 10 5 11 6 13 7 14
REMARK SMILES IDX 8 15 9 16 10 17 15 18 11 19 13 20 12 21 14 22 21 23 22 24
REMARK SMILES IDX 23 25 24 26 25 28 26 29 27 30 88 31 28 32 87 33 29 34 30 35
REMARK SMILES IDX 31 36 81 37 32 38 86 39 80 40 82 41 33 42 85 43 79 44 78 45
REMARK SMILES IDX 34 47 66 48 46 49 65 50 47 51 50 52 64 53 83 54 48 55 49 56
REMARK SMILES IDX 63 58 84 59 51 60 35 61 36 62 44 63 37 64 38 65 42 66 45 67
REMARK SMILES IDX 39 68 40 69 43 70 41 71 67 72 68 73 76 74 69 75 70 76 74 77
REMARK SMILES IDX 77 78 71 79 72 80 75 81 73 82 52 83 53 84 61 85 54 86 55 87
REMARK SMILES IDX 59 88 62 89 56 90 57 91 60 92 58 93
REMARK H PARENT 18 6 5 12 23 27 82 46 50 57
REMARK Flexibility Score: inf
ROOT
ATOM      1  C   UNL A   1      31.896  30.709  26.117  1.00  0.00     0.023 C 
ENDROOT
BRANCH   1   2
ATOM      2  C   UNL A   1      32.642  29.604  26.857  1.00  0.00     0.116 C 
BRANCH   2   3
ATOM      3  N   UNL A   1      31.769  28.494  27.197  1.00  0.00    -0.355 N 
ATOM      4  C   UNL A   1      31.360  27.449  26.420  1.00  0.00     0.238 C 
ATOM      5  O   UNL A   1      30.644  26.590  26.941  1.00  0.00    -0.273 OA
ATOM      6  H   UNL A   1      31.424  28.497  28.118  1.00  0.00     0.163 HD
BRANCH   4   7
ATOM      7  C   UNL A   1      31.761  27.345  24.930  1.00  0.00     0.161 C 
BRANCH   7   8
ATOM      8  C   UNL A   1      33.288  27.344  24.670  1.00  0.00     0.010 C 
ATOM      9  C   UNL A   1      33.882  25.985  24.259  1.00  0.00     0.009 C 
ATOM     10  C   UNL A   1      33.630  28.320  23.530  1.00  0.00     0.009 C 
ENDBRANCH   7   8
BRANCH   7  11
ATOM     11  N   UNL A   1      30.919  28.340  24.220  1.00  0.00    -0.198 NA
ATOM     12  H   UNL A   1      31.590  28.985  23.804  1.00  0.00     0.142 HD
BRANCH  11  13
ATOM     13  S   UNL A   1      29.781  28.117  23.035  1.00  0.00     0.241 S 
ATOM     14  O   UNL A   1      30.519  27.681  21.870  1.00  0.00    -0.207 OA
ATOM     15  O   UNL A   1      28.704  27.319  23.574  1.00  0.00    -0.207 OA
BRANCH  13  16
ATOM     16  C   UNL A   1      29.181  29.739  22.689  1.00  0.00     0.085 A 
ATOM     17  C   UNL A   1      29.240  30.719  23.687  1.00  0.00     0.022 A 
ATOM     18  C   UNL A   1      28.628  30.018  21.438  1.00  0.00     0.061 A 
ATOM     19  C   UNL A   1      28.708  31.984  23.439  1.00  0.00     0.004 A 
ATOM     20  C   UNL A   1      28.104  31.282  21.210  1.00  0.00     0.124 A 
ATOM     21  C   UNL A   1      28.131  32.264  22.198  1.00  0.00     0.039 A 
ATOM     22  F   UNL A   1      27.545  31.558  20.026  1.00  0.00    -0.207 F 
ENDBRANCH  13  16
ENDBRANCH  11  13
ENDBRANCH   7  11
ENDBRANCH   4   7
ENDBRANCH   2   3
ENDBRANCH   1   2
BRANCH   1  23
ATOM     23  C   UNL A   1      31.590  31.944  26.969  1.00  0.00     0.023 C 
BRANCH  23  24
ATOM     24  C   UNL A   1      32.798  32.800  27.340  1.00  0.00     0.116 C 
BRANCH  24  25
ATOM     25  N   UNL A   1      32.449  34.170  27.686  1.00  0.00    -0.352 N 
ATOM     26  C   UNL A   1      33.014  34.981  28.639  1.00  0.00     0.251 C 
ATOM     27  H   UNL A   1      31.712  34.566  27.168  1.00  0.00     0.163 HD
ATOM     28  O   UNL A   1      32.538  36.084  28.887  1.00  0.00    -0.269 OA
BRANCH  26  29
ATOM     29  C   UNL A   1      34.184  34.498  29.396  1.00  0.00     0.039 A 
ATOM     30  C   UNL A   1      33.978  33.868  30.627  1.00  0.00     0.014 A 
ATOM     31  C   UNL A   1      35.476  34.638  28.880  1.00  0.00     0.014 A 
ATOM     32  C   UNL A   1      35.064  33.316  31.309  1.00  0.00     0.010 A 
ATOM     33  C   UNL A   1      36.547  34.037  29.531  1.00  0.00     0.010 A 
ATOM     34  C   UNL A   1      36.351  33.366  30.749  1.00  0.00    -0.014 A 
BRANCH  34  35
ATOM     35  C   UNL A   1      37.509  32.726  31.419  1.00  0.00     0.031 A 
ATOM     36  C   UNL A   1      38.235  31.600  30.741  1.00  0.00     0.074 A 
ATOM     37  C   UNL A   1      37.864  33.113  32.659  1.00  0.00     0.049 A 
ATOM     38  N   UNL A   1      39.192  30.836  31.203  1.00  0.00    -0.248 NA
ATOM     39  C   UNL A   1      37.814  31.273  29.369  1.00  0.00     0.031 C 
ATOM     40  C   UNL A   1      37.219  34.178  33.430  1.00  0.00     0.029 A 
ATOM     41  N   UNL A   1      38.849  32.648  33.494  1.00  0.00    -0.354 N 
ATOM     42  C   UNL A   1      39.475  29.933  30.187  1.00  0.00     0.074 A 
ATOM     43  C   UNL A   1      38.562  30.214  29.101  1.00  0.00     0.031 C 
ATOM     44  C   UNL A   1      37.842  34.301  34.613  1.00  0.00     0.029 A 
ATOM     45  C   UNL A   1      38.900  33.298  34.702  1.00  0.00     0.049 A 
ATOM     46  H   UNL A   1      39.461  31.916  33.250  1.00  0.00     0.167 HD
ATOM     47  C   UNL A   1      40.426  28.971  30.159  1.00  0.00     0.037 A 
ATOM     48  C   UNL A   1      39.706  33.104  35.763  1.00  0.00     0.037 A 
ATOM     49  C   UNL A   1      41.355  28.717  31.227  1.00  0.00     0.049 A 
ATOM     50  C   UNL A   1      40.750  32.022  35.708  1.00  0.00     0.074 A 
ATOM     51  C   UNL A   1      42.374  27.783  31.277  1.00  0.00     0.029 A 
ATOM     52  N   UNL A   1      41.384  29.409  32.428  1.00  0.00    -0.354 N 
ATOM     53  N   UNL A   1      41.022  31.188  34.734  1.00  0.00    -0.248 NA
ATOM     54  C   UNL A   1      41.599  31.854  36.897  1.00  0.00     0.031 C 
ATOM     55  C   UNL A   1      43.005  27.891  32.520  1.00  0.00     0.029 A 
ATOM     56  C   UNL A   1      42.403  28.919  33.228  1.00  0.00     0.049 A 
ATOM     57  H   UNL A   1      40.773  30.140  32.675  1.00  0.00     0.167 HD
ATOM     58  C   UNL A   1      42.088  30.418  35.178  1.00  0.00     0.074 A 
ATOM     59  C   UNL A   1      42.418  30.886  36.508  1.00  0.00     0.031 C 
ATOM     60  C   UNL A   1      42.733  29.413  34.539  1.00  0.00     0.037 A 
BRANCH  47  61
ATOM     61  C   UNL A   1      40.528  28.128  28.925  1.00  0.00     0.064 A 
ATOM     62  C   UNL A   1      41.313  28.542  27.838  1.00  0.00     0.173 A 
ATOM     63  C   UNL A   1      39.793  26.941  28.790  1.00  0.00     0.173 A 
ATOM     64  F   UNL A   1      42.032  29.672  27.916  1.00  0.00    -0.203 F 
ATOM     65  C   UNL A   1      41.346  27.806  26.657  1.00  0.00     0.198 A 
ATOM     66  C   UNL A   1      39.847  26.194  27.617  1.00  0.00     0.198 A 
ATOM     67  F   UNL A   1      39.037  26.497  29.807  1.00  0.00    -0.203 F 
ATOM     68  F   UNL A   1      42.080  28.237  25.621  1.00  0.00    -0.200 F 
ATOM     69  C   UNL A   1      40.616  26.632  26.548  1.00  0.00     0.200 A 
ATOM     70  F   UNL A   1      39.158  25.049  27.522  1.00  0.00    -0.200 F 
ATOM     71  F   UNL A   1      40.654  25.921  25.413  1.00  0.00    -0.200 F 
ENDBRANCH  47  61
BRANCH  48  72
ATOM     72  C   UNL A   1      39.580  33.979  36.958  1.00  0.00     0.064 A 
ATOM     73  C   UNL A   1      38.802  33.605  38.062  1.00  0.00     0.173 A 
ATOM     74  C   UNL A   1      40.235  35.218  37.008  1.00  0.00     0.173 A 
ATOM     75  F   UNL A   1      38.153  32.431  38.061  1.00  0.00    -0.203 F 
ATOM     76  C   UNL A   1      38.672  34.446  39.166  1.00  0.00     0.198 A 
ATOM     77  C   UNL A   1      40.124  36.046  38.121  1.00  0.00     0.198 A 
ATOM     78  F   UNL A   1      41.008  35.607  35.983  1.00  0.00    -0.203 F 
ATOM     79  F   UNL A   1      37.901  34.077  40.198  1.00  0.00    -0.200 F 
ATOM     80  C   UNL A   1      39.337  35.663  39.197  1.00  0.00     0.200 A 
ATOM     81  F   UNL A   1      40.786  37.210  38.157  1.00  0.00    -0.200 F 
ATOM     82  F   UNL A   1      39.224  36.464  40.266  1.00  0.00    -0.200 F 
ENDBRANCH  48  72
BRANCH  60  83
ATOM     83  C   UNL A   1      43.891  28.769  35.240  1.00  0.00     0.064 A 
ATOM     84  C   UNL A   1      45.200  29.210  34.993  1.00  0.00     0.173 A 
ATOM     85  C   UNL A   1      43.713  27.662  36.081  1.00  0.00     0.173 A 
ATOM     86  F   UNL A   1      45.419  30.261  34.189  1.00  0.00    -0.203 F 
ATOM     87  C   UNL A   1      46.292  28.551  35.548  1.00  0.00     0.198 A 
ATOM     88  C   UNL A   1      44.807  27.019  36.653  1.00  0.00     0.198 A 
ATOM     89  F   UNL A   1      42.479  27.213  36.355  1.00  0.00    -0.203 F 
ATOM     90  F   UNL A   1      47.536  28.966  35.271  1.00  0.00    -0.200 F 
ATOM     91  C   UNL A   1      46.096  27.457  36.377  1.00  0.00     0.200 A 
ATOM     92  F   UNL A   1      44.616  25.974  37.470  1.00  0.00    -0.200 F 
ATOM     93  F   UNL A   1      47.148  26.824  36.914  1.00  0.00    -0.200 F 
ENDBRANCH  60  83
ENDBRANCH  34  35
ENDBRANCH  26  29
ENDBRANCH  24  25
ENDBRANCH  23  24
ENDBRANCH   1  23
TORSDOF 15
ENDMDL
MODEL 2
REMARK VINA RESULT:     -12.3      0.510      7.534
REMARK SMILES CC(C)[C@H](NS(=O)(=O)c1cccc(F)c1)C(=O)NCCCCNC(=O)c1ccc(-c2c3nc(c(-c4c(F)c(F)c(F)c(F)c4F)c4ccc([nH]4)c(-c4c(F)c(F)c(F)c(F)c4F)c4nc(c(-c5c(F)c(F)c(F)c(F)c5F)c5ccc2[nH]5)C=C4)C=C3)cc1
REMARK SMILES IDX 20 1 19 2 18 3 16 4 17 5 4 7 2 8 1 9 3 10 5 11 6 13 7 14
REMARK SMILES IDX 8 15 9 16 10 17 15 18 11 19 13 20 12 21 14 22 21 23 22 24
REMARK SMILES IDX 23 25 24 26 25 28 26 29 27 30 88 31 28 32 87 33 29 34 30 35
REMARK SMILES IDX 31 36 81 37 32 38 86 39 80 40 82 41 33 42 85 43 79 44 78 45
REMARK SMILES IDX 34 47 66 48 46 49 65 50 47 51 50 52 64 53 83 54 48 55 49 56
REMARK SMILES IDX 63 58 84 59 51 60 35 61 36 62 44 63 37 64 38 65 42 66 45 67
REMARK SMILES IDX 39 68 40 69 43 70 41 71 67 72 68 73 76 74 69 75 70 76 74 77
REMARK SMILES IDX 77 78 71 79 72 80 75 81 73 82 52 83 53 84 61 85 54 86 55 87
REMARK SMILES IDX 59 88 62 89 56 90 57 91 60 92 58 93
REMARK H PARENT 18 6 5 12 23 27 82 46 50 57
REMARK Flexibility Score: inf
ROOT
ATOM      1  C   UNL A   1      31.582  31.118  26.000  1.00  0.00     0.023 C 
ENDROOT
BRANCH   1   2
ATOM      2  C   UNL A   1      32.540  30.056  26.529  1.00  0.00     0.116 C 
BRANCH   2   3
ATOM      3  N   UNL A   1      31.835  28.897  27.046  1.00  0.00    -0.355 N 
ATOM      4  C   UNL A   1      31.508  27.732  26.414  1.00  0.00     0.238 C 
ATOM      5  O   UNL A   1      30.938  26.859  27.072  1.00  0.00    -0.273 OA
ATOM      6  H   UNL A   1      31.551  28.961  27.986  1.00  0.00     0.163 HD
BRANCH   4   7
ATOM      7  C   UNL A   1      31.824  27.512  24.915  1.00  0.00     0.161 C 
BRANCH   7   8
ATOM      8  C   UNL A   1      33.334  27.450  24.574  1.00  0.00     0.010 C 
ATOM      9  C   UNL A   1      33.835  26.087  24.066  1.00  0.00     0.009 C 
ATOM     10  C   UNL A   1      33.666  28.466  23.467  1.00  0.00     0.009 C 
ENDBRANCH   7   8
BRANCH   7  11
ATOM     11  N   UNL A   1      30.967  28.477  24.182  1.00  0.00    -0.198 NA
ATOM     12  H   UNL A   1      31.630  29.103  23.725  1.00  0.00     0.142 HD
BRANCH  11  13
ATOM     13  S   UNL A   1      29.805  28.205  23.030  1.00  0.00     0.241 S 
ATOM     14  O   UNL A   1      30.522  27.749  21.860  1.00  0.00    -0.207 OA
ATOM     15  O   UNL A   1      28.753  27.408  23.615  1.00  0.00    -0.207 OA
BRANCH  13  16
ATOM     16  C   UNL A   1      29.173  29.809  22.655  1.00  0.00     0.085 A 
ATOM     17  C   UNL A   1      29.200  30.804  23.640  1.00  0.00     0.022 A 
ATOM     18  C   UNL A   1      28.628  30.058  21.395  1.00  0.00     0.061 A 
ATOM     19  C   UNL A   1      28.642  32.053  23.369  1.00  0.00     0.004 A 
ATOM     20  C   UNL A   1      28.078  31.308  21.144  1.00  0.00     0.124 A 
ATOM     21  C   UNL A   1      28.073  32.303  22.118  1.00  0.00     0.039 A 
ATOM     22  F   UNL A   1      27.526  31.555  19.950  1.00  0.00    -0.207 F 
ENDBRANCH  13  16
ENDBRANCH  11  13
ENDBRANCH   7  11
ENDBRANCH   4   7
ENDBRANCH   2   3
ENDBRANCH   1   2
BRANCH   1  23
ATOM     23  C   UNL A   1      31.398  32.321  26.929  1.00  0.00     0.023 C 
BRANCH  23  24
ATOM     24  C   UNL A   1      32.685  33.014  27.367  1.00  0.00     0.116 C 
BRANCH  24  25
ATOM     25  N   UNL A   1      32.485  34.394  27.783  1.00  0.00    -0.352 N 
ATOM     26  C   UNL A   1      33.152  35.101  28.753  1.00  0.00     0.251 C 
ATOM     27  H   UNL A   1      31.776  34.884  27.306  1.00  0.00     0.163 HD
ATOM     28  O   UNL A   1      32.796  36.232  29.063  1.00  0.00    -0.269 OA
BRANCH  26  29
ATOM     29  C   UNL A   1      34.289  34.469  29.451  1.00  0.00     0.039 A 
ATOM     30  C   UNL A   1      34.035  33.687  30.581  1.00  0.00     0.014 A 
ATOM     31  C   UNL A   1      35.594  34.625  28.975  1.00  0.00     0.014 A 
ATOM     32  C   UNL A   1      35.085  33.002  31.194  1.00  0.00     0.010 A 
ATOM     33  C   UNL A   1      36.629  33.896  29.551  1.00  0.00     0.010 A 
ATOM     34  C   UNL A   1      36.383  33.074  30.663  1.00  0.00    -0.014 A 
BRANCH  34  35
ATOM     35  C   UNL A   1      37.503  32.300  31.253  1.00  0.00     0.031 A 
ATOM     36  C   UNL A   1      37.996  32.633  32.631  1.00  0.00     0.074 A 
ATOM     37  C   UNL A   1      38.114  31.345  30.525  1.00  0.00     0.049 A 
ATOM     38  N   UNL A   1      39.029  32.155  33.278  1.00  0.00    -0.248 NA
ATOM     39  C   UNL A   1      37.242  33.655  33.374  1.00  0.00     0.031 C 
ATOM     40  C   UNL A   1      37.741  30.948  29.167  1.00  0.00     0.029 A 
ATOM     41  N   UNL A   1      39.185  30.540  30.825  1.00  0.00    -0.354 N 
ATOM     42  C   UNL A   1      39.056  32.829  34.491  1.00  0.00     0.074 A 
ATOM     43  C   UNL A   1      37.964  33.777  34.478  1.00  0.00     0.031 C 
ATOM     44  C   UNL A   1      38.553  29.960  28.760  1.00  0.00     0.029 A 
ATOM     45  C   UNL A   1      39.529  29.681  29.811  1.00  0.00     0.049 A 
ATOM     46  H   UNL A   1      39.661  30.576  31.686  1.00  0.00     0.167 HD
ATOM     47  C   UNL A   1      39.905  32.654  35.531  1.00  0.00     0.037 A 
ATOM     48  C   UNL A   1      40.523  28.775  29.735  1.00  0.00     0.037 A 
ATOM     49  C   UNL A   1      40.969  31.687  35.555  1.00  0.00     0.049 A 
ATOM     50  C   UNL A   1      41.457  28.607  30.903  1.00  0.00     0.074 A 
ATOM     51  C   UNL A   1      41.863  31.415  36.576  1.00  0.00     0.029 A 
ATOM     52  N   UNL A   1      41.275  30.824  34.513  1.00  0.00    -0.354 N 
ATOM     53  N   UNL A   1      41.460  29.235  32.053  1.00  0.00    -0.248 NA
ATOM     54  C   UNL A   1      42.525  27.606  30.762  1.00  0.00     0.031 C 
ATOM     55  C   UNL A   1      42.727  30.406  36.143  1.00  0.00     0.029 A 
ATOM     56  C   UNL A   1      42.346  30.022  34.867  1.00  0.00     0.049 A 
ATOM     57  H   UNL A   1      40.800  30.787  33.652  1.00  0.00     0.167 HD
ATOM     58  C   UNL A   1      42.506  28.687  32.783  1.00  0.00     0.074 A 
ATOM     59  C   UNL A   1      43.114  27.672  31.948  1.00  0.00     0.031 C 
ATOM     60  C   UNL A   1      42.923  29.000  34.033  1.00  0.00     0.037 A 
BRANCH  47  61
ATOM     61  C   UNL A   1      39.711  33.514  36.742  1.00  0.00     0.064 A 
ATOM     62  C   UNL A   1      38.811  33.136  37.750  1.00  0.00     0.173 A 
ATOM     63  C   UNL A   1      40.365  34.748  36.872  1.00  0.00     0.173 A 
ATOM     64  F   UNL A   1      38.157  31.968  37.669  1.00  0.00    -0.203 F 
ATOM     65  C   UNL A   1      38.562  33.970  38.837  1.00  0.00     0.198 A 
ATOM     66  C   UNL A   1      40.133  35.569  37.973  1.00  0.00     0.198 A 
ATOM     67  F   UNL A   1      41.244  35.147  35.940  1.00  0.00    -0.203 F 
ATOM     68  F   UNL A   1      37.677  33.602  39.773  1.00  0.00    -0.200 F 
ATOM     69  C   UNL A   1      39.225  35.183  38.948  1.00  0.00     0.200 A 
ATOM     70  F   UNL A   1      40.791  36.730  38.090  1.00  0.00    -0.200 F 
ATOM     71  F   UNL A   1      38.991  35.982  39.999  1.00  0.00    -0.200 F 
ENDBRANCH  47  61
BRANCH  48  72
ATOM     72  C   UNL A   1      40.664  27.932  28.520  1.00  0.00     0.064 A 
ATOM     73  C   UNL A   1      41.410  28.358  27.413  1.00  0.00     0.173 A 
ATOM     74  C   UNL A   1      40.039  26.679  28.445  1.00  0.00     0.173 A 
ATOM     75  F   UNL A   1      42.024  29.550  27.436  1.00  0.00    -0.203 F 
ATOM     76  C   UNL A   1      41.514  27.568  26.270  1.00  0.00     0.198 A 
ATOM     77  C   UNL A   1      40.163  25.880  27.311  1.00  0.00     0.198 A 
ATOM     78  F   UNL A   1      39.332  26.220  29.488  1.00  0.00    -0.203 F 
ATOM     79  F   UNL A   1      42.213  28.010  25.215  1.00  0.00    -0.200 F 
ATOM     80  C   UNL A   1      40.895  26.328  26.222  1.00  0.00     0.200 A 
ATOM     81  F   UNL A   1      39.583  24.673  27.278  1.00  0.00    -0.200 F 
ATOM     82  F   UNL A   1      41.009  25.562  25.128  1.00  0.00    -0.200 F 
ENDBRANCH  48  72
BRANCH  60  83
ATOM     83  C   UNL A   1      44.066  28.216  34.604  1.00  0.00     0.064 A 
ATOM     84  C   UNL A   1      43.821  27.056  35.356  1.00  0.00     0.173 A 
ATOM     85  C   UNL A   1      45.390  28.661  34.488  1.00  0.00     0.173 A 
ATOM     86  F   UNL A   1      42.569  26.596  35.501  1.00  0.00    -0.203 F 
ATOM     87  C   UNL A   1      44.861  26.381  35.986  1.00  0.00     0.198 A 
ATOM     88  C   UNL A   1      46.430  27.970  35.101  1.00  0.00     0.198 A 
ATOM     89  F   UNL A   1      45.672  29.758  33.769  1.00  0.00    -0.203 F 
ATOM     90  F   UNL A   1      44.601  25.295  36.727  1.00  0.00    -0.200 F 
ATOM     91  C   UNL A   1      46.164  26.837  35.858  1.00  0.00     0.200 A 
ATOM     92  F   UNL A   1      47.692  28.399  34.962  1.00  0.00    -0.200 F 
ATOM     93  F   UNL A   1      47.166  26.185  36.465  1.00  0.00    -0.200 F 
ENDBRANCH  60  83
ENDBRANCH  34  35
ENDBRANCH  26  29
ENDBRANCH  24  25
ENDBRANCH  23  24
ENDBRANCH   1  23
TORSDOF 15
ENDMDL
MODEL 3
REMARK VINA RESULT:     -12.2      6.691     12.053
REMARK SMILES CC(C)[C@H](NS(=O)(=O)c1cccc(F)c1)C(=O)NCCCCNC(=O)c1ccc(-c2c3nc(c(-c4c(F)c(F)c(F)c(F)c4F)c4ccc([nH]4)c(-c4c(F)c(F)c(F)c(F)c4F)c4nc(c(-c5c(F)c(F)c(F)c(F)c5F)c5ccc2[nH]5)C=C4)C=C3)cc1
REMARK SMILES IDX 20 1 19 2 18 3 16 4 17 5 4 7 2 8 1 9 3 10 5 11 6 13 7 14
REMARK SMILES IDX 8 15 9 16 10 17 15 18 11 19 13 20 12 21 14 22 21 23 22 24
REMARK SMILES IDX 23 25 24 26 25 28 26 29 27 30 88 31 28 32 87 33 29 34 30 35
REMARK SMILES IDX 31 36 81 37 32 38 86 39 80 40 82 41 33 42 85 43 79 44 78 45
REMARK SMILES IDX 34 47 66 48 46 49 65 50 47 51 50 52 64 53 83 54 48 55 49 56
REMARK SMILES IDX 63 58 84 59 51 60 35 61 36 62 44 63 37 64 38 65 42 66 45 67
REMARK SMILES IDX 39 68 40 69 43 70 41 71 67 72 68 73 76 74 69 75 70 76 74 77
REMARK SMILES IDX 77 78 71 79 72 80 75 81 73 82 52 83 53 84 61 85 54 86 55 87
REMARK SMILES IDX 59 88 62 89 56 90 57 91 60 92 58 93
REMARK H PARENT 18 6 5 12 23 27 82 46 50 57
REMARK Flexibility Score: inf
ROOT
ATOM      1  C   UNL A   1      36.957  20.641  25.042  1.00  0.00     0.023 C 
ENDROOT
BRANCH   1   2
ATOM      2  C   UNL A   1      37.142  22.143  24.855  1.00  0.00     0.116 C 
BRANCH   2   3
ATOM      3  N   UNL A   1      36.464  22.629  23.666  1.00  0.00    -0.355 N 
ATOM      4  C   UNL A   1      35.135  22.872  23.468  1.00  0.00     0.238 C 
ATOM      5  O   UNL A   1      34.789  23.328  22.376  1.00  0.00    -0.273 OA
ATOM      6  H   UNL A   1      37.046  22.808  22.893  1.00  0.00     0.163 HD
BRANCH   4   7
ATOM      7  C   UNL A   1      34.088  22.570  24.566  1.00  0.00     0.161 C 
BRANCH   7   8
ATOM      8  C   UNL A   1      34.293  23.351  25.888  1.00  0.00     0.010 C 
ATOM      9  C   UNL A   1      33.302  24.503  26.129  1.00  0.00     0.009 C 
ATOM     10  C   UNL A   1      34.143  22.403  27.090  1.00  0.00     0.009 C 
ENDBRANCH   7   8
BRANCH   7  11
ATOM     11  N   UNL A   1      33.984  21.090  24.622  1.00  0.00    -0.198 NA
ATOM     12  H   UNL A   1      34.289  20.854  25.566  1.00  0.00     0.142 HD
BRANCH  11  13
ATOM     13  S   UNL A   1      32.676  20.106  24.358  1.00  0.00     0.241 S 
ATOM     14  O   UNL A   1      31.713  20.464  25.376  1.00  0.00    -0.207 OA
ATOM     15  O   UNL A   1      32.332  20.162  22.957  1.00  0.00    -0.207 OA
BRANCH  13  16
ATOM     16  C   UNL A   1      33.258  18.487  24.746  1.00  0.00     0.085 A 
ATOM     17  C   UNL A   1      34.500  18.068  24.251  1.00  0.00     0.022 A 
ATOM     18  C   UNL A   1      32.464  17.633  25.513  1.00  0.00     0.061 A 
ATOM     19  C   UNL A   1      34.933  16.766  24.501  1.00  0.00     0.004 A 
ATOM     20  C   UNL A   1      32.914  16.342  25.751  1.00  0.00     0.124 A 
ATOM     21  C   UNL A   1      34.134  15.899  25.247  1.00  0.00     0.039 A 
ATOM     22  F   UNL A   1      32.152  15.501  26.462  1.00  0.00    -0.207 F 
ENDBRANCH  13  16
ENDBRANCH  11  13
ENDBRANCH   7  11
ENDBRANCH   4   7
ENDBRANCH   2   3
ENDBRANCH   1   2
BRANCH   1  23
ATOM     23  C   UNL A   1      38.231  19.818  24.834  1.00  0.00     0.023 C 
BRANCH  23  24
ATOM     24  C   UNL A   1      39.364  20.102  25.816  1.00  0.00     0.116 C 
BRANCH  24  25
ATOM     25  N   UNL A   1      40.342  19.028  25.894  1.00  0.00    -0.352 N 
ATOM     26  C   UNL A   1      41.693  19.117  26.125  1.00  0.00     0.251 C 
ATOM     27  H   UNL A   1      39.989  18.118  25.764  1.00  0.00     0.163 HD
ATOM     28  O   UNL A   1      42.408  18.123  26.057  1.00  0.00    -0.269 OA
BRANCH  26  29
ATOM     29  C   UNL A   1      42.289  20.434  26.422  1.00  0.00     0.039 A 
ATOM     30  C   UNL A   1      42.825  21.183  25.371  1.00  0.00     0.014 A 
ATOM     31  C   UNL A   1      42.290  20.939  27.725  1.00  0.00     0.014 A 
ATOM     32  C   UNL A   1      43.301  22.472  25.617  1.00  0.00     0.010 A 
ATOM     33  C   UNL A   1      42.711  22.244  27.958  1.00  0.00     0.010 A 
ATOM     34  C   UNL A   1      43.216  23.024  26.905  1.00  0.00    -0.014 A 
BRANCH  34  35
ATOM     35  C   UNL A   1      43.649  24.416  27.178  1.00  0.00     0.031 A 
ATOM     36  C   UNL A   1      42.661  25.417  27.705  1.00  0.00     0.074 A 
ATOM     37  C   UNL A   1      44.910  24.794  26.891  1.00  0.00     0.049 A 
ATOM     38  N   UNL A   1      42.810  26.702  27.899  1.00  0.00    -0.248 NA
ATOM     39  C   UNL A   1      41.320  24.909  28.036  1.00  0.00     0.031 C 
ATOM     40  C   UNL A   1      45.953  23.919  26.353  1.00  0.00     0.029 A 
ATOM     41  N   UNL A   1      45.526  26.015  27.004  1.00  0.00    -0.354 N 
ATOM     42  C   UNL A   1      41.582  27.157  28.359  1.00  0.00     0.074 A 
ATOM     43  C   UNL A   1      40.686  26.022  28.376  1.00  0.00     0.031 C 
ATOM     44  C   UNL A   1      47.085  24.626  26.206  1.00  0.00     0.029 A 
ATOM     45  C   UNL A   1      46.838  26.010  26.600  1.00  0.00     0.049 A 
ATOM     46  H   UNL A   1      45.070  26.819  27.343  1.00  0.00     0.167 HD
ATOM     47  C   UNL A   1      41.241  28.407  28.751  1.00  0.00     0.037 A 
ATOM     48  C   UNL A   1      47.738  27.011  26.548  1.00  0.00     0.037 A 
ATOM     49  C   UNL A   1      42.143  29.526  28.766  1.00  0.00     0.049 A 
ATOM     50  C   UNL A   1      47.330  28.392  26.983  1.00  0.00     0.074 A 
ATOM     51  C   UNL A   1      41.898  30.824  29.176  1.00  0.00     0.029 A 
ATOM     52  N   UNL A   1      43.469  29.476  28.364  1.00  0.00    -0.354 N 
ATOM     53  N   UNL A   1      46.172  28.806  27.435  1.00  0.00    -0.248 NA
ATOM     54  C   UNL A   1      48.353  29.446  26.901  1.00  0.00     0.031 C 
ATOM     55  C   UNL A   1      43.068  31.568  28.998  1.00  0.00     0.029 A 
ATOM     56  C   UNL A   1      44.053  30.722  28.513  1.00  0.00     0.049 A 
ATOM     57  H   UNL A   1      43.928  28.673  28.024  1.00  0.00     0.167 HD
ATOM     58  C   UNL A   1      46.332  30.155  27.719  1.00  0.00     0.074 A 
ATOM     59  C   UNL A   1      47.702  30.492  27.392  1.00  0.00     0.031 C 
ATOM     60  C   UNL A   1      45.425  31.034  28.205  1.00  0.00     0.037 A 
BRANCH  47  61
ATOM     61  C   UNL A   1      39.835  28.632  29.218  1.00  0.00     0.064 A 
ATOM     62  C   UNL A   1      38.859  29.118  28.335  1.00  0.00     0.173 A 
ATOM     63  C   UNL A   1      39.471  28.433  30.557  1.00  0.00     0.173 A 
ATOM     64  F   UNL A   1      39.159  29.330  27.045  1.00  0.00    -0.203 F 
ATOM     65  C   UNL A   1      37.573  29.410  28.782  1.00  0.00     0.198 A 
ATOM     66  C   UNL A   1      38.177  28.702  30.996  1.00  0.00     0.198 A 
ATOM     67  F   UNL A   1      40.367  27.958  31.436  1.00  0.00    -0.203 F 
ATOM     68  F   UNL A   1      36.664  29.901  27.928  1.00  0.00    -0.200 F 
ATOM     69  C   UNL A   1      37.233  29.199  30.109  1.00  0.00     0.200 A 
ATOM     70  F   UNL A   1      37.845  28.476  32.274  1.00  0.00    -0.200 F 
ATOM     71  F   UNL A   1      35.992  29.473  30.536  1.00  0.00    -0.200 F 
ENDBRANCH  47  61
BRANCH  48  72
ATOM     72  C   UNL A   1      49.126  26.734  26.096  1.00  0.00     0.064 A 
ATOM     73  C   UNL A   1      50.104  26.256  26.979  1.00  0.00     0.173 A 
ATOM     74  C   UNL A   1      49.501  26.957  24.764  1.00  0.00     0.173 A 
ATOM     75  F   UNL A   1      49.795  26.030  28.265  1.00  0.00    -0.203 F 
ATOM     76  C   UNL A   1      51.409  26.024  26.549  1.00  0.00     0.198 A 
ATOM     77  C   UNL A   1      50.799  26.703  24.329  1.00  0.00     0.198 A 
ATOM     78  F   UNL A   1      48.593  27.394  23.878  1.00  0.00    -0.203 F 
ATOM     79  F   UNL A   1      52.332  25.591  27.419  1.00  0.00    -0.200 F 
ATOM     80  C   UNL A   1      51.754  26.243  25.224  1.00  0.00     0.200 A 
ATOM     81  F   UNL A   1      51.122  26.893  23.043  1.00  0.00    -0.200 F 
ATOM     82  F   UNL A   1      53.005  26.005  24.807  1.00  0.00    -0.200 F 
ENDBRANCH  48  72
BRANCH  60  83
ATOM     83  C   UNL A   1      45.880  32.440  28.460  1.00  0.00     0.064 A 
ATOM     84  C   UNL A   1      46.363  32.808  29.725  1.00  0.00     0.173 A 
ATOM     85  C   UNL A   1      45.751  33.438  27.484  1.00  0.00     0.173 A 
ATOM     86  F   UNL A   1      46.495  31.887  30.692  1.00  0.00    -0.203 F 
ATOM     87  C   UNL A   1      46.683  34.131  30.009  1.00  0.00     0.198 A 
ATOM     88  C   UNL A   1      46.094  34.757  27.766  1.00  0.00     0.198 A 
ATOM     89  F   UNL A   1      45.305  33.130  26.257  1.00  0.00    -0.203 F 
ATOM     90  F   UNL A   1      47.110  34.468  31.235  1.00  0.00    -0.200 F 
ATOM     91  C   UNL A   1      46.549  35.104  29.031  1.00  0.00     0.200 A 
ATOM     92  F   UNL A   1      45.984  35.694  26.814  1.00  0.00    -0.200 F 
ATOM     93  F   UNL A   1      46.860  36.379  29.305  1.00  0.00    -0.200 F 
ENDBRANCH  60  83
ENDBRANCH  34  35
ENDBRANCH  26  29
ENDBRANCH  24  25
ENDBRANCH  23  24
ENDBRANCH   1  23
TORSDOF 15
ENDMDL
