MODEL 1
REMARK VINA RESULT:     -11.7      0.000      0.000
REMARK SMILES C[C@H](C(=O)NCCCCNC(=O)c1ccc(-c2c3nc(c(-c4c(F)c(F)c(F)c(F)c4F)c4ccc([nH]4)c(-c4c(F)c(F)c(F)c(F)c4F)c4nc(c(-c5c(F)c(F)c(F)c(F)c5F)c5ccc2[nH]5)C=C4)C=C3)cc1)[C@H](C)[S@@](=O)c1cccs1
REMARK SMILES IDX 7 1 6 2 5 3 3 4 4 5 2 7 1 8 76 9 77 10 78 11 79 12 80 13
REMARK SMILES IDX 81 14 84 15 82 16 83 17 8 18 9 19 10 20 11 21 12 23 13 24
REMARK SMILES IDX 14 25 75 26 15 27 74 28 16 29 17 30 18 31 68 32 19 33 73 34
REMARK SMILES IDX 67 35 69 36 20 37 72 38 66 39 65 40 21 42 53 43 33 44 52 45
REMARK SMILES IDX 34 46 37 47 51 48 70 49 35 50 36 51 50 53 71 54 38 55 22 56
REMARK SMILES IDX 23 57 31 58 24 59 25 60 29 61 32 62 26 63 27 64 30 65 28 66
REMARK SMILES IDX 54 67 55 68 63 69 56 70 57 71 61 72 64 73 58 74 59 75 62 76
REMARK SMILES IDX 60 77 39 78 40 79 48 80 41 81 42 82 46 83 49 84 43 85 44 86
REMARK SMILES IDX 47 87 45 88
REMARK H PARENT 5 6 10 22 69 41 37 52
REMARK Flexibility Score: inf
ROOT
ATOM      1  C   UNL A   1      31.839  30.404  26.853  1.00  0.00     0.023 C 
ENDROOT
BRANCH   1   2
ATOM      2  C   UNL A   1      33.269  29.955  26.576  1.00  0.00     0.116 C 
BRANCH   2   3
ATOM      3  N   UNL A   1      33.552  29.813  25.160  1.00  0.00    -0.356 N 
ATOM      4  C   UNL A   1      33.248  28.920  24.189  1.00  0.00     0.224 C 
ATOM      5  O   UNL A   1      33.631  29.248  23.057  1.00  0.00    -0.275 OA
ATOM      6  H   UNL A   1      34.106  30.552  24.819  1.00  0.00     0.163 HD
BRANCH   4   7
ATOM      7  C   UNL A   1      32.597  27.537  24.368  1.00  0.00     0.091 C 
ATOM      8  C   UNL A   1      33.533  26.714  25.262  1.00  0.00     0.019 C 
BRANCH   7   9
ATOM      9  C   UNL A   1      31.115  27.495  24.773  1.00  0.00     0.094 C 
ATOM     10  C   UNL A   1      30.780  26.539  25.918  1.00  0.00     0.023 C 
BRANCH   9  11
ATOM     11  S   UNL A   1      29.930  27.345  23.362  1.00  0.00     0.067 S 
ATOM     12  O   UNL A   1      28.919  26.321  23.786  1.00  0.00    -0.253 OA
BRANCH  11  13
ATOM     13  C   UNL A   1      29.156  28.901  23.371  1.00  0.00     0.091 A 
ATOM     14  C   UNL A   1      29.807  30.062  23.727  1.00  0.00     0.029 A 
ATOM     15  S   UNL A   1      27.581  29.192  22.798  1.00  0.00    -0.135 S 
ATOM     16  C   UNL A   1      28.973  31.208  23.562  1.00  0.00     0.013 A 
ATOM     17  C   UNL A   1      27.724  30.871  23.091  1.00  0.00     0.066 A 
ENDBRANCH  11  13
ENDBRANCH   9  11
ENDBRANCH   7   9
ENDBRANCH   4   7
ENDBRANCH   2   3
ENDBRANCH   1   2
BRANCH   1  18
ATOM     18  C   UNL A   1      31.621  31.913  26.805  1.00  0.00     0.023 C 
BRANCH  18  19
ATOM     19  C   UNL A   1      32.791  32.766  27.291  1.00  0.00     0.116 C 
BRANCH  19  20
ATOM     20  N   UNL A   1      32.429  34.131  27.648  1.00  0.00    -0.352 N 
ATOM     21  C   UNL A   1      33.020  34.954  28.581  1.00  0.00     0.251 C 
ATOM     22  H   UNL A   1      31.665  34.514  27.160  1.00  0.00     0.163 HD
ATOM     23  O   UNL A   1      32.570  36.066  28.813  1.00  0.00    -0.269 OA
BRANCH  21  24
ATOM     24  C   UNL A   1      34.182  34.444  29.335  1.00  0.00     0.039 A 
ATOM     25  C   UNL A   1      33.959  33.765  30.534  1.00  0.00     0.014 A 
ATOM     26  C   UNL A   1      35.470  34.563  28.810  1.00  0.00     0.014 A 
ATOM     27  C   UNL A   1      35.025  33.124  31.166  1.00  0.00     0.010 A 
ATOM     28  C   UNL A   1      36.514  33.862  29.399  1.00  0.00     0.010 A 
ATOM     29  C   UNL A   1      36.301  33.131  30.578  1.00  0.00    -0.014 A 
BRANCH  29  30
ATOM     30  C   UNL A   1      37.427  32.372  31.174  1.00  0.00     0.031 A 
ATOM     31  C   UNL A   1      37.923  32.726  32.546  1.00  0.00     0.074 A 
ATOM     32  C   UNL A   1      38.052  31.425  30.448  1.00  0.00     0.049 A 
ATOM     33  N   UNL A   1      38.944  32.244  33.207  1.00  0.00    -0.248 NA
ATOM     34  C   UNL A   1      37.194  33.790  33.255  1.00  0.00     0.031 C 
ATOM     35  C   UNL A   1      37.701  31.034  29.082  1.00  0.00     0.029 A 
ATOM     36  N   UNL A   1      39.126  30.628  30.756  1.00  0.00    -0.354 N 
ATOM     37  C   UNL A   1      38.992  32.960  34.395  1.00  0.00     0.074 A 
ATOM     38  C   UNL A   1      37.934  33.946  34.342  1.00  0.00     0.031 C 
ATOM     39  C   UNL A   1      38.526  30.056  28.679  1.00  0.00     0.029 A 
ATOM     40  C   UNL A   1      39.485  29.773  29.742  1.00  0.00     0.049 A 
ATOM     41  H   UNL A   1      39.594  30.665  31.620  1.00  0.00     0.167 HD
ATOM     42  C   UNL A   1      39.828  32.793  35.448  1.00  0.00     0.037 A 
ATOM     43  C   UNL A   1      40.477  28.864  29.681  1.00  0.00     0.037 A 
ATOM     44  C   UNL A   1      40.855  31.788  35.511  1.00  0.00     0.049 A 
ATOM     45  C   UNL A   1      41.380  28.685  30.870  1.00  0.00     0.074 A 
ATOM     46  C   UNL A   1      41.706  31.487  36.559  1.00  0.00     0.029 A 
ATOM     47  N   UNL A   1      41.168  30.918  34.478  1.00  0.00    -0.354 N 
ATOM     48  N   UNL A   1      41.369  29.316  32.020  1.00  0.00    -0.248 NA
ATOM     49  C   UNL A   1      42.428  27.661  30.757  1.00  0.00     0.031 C 
ATOM     50  C   UNL A   1      42.560  30.460  36.147  1.00  0.00     0.029 A 
ATOM     51  C   UNL A   1      42.213  30.091  34.857  1.00  0.00     0.049 A 
ATOM     52  H   UNL A   1      40.716  30.891  33.604  1.00  0.00     0.167 HD
ATOM     53  C   UNL A   1      42.388  28.750  32.774  1.00  0.00     0.074 A 
ATOM     54  C   UNL A   1      42.989  27.717  31.957  1.00  0.00     0.031 C 
ATOM     55  C   UNL A   1      42.790  29.061  34.031  1.00  0.00     0.037 A 
BRANCH  42  56
ATOM     56  C   UNL A   1      39.654  33.717  36.617  1.00  0.00     0.064 A 
ATOM     57  C   UNL A   1      38.854  33.369  37.717  1.00  0.00     0.173 A 
ATOM     58  C   UNL A   1      40.302  34.961  36.646  1.00  0.00     0.173 A 
ATOM     59  F   UNL A   1      38.201  32.197  37.733  1.00  0.00    -0.203 F 
ATOM     60  C   UNL A   1      38.680  34.246  38.784  1.00  0.00     0.198 A 
ATOM     61  C   UNL A   1      40.152  35.822  37.730  1.00  0.00     0.198 A 
ATOM     62  F   UNL A   1      41.082  35.341  35.623  1.00  0.00    -0.203 F 
ATOM     63  F   UNL A   1      37.865  33.915  39.796  1.00  0.00    -0.200 F 
ATOM     64  C   UNL A   1      39.334  35.469  38.792  1.00  0.00     0.200 A 
ATOM     65  F   UNL A   1      40.791  37.000  37.742  1.00  0.00    -0.200 F 
ATOM     66  F   UNL A   1      39.166  36.312  39.820  1.00  0.00    -0.200 F 
ENDBRANCH  42  56
BRANCH  43  67
ATOM     67  C   UNL A   1      40.641  28.028  28.465  1.00  0.00     0.064 A 
ATOM     68  C   UNL A   1      41.421  28.475  27.389  1.00  0.00     0.173 A 
ATOM     69  C   UNL A   1      40.031  26.771  28.352  1.00  0.00     0.173 A 
ATOM     70  F   UNL A   1      42.008  29.680  27.445  1.00  0.00    -0.203 F 
ATOM     71  C   UNL A   1      41.573  27.703  26.240  1.00  0.00     0.198 A 
ATOM     72  C   UNL A   1      40.205  25.989  27.211  1.00  0.00     0.198 A 
ATOM     73  F   UNL A   1      39.280  26.296  29.355  1.00  0.00    -0.203 F 
ATOM     74  F   UNL A   1      42.295  28.171  25.212  1.00  0.00    -0.200 F 
ATOM     75  C   UNL A   1      40.970  26.458  26.154  1.00  0.00     0.200 A 
ATOM     76  F   UNL A   1      39.631  24.779  27.137  1.00  0.00    -0.200 F 
ATOM     77  F   UNL A   1      41.122  25.713  25.051  1.00  0.00    -0.200 F 
ENDBRANCH  43  67
BRANCH  55  78
ATOM     78  C   UNL A   1      43.911  28.251  34.612  1.00  0.00     0.064 A 
ATOM     79  C   UNL A   1      43.673  27.045  35.286  1.00  0.00     0.173 A 
ATOM     80  C   UNL A   1      45.242  28.667  34.455  1.00  0.00     0.173 A 
ATOM     81  F   UNL A   1      42.416  26.614  35.476  1.00  0.00    -0.203 F 
ATOM     82  C   UNL A   1      44.726  26.293  35.800  1.00  0.00     0.198 A 
ATOM     83  C   UNL A   1      46.294  27.899  34.945  1.00  0.00     0.198 A 
ATOM     84  F   UNL A   1      45.522  29.811  33.813  1.00  0.00    -0.203 F 
ATOM     85  F   UNL A   1      44.474  25.165  36.477  1.00  0.00    -0.200 F 
ATOM     86  C   UNL A   1      46.035  26.717  35.622  1.00  0.00     0.200 A 
ATOM     87  F   UNL A   1      47.559  28.303  34.762  1.00  0.00    -0.200 F 
ATOM     88  F   UNL A   1      47.049  25.988  36.110  1.00  0.00    -0.200 F 
ENDBRANCH  55  78
ENDBRANCH  29  30
ENDBRANCH  21  24
ENDBRANCH  19  20
ENDBRANCH  18  19
ENDBRANCH   1  18
TORSDOF 14
ENDMDL
MODEL 2
REMARK VINA RESULT:     -11.6      0.556      7.631
REMARK SMILES C[C@H](C(=O)NCCCCNC(=O)c1ccc(-c2c3nc(c(-c4c(F)c(F)c(F)c(F)c4F)c4ccc([nH]4)c(-c4c(F)c(F)c(F)c(F)c4F)c4nc(c(-c5c(F)c(F)c(F)c(F)c5F)c5ccc2[nH]5)C=C4)C=C3)cc1)[C@H](C)[S@@](=O)c1cccs1
REMARK SMILES IDX 7 1 6 2 5 3 3 4 4 5 2 7 1 8 76 9 77 10 78 11 79 12 80 13
REMARK SMILES IDX 81 14 84 15 82 16 83 17 8 18 9 19 10 20 11 21 12 23 13 24
REMARK SMILES IDX 14 25 75 26 15 27 74 28 16 29 17 30 18 31 68 32 19 33 73 34
REMARK SMILES IDX 67 35 69 36 20 37 72 38 66 39 65 40 21 42 53 43 33 44 52 45
REMARK SMILES IDX 34 46 37 47 51 48 70 49 35 50 36 51 50 53 71 54 38 55 22 56
REMARK SMILES IDX 23 57 31 58 24 59 25 60 29 61 32 62 26 63 27 64 30 65 28 66
REMARK SMILES IDX 54 67 55 68 63 69 56 70 57 71 61 72 64 73 58 74 59 75 62 76
REMARK SMILES IDX 60 77 39 78 40 79 48 80 41 81 42 82 46 83 49 84 43 85 44 86
REMARK SMILES IDX 47 87 45 88
REMARK H PARENT 5 6 10 22 69 41 37 52
REMARK Flexibility Score: inf
ROOT
ATOM      1  C   UNL A   1      32.100  30.059  27.134  1.00  0.00     0.023 C 
ENDROOT
BRANCH   1   2
ATOM      2  C   UNL A   1      33.436  29.464  26.708  1.00  0.00     0.116 C 
BRANCH   2   3
ATOM      3  N   UNL A   1      33.656  29.536  25.276  1.00  0.00    -0.356 N 
ATOM      4  C   UNL A   1      33.252  28.834  24.191  1.00  0.00     0.224 C 
ATOM      5  O   UNL A   1      33.616  29.316  23.108  1.00  0.00    -0.275 OA
ATOM      6  H   UNL A   1      34.249  30.283  25.031  1.00  0.00     0.163 HD
BRANCH   4   7
ATOM      7  C   UNL A   1      32.510  27.486  24.178  1.00  0.00     0.091 C 
ATOM      8  C   UNL A   1      33.433  26.460  24.849  1.00  0.00     0.019 C 
BRANCH   7   9
ATOM      9  C   UNL A   1      31.056  27.469  24.678  1.00  0.00     0.094 C 
ATOM     10  C   UNL A   1      30.778  26.515  25.840  1.00  0.00     0.023 C 
BRANCH   9  11
ATOM     11  S   UNL A   1      29.781  27.346  23.345  1.00  0.00     0.067 S 
ATOM     12  O   UNL A   1      28.739  26.399  23.865  1.00  0.00    -0.253 OA
BRANCH  11  13
ATOM     13  C   UNL A   1      29.102  28.945  23.343  1.00  0.00     0.091 A 
ATOM     14  C   UNL A   1      29.795  30.057  23.771  1.00  0.00     0.029 A 
ATOM     15  S   UNL A   1      27.589  29.343  22.676  1.00  0.00    -0.135 S 
ATOM     16  C   UNL A   1      29.044  31.254  23.581  1.00  0.00     0.013 A 
ATOM     17  C   UNL A   1      27.811  31.004  23.020  1.00  0.00     0.066 A 
ENDBRANCH  11  13
ENDBRANCH   9  11
ENDBRANCH   7   9
ENDBRANCH   4   7
ENDBRANCH   2   3
ENDBRANCH   1   2
BRANCH   1  18
ATOM     18  C   UNL A   1      31.916  31.535  26.788  1.00  0.00     0.023 C 
BRANCH  18  19
ATOM     19  C   UNL A   1      32.992  32.477  27.322  1.00  0.00     0.116 C 
BRANCH  19  20
ATOM     20  N   UNL A   1      32.523  33.829  27.594  1.00  0.00    -0.352 N 
ATOM     21  C   UNL A   1      33.018  34.736  28.505  1.00  0.00     0.251 C 
ATOM     22  H   UNL A   1      31.754  34.132  27.061  1.00  0.00     0.163 HD
ATOM     23  O   UNL A   1      32.483  35.824  28.663  1.00  0.00    -0.269 OA
BRANCH  21  24
ATOM     24  C   UNL A   1      34.182  34.349  29.325  1.00  0.00     0.039 A 
ATOM     25  C   UNL A   1      33.960  33.705  30.544  1.00  0.00     0.014 A 
ATOM     26  C   UNL A   1      35.478  34.544  28.845  1.00  0.00     0.014 A 
ATOM     27  C   UNL A   1      35.043  33.174  31.244  1.00  0.00     0.010 A 
ATOM     28  C   UNL A   1      36.547  33.949  29.505  1.00  0.00     0.010 A 
ATOM     29  C   UNL A   1      36.339  33.253  30.706  1.00  0.00    -0.014 A 
BRANCH  29  30
ATOM     30  C   UNL A   1      37.492  32.608  31.378  1.00  0.00     0.031 A 
ATOM     31  C   UNL A   1      38.198  31.462  30.713  1.00  0.00     0.074 A 
ATOM     32  C   UNL A   1      37.847  32.998  32.617  1.00  0.00     0.049 A 
ATOM     33  N   UNL A   1      39.169  30.711  31.168  1.00  0.00    -0.248 NA
ATOM     34  C   UNL A   1      37.727  31.088  29.370  1.00  0.00     0.031 C 
ATOM     35  C   UNL A   1      37.199  34.059  33.390  1.00  0.00     0.029 A 
ATOM     36  N   UNL A   1      38.835  32.537  33.451  1.00  0.00    -0.354 N 
ATOM     37  C   UNL A   1      39.406  29.766  30.179  1.00  0.00     0.074 A 
ATOM     38  C   UNL A   1      38.444  30.002  29.125  1.00  0.00     0.031 C 
ATOM     39  C   UNL A   1      37.820  34.184  34.573  1.00  0.00     0.029 A 
ATOM     40  C   UNL A   1      38.888  33.192  34.656  1.00  0.00     0.049 A 
ATOM     41  H   UNL A   1      39.448  31.807  33.207  1.00  0.00     0.167 HD
ATOM     42  C   UNL A   1      40.358  28.803  30.142  1.00  0.00     0.037 A 
ATOM     43  C   UNL A   1      39.708  33.011  35.710  1.00  0.00     0.037 A 
ATOM     44  C   UNL A   1      41.336  28.596  31.177  1.00  0.00     0.049 A 
ATOM     45  C   UNL A   1      40.769  31.948  35.637  1.00  0.00     0.074 A 
ATOM     46  C   UNL A   1      42.388  27.698  31.204  1.00  0.00     0.029 A 
ATOM     47  N   UNL A   1      41.379  29.301  32.371  1.00  0.00    -0.354 N 
ATOM     48  N   UNL A   1      41.034  31.108  34.665  1.00  0.00    -0.248 NA
ATOM     49  C   UNL A   1      41.652  31.812  36.804  1.00  0.00     0.031 C 
ATOM     50  C   UNL A   1      43.045  27.833  32.431  1.00  0.00     0.029 A 
ATOM     51  C   UNL A   1      42.430  28.846  33.151  1.00  0.00     0.049 A 
ATOM     52  H   UNL A   1      40.756  30.019  32.627  1.00  0.00     0.167 HD
ATOM     53  C   UNL A   1      42.126  30.364  35.091  1.00  0.00     0.074 A 
ATOM     54  C   UNL A   1      42.482  30.860  36.404  1.00  0.00     0.031 C 
ATOM     55  C   UNL A   1      42.773  29.360  34.452  1.00  0.00     0.037 A 
BRANCH  42  56
ATOM     56  C   UNL A   1      40.387  27.911  28.937  1.00  0.00     0.064 A 
ATOM     57  C   UNL A   1      41.128  28.244  27.793  1.00  0.00     0.173 A 
ATOM     58  C   UNL A   1      39.676  26.702  28.928  1.00  0.00     0.173 A 
ATOM     59  F   UNL A   1      41.815  29.396  27.745  1.00  0.00    -0.203 F 
ATOM     60  C   UNL A   1      41.126  27.419  26.671  1.00  0.00     0.198 A 
ATOM     61  C   UNL A   1      39.701  25.864  27.816  1.00  0.00     0.198 A 
ATOM     62  F   UNL A   1      38.954  26.333  29.997  1.00  0.00    -0.203 F 
ATOM     63  F   UNL A   1      41.795  27.788  25.569  1.00  0.00    -0.200 F 
ATOM     64  C   UNL A   1      40.418  26.227  26.686  1.00  0.00     0.200 A 
ATOM     65  F   UNL A   1      39.025  24.707  27.834  1.00  0.00    -0.200 F 
ATOM     66  F   UNL A   1      40.418  25.434  25.606  1.00  0.00    -0.200 F 
ENDBRANCH  42  56
BRANCH  43  67
ATOM     67  C   UNL A   1      39.582  33.883  36.905  1.00  0.00     0.064 A 
ATOM     68  C   UNL A   1      40.212  35.135  36.947  1.00  0.00     0.173 A 
ATOM     69  C   UNL A   1      38.829  33.493  38.021  1.00  0.00     0.173 A 
ATOM     70  F   UNL A   1      40.959  35.541  35.909  1.00  0.00    -0.203 F 
ATOM     71  C   UNL A   1      40.108  35.956  38.067  1.00  0.00     0.198 A 
ATOM     72  C   UNL A   1      38.706  34.327  39.131  1.00  0.00     0.198 A 
ATOM     73  F   UNL A   1      38.202  32.308  38.028  1.00  0.00    -0.203 F 
ATOM     74  F   UNL A   1      40.752  37.131  38.095  1.00  0.00    -0.200 F 
ATOM     75  C   UNL A   1      39.350  35.555  39.156  1.00  0.00     0.200 A 
ATOM     76  F   UNL A   1      37.961  33.941  40.177  1.00  0.00    -0.200 F 
ATOM     77  F   UNL A   1      39.245  36.348  40.230  1.00  0.00    -0.200 F 
ENDBRANCH  43  67
BRANCH  55  78
ATOM     78  C   UNL A   1      43.955  28.752  35.149  1.00  0.00     0.064 A 
ATOM     79  C   UNL A   1      45.250  29.264  34.981  1.00  0.00     0.173 A 
ATOM     80  C   UNL A   1      43.781  27.673  36.028  1.00  0.00     0.173 A 
ATOM     81  F   UNL A   1      45.468  30.286  34.138  1.00  0.00    -0.203 F 
ATOM     82  C   UNL A   1      46.332  28.703  35.653  1.00  0.00     0.198 A 
ATOM     83  C   UNL A   1      44.862  27.132  36.719  1.00  0.00     0.198 A 
ATOM     84  F   UNL A   1      42.562  27.151  36.227  1.00  0.00    -0.203 F 
ATOM     85  F   UNL A   1      47.567  29.181  35.446  1.00  0.00    -0.200 F 
ATOM     86  C   UNL A   1      46.136  27.644  36.527  1.00  0.00     0.200 A 
ATOM     87  F   UNL A   1      44.670  26.117  37.573  1.00  0.00    -0.200 F 
ATOM     88  F   UNL A   1      47.179  27.111  37.179  1.00  0.00    -0.200 F 
ENDBRANCH  55  78
ENDBRANCH  29  30
ENDBRANCH  21  24
ENDBRANCH  19  20
ENDBRANCH  18  19
ENDBRANCH   1  18
TORSDOF 14
ENDMDL
MODEL 3
REMARK VINA RESULT:     -11.5      0.718      2.159
REMARK SMILES C[C@H](C(=O)NCCCCNC(=O)c1ccc(-c2c3nc(c(-c4c(F)c(F)c(F)c(F)c4F)c4ccc([nH]4)c(-c4c(F)c(F)c(F)c(F)c4F)c4nc(c(-c5c(F)c(F)c(F)c(F)c5F)c5ccc2[nH]5)C=C4)C=C3)cc1)[C@H](C)[S@@](=O)c1cccs1
REMARK SMILES IDX 7 1 6 2 5 3 3 4 4 5 2 7 1 8 76 9 77 10 78 11 79 12 80 13
REMARK SMILES IDX 81 14 84 15 82 16 83 17 8 18 9 19 10 20 11 21 12 23 13 24
REMARK SMILES IDX 14 25 75 26 15 27 74 28 16 29 17 30 18 31 68 32 19 33 73 34
REMARK SMILES IDX 67 35 69 36 20 37 72 38 66 39 65 40 21 42 53 43 33 44 52 45
REMARK SMILES IDX 34 46 37 47 51 48 70 49 35 50 36 51 50 53 71 54 38 55 22 56
REMARK SMILES IDX 23 57 31 58 24 59 25 60 29 61 32 62 26 63 27 64 30 65 28 66
REMARK SMILES IDX 54 67 55 68 63 69 56 70 57 71 61 72 64 73 58 74 59 75 62 76
REMARK SMILES IDX 60 77 39 78 40 79 48 80 41 81 42 82 46 83 49 84 43 85 44 86
REMARK SMILES IDX 47 87 45 88
REMARK H PARENT 5 6 10 22 69 41 37 52
REMARK Flexibility Score: inf
ROOT
ATOM      1  C   UNL A   1      31.985  30.467  27.140  1.00  0.00     0.023 C 
ENDROOT
BRANCH   1   2
ATOM      2  C   UNL A   1      33.461  30.093  27.220  1.00  0.00     0.116 C 
BRANCH   2   3
ATOM      3  N   UNL A   1      33.737  28.770  26.692  1.00  0.00    -0.356 N 
ATOM      4  C   UNL A   1      33.694  28.177  25.475  1.00  0.00     0.224 C 
ATOM      5  O   UNL A   1      34.118  27.013  25.462  1.00  0.00    -0.275 OA
ATOM      6  H   UNL A   1      34.030  28.147  27.395  1.00  0.00     0.163 HD
BRANCH   4   7
ATOM      7  C   UNL A   1      33.085  28.748  24.183  1.00  0.00     0.091 C 
ATOM      8  C   UNL A   1      33.844  28.114  23.011  1.00  0.00     0.019 C 
BRANCH   7   9
ATOM      9  C   UNL A   1      31.554  28.724  24.047  1.00  0.00     0.094 C 
ATOM     10  C   UNL A   1      30.857  27.549  24.734  1.00  0.00     0.023 C 
BRANCH   9  11
ATOM     11  S   UNL A   1      30.924  29.011  22.333  1.00  0.00     0.067 S 
ATOM     12  O   UNL A   1      30.398  27.686  21.865  1.00  0.00    -0.253 OA
BRANCH  11  13
ATOM     13  C   UNL A   1      29.567  30.060  22.614  1.00  0.00     0.091 A 
ATOM     14  C   UNL A   1      29.412  30.793  23.771  1.00  0.00     0.029 A 
ATOM     15  S   UNL A   1      28.377  30.421  21.454  1.00  0.00    -0.135 S 
ATOM     16  C   UNL A   1      28.264  31.638  23.711  1.00  0.00     0.013 A 
ATOM     17  C   UNL A   1      27.594  31.511  22.514  1.00  0.00     0.066 A 
ENDBRANCH  11  13
ENDBRANCH   9  11
ENDBRANCH   7   9
ENDBRANCH   4   7
ENDBRANCH   2   3
ENDBRANCH   1   2
BRANCH   1  18
ATOM     18  C   UNL A   1      31.712  31.947  26.892  1.00  0.00     0.023 C 
BRANCH  18  19
ATOM     19  C   UNL A   1      32.865  32.895  27.213  1.00  0.00     0.116 C 
BRANCH  19  20
ATOM     20  N   UNL A   1      32.448  34.226  27.632  1.00  0.00    -0.352 N 
ATOM     21  C   UNL A   1      32.983  35.014  28.627  1.00  0.00     0.251 C 
ATOM     22  H   UNL A   1      31.685  34.611  27.144  1.00  0.00     0.163 HD
ATOM     23  O   UNL A   1      32.490  36.097  28.906  1.00  0.00    -0.269 OA
BRANCH  21  24
ATOM     24  C   UNL A   1      34.140  34.501  29.387  1.00  0.00     0.039 A 
ATOM     25  C   UNL A   1      33.909  33.810  30.577  1.00  0.00     0.014 A 
ATOM     26  C   UNL A   1      35.432  34.629  28.874  1.00  0.00     0.014 A 
ATOM     27  C   UNL A   1      34.971  33.167  31.212  1.00  0.00     0.010 A 
ATOM     28  C   UNL A   1      36.474  33.925  29.466  1.00  0.00     0.010 A 
ATOM     29  C   UNL A   1      36.252  33.182  30.636  1.00  0.00    -0.014 A 
BRANCH  29  30
ATOM     30  C   UNL A   1      37.375  32.422  31.235  1.00  0.00     0.031 A 
ATOM     31  C   UNL A   1      37.874  32.781  32.604  1.00  0.00     0.074 A 
ATOM     32  C   UNL A   1      37.996  31.468  30.514  1.00  0.00     0.049 A 
ATOM     33  N   UNL A   1      38.894  32.298  33.267  1.00  0.00    -0.248 NA
ATOM     34  C   UNL A   1      37.152  33.853  33.308  1.00  0.00     0.031 C 
ATOM     35  C   UNL A   1      37.640  31.071  29.150  1.00  0.00     0.029 A 
ATOM     36  N   UNL A   1      39.066  30.667  30.824  1.00  0.00    -0.354 N 
ATOM     37  C   UNL A   1      38.947  33.020  34.451  1.00  0.00     0.074 A 
ATOM     38  C   UNL A   1      37.894  34.010  34.394  1.00  0.00     0.031 C 
ATOM     39  C   UNL A   1      38.460  30.087  28.751  1.00  0.00     0.029 A 
ATOM     40  C   UNL A   1      39.419  29.805  29.815  1.00  0.00     0.049 A 
ATOM     41  H   UNL A   1      39.535  30.706  31.688  1.00  0.00     0.167 HD
ATOM     42  C   UNL A   1      39.783  32.855  35.504  1.00  0.00     0.037 A 
ATOM     43  C   UNL A   1      40.407  28.891  29.758  1.00  0.00     0.037 A 
ATOM     44  C   UNL A   1      40.806  31.845  35.572  1.00  0.00     0.049 A 
ATOM     45  C   UNL A   1      41.310  28.714  30.947  1.00  0.00     0.074 A 
ATOM     46  C   UNL A   1      41.656  31.546  36.620  1.00  0.00     0.029 A 
ATOM     47  N   UNL A   1      41.113  30.968  34.543  1.00  0.00    -0.354 N 
ATOM     48  N   UNL A   1      41.304  29.351  32.093  1.00  0.00    -0.248 NA
ATOM     49  C   UNL A   1      42.353  27.685  30.839  1.00  0.00     0.031 C 
ATOM     50  C   UNL A   1      42.505  30.512  36.213  1.00  0.00     0.029 A 
ATOM     51  C   UNL A   1      42.154  30.138  34.925  1.00  0.00     0.049 A 
ATOM     52  H   UNL A   1      40.660  30.939  33.669  1.00  0.00     0.167 HD
ATOM     53  C   UNL A   1      42.321  28.785  32.850  1.00  0.00     0.074 A 
ATOM     54  C   UNL A   1      42.916  27.744  32.038  1.00  0.00     0.031 C 
ATOM     55  C   UNL A   1      42.726  29.101  34.104  1.00  0.00     0.037 A 
BRANCH  42  56
ATOM     56  C   UNL A   1      39.615  33.786  36.669  1.00  0.00     0.064 A 
ATOM     57  C   UNL A   1      40.254  35.035  36.710  1.00  0.00     0.173 A 
ATOM     58  C   UNL A   1      38.797  33.432  37.752  1.00  0.00     0.173 A 
ATOM     59  F   UNL A   1      41.057  35.415  35.705  1.00  0.00    -0.203 F 
ATOM     60  C   UNL A   1      40.110  35.879  37.808  1.00  0.00     0.198 A 
ATOM     61  C   UNL A   1      38.630  34.292  38.834  1.00  0.00     0.198 A 
ATOM     62  F   UNL A   1      38.160  32.252  37.762  1.00  0.00    -0.203 F 
ATOM     63  F   UNL A   1      40.776  37.041  37.849  1.00  0.00    -0.200 F 
ATOM     64  C   UNL A   1      39.294  35.509  38.866  1.00  0.00     0.200 A 
ATOM     65  F   UNL A   1      37.834  33.939  39.853  1.00  0.00    -0.200 F 
ATOM     66  F   UNL A   1      39.156  36.323  39.922  1.00  0.00    -0.200 F 
ENDBRANCH  42  56
BRANCH  43  67
ATOM     67  C   UNL A   1      40.565  28.048  28.546  1.00  0.00     0.064 A 
ATOM     68  C   UNL A   1      39.943  26.794  28.461  1.00  0.00     0.173 A 
ATOM     69  C   UNL A   1      41.331  28.473  27.451  1.00  0.00     0.173 A 
ATOM     70  F   UNL A   1      39.217  26.337  29.493  1.00  0.00    -0.203 F 
ATOM     71  C   UNL A   1      40.094  25.991  27.333  1.00  0.00     0.198 A 
ATOM     72  C   UNL A   1      41.460  27.678  26.313  1.00  0.00     0.198 A 
ATOM     73  F   UNL A   1      41.940  29.666  27.481  1.00  0.00    -0.203 F 
ATOM     74  F   UNL A   1      39.519  24.781  27.294  1.00  0.00    -0.200 F 
ATOM     75  C   UNL A   1      40.847  26.436  26.258  1.00  0.00     0.200 A 
ATOM     76  F   UNL A   1      42.177  28.118  25.270  1.00  0.00    -0.200 F 
ATOM     77  F   UNL A   1      40.986  25.666  25.171  1.00  0.00    -0.200 F 
ENDBRANCH  43  67
BRANCH  55  78
ATOM     78  C   UNL A   1      43.844  28.289  34.689  1.00  0.00     0.064 A 
ATOM     79  C   UNL A   1      45.177  28.717  34.618  1.00  0.00     0.173 A 
ATOM     80  C   UNL A   1      43.570  27.091  35.367  1.00  0.00     0.173 A 
ATOM     81  F   UNL A   1      45.489  29.848  33.966  1.00  0.00    -0.203 F 
ATOM     82  C   UNL A   1      46.201  27.964  35.187  1.00  0.00     0.198 A 
ATOM     83  C   UNL A   1      44.593  26.355  35.959  1.00  0.00     0.198 A 
ATOM     84  F   UNL A   1      42.311  26.642  35.467  1.00  0.00    -0.203 F 
ATOM     85  F   UNL A   1      47.472  28.369  35.071  1.00  0.00    -0.200 F 
ATOM     86  C   UNL A   1      45.906  26.789  35.863  1.00  0.00     0.200 A 
ATOM     87  F   UNL A   1      44.307  25.226  36.622  1.00  0.00    -0.200 F 
ATOM     88  F   UNL A   1      46.893  26.069  36.417  1.00  0.00    -0.200 F 
ENDBRANCH  55  78
ENDBRANCH  29  30
ENDBRANCH  21  24
ENDBRANCH  19  20
ENDBRANCH  18  19
ENDBRANCH   1  18
TORSDOF 14
ENDMDL
