MODEL 1
REMARK VINA RESULT:     -13.4      0.000      0.000
REMARK SMILES NC(=O)c1ccc(NC(=O)Cc2ccccc2C(=O)NCCCCNC(=O)c2ccc(-c3c4nc(c(-c5c(F)c(F)c(F)c(F)c5F)c5ccc([nH]5)c(-c5c(F)c(F)c(F)c(F)c5F)c5nc(c(-c6c(F)c(F)c(F)c(F)c6F)c6ccc3[nH]6)C=C5)C=C4)cc2)cc1
REMARK SMILES IDX 21 1 20 2 18 3 19 4 17 6 12 7 13 8 14 9 16 10 15 11 11 12
REMARK SMILES IDX 9 13 8 14 10 16 7 17 4 18 5 19 92 20 6 21 91 22 2 23 1 24
REMARK SMILES IDX 3 27 22 28 23 29 24 30 25 31 26 32 27 34 28 35 29 36 90 37
REMARK SMILES IDX 30 38 89 39 31 40 32 41 33 42 83 43 34 44 88 45 82 46 84 47
REMARK SMILES IDX 35 48 87 49 81 50 80 51 36 53 68 54 48 55 67 56 49 57 52 58
REMARK SMILES IDX 66 59 85 60 50 61 51 62 65 64 86 65 53 66 37 67 38 68 46 69
REMARK SMILES IDX 39 70 40 71 44 72 47 73 41 74 42 75 45 76 43 77 69 78 70 79
REMARK SMILES IDX 78 80 71 81 72 82 76 83 79 84 73 85 74 86 77 87 75 88 54 89
REMARK SMILES IDX 55 90 63 91 56 92 57 93 61 94 64 95 58 96 59 97 62 98 60 99
REMARK H PARENT 20 5 8 15 1 25 1 26 25 33 84 52 52 63
REMARK Flexibility Score: inf
ROOT
ATOM      1  C   UNL A   1      33.309  30.009  26.486  1.00  0.00     0.116 C 
ENDROOT
BRANCH   1   2
ATOM      2  N   UNL A   1      33.496  29.338  25.209  1.00  0.00    -0.352 N 
ATOM      3  C   UNL A   1      33.530  28.109  24.620  1.00  0.00     0.251 C 
ATOM      4  O   UNL A   1      33.783  28.186  23.409  1.00  0.00    -0.269 OA
ATOM      5  H   UNL A   1      33.657  30.020  24.517  1.00  0.00     0.163 HD
BRANCH   3   6
ATOM      6  C   UNL A   1      33.242  26.728  25.171  1.00  0.00     0.043 A 
ATOM      7  C   UNL A   1      32.039  26.102  25.578  1.00  0.00    -0.026 A 
ATOM      8  C   UNL A   1      32.102  24.816  26.176  1.00  0.00     0.005 A 
ATOM      9  C   UNL A   1      33.293  24.106  26.285  1.00  0.00     0.000 A 
ATOM     10  C   UNL A   1      34.425  25.942  25.240  1.00  0.00     0.014 A 
ATOM     11  C   UNL A   1      34.453  24.655  25.777  1.00  0.00     0.001 A 
BRANCH   7  12
ATOM     12  C   UNL A   1      30.654  26.669  25.471  1.00  0.00     0.136 C 
BRANCH  12  13
ATOM     13  C   UNL A   1      29.834  26.394  24.201  1.00  0.00     0.228 C 
ATOM     14  N   UNL A   1      29.196  27.270  23.371  1.00  0.00    -0.326 N 
ATOM     15  H   UNL A   1      28.692  26.793  22.674  1.00  0.00     0.169 HD
ATOM     16  O   UNL A   1      29.648  25.199  23.902  1.00  0.00    -0.274 OA
BRANCH  14  17
ATOM     17  C   UNL A   1      29.057  28.665  23.231  1.00  0.00     0.041 A 
ATOM     18  C   UNL A   1      28.725  31.457  22.866  1.00  0.00     0.039 A 
ATOM     19  C   UNL A   1      29.932  30.941  23.303  1.00  0.00     0.016 A 
ATOM     20  C   UNL A   1      27.661  30.584  22.620  1.00  0.00     0.016 A 
ATOM     21  C   UNL A   1      30.062  29.568  23.494  1.00  0.00     0.027 A 
ATOM     22  C   UNL A   1      27.834  29.194  22.793  1.00  0.00     0.027 A 
BRANCH  18  23
ATOM     23  C   UNL A   1      28.657  32.921  22.681  1.00  0.00     0.248 C 
ATOM     24  N   UNL A   1      29.553  33.673  23.381  1.00  0.00    -0.366 N 
ATOM     25  H   UNL A   1      29.549  34.653  23.291  1.00  0.00     0.159 HD
ATOM     26  H   UNL A   1      30.205  33.236  23.974  1.00  0.00     0.159 HD
ATOM     27  O   UNL A   1      27.883  33.427  21.880  1.00  0.00    -0.270 OA
ENDBRANCH  18  23
ENDBRANCH  14  17
ENDBRANCH  12  13
ENDBRANCH   7  12
ENDBRANCH   3   6
ENDBRANCH   1   2
BRANCH   1  28
ATOM     28  C   UNL A   1      31.838  30.411  26.656  1.00  0.00     0.023 C 
BRANCH  28  29
ATOM     29  C   UNL A   1      31.642  31.924  26.680  1.00  0.00     0.023 C 
BRANCH  29  30
ATOM     30  C   UNL A   1      32.773  32.676  27.367  1.00  0.00     0.116 C 
BRANCH  30  31
ATOM     31  N   UNL A   1      32.439  34.071  27.618  1.00  0.00    -0.352 N 
ATOM     32  C   UNL A   1      32.960  34.925  28.563  1.00  0.00     0.251 C 
ATOM     33  H   UNL A   1      31.746  34.455  27.033  1.00  0.00     0.163 HD
ATOM     34  O   UNL A   1      32.451  36.023  28.768  1.00  0.00    -0.269 OA
BRANCH  32  35
ATOM     35  C   UNL A   1      34.125  34.493  29.365  1.00  0.00     0.039 A 
ATOM     36  C   UNL A   1      33.912  33.930  30.624  1.00  0.00     0.014 A 
ATOM     37  C   UNL A   1      35.418  34.595  28.846  1.00  0.00     0.014 A 
ATOM     38  C   UNL A   1      34.990  33.385  31.325  1.00  0.00     0.010 A 
ATOM     39  C   UNL A   1      36.475  33.975  29.505  1.00  0.00     0.010 A 
ATOM     40  C   UNL A   1      36.272  33.360  30.749  1.00  0.00    -0.014 A 
BRANCH  40  41
ATOM     41  C   UNL A   1      37.403  32.676  31.428  1.00  0.00     0.031 A 
ATOM     42  C   UNL A   1      38.097  31.520  30.764  1.00  0.00     0.074 A 
ATOM     43  C   UNL A   1      37.763  33.056  32.669  1.00  0.00     0.049 A 
ATOM     44  N   UNL A   1      39.077  30.775  31.212  1.00  0.00    -0.248 NA
ATOM     45  C   UNL A   1      37.607  31.126  29.434  1.00  0.00     0.031 C 
ATOM     46  C   UNL A   1      37.123  34.118  33.447  1.00  0.00     0.029 A 
ATOM     47  N   UNL A   1      38.752  32.589  33.499  1.00  0.00    -0.354 N 
ATOM     48  C   UNL A   1      39.311  29.825  30.226  1.00  0.00     0.074 A 
ATOM     49  C   UNL A   1      38.329  30.044  29.187  1.00  0.00     0.031 C 
ATOM     50  C   UNL A   1      37.756  34.244  34.626  1.00  0.00     0.029 A 
ATOM     51  C   UNL A   1      38.823  33.252  34.700  1.00  0.00     0.049 A 
ATOM     52  H   UNL A   1      39.355  31.850  33.255  1.00  0.00     0.167 HD
ATOM     53  C   UNL A   1      40.274  28.874  30.179  1.00  0.00     0.037 A 
ATOM     54  C   UNL A   1      39.656  33.078  35.744  1.00  0.00     0.037 A 
ATOM     55  C   UNL A   1      41.266  28.676  31.203  1.00  0.00     0.049 A 
ATOM     56  C   UNL A   1      40.725  32.022  35.661  1.00  0.00     0.074 A 
ATOM     57  C   UNL A   1      42.326  27.785  31.217  1.00  0.00     0.029 A 
ATOM     58  N   UNL A   1      41.319  29.379  32.397  1.00  0.00    -0.354 N 
ATOM     59  N   UNL A   1      40.987  31.185  34.688  1.00  0.00    -0.248 NA
ATOM     60  C   UNL A   1      41.619  31.894  36.820  1.00  0.00     0.031 C 
ATOM     61  C   UNL A   1      42.991  27.918  32.441  1.00  0.00     0.029 A 
ATOM     62  C   UNL A   1      42.379  28.926  33.167  1.00  0.00     0.049 A 
ATOM     63  H   UNL A   1      40.695  30.095  32.659  1.00  0.00     0.167 HD
ATOM     64  C   UNL A   1      42.087  30.447  35.104  1.00  0.00     0.074 A 
ATOM     65  C   UNL A   1      42.457  30.953  36.410  1.00  0.00     0.031 C 
ATOM     66  C   UNL A   1      42.732  29.440  34.465  1.00  0.00     0.037 A 
BRANCH  53  67
ATOM     67  C   UNL A   1      40.308  27.981  28.973  1.00  0.00     0.064 A 
ATOM     68  C   UNL A   1      41.053  28.315  27.830  1.00  0.00     0.173 A 
ATOM     69  C   UNL A   1      39.614  26.761  28.968  1.00  0.00     0.173 A 
ATOM     70  F   UNL A   1      41.722  29.477  27.777  1.00  0.00    -0.203 F 
ATOM     71  C   UNL A   1      41.077  27.476  26.719  1.00  0.00     0.198 A 
ATOM     72  C   UNL A   1      39.668  25.909  27.868  1.00  0.00     0.198 A 
ATOM     73  F   UNL A   1      38.889  26.390  30.035  1.00  0.00    -0.203 F 
ATOM     74  F   UNL A   1      41.753  27.842  25.621  1.00  0.00    -0.200 F 
ATOM     75  C   UNL A   1      40.391  26.271  26.741  1.00  0.00     0.200 A 
ATOM     76  F   UNL A   1      39.013  24.740  27.895  1.00  0.00    -0.200 F 
ATOM     77  F   UNL A   1      40.422  25.462  25.674  1.00  0.00    -0.200 F 
ENDBRANCH  53  67
BRANCH  54  78
ATOM     78  C   UNL A   1      39.537  33.947  36.945  1.00  0.00     0.064 A 
ATOM     79  C   UNL A   1      38.793  33.535  38.060  1.00  0.00     0.173 A 
ATOM     80  C   UNL A   1      40.150  35.206  37.001  1.00  0.00     0.173 A 
ATOM     81  F   UNL A   1      38.169  32.347  38.047  1.00  0.00    -0.203 F 
ATOM     82  C   UNL A   1      38.648  34.359  39.175  1.00  0.00     0.198 A 
ATOM     83  C   UNL A   1      40.030  36.017  38.127  1.00  0.00     0.198 A 
ATOM     84  F   UNL A   1      40.878  35.645  35.964  1.00  0.00    -0.203 F 
ATOM     85  F   UNL A   1      37.891  33.960  40.206  1.00  0.00    -0.200 F 
ATOM     86  C   UNL A   1      39.271  35.596  39.210  1.00  0.00     0.200 A 
ATOM     87  F   UNL A   1      40.646  37.206  38.164  1.00  0.00    -0.200 F 
ATOM     88  F   UNL A   1      39.135  36.387  40.283  1.00  0.00    -0.200 F 
ENDBRANCH  54  78
BRANCH  66  89
ATOM     89  C   UNL A   1      43.916  28.835  35.162  1.00  0.00     0.064 A 
ATOM     90  C   UNL A   1      43.782  27.730  36.015  1.00  0.00     0.173 A 
ATOM     91  C   UNL A   1      45.204  29.352  34.953  1.00  0.00     0.173 A 
ATOM     92  F   UNL A   1      42.570  27.209  36.259  1.00  0.00    -0.203 F 
ATOM     93  C   UNL A   1      44.889  27.184  36.658  1.00  0.00     0.198 A 
ATOM     94  C   UNL A   1      46.314  28.783  35.572  1.00  0.00     0.198 A 
ATOM     95  F   UNL A   1      45.389  30.403  34.140  1.00  0.00    -0.203 F 
ATOM     96  F   UNL A   1      44.730  26.162  37.511  1.00  0.00    -0.200 F 
ATOM     97  C   UNL A   1      46.154  27.706  36.430  1.00  0.00     0.200 A 
ATOM     98  F   UNL A   1      47.536  29.279  35.340  1.00  0.00    -0.200 F 
ATOM     99  F   UNL A   1      47.220  27.176  37.048  1.00  0.00    -0.200 F 
ENDBRANCH  66  89
ENDBRANCH  40  41
ENDBRANCH  32  35
ENDBRANCH  30  31
ENDBRANCH  29  30
ENDBRANCH  28  29
ENDBRANCH   1  28
TORSDOF 15
ENDMDL
MODEL 2
REMARK VINA RESULT:     -13.4      1.777      3.480
REMARK SMILES NC(=O)c1ccc(NC(=O)Cc2ccccc2C(=O)NCCCCNC(=O)c2ccc(-c3c4nc(c(-c5c(F)c(F)c(F)c(F)c5F)c5ccc([nH]5)c(-c5c(F)c(F)c(F)c(F)c5F)c5nc(c(-c6c(F)c(F)c(F)c(F)c6F)c6ccc3[nH]6)C=C5)C=C4)cc2)cc1
REMARK SMILES IDX 21 1 20 2 18 3 19 4 17 6 12 7 13 8 14 9 16 10 15 11 11 12
REMARK SMILES IDX 9 13 8 14 10 16 7 17 4 18 5 19 92 20 6 21 91 22 2 23 1 24
REMARK SMILES IDX 3 27 22 28 23 29 24 30 25 31 26 32 27 34 28 35 29 36 90 37
REMARK SMILES IDX 30 38 89 39 31 40 32 41 33 42 83 43 34 44 88 45 82 46 84 47
REMARK SMILES IDX 35 48 87 49 81 50 80 51 36 53 68 54 48 55 67 56 49 57 52 58
REMARK SMILES IDX 66 59 85 60 50 61 51 62 65 64 86 65 53 66 37 67 38 68 46 69
REMARK SMILES IDX 39 70 40 71 44 72 47 73 41 74 42 75 45 76 43 77 69 78 70 79
REMARK SMILES IDX 78 80 71 81 72 82 76 83 79 84 73 85 74 86 77 87 75 88 54 89
REMARK SMILES IDX 55 90 63 91 56 92 57 93 61 94 64 95 58 96 59 97 62 98 60 99
REMARK H PARENT 20 5 8 15 1 25 1 26 25 33 84 52 52 63
REMARK Flexibility Score: inf
ROOT
ATOM      1  C   UNL A   1      33.263  30.244  26.474  1.00  0.00     0.116 C 
ENDROOT
BRANCH   1   2
ATOM      2  N   UNL A   1      33.740  29.418  25.376  1.00  0.00    -0.352 N 
ATOM      3  C   UNL A   1      33.444  28.308  24.642  1.00  0.00     0.251 C 
ATOM      4  O   UNL A   1      34.319  28.070  23.796  1.00  0.00    -0.269 OA
ATOM      5  H   UNL A   1      34.584  29.798  25.042  1.00  0.00     0.163 HD
BRANCH   3   6
ATOM      6  C   UNL A   1      32.229  27.403  24.642  1.00  0.00     0.043 A 
ATOM      7  C   UNL A   1      31.512  26.781  23.591  1.00  0.00    -0.026 A 
ATOM      8  C   UNL A   1      30.320  26.073  23.899  1.00  0.00     0.005 A 
ATOM      9  C   UNL A   1      29.887  25.884  25.207  1.00  0.00     0.000 A 
ATOM     10  C   UNL A   1      31.789  27.129  25.964  1.00  0.00     0.014 A 
ATOM     11  C   UNL A   1      30.647  26.379  26.247  1.00  0.00     0.001 A 
BRANCH   7  12
ATOM     12  C   UNL A   1      31.860  26.803  22.132  1.00  0.00     0.136 C 
BRANCH  12  13
ATOM     13  C   UNL A   1      32.769  25.700  21.567  1.00  0.00     0.228 C 
ATOM     14  N   UNL A   1      33.377  24.660  22.210  1.00  0.00    -0.326 N 
ATOM     15  H   UNL A   1      33.956  24.155  21.595  1.00  0.00     0.169 HD
ATOM     16  O   UNL A   1      33.069  25.784  20.362  1.00  0.00    -0.274 OA
BRANCH  14  17
ATOM     17  C   UNL A   1      33.407  24.106  23.505  1.00  0.00     0.041 A 
ATOM     18  C   UNL A   1      33.568  22.987  26.105  1.00  0.00     0.039 A 
ATOM     19  C   UNL A   1      32.569  22.599  25.230  1.00  0.00     0.016 A 
ATOM     20  C   UNL A   1      34.493  23.953  25.696  1.00  0.00     0.016 A 
ATOM     21  C   UNL A   1      32.500  23.180  23.967  1.00  0.00     0.027 A 
ATOM     22  C   UNL A   1      34.415  24.500  24.397  1.00  0.00     0.027 A 
BRANCH  18  23
ATOM     23  C   UNL A   1      33.585  22.329  27.427  1.00  0.00     0.248 C 
ATOM     24  N   UNL A   1      34.644  21.514  27.697  1.00  0.00    -0.366 N 
ATOM     25  H   UNL A   1      34.701  21.052  28.564  1.00  0.00     0.159 HD
ATOM     26  H   UNL A   1      35.351  21.388  27.025  1.00  0.00     0.159 HD
ATOM     27  O   UNL A   1      32.727  22.564  28.267  1.00  0.00    -0.270 OA
ENDBRANCH  18  23
ENDBRANCH  14  17
ENDBRANCH  12  13
ENDBRANCH   7  12
ENDBRANCH   3   6
ENDBRANCH   1   2
BRANCH   1  28
ATOM     28  C   UNL A   1      31.817  30.685  26.209  1.00  0.00     0.023 C 
BRANCH  28  29
ATOM     29  C   UNL A   1      31.466  31.996  26.904  1.00  0.00     0.023 C 
BRANCH  29  30
ATOM     30  C   UNL A   1      32.677  32.755  27.426  1.00  0.00     0.116 C 
BRANCH  30  31
ATOM     31  N   UNL A   1      32.396  34.167  27.642  1.00  0.00    -0.352 N 
ATOM     32  C   UNL A   1      32.965  35.030  28.551  1.00  0.00     0.251 C 
ATOM     33  H   UNL A   1      31.706  34.558  27.059  1.00  0.00     0.163 HD
ATOM     34  O   UNL A   1      32.498  36.151  28.732  1.00  0.00    -0.269 OA
BRANCH  32  35
ATOM     35  C   UNL A   1      34.130  34.582  29.343  1.00  0.00     0.039 A 
ATOM     36  C   UNL A   1      33.927  34.106  30.640  1.00  0.00     0.014 A 
ATOM     37  C   UNL A   1      35.410  34.581  28.782  1.00  0.00     0.014 A 
ATOM     38  C   UNL A   1      34.997  33.545  31.342  1.00  0.00     0.010 A 
ATOM     39  C   UNL A   1      36.452  33.942  29.446  1.00  0.00     0.010 A 
ATOM     40  C   UNL A   1      36.256  33.414  30.730  1.00  0.00    -0.014 A 
BRANCH  40  41
ATOM     41  C   UNL A   1      37.370  32.708  31.416  1.00  0.00     0.031 A 
ATOM     42  C   UNL A   1      38.045  31.538  30.757  1.00  0.00     0.074 A 
ATOM     43  C   UNL A   1      37.730  33.082  32.660  1.00  0.00     0.049 A 
ATOM     44  N   UNL A   1      39.008  30.775  31.212  1.00  0.00    -0.248 NA
ATOM     45  C   UNL A   1      37.555  31.153  29.426  1.00  0.00     0.031 C 
ATOM     46  C   UNL A   1      37.106  34.157  33.433  1.00  0.00     0.029 A 
ATOM     47  N   UNL A   1      38.705  32.597  33.496  1.00  0.00    -0.354 N 
ATOM     48  C   UNL A   1      39.229  29.820  30.228  1.00  0.00     0.074 A 
ATOM     49  C   UNL A   1      38.258  30.057  29.183  1.00  0.00     0.031 C 
ATOM     50  C   UNL A   1      37.735  34.273  34.615  1.00  0.00     0.029 A 
ATOM     51  C   UNL A   1      38.782  33.259  34.697  1.00  0.00     0.049 A 
ATOM     52  H   UNL A   1      39.295  31.847  33.256  1.00  0.00     0.167 HD
ATOM     53  C   UNL A   1      40.174  28.851  30.188  1.00  0.00     0.037 A 
ATOM     54  C   UNL A   1      39.605  33.071  35.746  1.00  0.00     0.037 A 
ATOM     55  C   UNL A   1      41.156  28.634  31.217  1.00  0.00     0.049 A 
ATOM     56  C   UNL A   1      40.653  31.994  35.670  1.00  0.00     0.074 A 
ATOM     57  C   UNL A   1      42.198  27.723  31.239  1.00  0.00     0.029 A 
ATOM     58  N   UNL A   1      41.216  29.337  32.411  1.00  0.00    -0.354 N 
ATOM     59  N   UNL A   1      40.906  31.151  34.698  1.00  0.00    -0.248 NA
ATOM     60  C   UNL A   1      41.538  31.850  36.834  1.00  0.00     0.031 C 
ATOM     61  C   UNL A   1      42.859  27.844  32.466  1.00  0.00     0.029 A 
ATOM     62  C   UNL A   1      42.262  28.865  33.188  1.00  0.00     0.049 A 
ATOM     63  H   UNL A   1      40.604  30.065  32.669  1.00  0.00     0.167 HD
ATOM     64  C   UNL A   1      41.989  30.393  35.122  1.00  0.00     0.074 A 
ATOM     65  C   UNL A   1      42.360  30.892  36.429  1.00  0.00     0.031 C 
ATOM     66  C   UNL A   1      42.617  29.372  34.488  1.00  0.00     0.037 A 
BRANCH  53  67
ATOM     67  C   UNL A   1      40.197  27.956  28.982  1.00  0.00     0.064 A 
ATOM     68  C   UNL A   1      40.924  28.293  27.829  1.00  0.00     0.173 A 
ATOM     69  C   UNL A   1      39.512  26.731  28.989  1.00  0.00     0.173 A 
ATOM     70  F   UNL A   1      41.585  29.459  27.765  1.00  0.00    -0.203 F 
ATOM     71  C   UNL A   1      40.939  27.453  26.719  1.00  0.00     0.198 A 
ATOM     72  C   UNL A   1      39.557  25.878  27.889  1.00  0.00     0.198 A 
ATOM     73  F   UNL A   1      38.805  26.357  30.066  1.00  0.00    -0.203 F 
ATOM     74  F   UNL A   1      41.597  27.822  25.611  1.00  0.00    -0.200 F 
ATOM     75  C   UNL A   1      40.262  26.243  26.752  1.00  0.00     0.200 A 
ATOM     76  F   UNL A   1      38.911  24.704  27.927  1.00  0.00    -0.200 F 
ATOM     77  F   UNL A   1      40.283  25.433  25.686  1.00  0.00    -0.200 F 
ENDBRANCH  53  67
BRANCH  54  78
ATOM     78  C   UNL A   1      39.496  33.942  36.945  1.00  0.00     0.064 A 
ATOM     79  C   UNL A   1      38.751  33.539  38.062  1.00  0.00     0.173 A 
ATOM     80  C   UNL A   1      40.120  35.197  36.997  1.00  0.00     0.173 A 
ATOM     81  F   UNL A   1      38.117  32.357  38.053  1.00  0.00    -0.203 F 
ATOM     82  C   UNL A   1      38.615  34.366  39.176  1.00  0.00     0.198 A 
ATOM     83  C   UNL A   1      40.009  36.010  38.123  1.00  0.00     0.198 A 
ATOM     84  F   UNL A   1      40.850  35.628  35.958  1.00  0.00    -0.203 F 
ATOM     85  F   UNL A   1      37.857  33.976  40.209  1.00  0.00    -0.200 F 
ATOM     86  C   UNL A   1      39.249  35.599  39.208  1.00  0.00     0.200 A 
ATOM     87  F   UNL A   1      40.636  37.195  38.156  1.00  0.00    -0.200 F 
ATOM     88  F   UNL A   1      39.121  36.392  40.279  1.00  0.00    -0.200 F 
ENDBRANCH  54  78
BRANCH  66  89
ATOM     89  C   UNL A   1      43.786  28.745  35.191  1.00  0.00     0.064 A 
ATOM     90  C   UNL A   1      43.625  27.644  36.045  1.00  0.00     0.173 A 
ATOM     91  C   UNL A   1      45.085  29.237  34.989  1.00  0.00     0.173 A 
ATOM     92  F   UNL A   1      42.402  27.147  36.282  1.00  0.00    -0.203 F 
ATOM     93  C   UNL A   1      44.718  27.077  36.694  1.00  0.00     0.198 A 
ATOM     94  C   UNL A   1      46.179  28.647  35.615  1.00  0.00     0.198 A 
ATOM     95  F   UNL A   1      45.294  30.283  34.177  1.00  0.00    -0.203 F 
ATOM     96  F   UNL A   1      44.534  26.059  37.547  1.00  0.00    -0.200 F 
ATOM     97  C   UNL A   1      45.994  27.574  36.474  1.00  0.00     0.200 A 
ATOM     98  F   UNL A   1      47.412  29.119  35.390  1.00  0.00    -0.200 F 
ATOM     99  F   UNL A   1      47.046  27.024  37.098  1.00  0.00    -0.200 F 
ENDBRANCH  66  89
ENDBRANCH  40  41
ENDBRANCH  32  35
ENDBRANCH  30  31
ENDBRANCH  29  30
ENDBRANCH  28  29
ENDBRANCH   1  28
TORSDOF 15
ENDMDL
MODEL 3
REMARK VINA RESULT:     -13.3      1.845      7.976
REMARK SMILES NC(=O)c1ccc(NC(=O)Cc2ccccc2C(=O)NCCCCNC(=O)c2ccc(-c3c4nc(c(-c5c(F)c(F)c(F)c(F)c5F)c5ccc([nH]5)c(-c5c(F)c(F)c(F)c(F)c5F)c5nc(c(-c6c(F)c(F)c(F)c(F)c6F)c6ccc3[nH]6)C=C5)C=C4)cc2)cc1
REMARK SMILES IDX 21 1 20 2 18 3 19 4 17 6 12 7 13 8 14 9 16 10 15 11 11 12
REMARK SMILES IDX 9 13 8 14 10 16 7 17 4 18 5 19 92 20 6 21 91 22 2 23 1 24
REMARK SMILES IDX 3 27 22 28 23 29 24 30 25 31 26 32 27 34 28 35 29 36 90 37
REMARK SMILES IDX 30 38 89 39 31 40 32 41 33 42 83 43 34 44 88 45 82 46 84 47
REMARK SMILES IDX 35 48 87 49 81 50 80 51 36 53 68 54 48 55 67 56 49 57 52 58
REMARK SMILES IDX 66 59 85 60 50 61 51 62 65 64 86 65 53 66 37 67 38 68 46 69
REMARK SMILES IDX 39 70 40 71 44 72 47 73 41 74 42 75 45 76 43 77 69 78 70 79
REMARK SMILES IDX 78 80 71 81 72 82 76 83 79 84 73 85 74 86 77 87 75 88 54 89
REMARK SMILES IDX 55 90 63 91 56 92 57 93 61 94 64 95 58 96 59 97 62 98 60 99
REMARK H PARENT 20 5 8 15 1 25 1 26 25 33 84 52 52 63
REMARK Flexibility Score: inf
ROOT
ATOM      1  C   UNL A   1      33.190  30.227  26.535  1.00  0.00     0.116 C 
ENDROOT
BRANCH   1   2
ATOM      2  N   UNL A   1      33.664  29.460  25.394  1.00  0.00    -0.352 N 
ATOM      3  C   UNL A   1      33.389  28.367  24.627  1.00  0.00     0.251 C 
ATOM      4  O   UNL A   1      34.246  28.194  23.749  1.00  0.00    -0.269 OA
ATOM      5  H   UNL A   1      34.483  29.885  25.050  1.00  0.00     0.163 HD
BRANCH   3   6
ATOM      6  C   UNL A   1      32.209  27.417  24.628  1.00  0.00     0.043 A 
ATOM      7  C   UNL A   1      31.508  26.778  23.577  1.00  0.00    -0.026 A 
ATOM      8  C   UNL A   1      30.346  26.022  23.887  1.00  0.00     0.005 A 
ATOM      9  C   UNL A   1      29.930  25.805  25.196  1.00  0.00     0.000 A 
ATOM     10  C   UNL A   1      31.790  27.114  25.951  1.00  0.00     0.014 A 
ATOM     11  C   UNL A   1      30.679  26.319  26.235  1.00  0.00     0.001 A 
BRANCH   7  12
ATOM     12  C   UNL A   1      31.844  26.826  22.116  1.00  0.00     0.136 C 
BRANCH  12  13
ATOM     13  C   UNL A   1      32.749  25.734  21.524  1.00  0.00     0.228 C 
ATOM     14  N   UNL A   1      33.375  24.691  22.146  1.00  0.00    -0.326 N 
ATOM     15  H   UNL A   1      33.946  24.197  21.516  1.00  0.00     0.169 HD
ATOM     16  O   UNL A   1      33.028  25.832  20.314  1.00  0.00    -0.274 OA
BRANCH  14  17
ATOM     17  C   UNL A   1      33.431  24.125  23.434  1.00  0.00     0.041 A 
ATOM     18  C   UNL A   1      33.442  22.985  26.030  1.00  0.00     0.039 A 
ATOM     19  C   UNL A   1      34.366  23.954  25.680  1.00  0.00     0.016 A 
ATOM     20  C   UNL A   1      32.508  22.561  25.080  1.00  0.00     0.016 A 
ATOM     21  C   UNL A   1      34.351  24.482  24.393  1.00  0.00     0.027 A 
ATOM     22  C   UNL A   1      32.499  23.139  23.792  1.00  0.00     0.027 A 
BRANCH  18  23
ATOM     23  C   UNL A   1      33.512  22.471  27.413  1.00  0.00     0.248 C 
ATOM     24  N   UNL A   1      34.712  21.979  27.828  1.00  0.00    -0.366 N 
ATOM     25  H   UNL A   1      34.810  21.625  28.742  1.00  0.00     0.159 HD
ATOM     26  H   UNL A   1      35.482  21.977  27.216  1.00  0.00     0.159 HD
ATOM     27  O   UNL A   1      32.555  22.554  28.172  1.00  0.00    -0.270 OA
ENDBRANCH  18  23
ENDBRANCH  14  17
ENDBRANCH  12  13
ENDBRANCH   7  12
ENDBRANCH   3   6
ENDBRANCH   1   2
BRANCH   1  28
ATOM     28  C   UNL A   1      31.733  30.655  26.309  1.00  0.00     0.023 C 
BRANCH  28  29
ATOM     29  C   UNL A   1      31.503  32.133  26.607  1.00  0.00     0.023 C 
BRANCH  29  30
ATOM     30  C   UNL A   1      32.657  32.796  27.345  1.00  0.00     0.116 C 
BRANCH  30  31
ATOM     31  N   UNL A   1      32.385  34.191  27.661  1.00  0.00    -0.352 N 
ATOM     32  C   UNL A   1      32.981  34.992  28.609  1.00  0.00     0.251 C 
ATOM     33  H   UNL A   1      31.680  34.620  27.124  1.00  0.00     0.163 HD
ATOM     34  O   UNL A   1      32.522  36.098  28.876  1.00  0.00    -0.269 OA
BRANCH  32  35
ATOM     35  C   UNL A   1      34.165  34.491  29.338  1.00  0.00     0.039 A 
ATOM     36  C   UNL A   1      33.988  33.854  30.567  1.00  0.00     0.014 A 
ATOM     37  C   UNL A   1      35.441  34.604  28.778  1.00  0.00     0.014 A 
ATOM     38  C   UNL A   1      35.081  33.249  31.193  1.00  0.00     0.010 A 
ATOM     39  C   UNL A   1      36.509  33.926  29.357  1.00  0.00     0.010 A 
ATOM     40  C   UNL A   1      36.340  33.238  30.568  1.00  0.00    -0.014 A 
BRANCH  40  41
ATOM     41  C   UNL A   1      37.481  32.494  31.160  1.00  0.00     0.031 A 
ATOM     42  C   UNL A   1      37.989  32.849  32.530  1.00  0.00     0.074 A 
ATOM     43  C   UNL A   1      38.101  31.540  30.438  1.00  0.00     0.049 A 
ATOM     44  N   UNL A   1      38.993  32.340  33.198  1.00  0.00    -0.248 NA
ATOM     45  C   UNL A   1      37.298  33.943  33.230  1.00  0.00     0.031 C 
ATOM     46  C   UNL A   1      37.748  31.150  29.072  1.00  0.00     0.029 A 
ATOM     47  N   UNL A   1      39.163  30.727  30.749  1.00  0.00    -0.354 N 
ATOM     48  C   UNL A   1      39.058  33.055  34.386  1.00  0.00     0.074 A 
ATOM     49  C   UNL A   1      38.035  34.076  34.322  1.00  0.00     0.031 C 
ATOM     50  C   UNL A   1      38.554  30.151  28.675  1.00  0.00     0.029 A 
ATOM     51  C   UNL A   1      39.503  29.854  29.744  1.00  0.00     0.049 A 
ATOM     52  H   UNL A   1      39.635  30.765  31.612  1.00  0.00     0.167 HD
ATOM     53  C   UNL A   1      39.876  32.860  35.448  1.00  0.00     0.037 A 
ATOM     54  C   UNL A   1      40.470  28.918  29.691  1.00  0.00     0.037 A 
ATOM     55  C   UNL A   1      40.875  31.826  35.520  1.00  0.00     0.049 A 
ATOM     56  C   UNL A   1      41.358  28.715  30.889  1.00  0.00     0.074 A 
ATOM     57  C   UNL A   1      41.707  31.503  36.578  1.00  0.00     0.029 A 
ATOM     58  N   UNL A   1      41.177  30.947  34.491  1.00  0.00    -0.354 N 
ATOM     59  N   UNL A   1      41.354  29.343  32.039  1.00  0.00    -0.248 NA
ATOM     60  C   UNL A   1      42.380  27.664  30.782  1.00  0.00     0.031 C 
ATOM     61  C   UNL A   1      42.545  30.459  36.171  1.00  0.00     0.029 A 
ATOM     62  C   UNL A   1      42.201  30.097  34.878  1.00  0.00     0.049 A 
ATOM     63  H   UNL A   1      40.730  30.931  33.613  1.00  0.00     0.167 HD
ATOM     64  C   UNL A   1      42.353  28.752  32.801  1.00  0.00     0.074 A 
ATOM     65  C   UNL A   1      42.927  27.699  31.989  1.00  0.00     0.031 C 
ATOM     66  C   UNL A   1      42.761  29.055  34.058  1.00  0.00     0.037 A 
BRANCH  53  67
ATOM     67  C   UNL A   1      39.717  33.780  36.624  1.00  0.00     0.064 A 
ATOM     68  C   UNL A   1      40.367  35.023  36.678  1.00  0.00     0.173 A 
ATOM     69  C   UNL A   1      38.881  33.431  37.695  1.00  0.00     0.173 A 
ATOM     70  F   UNL A   1      41.190  35.399  35.686  1.00  0.00    -0.203 F 
ATOM     71  C   UNL A   1      40.210  35.869  37.773  1.00  0.00     0.198 A 
ATOM     72  C   UNL A   1      38.699  34.294  38.773  1.00  0.00     0.198 A 
ATOM     73  F   UNL A   1      38.232  32.257  37.693  1.00  0.00    -0.203 F 
ATOM     74  F   UNL A   1      40.882  37.026  37.826  1.00  0.00    -0.200 F 
ATOM     75  C   UNL A   1      39.370  35.507  38.816  1.00  0.00     0.200 A 
ATOM     76  F   UNL A   1      37.879  33.947  39.776  1.00  0.00    -0.200 F 
ATOM     77  F   UNL A   1      39.214  36.324  39.866  1.00  0.00    -0.200 F 
ENDBRANCH  53  67
BRANCH  54  78
ATOM     78  C   UNL A   1      40.628  28.078  28.475  1.00  0.00     0.064 A 
ATOM     79  C   UNL A   1      39.994  26.832  28.373  1.00  0.00     0.173 A 
ATOM     80  C   UNL A   1      41.423  28.495  27.397  1.00  0.00     0.173 A 
ATOM     81  F   UNL A   1      39.241  26.380  29.386  1.00  0.00    -0.203 F 
ATOM     82  C   UNL A   1      40.167  26.025  27.250  1.00  0.00     0.198 A 
ATOM     83  C   UNL A   1      41.572  27.700  26.263  1.00  0.00     0.198 A 
ATOM     84  F   UNL A   1      42.047  29.681  27.442  1.00  0.00    -0.203 F 
ATOM     85  F   UNL A   1      39.589  24.818  27.200  1.00  0.00    -0.200 F 
ATOM     86  C   UNL A   1      40.951  26.462  26.193  1.00  0.00     0.200 A 
ATOM     87  F   UNL A   1      42.318  28.133  25.237  1.00  0.00    -0.200 F 
ATOM     88  F   UNL A   1      41.115  25.688  25.113  1.00  0.00    -0.200 F 
ENDBRANCH  54  78
BRANCH  66  89
ATOM     89  C   UNL A   1      43.866  28.221  34.638  1.00  0.00     0.064 A 
ATOM     90  C   UNL A   1      45.211  28.604  34.529  1.00  0.00     0.173 A 
ATOM     91  C   UNL A   1      43.574  27.038  35.334  1.00  0.00     0.173 A 
ATOM     92  F   UNL A   1      45.543  29.719  33.861  1.00  0.00    -0.203 F 
ATOM     93  C   UNL A   1      46.225  27.817  35.068  1.00  0.00     0.198 A 
ATOM     94  C   UNL A   1      44.588  26.270  35.900  1.00  0.00     0.198 A 
ATOM     95  F   UNL A   1      42.304  26.631  35.474  1.00  0.00    -0.203 F 
ATOM     96  F   UNL A   1      47.507  28.175  34.905  1.00  0.00    -0.200 F 
ATOM     97  C   UNL A   1      45.913  26.656  35.759  1.00  0.00     0.200 A 
ATOM     98  F   UNL A   1      44.284  25.157  36.579  1.00  0.00    -0.200 F 
ATOM     99  F   UNL A   1      46.891  25.901  36.280  1.00  0.00    -0.200 F 
ENDBRANCH  66  89
ENDBRANCH  40  41
ENDBRANCH  32  35
ENDBRANCH  30  31
ENDBRANCH  29  30
ENDBRANCH  28  29
ENDBRANCH   1  28
TORSDOF 15
ENDMDL
