MODEL 1
REMARK VINA RESULT:     -12.5      0.000      0.000
REMARK SMILES COC(C)(C)C[C@@](C)(Nc1cc(C)cc(F)c1)C(=O)NCCCCNC(=O)c1ccc(-c2c3nc(c(-c4c(F)c(F)c(F)c(F)c4F)c4ccc([nH]4)c(-c4c(F)c(F)c(F)c(F)c4F)c4nc(c(-c5c(F)c(F)c(F)c(F)c5F)c5ccc2[nH]5)C=C4)C=C3)cc1
REMARK SMILES IDX 22 1 21 2 20 3 18 4 19 5 7 7 8 8 6 9 3 10 4 11 5 12 2 13
REMARK SMILES IDX 1 14 9 15 10 17 11 18 17 19 12 20 15 21 13 22 14 23 16 24
REMARK SMILES IDX 23 25 24 26 25 27 26 28 27 30 28 31 29 32 90 33 30 34 89 35
REMARK SMILES IDX 31 36 32 37 33 38 83 39 34 40 88 41 82 42 84 43 35 44 87 45
REMARK SMILES IDX 81 46 80 47 36 49 68 50 48 51 67 52 49 53 52 54 66 55 85 56
REMARK SMILES IDX 50 57 51 58 65 60 86 61 53 62 37 63 38 64 46 65 39 66 40 67
REMARK SMILES IDX 44 68 47 69 41 70 42 71 45 72 43 73 69 74 70 75 78 76 71 77
REMARK SMILES IDX 72 78 76 79 79 80 73 81 74 82 77 83 75 84 54 85 55 86 63 87
REMARK SMILES IDX 56 88 57 89 61 90 64 91 58 92 59 93 62 94 60 95
REMARK H PARENT 20 6 9 16 25 29 84 48 52 59
REMARK Flexibility Score: inf
ROOT
ATOM      1  C   UNL A   1      34.024  27.148  25.783  1.00  0.00     0.023 C 
ENDROOT
BRANCH   1   2
ATOM      2  C   UNL A   1      32.831  26.323  25.286  1.00  0.00     0.116 C 
BRANCH   2   3
ATOM      3  N   UNL A   1      32.266  25.417  26.271  1.00  0.00    -0.354 N 
ATOM      4  C   UNL A   1      31.909  24.101  26.221  1.00  0.00     0.245 C 
ATOM      5  O   UNL A   1      31.293  23.701  27.217  1.00  0.00    -0.272 OA
ATOM      6  H   UNL A   1      32.110  25.837  27.149  1.00  0.00     0.163 HD
BRANCH   4   7
ATOM      7  C   UNL A   1      32.150  23.203  24.975  1.00  0.00     0.116 C 
ATOM      8  C   UNL A   1      31.281  23.696  23.791  1.00  0.00     0.045 C 
BRANCH   7   9
ATOM      9  C   UNL A   1      33.643  23.178  24.505  1.00  0.00     0.073 C 
BRANCH   9  10
ATOM     10  C   UNL A   1      34.813  22.924  25.516  1.00  0.00     0.065 C 
ATOM     11  C   UNL A   1      35.826  24.078  25.333  1.00  0.00     0.042 C 
ATOM     12  C   UNL A   1      35.537  21.602  25.218  1.00  0.00     0.042 C 
BRANCH  10  13
ATOM     13  O   UNL A   1      34.301  22.967  26.854  1.00  0.00    -0.379 OA
ATOM     14  C   UNL A   1      34.403  21.777  27.627  1.00  0.00     0.195 C 
ENDBRANCH  10  13
ENDBRANCH   9  10
ENDBRANCH   7   9
BRANCH   7  15
ATOM     15  N   UNL A   1      31.785  21.769  25.226  1.00  0.00    -0.371 N 
ATOM     16  H   UNL A   1      31.086  21.658  25.911  1.00  0.00     0.161 HD
BRANCH  15  17
ATOM     17  C   UNL A   1      32.228  20.568  24.695  1.00  0.00     0.038 A 
ATOM     18  C   UNL A   1      32.630  19.437  25.421  1.00  0.00     0.029 A 
ATOM     19  C   UNL A   1      32.137  20.400  23.304  1.00  0.00     0.065 A 
ATOM     20  C   UNL A   1      32.764  18.158  24.827  1.00  0.00    -0.046 A 
ATOM     21  C   UNL A   1      32.363  19.164  22.697  1.00  0.00     0.125 A 
ATOM     22  C   UNL A   1      32.903  16.915  25.666  1.00  0.00     0.044 C 
ATOM     23  C   UNL A   1      32.642  18.035  23.446  1.00  0.00     0.042 A 
ATOM     24  F   UNL A   1      32.249  19.056  21.366  1.00  0.00    -0.207 F 
ENDBRANCH  15  17
ENDBRANCH   7  15
ENDBRANCH   4   7
ENDBRANCH   2   3
ENDBRANCH   1   2
BRANCH   1  25
ATOM     25  C   UNL A   1      33.770  28.651  25.874  1.00  0.00     0.023 C 
BRANCH  25  26
ATOM     26  C   UNL A   1      34.022  29.190  27.244  1.00  0.00     0.116 C 
BRANCH  26  27
ATOM     27  N   UNL A   1      34.522  30.554  27.216  1.00  0.00    -0.352 N 
ATOM     28  C   UNL A   1      35.631  31.038  27.877  1.00  0.00     0.251 C 
ATOM     29  H   UNL A   1      34.018  31.198  26.668  1.00  0.00     0.163 HD
ATOM     30  O   UNL A   1      35.743  32.220  28.144  1.00  0.00    -0.269 OA
BRANCH  28  31
ATOM     31  C   UNL A   1      36.702  30.081  28.216  1.00  0.00     0.039 A 
ATOM     32  C   UNL A   1      36.687  29.328  29.393  1.00  0.00     0.014 A 
ATOM     33  C   UNL A   1      37.798  30.020  27.364  1.00  0.00     0.014 A 
ATOM     34  C   UNL A   1      37.821  28.593  29.724  1.00  0.00     0.010 A 
ATOM     35  C   UNL A   1      38.728  29.059  27.508  1.00  0.00     0.010 A 
ATOM     36  C   UNL A   1      38.839  28.523  28.778  1.00  0.00    -0.014 A 
BRANCH  36  37
ATOM     37  C   UNL A   1      40.185  28.052  28.981  1.00  0.00     0.031 A 
ATOM     38  C   UNL A   1      40.481  26.682  28.609  1.00  0.00     0.074 A 
ATOM     39  C   UNL A   1      41.085  29.052  29.145  1.00  0.00     0.049 A 
ATOM     40  N   UNL A   1      41.526  26.052  28.989  1.00  0.00    -0.248 NA
ATOM     41  C   UNL A   1      39.577  25.878  27.790  1.00  0.00     0.031 C 
ATOM     42  C   UNL A   1      42.519  29.104  28.925  1.00  0.00     0.029 A 
ATOM     43  N   UNL A   1      40.787  30.342  29.633  1.00  0.00    -0.354 N 
ATOM     44  C   UNL A   1      41.631  24.956  28.165  1.00  0.00     0.074 A 
ATOM     45  C   UNL A   1      40.307  24.769  27.631  1.00  0.00     0.031 C 
ATOM     46  C   UNL A   1      43.011  30.165  29.599  1.00  0.00     0.029 A 
ATOM     47  C   UNL A   1      41.915  30.739  30.372  1.00  0.00     0.049 A 
ATOM     48  H   UNL A   1      39.962  30.857  29.486  1.00  0.00     0.167 HD
ATOM     49  C   UNL A   1      42.886  24.497  27.894  1.00  0.00     0.037 A 
ATOM     50  C   UNL A   1      41.778  30.711  31.733  1.00  0.00     0.037 A 
ATOM     51  C   UNL A   1      43.873  25.289  28.653  1.00  0.00     0.049 A 
ATOM     52  C   UNL A   1      42.505  29.531  32.353  1.00  0.00     0.074 A 
ATOM     53  C   UNL A   1      44.745  26.317  28.337  1.00  0.00     0.029 A 
ATOM     54  N   UNL A   1      43.767  25.305  30.032  1.00  0.00    -0.354 N 
ATOM     55  N   UNL A   1      43.070  28.575  31.665  1.00  0.00    -0.248 NA
ATOM     56  C   UNL A   1      42.621  29.315  33.790  1.00  0.00     0.031 C 
ATOM     57  C   UNL A   1      45.088  26.993  29.557  1.00  0.00     0.029 A 
ATOM     58  C   UNL A   1      44.443  26.361  30.608  1.00  0.00     0.049 A 
ATOM     59  H   UNL A   1      43.263  24.634  30.547  1.00  0.00     0.167 HD
ATOM     60  C   UNL A   1      43.620  27.651  32.501  1.00  0.00     0.074 A 
ATOM     61  C   UNL A   1      43.279  28.142  33.829  1.00  0.00     0.031 C 
ATOM     62  C   UNL A   1      44.309  26.558  32.050  1.00  0.00     0.037 A 
BRANCH  49  63
ATOM     63  C   UNL A   1      43.283  23.511  26.815  1.00  0.00     0.064 A 
ATOM     64  C   UNL A   1      42.953  22.147  26.977  1.00  0.00     0.173 A 
ATOM     65  C   UNL A   1      44.008  23.794  25.637  1.00  0.00     0.173 A 
ATOM     66  F   UNL A   1      42.223  21.727  28.019  1.00  0.00    -0.203 F 
ATOM     67  C   UNL A   1      43.355  21.158  26.073  1.00  0.00     0.198 A 
ATOM     68  C   UNL A   1      44.395  22.807  24.725  1.00  0.00     0.198 A 
ATOM     69  F   UNL A   1      44.388  25.026  25.301  1.00  0.00    -0.203 F 
ATOM     70  F   UNL A   1      43.035  19.878  26.305  1.00  0.00    -0.200 F 
ATOM     71  C   UNL A   1      44.080  21.488  24.948  1.00  0.00     0.200 A 
ATOM     72  F   UNL A   1      45.085  23.157  23.628  1.00  0.00    -0.200 F 
ATOM     73  F   UNL A   1      44.468  20.543  24.082  1.00  0.00    -0.200 F 
ENDBRANCH  49  63
BRANCH  50  74
ATOM     74  C   UNL A   1      40.425  31.240  32.133  1.00  0.00     0.064 A 
ATOM     75  C   UNL A   1      39.487  30.301  32.623  1.00  0.00     0.173 A 
ATOM     76  C   UNL A   1      40.232  32.579  32.502  1.00  0.00     0.173 A 
ATOM     77  F   UNL A   1      39.608  29.003  32.298  1.00  0.00    -0.203 F 
ATOM     78  C   UNL A   1      38.532  30.652  33.577  1.00  0.00     0.198 A 
ATOM     79  C   UNL A   1      39.243  32.934  33.426  1.00  0.00     0.198 A 
ATOM     80  F   UNL A   1      41.076  33.530  32.073  1.00  0.00    -0.203 F 
ATOM     81  F   UNL A   1      37.778  29.702  34.150  1.00  0.00    -0.200 F 
ATOM     82  C   UNL A   1      38.432  31.964  34.001  1.00  0.00     0.200 A 
ATOM     83  F   UNL A   1      39.132  34.210  33.828  1.00  0.00    -0.200 F 
ATOM     84  F   UNL A   1      37.580  32.284  34.984  1.00  0.00    -0.200 F 
ENDBRANCH  50  74
BRANCH  62  85
ATOM     85  C   UNL A   1      44.926  25.551  32.979  1.00  0.00     0.064 A 
ATOM     86  C   UNL A   1      44.152  24.795  33.871  1.00  0.00     0.173 A 
ATOM     87  C   UNL A   1      46.325  25.382  33.079  1.00  0.00     0.173 A 
ATOM     88  F   UNL A   1      42.823  24.954  33.934  1.00  0.00    -0.203 F 
ATOM     89  C   UNL A   1      44.732  23.866  34.734  1.00  0.00     0.198 A 
ATOM     90  C   UNL A   1      46.906  24.517  34.000  1.00  0.00     0.198 A 
ATOM     91  F   UNL A   1      47.181  26.017  32.268  1.00  0.00    -0.203 F 
ATOM     92  F   UNL A   1      43.949  23.096  35.500  1.00  0.00    -0.200 F 
ATOM     93  C   UNL A   1      46.108  23.735  34.806  1.00  0.00     0.200 A 
ATOM     94  F   UNL A   1      48.241  24.437  34.083  1.00  0.00    -0.200 F 
ATOM     95  F   UNL A   1      46.664  22.856  35.648  1.00  0.00    -0.200 F 
ENDBRANCH  62  85
ENDBRANCH  36  37
ENDBRANCH  28  31
ENDBRANCH  26  27
ENDBRANCH  25  26
ENDBRANCH   1  25
TORSDOF 16
ENDMDL
MODEL 2
REMARK VINA RESULT:     -12.4      3.739      9.705
REMARK SMILES COC(C)(C)C[C@@](C)(Nc1cc(C)cc(F)c1)C(=O)NCCCCNC(=O)c1ccc(-c2c3nc(c(-c4c(F)c(F)c(F)c(F)c4F)c4ccc([nH]4)c(-c4c(F)c(F)c(F)c(F)c4F)c4nc(c(-c5c(F)c(F)c(F)c(F)c5F)c5ccc2[nH]5)C=C4)C=C3)cc1
REMARK SMILES IDX 22 1 21 2 20 3 18 4 19 5 7 7 8 8 6 9 3 10 4 11 5 12 2 13
REMARK SMILES IDX 1 14 9 15 10 17 11 18 17 19 12 20 15 21 13 22 14 23 16 24
REMARK SMILES IDX 23 25 24 26 25 27 26 28 27 30 28 31 29 32 90 33 30 34 89 35
REMARK SMILES IDX 31 36 32 37 33 38 83 39 34 40 88 41 82 42 84 43 35 44 87 45
REMARK SMILES IDX 81 46 80 47 36 49 68 50 48 51 67 52 49 53 52 54 66 55 85 56
REMARK SMILES IDX 50 57 51 58 65 60 86 61 53 62 37 63 38 64 46 65 39 66 40 67
REMARK SMILES IDX 44 68 47 69 41 70 42 71 45 72 43 73 69 74 70 75 78 76 71 77
REMARK SMILES IDX 72 78 76 79 79 80 73 81 74 82 77 83 75 84 54 85 55 86 63 87
REMARK SMILES IDX 56 88 57 89 61 90 64 91 58 92 59 93 62 94 60 95
REMARK H PARENT 20 6 9 16 25 29 84 48 52 59
REMARK Flexibility Score: inf
ROOT
ATOM      1  C   UNL A   1      35.163  24.779  25.373  1.00  0.00     0.023 C 
ENDROOT
BRANCH   1   2
ATOM      2  C   UNL A   1      33.977  24.506  24.441  1.00  0.00     0.116 C 
BRANCH   2   3
ATOM      3  N   UNL A   1      34.014  25.228  23.182  1.00  0.00    -0.354 N 
ATOM      4  C   UNL A   1      33.127  26.062  22.565  1.00  0.00     0.245 C 
ATOM      5  O   UNL A   1      33.430  26.362  21.404  1.00  0.00    -0.272 OA
ATOM      6  H   UNL A   1      34.846  25.089  22.672  1.00  0.00     0.163 HD
BRANCH   4   7
ATOM      7  C   UNL A   1      31.789  26.509  23.218  1.00  0.00     0.116 C 
ATOM      8  C   UNL A   1      30.904  25.271  23.513  1.00  0.00     0.045 C 
BRANCH   7   9
ATOM      9  C   UNL A   1      31.981  27.299  24.555  1.00  0.00     0.073 C 
BRANCH   9  10
ATOM     10  C   UNL A   1      32.957  28.522  24.648  1.00  0.00     0.065 C 
ATOM     11  C   UNL A   1      32.146  29.703  25.227  1.00  0.00     0.042 C 
ATOM     12  C   UNL A   1      33.477  28.933  23.262  1.00  0.00     0.042 C 
BRANCH  10  13
ATOM     13  O   UNL A   1      34.025  28.207  25.551  1.00  0.00    -0.379 OA
ATOM     14  C   UNL A   1      33.667  27.835  26.876  1.00  0.00     0.195 C 
ENDBRANCH  10  13
ENDBRANCH   9  10
ENDBRANCH   7   9
BRANCH   7  15
ATOM     15  N   UNL A   1      30.994  27.419  22.326  1.00  0.00    -0.371 N 
ATOM     16  H   UNL A   1      31.239  27.343  21.375  1.00  0.00     0.161 HD
BRANCH  15  17
ATOM     17  C   UNL A   1      29.989  28.342  22.562  1.00  0.00     0.038 A 
ATOM     18  C   UNL A   1      29.991  29.689  22.173  1.00  0.00     0.029 A 
ATOM     19  C   UNL A   1      28.789  27.868  23.117  1.00  0.00     0.065 A 
ATOM     20  C   UNL A   1      28.816  30.482  22.166  1.00  0.00    -0.046 A 
ATOM     21  C   UNL A   1      27.652  28.672  23.203  1.00  0.00     0.125 A 
ATOM     22  C   UNL A   1      28.778  31.819  21.471  1.00  0.00     0.044 C 
ATOM     23  C   UNL A   1      27.643  29.962  22.704  1.00  0.00     0.042 A 
ATOM     24  F   UNL A   1      26.528  28.166  23.728  1.00  0.00    -0.207 F 
ENDBRANCH  15  17
ENDBRANCH   7  15
ENDBRANCH   4   7
ENDBRANCH   2   3
ENDBRANCH   1   2
BRANCH   1  25
ATOM     25  C   UNL A   1      35.931  23.535  25.813  1.00  0.00     0.023 C 
BRANCH  25  26
ATOM     26  C   UNL A   1      37.317  23.494  25.257  1.00  0.00     0.116 C 
BRANCH  26  27
ATOM     27  N   UNL A   1      38.212  22.687  26.067  1.00  0.00    -0.352 N 
ATOM     28  C   UNL A   1      39.378  23.106  26.673  1.00  0.00     0.251 C 
ATOM     29  H   UNL A   1      37.960  21.744  26.197  1.00  0.00     0.163 HD
ATOM     30  O   UNL A   1      40.259  22.318  26.964  1.00  0.00    -0.269 OA
BRANCH  28  31
ATOM     31  C   UNL A   1      39.508  24.539  26.998  1.00  0.00     0.039 A 
ATOM     32  C   UNL A   1      40.219  25.427  26.187  1.00  0.00     0.014 A 
ATOM     33  C   UNL A   1      38.977  24.971  28.207  1.00  0.00     0.014 A 
ATOM     34  C   UNL A   1      40.451  26.716  26.660  1.00  0.00     0.010 A 
ATOM     35  C   UNL A   1      38.903  26.283  28.496  1.00  0.00     0.010 A 
ATOM     36  C   UNL A   1      39.816  27.090  27.840  1.00  0.00    -0.014 A 
BRANCH  36  37
ATOM     37  C   UNL A   1      40.094  28.249  28.649  1.00  0.00     0.031 A 
ATOM     38  C   UNL A   1      39.135  29.337  28.614  1.00  0.00     0.074 A 
ATOM     39  C   UNL A   1      41.016  28.023  29.614  1.00  0.00     0.049 A 
ATOM     40  N   UNL A   1      39.382  30.517  29.040  1.00  0.00    -0.248 NA
ATOM     41  C   UNL A   1      37.798  29.189  28.044  1.00  0.00     0.031 C 
ATOM     42  C   UNL A   1      41.268  28.684  30.882  1.00  0.00     0.029 A 
ATOM     43  N   UNL A   1      42.022  27.035  29.562  1.00  0.00    -0.354 N 
ATOM     44  C   UNL A   1      38.163  31.137  29.175  1.00  0.00     0.074 A 
ATOM     45  C   UNL A   1      37.271  30.382  28.333  1.00  0.00     0.031 C 
ATOM     46  C   UNL A   1      42.516  28.364  31.285  1.00  0.00     0.029 A 
ATOM     47  C   UNL A   1      43.136  27.591  30.215  1.00  0.00     0.049 A 
ATOM     48  H   UNL A   1      41.958  26.142  29.153  1.00  0.00     0.167 HD
ATOM     49  C   UNL A   1      38.045  32.078  30.156  1.00  0.00     0.037 A 
ATOM     50  C   UNL A   1      44.161  28.000  29.405  1.00  0.00     0.037 A 
ATOM     51  C   UNL A   1      39.352  32.259  30.819  1.00  0.00     0.049 A 
ATOM     52  C   UNL A   1      44.211  29.512  29.273  1.00  0.00     0.074 A 
ATOM     53  C   UNL A   1      39.902  31.834  32.015  1.00  0.00     0.029 A 
ATOM     54  N   UNL A   1      40.423  32.658  30.040  1.00  0.00    -0.354 N 
ATOM     55  N   UNL A   1      43.303  30.319  29.751  1.00  0.00    -0.248 NA
ATOM     56  C   UNL A   1      45.264  30.229  28.562  1.00  0.00     0.031 C 
ATOM     57  C   UNL A   1      41.332  31.913  31.894  1.00  0.00     0.029 A 
ATOM     58  C   UNL A   1      41.641  32.407  30.637  1.00  0.00     0.049 A 
ATOM     59  H   UNL A   1      40.326  33.077  29.154  1.00  0.00     0.167 HD
ATOM     60  C   UNL A   1      43.614  31.612  29.454  1.00  0.00     0.074 A 
ATOM     61  C   UNL A   1      44.838  31.500  28.673  1.00  0.00     0.031 C 
ATOM     62  C   UNL A   1      42.853  32.672  29.865  1.00  0.00     0.037 A 
BRANCH  49  63
ATOM     63  C   UNL A   1      36.765  32.684  30.690  1.00  0.00     0.064 A 
ATOM     64  C   UNL A   1      36.021  33.554  29.861  1.00  0.00     0.173 A 
ATOM     65  C   UNL A   1      36.223  32.512  31.981  1.00  0.00     0.173 A 
ATOM     66  F   UNL A   1      36.379  33.780  28.590  1.00  0.00    -0.203 F 
ATOM     67  C   UNL A   1      34.875  34.224  30.302  1.00  0.00     0.198 A 
ATOM     68  C   UNL A   1      35.066  33.168  32.416  1.00  0.00     0.198 A 
ATOM     69  F   UNL A   1      36.771  31.712  32.895  1.00  0.00    -0.203 F 
ATOM     70  F   UNL A   1      34.236  35.060  29.473  1.00  0.00    -0.200 F 
ATOM     71  C   UNL A   1      34.399  34.034  31.581  1.00  0.00     0.200 A 
ATOM     72  F   UNL A   1      34.615  32.953  33.661  1.00  0.00    -0.200 F 
ATOM     73  F   UNL A   1      33.303  34.675  32.007  1.00  0.00    -0.200 F 
ENDBRANCH  49  63
BRANCH  50  74
ATOM     74  C   UNL A   1      44.391  26.997  28.305  1.00  0.00     0.064 A 
ATOM     75  C   UNL A   1      44.056  27.397  26.990  1.00  0.00     0.173 A 
ATOM     76  C   UNL A   1      45.324  25.957  28.432  1.00  0.00     0.173 A 
ATOM     77  F   UNL A   1      43.159  28.378  26.798  1.00  0.00    -0.203 F 
ATOM     78  C   UNL A   1      44.754  26.919  25.881  1.00  0.00     0.198 A 
ATOM     79  C   UNL A   1      45.991  25.450  27.311  1.00  0.00     0.198 A 
ATOM     80  F   UNL A   1      45.689  25.518  29.646  1.00  0.00    -0.203 F 
ATOM     81  F   UNL A   1      44.530  27.451  24.670  1.00  0.00    -0.200 F 
ATOM     82  C   UNL A   1      45.743  25.968  26.047  1.00  0.00     0.200 A 
ATOM     83  F   UNL A   1      46.941  24.515  27.467  1.00  0.00    -0.200 F 
ATOM     84  F   UNL A   1      46.477  25.580  24.995  1.00  0.00    -0.200 F 
ENDBRANCH  50  74
BRANCH  62  85
ATOM     85  C   UNL A   1      43.211  34.097  29.546  1.00  0.00     0.064 A 
ATOM     86  C   UNL A   1      43.441  35.045  30.553  1.00  0.00     0.173 A 
ATOM     87  C   UNL A   1      43.237  34.585  28.221  1.00  0.00     0.173 A 
ATOM     88  F   UNL A   1      43.338  34.714  31.847  1.00  0.00    -0.203 F 
ATOM     89  C   UNL A   1      43.768  36.366  30.249  1.00  0.00     0.198 A 
ATOM     90  C   UNL A   1      43.480  35.921  27.924  1.00  0.00     0.198 A 
ATOM     91  F   UNL A   1      43.065  33.783  27.161  1.00  0.00    -0.203 F 
ATOM     92  F   UNL A   1      44.074  37.216  31.238  1.00  0.00    -0.200 F 
ATOM     93  C   UNL A   1      43.776  36.806  28.937  1.00  0.00     0.200 A 
ATOM     94  F   UNL A   1      43.440  36.335  26.650  1.00  0.00    -0.200 F 
ATOM     95  F   UNL A   1      44.072  38.079  28.649  1.00  0.00    -0.200 F 
ENDBRANCH  62  85
ENDBRANCH  36  37
ENDBRANCH  28  31
ENDBRANCH  26  27
ENDBRANCH  25  26
ENDBRANCH   1  25
TORSDOF 16
ENDMDL
MODEL 3
REMARK VINA RESULT:     -12.4      1.729      2.994
REMARK SMILES COC(C)(C)C[C@@](C)(Nc1cc(C)cc(F)c1)C(=O)NCCCCNC(=O)c1ccc(-c2c3nc(c(-c4c(F)c(F)c(F)c(F)c4F)c4ccc([nH]4)c(-c4c(F)c(F)c(F)c(F)c4F)c4nc(c(-c5c(F)c(F)c(F)c(F)c5F)c5ccc2[nH]5)C=C4)C=C3)cc1
REMARK SMILES IDX 22 1 21 2 20 3 18 4 19 5 7 7 8 8 6 9 3 10 4 11 5 12 2 13
REMARK SMILES IDX 1 14 9 15 10 17 11 18 17 19 12 20 15 21 13 22 14 23 16 24
REMARK SMILES IDX 23 25 24 26 25 27 26 28 27 30 28 31 29 32 90 33 30 34 89 35
REMARK SMILES IDX 31 36 32 37 33 38 83 39 34 40 88 41 82 42 84 43 35 44 87 45
REMARK SMILES IDX 81 46 80 47 36 49 68 50 48 51 67 52 49 53 52 54 66 55 85 56
REMARK SMILES IDX 50 57 51 58 65 60 86 61 53 62 37 63 38 64 46 65 39 66 40 67
REMARK SMILES IDX 44 68 47 69 41 70 42 71 45 72 43 73 69 74 70 75 78 76 71 77
REMARK SMILES IDX 72 78 76 79 79 80 73 81 74 82 77 83 75 84 54 85 55 86 63 87
REMARK SMILES IDX 56 88 57 89 61 90 64 91 58 92 59 93 62 94 60 95
REMARK H PARENT 20 6 9 16 25 29 84 48 52 59
REMARK Flexibility Score: inf
ROOT
ATOM      1  C   UNL A   1      33.096  27.471  26.833  1.00  0.00     0.023 C 
ENDROOT
BRANCH   1   2
ATOM      2  C   UNL A   1      31.571  27.330  26.753  1.00  0.00     0.116 C 
BRANCH   2   3
ATOM      3  N   UNL A   1      31.079  25.970  26.882  1.00  0.00    -0.354 N 
ATOM      4  C   UNL A   1      30.911  24.957  25.983  1.00  0.00     0.245 C 
ATOM      5  O   UNL A   1      30.297  23.979  26.426  1.00  0.00    -0.272 OA
ATOM      6  H   UNL A   1      30.813  25.733  27.800  1.00  0.00     0.163 HD
BRANCH   4   7
ATOM      7  C   UNL A   1      31.350  25.062  24.496  1.00  0.00     0.116 C 
ATOM      8  C   UNL A   1      30.642  23.968  23.656  1.00  0.00     0.045 C 
BRANCH   7   9
ATOM      9  C   UNL A   1      31.034  26.452  23.849  1.00  0.00     0.073 C 
BRANCH   9  10
ATOM     10  C   UNL A   1      31.933  27.047  22.712  1.00  0.00     0.065 C 
ATOM     11  C   UNL A   1      31.325  28.416  22.327  1.00  0.00     0.042 C 
ATOM     12  C   UNL A   1      31.925  26.153  21.462  1.00  0.00     0.042 C 
BRANCH  10  13
ATOM     13  O   UNL A   1      33.258  27.254  23.216  1.00  0.00    -0.379 OA
ATOM     14  C   UNL A   1      33.722  28.597  23.293  1.00  0.00     0.195 C 
ENDBRANCH  10  13
ENDBRANCH   9  10
ENDBRANCH   7   9
BRANCH   7  15
ATOM     15  N   UNL A   1      32.828  24.866  24.322  1.00  0.00    -0.371 N 
ATOM     16  H   UNL A   1      33.231  25.491  23.676  1.00  0.00     0.161 HD
BRANCH  15  17
ATOM     17  C   UNL A   1      33.743  23.988  24.880  1.00  0.00     0.038 A 
ATOM     18  C   UNL A   1      33.630  22.591  24.930  1.00  0.00     0.029 A 
ATOM     19  C   UNL A   1      34.970  24.518  25.313  1.00  0.00     0.065 A 
ATOM     20  C   UNL A   1      34.730  21.747  25.224  1.00  0.00    -0.046 A 
ATOM     21  C   UNL A   1      36.030  23.696  25.698  1.00  0.00     0.125 A 
ATOM     22  C   UNL A   1      34.664  20.262  24.983  1.00  0.00     0.044 C 
ATOM     23  C   UNL A   1      35.935  22.318  25.626  1.00  0.00     0.042 A 
ATOM     24  F   UNL A   1      37.184  24.253  26.089  1.00  0.00    -0.207 F 
ENDBRANCH  15  17
ENDBRANCH   7  15
ENDBRANCH   4   7
ENDBRANCH   2   3
ENDBRANCH   1   2
BRANCH   1  25
ATOM     25  C   UNL A   1      33.589  28.810  27.376  1.00  0.00     0.023 C 
BRANCH  25  26
ATOM     26  C   UNL A   1      34.894  29.223  26.778  1.00  0.00     0.116 C 
BRANCH  26  27
ATOM     27  N   UNL A   1      35.315  30.537  27.230  1.00  0.00    -0.352 N 
ATOM     28  C   UNL A   1      36.231  30.813  28.223  1.00  0.00     0.251 C 
ATOM     29  H   UNL A   1      34.904  31.311  26.780  1.00  0.00     0.163 HD
ATOM     30  O   UNL A   1      36.221  31.875  28.817  1.00  0.00    -0.269 OA
BRANCH  28  31
ATOM     31  C   UNL A   1      37.255  29.792  28.516  1.00  0.00     0.039 A 
ATOM     32  C   UNL A   1      37.170  28.944  29.623  1.00  0.00     0.014 A 
ATOM     33  C   UNL A   1      38.380  29.763  27.700  1.00  0.00     0.014 A 
ATOM     34  C   UNL A   1      38.265  28.142  29.930  1.00  0.00     0.010 A 
ATOM     35  C   UNL A   1      39.271  28.759  27.794  1.00  0.00     0.010 A 
ATOM     36  C   UNL A   1      39.316  28.114  29.017  1.00  0.00    -0.014 A 
BRANCH  36  37
ATOM     37  C   UNL A   1      40.637  27.579  29.226  1.00  0.00     0.031 A 
ATOM     38  C   UNL A   1      40.904  26.240  28.736  1.00  0.00     0.074 A 
ATOM     39  C   UNL A   1      41.560  28.526  29.519  1.00  0.00     0.049 A 
ATOM     40  N   UNL A   1      41.912  25.540  29.093  1.00  0.00    -0.248 NA
ATOM     41  C   UNL A   1      40.010  25.550  27.809  1.00  0.00     0.031 C 
ATOM     42  C   UNL A   1      43.003  28.547  29.360  1.00  0.00     0.029 A 
ATOM     43  N   UNL A   1      41.284  29.774  30.116  1.00  0.00    -0.354 N 
ATOM     44  C   UNL A   1      42.016  24.524  28.173  1.00  0.00     0.074 A 
ATOM     45  C   UNL A   1      40.710  24.436  27.572  1.00  0.00     0.031 C 
ATOM     46  C   UNL A   1      43.500  29.521  30.151  1.00  0.00     0.029 A 
ATOM     47  C   UNL A   1      42.392  30.059  30.932  1.00  0.00     0.049 A 
ATOM     48  H   UNL A   1      40.482  30.329  29.988  1.00  0.00     0.167 HD
ATOM     49  C   UNL A   1      43.266  24.048  27.907  1.00  0.00     0.037 A 
ATOM     50  C   UNL A   1      42.197  29.907  32.279  1.00  0.00     0.037 A 
ATOM     51  C   UNL A   1      44.245  24.730  28.776  1.00  0.00     0.049 A 
ATOM     52  C   UNL A   1      42.860  28.649  32.810  1.00  0.00     0.074 A 
ATOM     53  C   UNL A   1      45.162  25.751  28.594  1.00  0.00     0.029 A 
ATOM     54  N   UNL A   1      44.082  24.619  30.145  1.00  0.00    -0.354 N 
ATOM     55  N   UNL A   1      43.422  27.743  32.056  1.00  0.00    -0.248 NA
ATOM     56  C   UNL A   1      42.908  28.294  34.224  1.00  0.00     0.031 C 
ATOM     57  C   UNL A   1      45.475  26.296  29.886  1.00  0.00     0.029 A 
ATOM     58  C   UNL A   1      44.767  25.591  30.845  1.00  0.00     0.049 A 
ATOM     59  H   UNL A   1      43.537  23.921  30.574  1.00  0.00     0.167 HD
ATOM     60  C   UNL A   1      43.907  26.725  32.820  1.00  0.00     0.074 A 
ATOM     61  C   UNL A   1      43.527  27.100  34.175  1.00  0.00     0.031 C 
ATOM     62  C   UNL A   1      44.579  25.656  32.293  1.00  0.00     0.037 A 
BRANCH  49  63
ATOM     63  C   UNL A   1      43.676  23.155  26.755  1.00  0.00     0.064 A 
ATOM     64  C   UNL A   1      43.216  21.820  26.724  1.00  0.00     0.173 A 
ATOM     65  C   UNL A   1      44.530  23.497  25.685  1.00  0.00     0.173 A 
ATOM     66  F   UNL A   1      42.357  21.359  27.644  1.00  0.00    -0.203 F 
ATOM     67  C   UNL A   1      43.614  20.904  25.745  1.00  0.00     0.198 A 
ATOM     68  C   UNL A   1      44.914  22.585  24.696  1.00  0.00     0.198 A 
ATOM     69  F   UNL A   1      45.045  24.716  25.531  1.00  0.00    -0.203 F 
ATOM     70  F   UNL A   1      43.164  19.643  25.795  1.00  0.00    -0.200 F 
ATOM     71  C   UNL A   1      44.467  21.285  24.732  1.00  0.00     0.200 A 
ATOM     72  F   UNL A   1      45.733  22.986  23.710  1.00  0.00    -0.200 F 
ATOM     73  F   UNL A   1      44.852  20.410  23.794  1.00  0.00    -0.200 F 
ENDBRANCH  49  63
BRANCH  50  74
ATOM     74  C   UNL A   1      40.846  30.444  32.675  1.00  0.00     0.064 A 
ATOM     75  C   UNL A   1      40.557  31.782  32.320  1.00  0.00     0.173 A 
ATOM     76  C   UNL A   1      39.750  29.598  32.903  1.00  0.00     0.173 A 
ATOM     77  F   UNL A   1      41.562  32.647  32.101  1.00  0.00    -0.203 F 
ATOM     78  C   UNL A   1      39.259  32.196  32.025  1.00  0.00     0.198 A 
ATOM     79  C   UNL A   1      38.444  30.032  32.647  1.00  0.00     0.198 A 
ATOM     80  F   UNL A   1      39.942  28.316  33.248  1.00  0.00    -0.203 F 
ATOM     81  F   UNL A   1      39.045  33.421  31.521  1.00  0.00    -0.200 F 
ATOM     82  C   UNL A   1      38.206  31.310  32.158  1.00  0.00     0.200 A 
ATOM     83  F   UNL A   1      37.418  29.179  32.790  1.00  0.00    -0.200 F 
ATOM     84  F   UNL A   1      36.973  31.678  31.784  1.00  0.00    -0.200 F 
ENDBRANCH  50  74
BRANCH  62  85
ATOM     85  C   UNL A   1      45.125  24.544  33.145  1.00  0.00     0.064 A 
ATOM     86  C   UNL A   1      46.455  24.536  33.589  1.00  0.00     0.173 A 
ATOM     87  C   UNL A   1      44.362  23.397  33.460  1.00  0.00     0.173 A 
ATOM     88  F   UNL A   1      47.297  25.525  33.258  1.00  0.00    -0.203 F 
ATOM     89  C   UNL A   1      46.955  23.498  34.375  1.00  0.00     0.198 A 
ATOM     90  C   UNL A   1      44.889  22.325  34.171  1.00  0.00     0.198 A 
ATOM     91  F   UNL A   1      43.070  23.285  33.125  1.00  0.00    -0.203 F 
ATOM     92  F   UNL A   1      48.202  23.577  34.858  1.00  0.00    -0.200 F 
ATOM     93  C   UNL A   1      46.177  22.389  34.655  1.00  0.00     0.200 A 
ATOM     94  F   UNL A   1      44.132  21.242  34.395  1.00  0.00    -0.200 F 
ATOM     95  F   UNL A   1      46.665  21.385  35.394  1.00  0.00    -0.200 F 
ENDBRANCH  62  85
ENDBRANCH  36  37
ENDBRANCH  28  31
ENDBRANCH  26  27
ENDBRANCH  25  26
ENDBRANCH   1  25
TORSDOF 16
ENDMDL
