MODEL 1
REMARK VINA RESULT:     -13.7      0.000      0.000
REMARK SMILES COc1ccc2c(c1)OC[C@@]1(C(=O)NCCCCNC(=O)c3ccc(-c4c5nc(c(-c6c(F)c(F)c(F)c(F)c6F)c6ccc([nH]6)c(-c6c(F)c(F)c(F)c(F)c6F)c6nc(c(-c7c(F)c(F)c(F)c(F)c7F)c7ccc4[nH]7)C=C6)C=C5)cc3)C[N@@H+](Cc3cc(C(C)(C)C)n[nH]3)C[C@H]21
REMARK SMILES IDX 16 1 15 2 14 3 12 4 13 5 11 7 3 8 4 9 8 10 5 11 7 12 6 13
REMARK SMILES IDX 9 14 98 15 10 16 97 17 85 18 86 19 2 21 1 22 87 23 88 24
REMARK SMILES IDX 89 25 96 26 90 27 95 28 91 30 92 31 93 32 94 33 17 34 18 35
REMARK SMILES IDX 19 36 20 37 21 39 22 40 23 41 84 42 24 43 83 44 25 45 26 46
REMARK SMILES IDX 27 47 77 48 28 49 82 50 76 51 78 52 29 53 81 54 75 55 74 56
REMARK SMILES IDX 30 58 62 59 42 60 61 61 43 62 46 63 60 64 79 65 44 66 45 67
REMARK SMILES IDX 59 69 80 70 47 71 31 72 32 73 40 74 33 75 34 76 38 77 41 78
REMARK SMILES IDX 35 79 36 80 39 81 37 82 63 83 64 84 72 85 65 86 66 87 70 88
REMARK SMILES IDX 73 89 67 90 68 91 71 92 69 93 48 94 49 95 57 96 50 97 51 98
REMARK SMILES IDX 55 99 58 100 52 101 53 102 56 103 54 104
REMARK H PARENT 14 6 86 20 96 29 19 38 78 57 46 68
REMARK Flexibility Score: inf
ROOT
ATOM      1  C   UNL A   1      31.729  27.507  26.866  1.00  0.00     0.023 C 
ENDROOT
BRANCH   1   2
ATOM      2  C   UNL A   1      31.983  26.073  26.430  1.00  0.00     0.116 C 
BRANCH   2   3
ATOM      3  N   UNL A   1      33.367  25.650  26.529  1.00  0.00    -0.355 N 
ATOM      4  C   UNL A   1      34.038  24.964  25.547  1.00  0.00     0.236 C 
ATOM      5  O   UNL A   1      35.225  25.257  25.366  1.00  0.00    -0.274 OA
ATOM      6  H   UNL A   1      33.857  25.868  27.354  1.00  0.00     0.163 HD
BRANCH   4   7
ATOM      7  C   UNL A   1      33.255  23.887  24.753  1.00  0.00     0.144 C 
ATOM      8  C   UNL A   1      32.543  18.690  24.203  1.00  0.00     0.122 A 
ATOM      9  C   UNL A   1      32.177  19.229  22.967  1.00  0.00     0.047 A 
ATOM     10  C   UNL A   1      32.996  19.541  25.211  1.00  0.00     0.093 A 
ATOM     11  C   UNL A   1      32.225  20.607  22.749  1.00  0.00     0.012 A 
ATOM     12  C   UNL A   1      33.087  20.912  24.962  1.00  0.00     0.126 A 
ATOM     13  C   UNL A   1      32.659  21.466  23.766  1.00  0.00     0.005 A 
ATOM     14  O   UNL A   1      33.659  21.709  25.908  1.00  0.00    -0.492 OA
ATOM     15  C   UNL A   1      32.831  22.951  23.544  1.00  0.00     0.103 C 
ATOM     16  C   UNL A   1      34.337  22.838  25.295  1.00  0.00     0.253 C 
ATOM     17  C   UNL A   1      31.539  23.576  23.017  1.00  0.00     0.272 C 
ATOM     18  C   UNL A   1      33.197  25.083  23.633  1.00  0.00     0.284 C 
ATOM     19  N   UNL A   1      31.802  24.996  23.145  1.00  0.00    -0.328 N 
ATOM     20  H   UNL A   1      31.168  25.434  23.813  1.00  0.00     0.348 HD
BRANCH   8  21
ATOM     21  O   UNL A   1      32.455  17.328  24.274  1.00  0.00    -0.497 OA
ATOM     22  C   UNL A   1      33.608  16.592  23.888  1.00  0.00     0.278 C 
ENDBRANCH   8  21
BRANCH  19  23
ATOM     23  C   UNL A   1      31.462  25.810  21.978  1.00  0.00     0.319 C 
BRANCH  23  24
ATOM     24  C   UNL A   1      30.967  27.156  22.342  1.00  0.00     0.090 A 
ATOM     25  C   UNL A   1      29.753  27.593  22.819  1.00  0.00     0.055 A 
ATOM     26  N   UNL A   1      31.697  28.287  22.111  1.00  0.00    -0.277 N 
ATOM     27  C   UNL A   1      29.761  28.989  22.602  1.00  0.00     0.068 A 
ATOM     28  N   UNL A   1      30.980  29.412  22.235  1.00  0.00    -0.180 NA
ATOM     29  H   UNL A   1      32.653  28.276  21.877  1.00  0.00     0.190 HD
BRANCH  27  30
ATOM     30  C   UNL A   1      28.593  29.956  22.654  1.00  0.00     0.006 C 
ATOM     31  C   UNL A   1      28.353  30.570  21.267  1.00  0.00     0.017 C 
ATOM     32  C   UNL A   1      27.323  29.211  23.119  1.00  0.00     0.017 C 
ATOM     33  C   UNL A   1      28.851  31.098  23.661  1.00  0.00     0.017 C 
ENDBRANCH  27  30
ENDBRANCH  23  24
ENDBRANCH  19  23
ENDBRANCH   4   7
ENDBRANCH   2   3
ENDBRANCH   1   2
BRANCH   1  34
ATOM     34  C   UNL A   1      31.700  28.559  25.760  1.00  0.00     0.023 C 
BRANCH  34  35
ATOM     35  C   UNL A   1      32.846  29.564  25.738  1.00  0.00     0.116 C 
BRANCH  35  36
ATOM     36  N   UNL A   1      32.530  30.849  26.340  1.00  0.00    -0.352 N 
ATOM     37  C   UNL A   1      33.275  31.616  27.209  1.00  0.00     0.251 C 
ATOM     38  H   UNL A   1      31.657  31.229  26.090  1.00  0.00     0.163 HD
ATOM     39  O   UNL A   1      32.826  32.669  27.651  1.00  0.00    -0.269 OA
BRANCH  37  40
ATOM     40  C   UNL A   1      34.596  31.129  27.663  1.00  0.00     0.039 A 
ATOM     41  C   UNL A   1      34.790  29.787  27.990  1.00  0.00     0.014 A 
ATOM     42  C   UNL A   1      35.627  32.054  27.847  1.00  0.00     0.014 A 
ATOM     43  C   UNL A   1      35.922  29.417  28.707  1.00  0.00     0.010 A 
ATOM     44  C   UNL A   1      36.808  31.657  28.480  1.00  0.00     0.010 A 
ATOM     45  C   UNL A   1      36.934  30.352  28.982  1.00  0.00    -0.014 A 
BRANCH  45  46
ATOM     46  C   UNL A   1      38.092  29.954  29.828  1.00  0.00     0.031 A 
ATOM     47  C   UNL A   1      39.174  29.057  29.280  1.00  0.00     0.074 A 
ATOM     48  C   UNL A   1      38.207  30.458  31.072  1.00  0.00     0.049 A 
ATOM     49  N   UNL A   1      40.250  28.604  29.875  1.00  0.00    -0.248 NA
ATOM     50  C   UNL A   1      39.031  28.604  27.887  1.00  0.00     0.031 C 
ATOM     51  C   UNL A   1      37.238  31.350  31.710  1.00  0.00     0.029 A 
ATOM     52  N   UNL A   1      39.196  30.315  32.011  1.00  0.00    -0.354 N 
ATOM     53  C   UNL A   1      40.893  27.797  28.943  1.00  0.00     0.074 A 
ATOM     54  C   UNL A   1      40.080  27.804  27.747  1.00  0.00     0.031 C 
ATOM     55  C   UNL A   1      37.705  31.719  32.911  1.00  0.00     0.029 A 
ATOM     56  C   UNL A   1      38.973  31.039  33.156  1.00  0.00     0.049 A 
ATOM     57  H   UNL A   1      39.989  29.747  31.878  1.00  0.00     0.167 HD
ATOM     58  C   UNL A   1      42.060  27.122  29.070  1.00  0.00     0.037 A 
ATOM     59  C   UNL A   1      39.697  31.134  34.287  1.00  0.00     0.037 A 
ATOM     60  C   UNL A   1      42.894  27.152  30.244  1.00  0.00     0.049 A 
ATOM     61  C   UNL A   1      40.976  30.357  34.408  1.00  0.00     0.074 A 
ATOM     62  C   UNL A   1      44.108  26.520  30.455  1.00  0.00     0.029 A 
ATOM     63  N   UNL A   1      42.605  27.860  31.400  1.00  0.00    -0.354 N 
ATOM     64  N   UNL A   1      41.562  29.588  33.523  1.00  0.00    -0.248 NA
ATOM     65  C   UNL A   1      41.687  30.445  35.692  1.00  0.00     0.031 C 
ATOM     66  C   UNL A   1      44.539  26.818  31.750  1.00  0.00     0.029 A 
ATOM     67  C   UNL A   1      43.612  27.667  32.333  1.00  0.00     0.049 A 
ATOM     68  H   UNL A   1      41.805  28.417  31.539  1.00  0.00     0.167 HD
ATOM     69  C   UNL A   1      42.710  29.108  34.136  1.00  0.00     0.074 A 
ATOM     70  C   UNL A   1      42.752  29.691  35.461  1.00  0.00     0.031 C 
ATOM     71  C   UNL A   1      43.639  28.253  33.647  1.00  0.00     0.037 A 
BRANCH  58  72
ATOM     72  C   UNL A   1      42.526  26.286  27.915  1.00  0.00     0.064 A 
ATOM     73  C   UNL A   1      42.046  24.985  27.711  1.00  0.00     0.173 A 
ATOM     74  C   UNL A   1      43.382  26.833  26.947  1.00  0.00     0.173 A 
ATOM     75  F   UNL A   1      41.233  24.416  28.613  1.00  0.00    -0.203 F 
ATOM     76  C   UNL A   1      42.409  24.260  26.579  1.00  0.00     0.198 A 
ATOM     77  C   UNL A   1      43.726  26.112  25.805  1.00  0.00     0.198 A 
ATOM     78  F   UNL A   1      43.862  28.076  27.093  1.00  0.00    -0.203 F 
ATOM     79  F   UNL A   1      41.952  23.011  26.411  1.00  0.00    -0.200 F 
ATOM     80  C   UNL A   1      43.239  24.827  25.622  1.00  0.00     0.200 A 
ATOM     81  F   UNL A   1      44.516  26.666  24.876  1.00  0.00    -0.200 F 
ATOM     82  F   UNL A   1      43.568  24.134  24.523  1.00  0.00    -0.200 F 
ENDBRANCH  58  72
BRANCH  59  83
ATOM     83  C   UNL A   1      39.217  31.995  35.397  1.00  0.00     0.064 A 
ATOM     84  C   UNL A   1      38.435  31.466  36.433  1.00  0.00     0.173 A 
ATOM     85  C   UNL A   1      39.545  33.358  35.455  1.00  0.00     0.173 A 
ATOM     86  F   UNL A   1      38.078  30.174  36.409  1.00  0.00    -0.203 F 
ATOM     87  C   UNL A   1      37.994  32.271  37.482  1.00  0.00     0.198 A 
ATOM     88  C   UNL A   1      39.128  34.154  36.518  1.00  0.00     0.198 A 
ATOM     89  F   UNL A   1      40.292  33.910  34.488  1.00  0.00    -0.203 F 
ATOM     90  F   UNL A   1      37.219  31.749  38.443  1.00  0.00    -0.200 F 
ATOM     91  C   UNL A   1      38.348  33.611  37.528  1.00  0.00     0.200 A 
ATOM     92  F   UNL A   1      39.485  35.445  36.566  1.00  0.00    -0.200 F 
ATOM     93  F   UNL A   1      37.933  34.381  38.543  1.00  0.00    -0.200 F 
ENDBRANCH  59  83
BRANCH  71  94
ATOM     94  C   UNL A   1      44.785  27.896  34.543  1.00  0.00     0.064 A 
ATOM     95  C   UNL A   1      44.736  26.764  35.369  1.00  0.00     0.173 A 
ATOM     96  C   UNL A   1      45.965  28.655  34.531  1.00  0.00     0.173 A 
ATOM     97  F   UNL A   1      43.623  26.017  35.424  1.00  0.00    -0.203 F 
ATOM     98  C   UNL A   1      45.825  26.411  36.161  1.00  0.00     0.198 A 
ATOM     99  C   UNL A   1      47.060  28.285  35.306  1.00  0.00     0.198 A 
ATOM    100  F   UNL A   1      46.060  29.741  33.751  1.00  0.00    -0.203 F 
ATOM    101  F   UNL A   1      45.747  25.342  36.966  1.00  0.00    -0.200 F 
ATOM    102  C   UNL A   1      46.988  27.166  36.123  1.00  0.00     0.200 A 
ATOM    103  F   UNL A   1      48.187  29.009  35.260  1.00  0.00    -0.200 F 
ATOM    104  F   UNL A   1      48.039  26.818  36.878  1.00  0.00    -0.200 F 
ENDBRANCH  71  94
ENDBRANCH  45  46
ENDBRANCH  37  40
ENDBRANCH  35  36
ENDBRANCH  34  35
ENDBRANCH   1  34
TORSDOF 15
ENDMDL
MODEL 2
REMARK VINA RESULT:     -13.1      0.986      7.153
REMARK SMILES COc1ccc2c(c1)OC[C@@]1(C(=O)NCCCCNC(=O)c3ccc(-c4c5nc(c(-c6c(F)c(F)c(F)c(F)c6F)c6ccc([nH]6)c(-c6c(F)c(F)c(F)c(F)c6F)c6nc(c(-c7c(F)c(F)c(F)c(F)c7F)c7ccc4[nH]7)C=C6)C=C5)cc3)C[N@@H+](Cc3cc(C(C)(C)C)n[nH]3)C[C@H]21
REMARK SMILES IDX 16 1 15 2 14 3 12 4 13 5 11 7 3 8 4 9 8 10 5 11 7 12 6 13
REMARK SMILES IDX 9 14 98 15 10 16 97 17 85 18 86 19 2 21 1 22 87 23 88 24
REMARK SMILES IDX 89 25 96 26 90 27 95 28 91 30 92 31 93 32 94 33 17 34 18 35
REMARK SMILES IDX 19 36 20 37 21 39 22 40 23 41 84 42 24 43 83 44 25 45 26 46
REMARK SMILES IDX 27 47 77 48 28 49 82 50 76 51 78 52 29 53 81 54 75 55 74 56
REMARK SMILES IDX 30 58 62 59 42 60 61 61 43 62 46 63 60 64 79 65 44 66 45 67
REMARK SMILES IDX 59 69 80 70 47 71 31 72 32 73 40 74 33 75 34 76 38 77 41 78
REMARK SMILES IDX 35 79 36 80 39 81 37 82 63 83 64 84 72 85 65 86 66 87 70 88
REMARK SMILES IDX 73 89 67 90 68 91 71 92 69 93 48 94 49 95 57 96 50 97 51 98
REMARK SMILES IDX 55 99 58 100 52 101 53 102 56 103 54 104
REMARK H PARENT 14 6 86 20 96 29 19 38 78 57 46 68
REMARK Flexibility Score: inf
ROOT
ATOM      1  C   UNL A   1      31.567  28.313  26.544  1.00  0.00     0.023 C 
ENDROOT
BRANCH   1   2
ATOM      2  C   UNL A   1      32.767  27.470  26.942  1.00  0.00     0.116 C 
BRANCH   2   3
ATOM      3  N   UNL A   1      33.877  27.523  26.009  1.00  0.00    -0.355 N 
ATOM      4  C   UNL A   1      33.840  27.011  24.736  1.00  0.00     0.236 C 
ATOM      5  O   UNL A   1      34.420  27.654  23.854  1.00  0.00    -0.274 OA
ATOM      6  H   UNL A   1      34.710  27.953  26.308  1.00  0.00     0.163 HD
BRANCH   4   7
ATOM      7  C   UNL A   1      33.079  25.678  24.513  1.00  0.00     0.144 C 
ATOM      8  C   UNL A   1      33.557  20.429  24.687  1.00  0.00     0.122 A 
ATOM      9  C   UNL A   1      32.516  20.659  23.785  1.00  0.00     0.047 A 
ATOM     10  C   UNL A   1      34.203  21.517  25.274  1.00  0.00     0.093 A 
ATOM     11  C   UNL A   1      32.096  21.959  23.498  1.00  0.00     0.012 A 
ATOM     12  C   UNL A   1      33.806  22.814  24.940  1.00  0.00     0.126 A 
ATOM     13  C   UNL A   1      32.728  23.052  24.102  1.00  0.00     0.005 A 
ATOM     14  O   UNL A   1      34.536  23.861  25.416  1.00  0.00    -0.492 OA
ATOM     15  C   UNL A   1      32.382  24.479  23.743  1.00  0.00     0.103 C 
ATOM     16  C   UNL A   1      34.517  24.974  24.482  1.00  0.00     0.253 C 
ATOM     17  C   UNL A   1      30.885  24.737  23.917  1.00  0.00     0.272 C 
ATOM     18  C   UNL A   1      32.182  26.623  23.516  1.00  0.00     0.284 C 
ATOM     19  N   UNL A   1      30.802  26.181  23.814  1.00  0.00    -0.328 N 
ATOM     20  H   UNL A   1      30.480  26.598  24.688  1.00  0.00     0.348 HD
BRANCH   8  21
ATOM     21  O   UNL A   1      33.868  19.110  24.867  1.00  0.00    -0.497 OA
ATOM     22  C   UNL A   1      32.860  18.288  25.439  1.00  0.00     0.278 C 
ENDBRANCH   8  21
BRANCH  19  23
ATOM     23  C   UNL A   1      29.744  26.693  22.943  1.00  0.00     0.319 C 
BRANCH  23  24
ATOM     24  C   UNL A   1      29.788  28.164  22.791  1.00  0.00     0.090 A 
ATOM     25  C   UNL A   1      29.485  29.189  23.657  1.00  0.00     0.055 A 
ATOM     26  N   UNL A   1      30.052  28.764  21.592  1.00  0.00    -0.277 N 
ATOM     27  C   UNL A   1      29.348  30.329  22.833  1.00  0.00     0.068 A 
ATOM     28  N   UNL A   1      29.767  30.073  21.584  1.00  0.00    -0.180 NA
ATOM     29  H   UNL A   1      30.414  28.283  20.814  1.00  0.00     0.190 HD
BRANCH  27  30
ATOM     30  C   UNL A   1      28.739  31.673  23.181  1.00  0.00     0.006 C 
ATOM     31  C   UNL A   1      29.622  32.407  24.201  1.00  0.00     0.017 C 
ATOM     32  C   UNL A   1      28.603  32.529  21.903  1.00  0.00     0.017 C 
ATOM     33  C   UNL A   1      27.323  31.513  23.779  1.00  0.00     0.017 C 
ENDBRANCH  27  30
ENDBRANCH  23  24
ENDBRANCH  19  23
ENDBRANCH   4   7
ENDBRANCH   2   3
ENDBRANCH   1   2
BRANCH   1  34
ATOM     34  C   UNL A   1      31.539  29.747  27.067  1.00  0.00     0.023 C 
BRANCH  34  35
ATOM     35  C   UNL A   1      32.427  30.757  26.349  1.00  0.00     0.116 C 
BRANCH  35  36
ATOM     36  N   UNL A   1      32.340  32.111  26.870  1.00  0.00    -0.352 N 
ATOM     37  C   UNL A   1      33.267  32.833  27.590  1.00  0.00     0.251 C 
ATOM     38  H   UNL A   1      31.496  32.582  26.682  1.00  0.00     0.163 HD
ATOM     39  O   UNL A   1      33.003  33.964  27.987  1.00  0.00    -0.269 OA
BRANCH  37  40
ATOM     40  C   UNL A   1      34.562  32.212  27.943  1.00  0.00     0.039 A 
ATOM     41  C   UNL A   1      34.638  30.862  28.284  1.00  0.00     0.014 A 
ATOM     42  C   UNL A   1      35.699  33.021  28.018  1.00  0.00     0.014 A 
ATOM     43  C   UNL A   1      35.781  30.381  28.913  1.00  0.00     0.010 A 
ATOM     44  C   UNL A   1      36.880  32.507  28.558  1.00  0.00     0.010 A 
ATOM     45  C   UNL A   1      36.908  31.203  29.079  1.00  0.00    -0.014 A 
BRANCH  45  46
ATOM     46  C   UNL A   1      38.085  30.694  29.834  1.00  0.00     0.031 A 
ATOM     47  C   UNL A   1      38.291  31.070  31.281  1.00  0.00     0.074 A 
ATOM     48  C   UNL A   1      38.934  29.836  29.238  1.00  0.00     0.049 A 
ATOM     49  N   UNL A   1      39.261  30.726  32.092  1.00  0.00    -0.248 NA
ATOM     50  C   UNL A   1      37.284  31.948  31.898  1.00  0.00     0.031 C 
ATOM     51  C   UNL A   1      38.833  29.381  27.851  1.00  0.00     0.029 A 
ATOM     52  N   UNL A   1      40.031  29.173  29.726  1.00  0.00    -0.354 N 
ATOM     53  C   UNL A   1      38.996  31.364  33.299  1.00  0.00     0.074 A 
ATOM     54  C   UNL A   1      37.785  32.132  33.113  1.00  0.00     0.031 C 
ATOM     55  C   UNL A   1      39.791  28.473  27.615  1.00  0.00     0.029 A 
ATOM     56  C   UNL A   1      40.614  28.331  28.811  1.00  0.00     0.049 A 
ATOM     57  H   UNL A   1      40.369  29.290  30.643  1.00  0.00     0.167 HD
ATOM     58  C   UNL A   1      39.693  31.303  34.458  1.00  0.00     0.037 A 
ATOM     59  C   UNL A   1      41.701  27.544  28.915  1.00  0.00     0.037 A 
ATOM     60  C   UNL A   1      40.873  30.502  34.658  1.00  0.00     0.049 A 
ATOM     61  C   UNL A   1      42.467  27.514  30.206  1.00  0.00     0.074 A 
ATOM     62  C   UNL A   1      41.631  30.357  35.808  1.00  0.00     0.029 A 
ATOM     63  N   UNL A   1      41.458  29.701  33.690  1.00  0.00    -0.354 N 
ATOM     64  N   UNL A   1      42.210  28.132  31.333  1.00  0.00    -0.248 NA
ATOM     65  C   UNL A   1      43.683  26.690  30.237  1.00  0.00     0.031 C 
ATOM     66  C   UNL A   1      42.695  29.495  35.526  1.00  0.00     0.029 A 
ATOM     67  C   UNL A   1      42.577  29.072  34.212  1.00  0.00     0.049 A 
ATOM     68  H   UNL A   1      41.128  29.594  32.768  1.00  0.00     0.167 HD
ATOM     69  C   UNL A   1      43.225  27.770  32.206  1.00  0.00     0.074 A 
ATOM     70  C   UNL A   1      44.089  26.857  31.488  1.00  0.00     0.031 C 
ATOM     71  C   UNL A   1      43.427  28.167  33.484  1.00  0.00     0.037 A 
BRANCH  58  72
ATOM     72  C   UNL A   1      39.211  32.121  35.620  1.00  0.00     0.064 A 
ATOM     73  C   UNL A   1      38.364  31.579  36.597  1.00  0.00     0.173 A 
ATOM     74  C   UNL A   1      39.686  33.427  35.811  1.00  0.00     0.173 A 
ATOM     75  F   UNL A   1      37.877  30.337  36.454  1.00  0.00    -0.203 F 
ATOM     76  C   UNL A   1      38.008  32.317  37.722  1.00  0.00     0.198 A 
ATOM     77  C   UNL A   1      39.344  34.155  36.948  1.00  0.00     0.198 A 
ATOM     78  F   UNL A   1      40.505  33.988  34.908  1.00  0.00    -0.203 F 
ATOM     79  F   UNL A   1      37.184  31.786  38.636  1.00  0.00    -0.200 F 
ATOM     80  C   UNL A   1      38.507  33.599  37.903  1.00  0.00     0.200 A 
ATOM     81  F   UNL A   1      39.837  35.388  37.128  1.00  0.00    -0.200 F 
ATOM     82  F   UNL A   1      38.179  34.299  38.999  1.00  0.00    -0.200 F 
ENDBRANCH  58  72
BRANCH  59  83
ATOM     83  C   UNL A   1      42.130  26.726  27.752  1.00  0.00     0.064 A 
ATOM     84  C   UNL A   1      43.105  27.196  26.862  1.00  0.00     0.173 A 
ATOM     85  C   UNL A   1      41.588  25.454  27.518  1.00  0.00     0.173 A 
ATOM     86  F   UNL A   1      43.636  28.415  27.033  1.00  0.00    -0.203 F 
ATOM     87  C   UNL A   1      43.518  26.424  25.777  1.00  0.00     0.198 A 
ATOM     88  C   UNL A   1      42.021  24.673  26.450  1.00  0.00     0.198 A 
ATOM     89  F   UNL A   1      40.653  24.960  28.342  1.00  0.00    -0.203 F 
ATOM     90  F   UNL A   1      44.427  26.909  24.921  1.00  0.00    -0.200 F 
ATOM     91  C   UNL A   1      42.982  25.161  25.577  1.00  0.00     0.200 A 
ATOM     92  F   UNL A   1      41.512  23.446  26.269  1.00  0.00    -0.200 F 
ATOM     93  F   UNL A   1      43.388  24.415  24.540  1.00  0.00    -0.200 F 
ENDBRANCH  59  83
BRANCH  71  94
ATOM     94  C   UNL A   1      44.624  27.616  34.196  1.00  0.00     0.064 A 
ATOM     95  C   UNL A   1      45.843  28.307  34.209  1.00  0.00     0.173 A 
ATOM     96  C   UNL A   1      44.535  26.418  34.922  1.00  0.00     0.173 A 
ATOM     97  F   UNL A   1      45.979  29.449  33.518  1.00  0.00    -0.203 F 
ATOM     98  C   UNL A   1      46.937  27.813  34.914  1.00  0.00     0.198 A 
ATOM     99  C   UNL A   1      45.623  25.939  35.645  1.00  0.00     0.198 A 
ATOM    100  F   UNL A   1      43.387  25.726  34.944  1.00  0.00    -0.203 F 
ATOM    101  F   UNL A   1      48.103  28.473  34.889  1.00  0.00    -0.200 F 
ATOM    102  C   UNL A   1      46.823  26.634  35.638  1.00  0.00     0.200 A 
ATOM    103  F   UNL A   1      45.509  24.807  36.353  1.00  0.00    -0.200 F 
ATOM    104  F   UNL A   1      47.874  26.166  36.326  1.00  0.00    -0.200 F 
ENDBRANCH  71  94
ENDBRANCH  45  46
ENDBRANCH  37  40
ENDBRANCH  35  36
ENDBRANCH  34  35
ENDBRANCH   1  34
TORSDOF 15
ENDMDL
MODEL 3
REMARK VINA RESULT:     -13.0      4.064      7.838
REMARK SMILES COc1ccc2c(c1)OC[C@@]1(C(=O)NCCCCNC(=O)c3ccc(-c4c5nc(c(-c6c(F)c(F)c(F)c(F)c6F)c6ccc([nH]6)c(-c6c(F)c(F)c(F)c(F)c6F)c6nc(c(-c7c(F)c(F)c(F)c(F)c7F)c7ccc4[nH]7)C=C6)C=C5)cc3)C[N@@H+](Cc3cc(C(C)(C)C)n[nH]3)C[C@H]21
REMARK SMILES IDX 16 1 15 2 14 3 12 4 13 5 11 7 3 8 4 9 8 10 5 11 7 12 6 13
REMARK SMILES IDX 9 14 98 15 10 16 97 17 85 18 86 19 2 21 1 22 87 23 88 24
REMARK SMILES IDX 89 25 96 26 90 27 95 28 91 30 92 31 93 32 94 33 17 34 18 35
REMARK SMILES IDX 19 36 20 37 21 39 22 40 23 41 84 42 24 43 83 44 25 45 26 46
REMARK SMILES IDX 27 47 77 48 28 49 82 50 76 51 78 52 29 53 81 54 75 55 74 56
REMARK SMILES IDX 30 58 62 59 42 60 61 61 43 62 46 63 60 64 79 65 44 66 45 67
REMARK SMILES IDX 59 69 80 70 47 71 31 72 32 73 40 74 33 75 34 76 38 77 41 78
REMARK SMILES IDX 35 79 36 80 39 81 37 82 63 83 64 84 72 85 65 86 66 87 70 88
REMARK SMILES IDX 73 89 67 90 68 91 71 92 69 93 48 94 49 95 57 96 50 97 51 98
REMARK SMILES IDX 55 99 58 100 52 101 53 102 56 103 54 104
REMARK H PARENT 14 6 86 20 96 29 19 38 78 57 46 68
REMARK Flexibility Score: inf
ROOT
ATOM      1  C   UNL A   1      35.114  22.368  25.288  1.00  0.00     0.023 C 
ENDROOT
BRANCH   1   2
ATOM      2  C   UNL A   1      34.743  23.560  26.156  1.00  0.00     0.116 C 
BRANCH   2   3
ATOM      3  N   UNL A   1      33.520  23.393  26.918  1.00  0.00    -0.355 N 
ATOM      4  C   UNL A   1      32.265  23.343  26.364  1.00  0.00     0.236 C 
ATOM      5  O   UNL A   1      31.459  22.552  26.866  1.00  0.00    -0.274 OA
ATOM      6  H   UNL A   1      33.595  23.310  27.896  1.00  0.00     0.163 HD
BRANCH   4   7
ATOM      7  C   UNL A   1      31.966  24.278  25.164  1.00  0.00     0.144 C 
ATOM      8  C   UNL A   1      30.433  29.149  23.846  1.00  0.00     0.122 A 
ATOM      9  C   UNL A   1      30.087  28.361  22.746  1.00  0.00     0.047 A 
ATOM     10  C   UNL A   1      31.026  28.548  24.956  1.00  0.00     0.093 A 
ATOM     11  C   UNL A   1      30.363  26.993  22.736  1.00  0.00     0.012 A 
ATOM     12  C   UNL A   1      31.250  27.170  24.953  1.00  0.00     0.126 A 
ATOM     13  C   UNL A   1      30.977  26.390  23.840  1.00  0.00     0.005 A 
ATOM     14  O   UNL A   1      31.702  26.581  26.096  1.00  0.00    -0.492 OA
ATOM     15  C   UNL A   1      31.199  24.897  23.921  1.00  0.00     0.103 C 
ATOM     16  C   UNL A   1      31.204  25.220  26.210  1.00  0.00     0.253 C 
ATOM     17  C   UNL A   1      31.980  24.396  22.705  1.00  0.00     0.272 C 
ATOM     18  C   UNL A   1      31.689  22.846  24.412  1.00  0.00     0.284 C 
ATOM     19  N   UNL A   1      32.336  23.046  23.097  1.00  0.00    -0.328 N 
ATOM     20  H   UNL A   1      33.347  22.937  23.182  1.00  0.00     0.348 HD
BRANCH   8  21
ATOM     21  O   UNL A   1      30.097  30.469  23.724  1.00  0.00    -0.497 OA
ATOM     22  C   UNL A   1      28.744  30.756  23.399  1.00  0.00     0.278 C 
ENDBRANCH   8  21
BRANCH  19  23
ATOM     23  C   UNL A   1      32.104  22.013  22.087  1.00  0.00     0.319 C 
BRANCH  23  24
ATOM     24  C   UNL A   1      32.209  20.643  22.633  1.00  0.00     0.090 A 
ATOM     25  C   UNL A   1      32.790  20.149  23.779  1.00  0.00     0.055 A 
ATOM     26  N   UNL A   1      31.798  19.545  21.931  1.00  0.00    -0.277 N 
ATOM     27  C   UNL A   1      32.904  18.758  23.555  1.00  0.00     0.068 A 
ATOM     28  N   UNL A   1      32.231  18.391  22.455  1.00  0.00    -0.180 NA
ATOM     29  H   UNL A   1      31.241  19.599  21.121  1.00  0.00     0.190 HD
BRANCH  27  30
ATOM     30  C   UNL A   1      33.724  17.746  24.331  1.00  0.00     0.006 C 
ATOM     31  C   UNL A   1      33.951  16.486  23.482  1.00  0.00     0.017 C 
ATOM     32  C   UNL A   1      35.086  18.364  24.715  1.00  0.00     0.017 C 
ATOM     33  C   UNL A   1      33.020  17.336  25.644  1.00  0.00     0.017 C 
ENDBRANCH  27  30
ENDBRANCH  23  24
ENDBRANCH  19  23
ENDBRANCH   4   7
ENDBRANCH   2   3
ENDBRANCH   1   2
BRANCH   1  34
ATOM     34  C   UNL A   1      36.262  21.494  25.788  1.00  0.00     0.023 C 
BRANCH  34  35
ATOM     35  C   UNL A   1      37.577  21.586  25.025  1.00  0.00     0.116 C 
BRANCH  35  36
ATOM     36  N   UNL A   1      38.564  20.588  25.405  1.00  0.00    -0.352 N 
ATOM     37  C   UNL A   1      39.678  20.718  26.206  1.00  0.00     0.251 C 
ATOM     38  H   UNL A   1      38.415  19.687  25.037  1.00  0.00     0.163 HD
ATOM     39  O   UNL A   1      40.429  19.765  26.387  1.00  0.00    -0.269 OA
BRANCH  37  40
ATOM     40  C   UNL A   1      40.003  22.035  26.795  1.00  0.00     0.039 A 
ATOM     41  C   UNL A   1      39.408  23.201  26.312  1.00  0.00     0.014 A 
ATOM     42  C   UNL A   1      40.987  22.106  27.784  1.00  0.00     0.014 A 
ATOM     43  C   UNL A   1      39.953  24.434  26.649  1.00  0.00     0.010 A 
ATOM     44  C   UNL A   1      41.466  23.352  28.196  1.00  0.00     0.010 A 
ATOM     45  C   UNL A   1      41.004  24.524  27.577  1.00  0.00    -0.014 A 
BRANCH  45  46
ATOM     46  C   UNL A   1      41.630  25.846  27.853  1.00  0.00     0.031 A 
ATOM     47  C   UNL A   1      42.990  26.184  27.292  1.00  0.00     0.074 A 
ATOM     48  C   UNL A   1      40.945  26.771  28.552  1.00  0.00     0.049 A 
ATOM     49  N   UNL A   1      43.690  27.283  27.434  1.00  0.00    -0.248 NA
ATOM     50  C   UNL A   1      43.652  25.160  26.469  1.00  0.00     0.031 C 
ATOM     51  C   UNL A   1      39.617  26.572  29.132  1.00  0.00     0.029 A 
ATOM     52  N   UNL A   1      41.258  28.067  28.873  1.00  0.00    -0.354 N 
ATOM     53  C   UNL A   1      44.879  27.071  26.746  1.00  0.00     0.074 A 
ATOM     54  C   UNL A   1      44.818  25.734  26.199  1.00  0.00     0.031 C 
ATOM     55  C   UNL A   1      39.203  27.720  29.688  1.00  0.00     0.029 A 
ATOM     56  C   UNL A   1      40.263  28.715  29.564  1.00  0.00     0.049 A 
ATOM     57  H   UNL A   1      42.112  28.493  28.632  1.00  0.00     0.167 HD
ATOM     58  C   UNL A   1      45.920  27.920  26.575  1.00  0.00     0.037 A 
ATOM     59  C   UNL A   1      40.213  29.966  30.058  1.00  0.00     0.037 A 
ATOM     60  C   UNL A   1      45.963  29.268  27.079  1.00  0.00     0.049 A 
ATOM     61  C   UNL A   1      41.392  30.878  29.873  1.00  0.00     0.074 A 
ATOM     62  C   UNL A   1      46.966  30.212  26.932  1.00  0.00     0.029 A 
ATOM     63  N   UNL A   1      44.953  29.869  27.815  1.00  0.00    -0.354 N 
ATOM     64  N   UNL A   1      42.513  30.657  29.231  1.00  0.00    -0.248 NA
ATOM     65  C   UNL A   1      41.307  32.207  30.495  1.00  0.00     0.031 C 
ATOM     66  C   UNL A   1      46.579  31.372  27.608  1.00  0.00     0.029 A 
ATOM     67  C   UNL A   1      45.318  31.165  28.143  1.00  0.00     0.049 A 
ATOM     68  H   UNL A   1      44.104  29.439  28.068  1.00  0.00     0.167 HD
ATOM     69  C   UNL A   1      43.263  31.816  29.365  1.00  0.00     0.074 A 
ATOM     70  C   UNL A   1      42.460  32.749  30.128  1.00  0.00     0.031 C 
ATOM     71  C   UNL A   1      44.508  32.080  28.904  1.00  0.00     0.037 A 
BRANCH  58  72
ATOM     72  C   UNL A   1      47.115  27.433  25.809  1.00  0.00     0.064 A 
ATOM     73  C   UNL A   1      47.242  27.655  24.431  1.00  0.00     0.173 A 
ATOM     74  C   UNL A   1      48.189  26.831  26.481  1.00  0.00     0.173 A 
ATOM     75  F   UNL A   1      46.239  28.220  23.742  1.00  0.00    -0.203 F 
ATOM     76  C   UNL A   1      48.402  27.289  23.753  1.00  0.00     0.198 A 
ATOM     77  C   UNL A   1      49.356  26.485  25.803  1.00  0.00     0.198 A 
ATOM     78  F   UNL A   1      48.119  26.604  27.801  1.00  0.00    -0.203 F 
ATOM     79  F   UNL A   1      48.496  27.496  22.432  1.00  0.00    -0.200 F 
ATOM     80  C   UNL A   1      49.461  26.715  24.440  1.00  0.00     0.200 A 
ATOM     81  F   UNL A   1      50.383  25.943  26.471  1.00  0.00    -0.200 F 
ATOM     82  F   UNL A   1      50.585  26.384  23.788  1.00  0.00    -0.200 F 
ENDBRANCH  58  72
BRANCH  59  83
ATOM     83  C   UNL A   1      39.001  30.421  30.786  1.00  0.00     0.064 A 
ATOM     84  C   UNL A   1      38.884  30.244  32.170  1.00  0.00     0.173 A 
ATOM     85  C   UNL A   1      37.946  31.058  30.115  1.00  0.00     0.173 A 
ATOM     86  F   UNL A   1      39.856  29.621  32.851  1.00  0.00    -0.203 F 
ATOM     87  C   UNL A   1      37.752  30.681  32.857  1.00  0.00     0.198 A 
ATOM     88  C   UNL A   1      36.829  31.519  30.806  1.00  0.00     0.198 A 
ATOM     89  F   UNL A   1      38.013  31.252  28.790  1.00  0.00    -0.203 F 
ATOM     90  F   UNL A   1      37.648  30.470  34.176  1.00  0.00    -0.200 F 
ATOM     91  C   UNL A   1      36.731  31.326  32.175  1.00  0.00     0.200 A 
ATOM     92  F   UNL A   1      35.852  32.156  30.145  1.00  0.00    -0.200 F 
ATOM     93  F   UNL A   1      35.648  31.757  32.837  1.00  0.00    -0.200 F 
ENDBRANCH  59  83
BRANCH  71  94
ATOM     94  C   UNL A   1      45.084  33.429  29.207  1.00  0.00     0.064 A 
ATOM     95  C   UNL A   1      44.848  34.525  28.365  1.00  0.00     0.173 A 
ATOM     96  C   UNL A   1      45.824  33.643  30.380  1.00  0.00     0.173 A 
ATOM     97  F   UNL A   1      44.158  34.364  27.227  1.00  0.00    -0.203 F 
ATOM     98  C   UNL A   1      45.345  35.786  28.680  1.00  0.00     0.198 A 
ATOM     99  C   UNL A   1      46.299  34.910  30.703  1.00  0.00     0.198 A 
ATOM    100  F   UNL A   1      46.068  32.626  31.219  1.00  0.00    -0.203 F 
ATOM    101  F   UNL A   1      45.135  36.815  27.847  1.00  0.00    -0.200 F 
ATOM    102  C   UNL A   1      46.063  35.980  29.852  1.00  0.00     0.200 A 
ATOM    103  F   UNL A   1      46.981  35.098  31.841  1.00  0.00    -0.200 F 
ATOM    104  F   UNL A   1      46.530  37.198  30.159  1.00  0.00    -0.200 F 
ENDBRANCH  71  94
ENDBRANCH  45  46
ENDBRANCH  37  40
ENDBRANCH  35  36
ENDBRANCH  34  35
ENDBRANCH   1  34
TORSDOF 15
ENDMDL
