MODEL 1
REMARK VINA RESULT:     -13.7      0.000      0.000
REMARK SMILES Cc1cc(F)c(-c2ccc(F)c(C(=O)NCCCCNC(=O)c3ccc(-c4c5nc(c(-c6c(F)c(F)c(F)c(F)c6F)c6ccc([nH]6)c(-c6c(F)c(F)c(F)c(F)c6F)c6nc(c(-c7c(F)c(F)c(F)c(F)c7F)c7ccc4[nH]7)C=C6)C=C5)cc3)c2)cc1F
REMARK SMILES IDX 18 1 17 2 16 3 15 4 13 5 14 6 12 8 7 9 8 10 86 11 9 12 10 13
REMARK SMILES IDX 11 14 6 15 1 16 2 17 3 18 88 19 4 20 87 21 89 22 5 23 19 24
REMARK SMILES IDX 20 25 21 26 22 28 23 29 24 30 85 31 25 32 84 33 26 34 27 35
REMARK SMILES IDX 28 36 78 37 29 38 83 39 77 40 79 41 30 42 82 43 76 44 75 45
REMARK SMILES IDX 31 47 63 48 43 49 62 50 44 51 47 52 61 53 80 54 45 55 46 56
REMARK SMILES IDX 60 58 81 59 48 60 32 61 33 62 41 63 34 64 35 65 39 66 42 67
REMARK SMILES IDX 36 68 37 69 40 70 38 71 64 72 65 73 73 74 66 75 67 76 71 77
REMARK SMILES IDX 74 78 68 79 69 80 72 81 70 82 49 83 50 84 58 85 51 86 52 87
REMARK SMILES IDX 56 88 59 89 53 90 54 91 57 92 55 93
REMARK H PARENT 15 7 20 27 79 46 47 57
REMARK Flexibility Score: inf
ROOT
ATOM      1  C   UNL A   1      31.807  31.840  26.864  1.00  0.00     0.023 C 
ENDROOT
BRANCH   1   2
ATOM      2  C   UNL A   1      32.046  30.341  26.963  1.00  0.00     0.023 C 
BRANCH   2   3
ATOM      3  C   UNL A   1      33.447  29.846  26.623  1.00  0.00     0.116 C 
BRANCH   3   4
ATOM      4  N   UNL A   1      33.723  29.675  25.205  1.00  0.00    -0.352 N 
ATOM      5  C   UNL A   1      33.509  28.593  24.372  1.00  0.00     0.254 C 
ATOM      6  O   UNL A   1      33.730  28.730  23.172  1.00  0.00    -0.269 OA
ATOM      7  H   UNL A   1      34.129  30.457  24.767  1.00  0.00     0.163 HD
BRANCH   5   8
ATOM      8  C   UNL A   1      33.061  27.284  24.905  1.00  0.00     0.076 A 
ATOM      9  C   UNL A   1      33.518  24.926  25.360  1.00  0.00    -0.014 A 
ATOM     10  C   UNL A   1      32.142  24.727  25.560  1.00  0.00     0.012 A 
ATOM     11  C   UNL A   1      33.963  26.241  25.145  1.00  0.00     0.025 A 
ATOM     12  C   UNL A   1      31.242  25.792  25.463  1.00  0.00     0.041 A 
ATOM     13  C   UNL A   1      31.701  27.056  25.102  1.00  0.00     0.135 A 
ATOM     14  F   UNL A   1      30.792  28.020  24.900  1.00  0.00    -0.206 F 
BRANCH   9  15
ATOM     15  C   UNL A   1      34.454  23.795  25.194  1.00  0.00     0.020 A 
ATOM     16  C   UNL A   1      37.555  20.787  24.729  1.00  0.00     0.047 C 
ATOM     17  C   UNL A   1      36.490  21.827  24.894  1.00  0.00    -0.012 A 
ATOM     18  C   UNL A   1      35.793  21.953  26.100  1.00  0.00     0.046 A 
ATOM     19  C   UNL A   1      36.141  22.668  23.839  1.00  0.00     0.126 A 
ATOM     20  C   UNL A   1      34.798  22.925  26.241  1.00  0.00     0.131 A 
ATOM     21  C   UNL A   1      35.149  23.637  23.980  1.00  0.00     0.051 A 
ATOM     22  F   UNL A   1      36.784  22.575  22.666  1.00  0.00    -0.207 F 
ATOM     23  F   UNL A   1      34.190  23.028  27.432  1.00  0.00    -0.206 F 
ENDBRANCH   9  15
ENDBRANCH   5   8
ENDBRANCH   3   4
ENDBRANCH   2   3
ENDBRANCH   1   2
BRANCH   1  24
ATOM     24  C   UNL A   1      32.919  32.735  27.393  1.00  0.00     0.116 C 
BRANCH  24  25
ATOM     25  N   UNL A   1      32.495  34.091  27.714  1.00  0.00    -0.352 N 
ATOM     26  C   UNL A   1      33.002  34.992  28.628  1.00  0.00     0.251 C 
ATOM     27  H   UNL A   1      31.724  34.417  27.197  1.00  0.00     0.163 HD
ATOM     28  O   UNL A   1      32.457  36.077  28.789  1.00  0.00    -0.269 OA
BRANCH  26  29
ATOM     29  C   UNL A   1      34.166  34.619  29.463  1.00  0.00     0.039 A 
ATOM     30  C   UNL A   1      35.456  34.618  28.935  1.00  0.00     0.014 A 
ATOM     31  C   UNL A   1      33.946  34.199  30.778  1.00  0.00     0.014 A 
ATOM     32  C   UNL A   1      36.474  33.971  29.625  1.00  0.00     0.010 A 
ATOM     33  C   UNL A   1      34.998  33.647  31.514  1.00  0.00     0.010 A 
ATOM     34  C   UNL A   1      36.251  33.454  30.912  1.00  0.00    -0.014 A 
BRANCH  34  35
ATOM     35  C   UNL A   1      37.329  32.679  31.583  1.00  0.00     0.031 A 
ATOM     36  C   UNL A   1      38.045  31.568  30.860  1.00  0.00     0.074 A 
ATOM     37  C   UNL A   1      37.716  33.025  32.826  1.00  0.00     0.049 A 
ATOM     38  N   UNL A   1      39.027  30.808  31.278  1.00  0.00    -0.248 NA
ATOM     39  C   UNL A   1      37.596  31.259  29.494  1.00  0.00     0.031 C 
ATOM     40  C   UNL A   1      37.108  34.085  33.628  1.00  0.00     0.029 A 
ATOM     41  N   UNL A   1      38.729  32.546  33.616  1.00  0.00    -0.354 N 
ATOM     42  C   UNL A   1      39.289  29.917  30.246  1.00  0.00     0.074 A 
ATOM     43  C   UNL A   1      38.350  30.213  29.186  1.00  0.00     0.031 C 
ATOM     44  C   UNL A   1      37.795  34.219  34.771  1.00  0.00     0.029 A 
ATOM     45  C   UNL A   1      38.853  33.214  34.809  1.00  0.00     0.049 A 
ATOM     46  H   UNL A   1      39.311  31.797  33.354  1.00  0.00     0.167 HD
ATOM     47  C   UNL A   1      40.233  28.948  30.183  1.00  0.00     0.037 A 
ATOM     48  C   UNL A   1      39.715  33.034  35.827  1.00  0.00     0.037 A 
ATOM     49  C   UNL A   1      41.202  28.686  31.215  1.00  0.00     0.049 A 
ATOM     50  C   UNL A   1      40.749  31.951  35.736  1.00  0.00     0.074 A 
ATOM     51  C   UNL A   1      42.237  27.768  31.213  1.00  0.00     0.029 A 
ATOM     52  N   UNL A   1      41.256  29.348  32.433  1.00  0.00    -0.354 N 
ATOM     53  N   UNL A   1      40.989  31.123  34.751  1.00  0.00    -0.248 NA
ATOM     54  C   UNL A   1      41.620  31.768  36.905  1.00  0.00     0.031 C 
ATOM     55  C   UNL A   1      42.892  27.845  32.446  1.00  0.00     0.029 A 
ATOM     56  C   UNL A   1      42.291  28.838  33.201  1.00  0.00     0.049 A 
ATOM     57  H   UNL A   1      40.650  30.072  32.711  1.00  0.00     0.167 HD
ATOM     58  C   UNL A   1      42.033  30.317  35.177  1.00  0.00     0.074 A 
ATOM     59  C   UNL A   1      42.399  30.772  36.503  1.00  0.00     0.031 C 
ATOM     60  C   UNL A   1      42.628  29.286  34.529  1.00  0.00     0.037 A 
BRANCH  47  61
ATOM     61  C   UNL A   1      40.262  28.078  28.960  1.00  0.00     0.064 A 
ATOM     62  C   UNL A   1      41.010  28.423  27.824  1.00  0.00     0.173 A 
ATOM     63  C   UNL A   1      39.573  26.856  28.946  1.00  0.00     0.173 A 
ATOM     64  F   UNL A   1      41.677  29.586  27.783  1.00  0.00    -0.203 F 
ATOM     65  C   UNL A   1      41.050  27.585  26.712  1.00  0.00     0.198 A 
ATOM     66  C   UNL A   1      39.635  26.010  27.842  1.00  0.00     0.198 A 
ATOM     67  F   UNL A   1      38.849  26.476  30.009  1.00  0.00    -0.203 F 
ATOM     68  F   UNL A   1      41.740  27.951  25.624  1.00  0.00    -0.200 F 
ATOM     69  C   UNL A   1      40.368  26.377  26.725  1.00  0.00     0.200 A 
ATOM     70  F   UNL A   1      38.984  24.837  27.860  1.00  0.00    -0.200 F 
ATOM     71  F   UNL A   1      40.415  25.569  25.657  1.00  0.00    -0.200 F 
ENDBRANCH  47  61
BRANCH  48  72
ATOM     72  C   UNL A   1      39.616  33.918  37.015  1.00  0.00     0.064 A 
ATOM     73  C   UNL A   1      40.235  35.173  37.031  1.00  0.00     0.173 A 
ATOM     74  C   UNL A   1      38.838  33.554  38.125  1.00  0.00     0.173 A 
ATOM     75  F   UNL A   1      41.003  35.554  35.999  1.00  0.00    -0.203 F 
ATOM     76  C   UNL A   1      40.071  36.039  38.110  1.00  0.00     0.198 A 
ATOM     77  C   UNL A   1      38.655  34.429  39.191  1.00  0.00     0.198 A 
ATOM     78  F   UNL A   1      38.221  32.363  38.150  1.00  0.00    -0.203 F 
ATOM     79  F   UNL A   1      40.682  37.231  38.107  1.00  0.00    -0.200 F 
ATOM     80  C   UNL A   1      39.272  35.671  39.182  1.00  0.00     0.200 A 
ATOM     81  F   UNL A   1      37.867  34.078  40.217  1.00  0.00    -0.200 F 
ATOM     82  F   UNL A   1      39.093  36.516  40.207  1.00  0.00    -0.200 F 
ENDBRANCH  48  72
BRANCH  60  83
ATOM     83  C   UNL A   1      43.726  28.563  35.249  1.00  0.00     0.064 A 
ATOM     84  C   UNL A   1      43.450  27.459  36.068  1.00  0.00     0.173 A 
ATOM     85  C   UNL A   1      45.067  28.935  35.070  1.00  0.00     0.173 A 
ATOM     86  F   UNL A   1      42.183  27.075  36.280  1.00  0.00    -0.203 F 
ATOM     87  C   UNL A   1      44.478  26.760  36.694  1.00  0.00     0.198 A 
ATOM     88  C   UNL A   1      46.093  28.219  35.678  1.00  0.00     0.198 A 
ATOM     89  F   UNL A   1      45.380  29.980  34.290  1.00  0.00    -0.203 F 
ATOM     90  F   UNL A   1      44.191  25.725  37.497  1.00  0.00    -0.200 F 
ATOM     91  C   UNL A   1      45.799  27.135  36.491  1.00  0.00     0.200 A 
ATOM     92  F   UNL A   1      47.370  28.575  35.474  1.00  0.00    -0.200 F 
ATOM     93  F   UNL A   1      46.788  26.453  37.084  1.00  0.00    -0.200 F 
ENDBRANCH  60  83
ENDBRANCH  34  35
ENDBRANCH  26  29
ENDBRANCH  24  25
ENDBRANCH   1  24
TORSDOF 12
ENDMDL
MODEL 2
REMARK VINA RESULT:     -13.6      2.120      7.841
REMARK SMILES Cc1cc(F)c(-c2ccc(F)c(C(=O)NCCCCNC(=O)c3ccc(-c4c5nc(c(-c6c(F)c(F)c(F)c(F)c6F)c6ccc([nH]6)c(-c6c(F)c(F)c(F)c(F)c6F)c6nc(c(-c7c(F)c(F)c(F)c(F)c7F)c7ccc4[nH]7)C=C6)C=C5)cc3)c2)cc1F
REMARK SMILES IDX 18 1 17 2 16 3 15 4 13 5 14 6 12 8 7 9 8 10 86 11 9 12 10 13
REMARK SMILES IDX 11 14 6 15 1 16 2 17 3 18 88 19 4 20 87 21 89 22 5 23 19 24
REMARK SMILES IDX 20 25 21 26 22 28 23 29 24 30 85 31 25 32 84 33 26 34 27 35
REMARK SMILES IDX 28 36 78 37 29 38 83 39 77 40 79 41 30 42 82 43 76 44 75 45
REMARK SMILES IDX 31 47 63 48 43 49 62 50 44 51 47 52 61 53 80 54 45 55 46 56
REMARK SMILES IDX 60 58 81 59 48 60 32 61 33 62 41 63 34 64 35 65 39 66 42 67
REMARK SMILES IDX 36 68 37 69 40 70 38 71 64 72 65 73 73 74 66 75 67 76 71 77
REMARK SMILES IDX 74 78 68 79 69 80 72 81 70 82 49 83 50 84 58 85 51 86 52 87
REMARK SMILES IDX 56 88 59 89 53 90 54 91 57 92 55 93
REMARK H PARENT 15 7 20 27 79 46 47 57
REMARK Flexibility Score: inf
ROOT
ATOM      1  C   UNL A   1      31.791  29.100  26.941  1.00  0.00     0.023 C 
ENDROOT
BRANCH   1   2
ATOM      2  C   UNL A   1      32.286  27.672  26.760  1.00  0.00     0.023 C 
BRANCH   2   3
ATOM      3  C   UNL A   1      31.447  26.763  25.872  1.00  0.00     0.116 C 
BRANCH   3   4
ATOM      4  N   UNL A   1      30.762  25.677  26.557  1.00  0.00    -0.352 N 
ATOM      5  C   UNL A   1      30.867  24.308  26.400  1.00  0.00     0.254 C 
ATOM      6  O   UNL A   1      30.255  23.585  27.181  1.00  0.00    -0.269 OA
ATOM      7  H   UNL A   1      30.119  25.964  27.244  1.00  0.00     0.163 HD
BRANCH   5   8
ATOM      8  C   UNL A   1      31.663  23.715  25.299  1.00  0.00     0.076 A 
ATOM      9  C   UNL A   1      33.771  22.779  24.489  1.00  0.00    -0.014 A 
ATOM     10  C   UNL A   1      33.302  22.934  23.174  1.00  0.00     0.012 A 
ATOM     11  C   UNL A   1      32.883  23.072  25.537  1.00  0.00     0.025 A 
ATOM     12  C   UNL A   1      32.025  23.444  22.924  1.00  0.00     0.041 A 
ATOM     13  C   UNL A   1      31.226  23.864  23.984  1.00  0.00     0.135 A 
ATOM     14  F   UNL A   1      30.061  24.460  23.695  1.00  0.00    -0.206 F 
BRANCH   9  15
ATOM     15  C   UNL A   1      35.191  22.498  24.783  1.00  0.00     0.020 A 
ATOM     16  C   UNL A   1      39.264  21.752  26.101  1.00  0.00     0.047 C 
ATOM     17  C   UNL A   1      37.858  22.006  25.652  1.00  0.00    -0.012 A 
ATOM     18  C   UNL A   1      37.028  20.948  25.265  1.00  0.00     0.046 A 
ATOM     19  C   UNL A   1      37.354  23.303  25.573  1.00  0.00     0.126 A 
ATOM     20  C   UNL A   1      35.718  21.198  24.843  1.00  0.00     0.131 A 
ATOM     21  C   UNL A   1      36.048  23.551  25.154  1.00  0.00     0.051 A 
ATOM     22  F   UNL A   1      38.121  24.343  25.932  1.00  0.00    -0.207 F 
ATOM     23  F   UNL A   1      34.954  20.143  24.522  1.00  0.00    -0.206 F 
ENDBRANCH   9  15
ENDBRANCH   5   8
ENDBRANCH   3   4
ENDBRANCH   2   3
ENDBRANCH   1   2
BRANCH   1  24
ATOM     24  C   UNL A   1      32.562  30.178  26.192  1.00  0.00     0.116 C 
BRANCH  24  25
ATOM     25  N   UNL A   1      32.398  31.519  26.737  1.00  0.00    -0.352 N 
ATOM     26  C   UNL A   1      33.266  32.294  27.478  1.00  0.00     0.251 C 
ATOM     27  H   UNL A   1      31.529  31.940  26.545  1.00  0.00     0.163 HD
ATOM     28  O   UNL A   1      32.910  33.389  27.895  1.00  0.00    -0.269 OA
BRANCH  26  29
ATOM     29  C   UNL A   1      34.606  31.772  27.826  1.00  0.00     0.039 A 
ATOM     30  C   UNL A   1      34.801  30.419  28.098  1.00  0.00     0.014 A 
ATOM     31  C   UNL A   1      35.670  32.671  27.947  1.00  0.00     0.014 A 
ATOM     32  C   UNL A   1      35.973  30.011  28.722  1.00  0.00     0.010 A 
ATOM     33  C   UNL A   1      36.889  32.236  28.475  1.00  0.00     0.010 A 
ATOM     34  C   UNL A   1      37.022  30.920  28.942  1.00  0.00    -0.014 A 
BRANCH  34  35
ATOM     35  C   UNL A   1      38.222  30.478  29.702  1.00  0.00     0.031 A 
ATOM     36  C   UNL A   1      38.400  30.854  31.150  1.00  0.00     0.074 A 
ATOM     37  C   UNL A   1      39.121  29.672  29.106  1.00  0.00     0.049 A 
ATOM     38  N   UNL A   1      39.365  30.533  31.975  1.00  0.00    -0.248 NA
ATOM     39  C   UNL A   1      37.366  31.711  31.752  1.00  0.00     0.031 C 
ATOM     40  C   UNL A   1      39.059  29.232  27.713  1.00  0.00     0.029 A 
ATOM     41  N   UNL A   1      40.242  29.057  29.603  1.00  0.00    -0.354 N 
ATOM     42  C   UNL A   1      39.074  31.170  33.174  1.00  0.00     0.074 A 
ATOM     43  C   UNL A   1      37.852  31.916  32.968  1.00  0.00     0.031 C 
ATOM     44  C   UNL A   1      40.059  28.370  27.482  1.00  0.00     0.029 A 
ATOM     45  C   UNL A   1      40.869  28.245  28.690  1.00  0.00     0.049 A 
ATOM     46  H   UNL A   1      40.565  29.184  30.524  1.00  0.00     0.167 HD
ATOM     47  C   UNL A   1      39.758  31.130  34.342  1.00  0.00     0.037 A 
ATOM     48  C   UNL A   1      41.977  27.491  28.806  1.00  0.00     0.037 A 
ATOM     49  C   UNL A   1      40.945  30.347  34.564  1.00  0.00     0.049 A 
ATOM     50  C   UNL A   1      42.719  27.464  30.109  1.00  0.00     0.074 A 
ATOM     51  C   UNL A   1      41.669  30.191  35.734  1.00  0.00     0.029 A 
ATOM     52  N   UNL A   1      41.580  29.583  33.596  1.00  0.00    -0.354 N 
ATOM     53  N   UNL A   1      42.427  28.066  31.235  1.00  0.00    -0.248 NA
ATOM     54  C   UNL A   1      43.953  26.668  30.152  1.00  0.00     0.031 C 
ATOM     55  C   UNL A   1      42.767  29.368  35.462  1.00  0.00     0.029 A 
ATOM     56  C   UNL A   1      42.704  28.978  34.134  1.00  0.00     0.049 A 
ATOM     57  H   UNL A   1      41.278  29.486  32.664  1.00  0.00     0.167 HD
ATOM     58  C   UNL A   1      43.438  27.728  32.121  1.00  0.00     0.074 A 
ATOM     59  C   UNL A   1      44.341  26.846  31.409  1.00  0.00     0.031 C 
ATOM     60  C   UNL A   1      43.606  28.121  33.407  1.00  0.00     0.037 A 
BRANCH  47  61
ATOM     61  C   UNL A   1      39.250  31.968  35.479  1.00  0.00     0.064 A 
ATOM     62  C   UNL A   1      38.413  31.439  36.473  1.00  0.00     0.173 A 
ATOM     63  C   UNL A   1      39.651  33.307  35.603  1.00  0.00     0.173 A 
ATOM     64  F   UNL A   1      37.992  30.168  36.394  1.00  0.00    -0.203 F 
ATOM     65  C   UNL A   1      37.980  32.226  37.538  1.00  0.00     0.198 A 
ATOM     66  C   UNL A   1      39.236  34.084  36.682  1.00  0.00     0.198 A 
ATOM     67  F   UNL A   1      40.457  33.859  34.684  1.00  0.00    -0.203 F 
ATOM     68  F   UNL A   1      37.151  31.711  38.456  1.00  0.00    -0.200 F 
ATOM     69  C   UNL A   1      38.397  33.544  37.645  1.00  0.00     0.200 A 
ATOM     70  F   UNL A   1      39.649  35.355  36.790  1.00  0.00    -0.200 F 
ATOM     71  F   UNL A   1      37.986  34.297  38.674  1.00  0.00    -0.200 F 
ENDBRANCH  47  61
BRANCH  48  72
ATOM     72  C   UNL A   1      42.434  26.702  27.635  1.00  0.00     0.064 A 
ATOM     73  C   UNL A   1      43.358  27.232  26.727  1.00  0.00     0.173 A 
ATOM     74  C   UNL A   1      42.011  25.378  27.445  1.00  0.00     0.173 A 
ATOM     75  F   UNL A   1      43.775  28.500  26.859  1.00  0.00    -0.203 F 
ATOM     76  C   UNL A   1      43.852  26.462  25.676  1.00  0.00     0.198 A 
ATOM     77  C   UNL A   1      42.523  24.601  26.410  1.00  0.00     0.198 A 
ATOM     78  F   UNL A   1      41.131  24.827  28.295  1.00  0.00    -0.203 F 
ATOM     79  F   UNL A   1      44.728  26.994  24.813  1.00  0.00    -0.200 F 
ATOM     80  C   UNL A   1      43.444  25.145  25.527  1.00  0.00     0.200 A 
ATOM     81  F   UNL A   1      42.140  23.324  26.280  1.00  0.00    -0.200 F 
ATOM     82  F   UNL A   1      43.941  24.397  24.532  1.00  0.00    -0.200 F 
ENDBRANCH  48  72
BRANCH  60  83
ATOM     83  C   UNL A   1      44.821  27.619  34.126  1.00  0.00     0.064 A 
ATOM     84  C   UNL A   1      45.994  28.385  34.188  1.00  0.00     0.173 A 
ATOM     85  C   UNL A   1      44.794  26.396  34.811  1.00  0.00     0.173 A 
ATOM     86  F   UNL A   1      46.072  29.555  33.537  1.00  0.00    -0.203 F 
ATOM     87  C   UNL A   1      47.103  27.937  34.901  1.00  0.00     0.198 A 
ATOM     88  C   UNL A   1      45.897  25.962  35.542  1.00  0.00     0.198 A 
ATOM     89  F   UNL A   1      43.693  25.630  34.786  1.00  0.00    -0.203 F 
ATOM     90  F   UNL A   1      48.225  28.671  34.923  1.00  0.00    -0.200 F 
ATOM     91  C   UNL A   1      47.050  26.731  35.584  1.00  0.00     0.200 A 
ATOM     92  F   UNL A   1      45.842  24.801  36.210  1.00  0.00    -0.200 F 
ATOM     93  F   UNL A   1      48.114  26.307  36.280  1.00  0.00    -0.200 F 
ENDBRANCH  60  83
ENDBRANCH  34  35
ENDBRANCH  26  29
ENDBRANCH  24  25
ENDBRANCH   1  24
TORSDOF 12
ENDMDL
MODEL 3
REMARK VINA RESULT:     -13.6      2.148      7.934
REMARK SMILES Cc1cc(F)c(-c2ccc(F)c(C(=O)NCCCCNC(=O)c3ccc(-c4c5nc(c(-c6c(F)c(F)c(F)c(F)c6F)c6ccc([nH]6)c(-c6c(F)c(F)c(F)c(F)c6F)c6nc(c(-c7c(F)c(F)c(F)c(F)c7F)c7ccc4[nH]7)C=C6)C=C5)cc3)c2)cc1F
REMARK SMILES IDX 18 1 17 2 16 3 15 4 13 5 14 6 12 8 7 9 8 10 86 11 9 12 10 13
REMARK SMILES IDX 11 14 6 15 1 16 2 17 3 18 88 19 4 20 87 21 89 22 5 23 19 24
REMARK SMILES IDX 20 25 21 26 22 28 23 29 24 30 85 31 25 32 84 33 26 34 27 35
REMARK SMILES IDX 28 36 78 37 29 38 83 39 77 40 79 41 30 42 82 43 76 44 75 45
REMARK SMILES IDX 31 47 63 48 43 49 62 50 44 51 47 52 61 53 80 54 45 55 46 56
REMARK SMILES IDX 60 58 81 59 48 60 32 61 33 62 41 63 34 64 35 65 39 66 42 67
REMARK SMILES IDX 36 68 37 69 40 70 38 71 64 72 65 73 73 74 66 75 67 76 71 77
REMARK SMILES IDX 74 78 68 79 69 80 72 81 70 82 49 83 50 84 58 85 51 86 52 87
REMARK SMILES IDX 56 88 59 89 53 90 54 91 57 92 55 93
REMARK H PARENT 15 7 20 27 79 46 47 57
REMARK Flexibility Score: inf
ROOT
ATOM      1  C   UNL A   1      31.791  28.996  26.755  1.00  0.00     0.023 C 
ENDROOT
BRANCH   1   2
ATOM      2  C   UNL A   1      32.334  27.583  26.904  1.00  0.00     0.023 C 
BRANCH   2   3
ATOM      3  C   UNL A   1      31.739  26.520  25.990  1.00  0.00     0.116 C 
BRANCH   3   4
ATOM      4  N   UNL A   1      30.985  25.470  26.658  1.00  0.00    -0.352 N 
ATOM      5  C   UNL A   1      31.013  24.098  26.491  1.00  0.00     0.254 C 
ATOM      6  O   UNL A   1      30.351  23.405  27.259  1.00  0.00    -0.269 OA
ATOM      7  H   UNL A   1      30.352  25.789  27.340  1.00  0.00     0.163 HD
BRANCH   5   8
ATOM      8  C   UNL A   1      31.785  23.469  25.394  1.00  0.00     0.076 A 
ATOM      9  C   UNL A   1      33.884  22.529  24.563  1.00  0.00    -0.014 A 
ATOM     10  C   UNL A   1      33.374  22.618  23.258  1.00  0.00     0.012 A 
ATOM     11  C   UNL A   1      33.022  22.856  25.623  1.00  0.00     0.025 A 
ATOM     12  C   UNL A   1      32.083  23.098  23.023  1.00  0.00     0.041 A 
ATOM     13  C   UNL A   1      31.308  23.553  24.087  1.00  0.00     0.135 A 
ATOM     14  F   UNL A   1      30.126  24.118  23.807  1.00  0.00    -0.206 F 
BRANCH   9  15
ATOM     15  C   UNL A   1      35.317  22.283  24.827  1.00  0.00     0.020 A 
ATOM     16  C   UNL A   1      39.433  21.634  26.059  1.00  0.00     0.047 C 
ATOM     17  C   UNL A   1      38.012  21.854  25.640  1.00  0.00    -0.012 A 
ATOM     18  C   UNL A   1      37.201  20.778  25.265  1.00  0.00     0.046 A 
ATOM     19  C   UNL A   1      37.475  23.139  25.576  1.00  0.00     0.126 A 
ATOM     20  C   UNL A   1      35.877  20.996  24.871  1.00  0.00     0.131 A 
ATOM     21  C   UNL A   1      36.155  23.355  25.185  1.00  0.00     0.051 A 
ATOM     22  F   UNL A   1      38.222  24.196  25.924  1.00  0.00    -0.207 F 
ATOM     23  F   UNL A   1      35.133  19.924  24.561  1.00  0.00    -0.206 F 
ENDBRANCH   9  15
ENDBRANCH   5   8
ENDBRANCH   3   4
ENDBRANCH   2   3
ENDBRANCH   1   2
BRANCH   1  24
ATOM     24  C   UNL A   1      32.757  30.031  26.193  1.00  0.00     0.116 C 
BRANCH  24  25
ATOM     25  N   UNL A   1      32.584  31.370  26.739  1.00  0.00    -0.352 N 
ATOM     26  C   UNL A   1      33.436  32.139  27.504  1.00  0.00     0.251 C 
ATOM     27  H   UNL A   1      31.721  31.795  26.528  1.00  0.00     0.163 HD
ATOM     28  O   UNL A   1      33.073  33.234  27.917  1.00  0.00    -0.269 OA
BRANCH  26  29
ATOM     29  C   UNL A   1      34.766  31.612  27.882  1.00  0.00     0.039 A 
ATOM     30  C   UNL A   1      34.934  30.273  28.233  1.00  0.00     0.014 A 
ATOM     31  C   UNL A   1      35.848  32.495  27.951  1.00  0.00     0.014 A 
ATOM     32  C   UNL A   1      36.098  29.878  28.880  1.00  0.00     0.010 A 
ATOM     33  C   UNL A   1      37.057  32.067  28.504  1.00  0.00     0.010 A 
ATOM     34  C   UNL A   1      37.165  30.777  29.047  1.00  0.00    -0.014 A 
BRANCH  34  35
ATOM     35  C   UNL A   1      38.356  30.357  29.833  1.00  0.00     0.031 A 
ATOM     36  C   UNL A   1      38.508  30.755  31.278  1.00  0.00     0.074 A 
ATOM     37  C   UNL A   1      39.271  29.550  29.263  1.00  0.00     0.049 A 
ATOM     38  N   UNL A   1      39.463  30.453  32.122  1.00  0.00    -0.248 NA
ATOM     39  C   UNL A   1      37.458  31.611  31.850  1.00  0.00     0.031 C 
ATOM     40  C   UNL A   1      39.235  29.089  27.875  1.00  0.00     0.029 A 
ATOM     41  N   UNL A   1      40.389  28.951  29.786  1.00  0.00    -0.354 N 
ATOM     42  C   UNL A   1      39.148  31.106  33.307  1.00  0.00     0.074 A 
ATOM     43  C   UNL A   1      37.923  31.839  33.072  1.00  0.00     0.031 C 
ATOM     44  C   UNL A   1      40.246  28.233  27.672  1.00  0.00     0.029 A 
ATOM     45  C   UNL A   1      41.037  28.132  28.894  1.00  0.00     0.049 A 
ATOM     46  H   UNL A   1      40.697  29.094  30.709  1.00  0.00     0.167 HD
ATOM     47  C   UNL A   1      39.813  31.088  34.486  1.00  0.00     0.037 A 
ATOM     48  C   UNL A   1      42.149  27.388  29.039  1.00  0.00     0.037 A 
ATOM     49  C   UNL A   1      41.003  30.318  34.738  1.00  0.00     0.049 A 
ATOM     50  C   UNL A   1      42.871  27.387  30.353  1.00  0.00     0.074 A 
ATOM     51  C   UNL A   1      41.710  30.185  35.921  1.00  0.00     0.029 A 
ATOM     52  N   UNL A   1      41.660  29.546  33.791  1.00  0.00    -0.354 N 
ATOM     53  N   UNL A   1      42.556  28.002  31.466  1.00  0.00    -0.248 NA
ATOM     54  C   UNL A   1      44.110  26.602  30.428  1.00  0.00     0.031 C 
ATOM     55  C   UNL A   1      42.818  29.367  35.679  1.00  0.00     0.029 A 
ATOM     56  C   UNL A   1      42.780  28.958  34.356  1.00  0.00     0.049 A 
ATOM     57  H   UNL A   1      41.373  29.433  32.856  1.00  0.00     0.167 HD
ATOM     58  C   UNL A   1      43.556  27.686  32.372  1.00  0.00     0.074 A 
ATOM     59  C   UNL A   1      44.477  26.801  31.687  1.00  0.00     0.031 C 
ATOM     60  C   UNL A   1      43.700  28.098  33.655  1.00  0.00     0.037 A 
BRANCH  47  61
ATOM     61  C   UNL A   1      39.281  31.938  35.603  1.00  0.00     0.064 A 
ATOM     62  C   UNL A   1      38.383  31.433  36.555  1.00  0.00     0.173 A 
ATOM     63  C   UNL A   1      39.717  33.263  35.751  1.00  0.00     0.173 A 
ATOM     64  F   UNL A   1      37.927  30.175  36.452  1.00  0.00    -0.203 F 
ATOM     65  C   UNL A   1      37.928  32.229  37.603  1.00  0.00     0.198 A 
ATOM     66  C   UNL A   1      39.278  34.049  36.813  1.00  0.00     0.198 A 
ATOM     67  F   UNL A   1      40.580  33.793  34.871  1.00  0.00    -0.203 F 
ATOM     68  F   UNL A   1      37.042  31.738  38.481  1.00  0.00    -0.200 F 
ATOM     69  C   UNL A   1      38.380  33.533  37.735  1.00  0.00     0.200 A 
ATOM     70  F   UNL A   1      39.725  35.306  36.946  1.00  0.00    -0.200 F 
ATOM     71  F   UNL A   1      37.946  34.296  38.748  1.00  0.00    -0.200 F 
ENDBRANCH  47  61
BRANCH  48  72
ATOM     72  C   UNL A   1      42.630  26.587  27.886  1.00  0.00     0.064 A 
ATOM     73  C   UNL A   1      42.167  25.283  27.674  1.00  0.00     0.173 A 
ATOM     74  C   UNL A   1      43.503  27.138  26.936  1.00  0.00     0.173 A 
ATOM     75  F   UNL A   1      41.346  24.710  28.567  1.00  0.00    -0.203 F 
ATOM     76  C   UNL A   1      42.551  24.561  26.545  1.00  0.00     0.198 A 
ATOM     77  C   UNL A   1      43.867  26.425  25.797  1.00  0.00     0.198 A 
ATOM     78  F   UNL A   1      43.967  28.387  27.095  1.00  0.00    -0.203 F 
ATOM     79  F   UNL A   1      42.103  23.311  26.369  1.00  0.00    -0.200 F 
ATOM     80  C   UNL A   1      43.390  25.138  25.603  1.00  0.00     0.200 A 
ATOM     81  F   UNL A   1      44.663  26.992  24.880  1.00  0.00    -0.200 F 
ATOM     82  F   UNL A   1      43.737  24.453  24.505  1.00  0.00    -0.200 F 
ENDBRANCH  48  72
BRANCH  60  83
ATOM     83  C   UNL A   1      44.908  27.617  34.401  1.00  0.00     0.064 A 
ATOM     84  C   UNL A   1      46.083  28.381  34.446  1.00  0.00     0.173 A 
ATOM     85  C   UNL A   1      44.871  26.417  35.125  1.00  0.00     0.173 A 
ATOM     86  F   UNL A   1      46.169  29.529  33.758  1.00  0.00    -0.203 F 
ATOM     87  C   UNL A   1      47.184  27.953  35.183  1.00  0.00     0.198 A 
ATOM     88  C   UNL A   1      45.966  26.004  35.879  1.00  0.00     0.198 A 
ATOM     89  F   UNL A   1      43.767  25.654  35.117  1.00  0.00    -0.203 F 
ATOM     90  F   UNL A   1      48.308  28.684  35.190  1.00  0.00    -0.200 F 
ATOM     91  C   UNL A   1      47.121  26.771  35.905  1.00  0.00     0.200 A 
ATOM     92  F   UNL A   1      45.902  24.866  36.585  1.00  0.00    -0.200 F 
ATOM     93  F   UNL A   1      48.179  26.367  36.623  1.00  0.00    -0.200 F 
ENDBRANCH  60  83
ENDBRANCH  34  35
ENDBRANCH  26  29
ENDBRANCH  24  25
ENDBRANCH   1  24
TORSDOF 12
ENDMDL
