MODEL 1
REMARK VINA RESULT:     -11.8      0.000      0.000
REMARK SMILES CCC(CC)(NC(=O)CS[C@H]1CCS(=O)(=O)C1)C(=O)NCCCCNC(=O)c1ccc(-c2c3nc(c(-c4c(F)c(F)c(F)c(F)c4F)c4ccc([nH]4)c(-c4c(F)c(F)c(F)c(F)c4F)c4nc(c(-c5c(F)c(F)c(F)c(F)c5F)c5ccc2[nH]5)C=C4)C=C3)cc1
REMARK SMILES IDX 21 1 20 2 18 3 19 4 3 6 2 7 1 8 4 9 5 10 6 11 7 12 8 14 9 15
REMARK SMILES IDX 10 16 11 17 12 18 17 19 13 20 14 21 15 22 16 23 22 24 23 25
REMARK SMILES IDX 24 26 25 27 26 28 27 30 28 31 29 32 90 33 30 34 89 35 31 36
REMARK SMILES IDX 32 37 33 38 83 39 34 40 88 41 82 42 84 43 35 44 87 45 81 46
REMARK SMILES IDX 80 47 36 49 68 50 48 51 67 52 49 53 52 54 66 55 85 56 50 57
REMARK SMILES IDX 51 58 65 60 86 61 53 62 37 63 38 64 46 65 39 66 40 67 44 68
REMARK SMILES IDX 47 69 41 70 42 71 45 72 43 73 69 74 70 75 78 76 71 77 72 78
REMARK SMILES IDX 76 79 79 80 73 81 74 82 77 83 75 84 54 85 55 86 63 87 56 88
REMARK SMILES IDX 57 89 61 90 64 91 58 92 59 93 62 94 60 95
REMARK H PARENT 20 5 6 13 25 29 84 48 52 59
REMARK Flexibility Score: inf
ROOT
ATOM      1  C   UNL A   1      32.627  29.834  25.745  1.00  0.00     0.116 C 
ENDROOT
BRANCH   1   2
ATOM      2  N   UNL A   1      33.312  29.685  24.466  1.00  0.00    -0.354 N 
ATOM      3  C   UNL A   1      33.325  28.648  23.560  1.00  0.00     0.245 C 
ATOM      4  O   UNL A   1      33.989  28.809  22.533  1.00  0.00    -0.272 OA
ATOM      5  H   UNL A   1      33.860  30.460  24.204  1.00  0.00     0.163 HD
BRANCH   3   6
ATOM      6  C   UNL A   1      32.533  27.341  23.851  1.00  0.00     0.118 C 
BRANCH   6   7
ATOM      7  C   UNL A   1      31.118  27.483  24.484  1.00  0.00     0.035 C 
ATOM      8  C   UNL A   1      29.973  26.785  23.769  1.00  0.00     0.007 C 
ENDBRANCH   6   7
BRANCH   6   9
ATOM      9  C   UNL A   1      33.430  26.571  24.888  1.00  0.00     0.035 C 
ATOM     10  C   UNL A   1      32.747  25.964  26.104  1.00  0.00     0.007 C 
ENDBRANCH   6   9
BRANCH   6  11
ATOM     11  N   UNL A   1      32.349  26.645  22.541  1.00  0.00    -0.341 N 
ATOM     12  C   UNL A   1      33.043  25.571  22.008  1.00  0.00     0.230 C 
ATOM     13  H   UNL A   1      31.628  27.003  21.973  1.00  0.00     0.164 HD
ATOM     14  O   UNL A   1      33.226  25.598  20.786  1.00  0.00    -0.274 OA
BRANCH  12  15
ATOM     15  C   UNL A   1      33.406  24.313  22.819  1.00  0.00     0.169 C 
BRANCH  15  16
ATOM     16  S   UNL A   1      32.077  23.094  23.089  1.00  0.00    -0.148 SA
BRANCH  16  17
ATOM     17  C   UNL A   1      32.933  21.863  24.105  1.00  0.00     0.063 C 
ATOM     18  C   UNL A   1      32.776  21.944  25.626  1.00  0.00     0.031 C 
ATOM     19  C   UNL A   1      32.479  20.466  23.707  1.00  0.00     0.151 C 
ATOM     20  C   UNL A   1      33.503  20.701  26.155  1.00  0.00     0.138 C 
ATOM     21  S   UNL A   1      33.160  19.408  24.966  1.00  0.00     0.151 S 
ATOM     22  O   UNL A   1      34.416  18.871  24.478  1.00  0.00    -0.229 OA
ATOM     23  O   UNL A   1      32.111  18.559  25.484  1.00  0.00    -0.229 OA
ENDBRANCH  16  17
ENDBRANCH  15  16
ENDBRANCH  12  15
ENDBRANCH   6  11
ENDBRANCH   3   6
ENDBRANCH   1   2
BRANCH   1  24
ATOM     24  C   UNL A   1      31.465  30.824  25.750  1.00  0.00     0.023 C 
BRANCH  24  25
ATOM     25  C   UNL A   1      31.426  31.806  26.912  1.00  0.00     0.023 C 
BRANCH  25  26
ATOM     26  C   UNL A   1      32.688  32.630  27.101  1.00  0.00     0.116 C 
BRANCH  26  27
ATOM     27  N   UNL A   1      32.423  33.998  27.520  1.00  0.00    -0.352 N 
ATOM     28  C   UNL A   1      33.044  34.747  28.486  1.00  0.00     0.251 C 
ATOM     29  H   UNL A   1      31.693  34.451  27.041  1.00  0.00     0.163 HD
ATOM     30  O   UNL A   1      32.613  35.857  28.781  1.00  0.00    -0.269 OA
BRANCH  28  31
ATOM     31  C   UNL A   1      34.210  34.189  29.195  1.00  0.00     0.039 A 
ATOM     32  C   UNL A   1      33.988  33.374  30.306  1.00  0.00     0.014 A 
ATOM     33  C   UNL A   1      35.508  34.436  28.740  1.00  0.00     0.014 A 
ATOM     34  C   UNL A   1      35.071  32.752  30.925  1.00  0.00     0.010 A 
ATOM     35  C   UNL A   1      36.573  33.740  29.297  1.00  0.00     0.010 A 
ATOM     36  C   UNL A   1      36.366  32.900  30.400  1.00  0.00    -0.014 A 
BRANCH  36  37
ATOM     37  C   UNL A   1      37.520  32.191  31.005  1.00  0.00     0.031 A 
ATOM     38  C   UNL A   1      38.002  32.579  32.373  1.00  0.00     0.074 A 
ATOM     39  C   UNL A   1      38.160  31.240  30.300  1.00  0.00     0.049 A 
ATOM     40  N   UNL A   1      39.024  32.122  33.052  1.00  0.00    -0.248 NA
ATOM     41  C   UNL A   1      37.256  33.645  33.061  1.00  0.00     0.031 C 
ATOM     42  C   UNL A   1      37.813  30.815  28.942  1.00  0.00     0.029 A 
ATOM     43  N   UNL A   1      39.243  30.463  30.623  1.00  0.00    -0.354 N 
ATOM     44  C   UNL A   1      39.045  32.848  34.235  1.00  0.00     0.074 A 
ATOM     45  C   UNL A   1      37.980  33.823  34.155  1.00  0.00     0.031 C 
ATOM     46  C   UNL A   1      38.648  29.837  28.561  1.00  0.00     0.029 A 
ATOM     47  C   UNL A   1      39.616  29.595  29.626  1.00  0.00     0.049 A 
ATOM     48  H   UNL A   1      39.709  30.521  31.489  1.00  0.00     0.167 HD
ATOM     49  C   UNL A   1      39.861  32.693  35.305  1.00  0.00     0.037 A 
ATOM     50  C   UNL A   1      40.632  28.713  29.575  1.00  0.00     0.037 A 
ATOM     51  C   UNL A   1      40.908  31.710  35.381  1.00  0.00     0.049 A 
ATOM     52  C   UNL A   1      41.537  28.574  30.769  1.00  0.00     0.074 A 
ATOM     53  C   UNL A   1      41.760  31.438  36.436  1.00  0.00     0.029 A 
ATOM     54  N   UNL A   1      41.250  30.841  34.355  1.00  0.00    -0.354 N 
ATOM     55  N   UNL A   1      41.504  29.217  31.912  1.00  0.00    -0.248 NA
ATOM     56  C   UNL A   1      42.615  27.582  30.671  1.00  0.00     0.031 C 
ATOM     57  C   UNL A   1      42.656  30.444  36.028  1.00  0.00     0.029 A 
ATOM     58  C   UNL A   1      42.319  30.049  34.743  1.00  0.00     0.049 A 
ATOM     59  H   UNL A   1      40.800  30.793  33.481  1.00  0.00     0.167 HD
ATOM     60  C   UNL A   1      42.535  28.689  32.678  1.00  0.00     0.074 A 
ATOM     61  C   UNL A   1      43.162  27.658  31.876  1.00  0.00     0.031 C 
ATOM     62  C   UNL A   1      42.927  29.024  33.932  1.00  0.00     0.037 A 
BRANCH  49  63
ATOM     63  C   UNL A   1      39.648  33.609  36.478  1.00  0.00     0.064 A 
ATOM     64  C   UNL A   1      40.231  34.885  36.533  1.00  0.00     0.173 A 
ATOM     65  C   UNL A   1      38.830  33.218  37.549  1.00  0.00     0.173 A 
ATOM     66  F   UNL A   1      41.032  35.306  35.542  1.00  0.00    -0.203 F 
ATOM     67  C   UNL A   1      40.031  35.719  37.630  1.00  0.00     0.198 A 
ATOM     68  C   UNL A   1      38.604  34.069  38.627  1.00  0.00     0.198 A 
ATOM     69  F   UNL A   1      38.245  32.011  37.548  1.00  0.00    -0.203 F 
ATOM     70  F   UNL A   1      40.647  36.908  37.685  1.00  0.00    -0.200 F 
ATOM     71  C   UNL A   1      39.212  35.314  38.672  1.00  0.00     0.200 A 
ATOM     72  F   UNL A   1      37.800  33.682  39.626  1.00  0.00    -0.200 F 
ATOM     73  F   UNL A   1      39.015  36.120  39.724  1.00  0.00    -0.200 F 
ENDBRANCH  49  63
BRANCH  50  74
ATOM     74  C   UNL A   1      40.835  27.883  28.358  1.00  0.00     0.064 A 
ATOM     75  C   UNL A   1      41.628  28.337  27.295  1.00  0.00     0.173 A 
ATOM     76  C   UNL A   1      40.237  26.620  28.230  1.00  0.00     0.173 A 
ATOM     77  F   UNL A   1      42.208  29.545  27.362  1.00  0.00    -0.203 F 
ATOM     78  C   UNL A   1      41.795  27.573  26.142  1.00  0.00     0.198 A 
ATOM     79  C   UNL A   1      40.431  25.843  27.089  1.00  0.00     0.198 A 
ATOM     80  F   UNL A   1      39.475  26.133  29.220  1.00  0.00    -0.203 F 
ATOM     81  F   UNL A   1      42.516  28.056  25.121  1.00  0.00    -0.200 F 
ATOM     82  C   UNL A   1      41.201  26.324  26.042  1.00  0.00     0.200 A 
ATOM     83  F   UNL A   1      39.871  24.628  27.006  1.00  0.00    -0.200 F 
ATOM     84  F   UNL A   1      41.366  25.588  24.935  1.00  0.00    -0.200 F 
ENDBRANCH  50  74
BRANCH  62  85
ATOM     85  C   UNL A   1      44.064  28.245  34.530  1.00  0.00     0.064 A 
ATOM     86  C   UNL A   1      45.393  28.683  34.435  1.00  0.00     0.173 A 
ATOM     87  C   UNL A   1      43.813  27.063  35.244  1.00  0.00     0.173 A 
ATOM     88  F   UNL A   1      45.688  29.799  33.751  1.00  0.00    -0.203 F 
ATOM     89  C   UNL A   1      46.430  27.952  35.006  1.00  0.00     0.198 A 
ATOM     90  C   UNL A   1      44.848  26.353  35.845  1.00  0.00     0.198 A 
ATOM     91  F   UNL A   1      42.558  26.604  35.373  1.00  0.00    -0.203 F 
ATOM     92  F   UNL A   1      47.698  28.360  34.856  1.00  0.00    -0.200 F 
ATOM     93  C   UNL A   1      46.156  26.793  35.718  1.00  0.00     0.200 A 
ATOM     94  F   UNL A   1      44.579  25.245  36.548  1.00  0.00    -0.200 F 
ATOM     95  F   UNL A   1      47.155  26.095  36.277  1.00  0.00    -0.200 F 
ENDBRANCH  62  85
ENDBRANCH  36  37
ENDBRANCH  28  31
ENDBRANCH  26  27
ENDBRANCH  25  26
ENDBRANCH  24  25
ENDBRANCH   1  24
TORSDOF 17
ENDMDL
MODEL 2
REMARK VINA RESULT:     -11.7      1.195      7.398
REMARK SMILES CCC(CC)(NC(=O)CS[C@H]1CCS(=O)(=O)C1)C(=O)NCCCCNC(=O)c1ccc(-c2c3nc(c(-c4c(F)c(F)c(F)c(F)c4F)c4ccc([nH]4)c(-c4c(F)c(F)c(F)c(F)c4F)c4nc(c(-c5c(F)c(F)c(F)c(F)c5F)c5ccc2[nH]5)C=C4)C=C3)cc1
REMARK SMILES IDX 21 1 20 2 18 3 19 4 3 6 2 7 1 8 4 9 5 10 6 11 7 12 8 14 9 15
REMARK SMILES IDX 10 16 11 17 12 18 17 19 13 20 14 21 15 22 16 23 22 24 23 25
REMARK SMILES IDX 24 26 25 27 26 28 27 30 28 31 29 32 90 33 30 34 89 35 31 36
REMARK SMILES IDX 32 37 33 38 83 39 34 40 88 41 82 42 84 43 35 44 87 45 81 46
REMARK SMILES IDX 80 47 36 49 68 50 48 51 67 52 49 53 52 54 66 55 85 56 50 57
REMARK SMILES IDX 51 58 65 60 86 61 53 62 37 63 38 64 46 65 39 66 40 67 44 68
REMARK SMILES IDX 47 69 41 70 42 71 45 72 43 73 69 74 70 75 78 76 71 77 72 78
REMARK SMILES IDX 76 79 79 80 73 81 74 82 77 83 75 84 54 85 55 86 63 87 56 88
REMARK SMILES IDX 57 89 61 90 64 91 58 92 59 93 62 94 60 95
REMARK H PARENT 20 5 6 13 25 29 84 48 52 59
REMARK Flexibility Score: inf
ROOT
ATOM      1  C   UNL A   1      32.443  29.880  25.855  1.00  0.00     0.116 C 
ENDROOT
BRANCH   1   2
ATOM      2  N   UNL A   1      33.274  29.743  24.662  1.00  0.00    -0.354 N 
ATOM      3  C   UNL A   1      33.298  28.777  23.681  1.00  0.00     0.245 C 
ATOM      4  O   UNL A   1      34.106  28.932  22.763  1.00  0.00    -0.272 OA
ATOM      5  H   UNL A   1      33.930  30.465  24.537  1.00  0.00     0.163 HD
BRANCH   3   6
ATOM      6  C   UNL A   1      32.340  27.553  23.760  1.00  0.00     0.118 C 
BRANCH   6   7
ATOM      7  C   UNL A   1      30.846  27.830  24.095  1.00  0.00     0.035 C 
ATOM      8  C   UNL A   1      29.902  28.020  22.918  1.00  0.00     0.007 C 
ENDBRANCH   6   7
BRANCH   6   9
ATOM      9  C   UNL A   1      32.925  26.683  24.932  1.00  0.00     0.035 C 
ATOM     10  C   UNL A   1      31.971  26.236  26.028  1.00  0.00     0.007 C 
ENDBRANCH   6   9
BRANCH   6  11
ATOM     11  N   UNL A   1      32.366  26.897  22.417  1.00  0.00    -0.341 N 
ATOM     12  C   UNL A   1      32.697  25.596  22.077  1.00  0.00     0.230 C 
ATOM     13  H   UNL A   1      32.108  27.476  21.662  1.00  0.00     0.164 HD
ATOM     14  O   UNL A   1      33.295  25.452  21.005  1.00  0.00    -0.274 OA
BRANCH  12  15
ATOM     15  C   UNL A   1      32.198  24.365  22.858  1.00  0.00     0.169 C 
BRANCH  15  16
ATOM     16  S   UNL A   1      33.054  22.786  22.543  1.00  0.00    -0.148 SA
BRANCH  16  17
ATOM     17  C   UNL A   1      34.145  22.687  23.986  1.00  0.00     0.063 C 
ATOM     18  C   UNL A   1      34.246  21.351  24.726  1.00  0.00     0.031 C 
ATOM     19  C   UNL A   1      35.565  23.053  23.579  1.00  0.00     0.151 C 
ATOM     20  C   UNL A   1      35.333  21.579  25.785  1.00  0.00     0.138 C 
ATOM     21  S   UNL A   1      36.552  22.625  24.997  1.00  0.00     0.151 S 
ATOM     22  O   UNL A   1      36.737  23.820  25.799  1.00  0.00    -0.229 OA
ATOM     23  O   UNL A   1      37.665  21.809  24.566  1.00  0.00    -0.229 OA
ENDBRANCH  16  17
ENDBRANCH  15  16
ENDBRANCH  12  15
ENDBRANCH   6  11
ENDBRANCH   3   6
ENDBRANCH   1   2
BRANCH   1  24
ATOM     24  C   UNL A   1      31.463  31.050  25.834  1.00  0.00     0.023 C 
BRANCH  24  25
ATOM     25  C   UNL A   1      31.448  31.933  27.072  1.00  0.00     0.023 C 
BRANCH  25  26
ATOM     26  C   UNL A   1      32.693  32.780  27.275  1.00  0.00     0.116 C 
BRANCH  26  27
ATOM     27  N   UNL A   1      32.398  34.164  27.611  1.00  0.00    -0.352 N 
ATOM     28  C   UNL A   1      32.991  34.979  28.541  1.00  0.00     0.251 C 
ATOM     29  H   UNL A   1      31.667  34.576  27.096  1.00  0.00     0.163 HD
ATOM     30  O   UNL A   1      32.536  36.096  28.765  1.00  0.00    -0.269 OA
BRANCH  28  31
ATOM     31  C   UNL A   1      34.155  34.485  29.297  1.00  0.00     0.039 A 
ATOM     32  C   UNL A   1      33.937  33.875  30.534  1.00  0.00     0.014 A 
ATOM     33  C   UNL A   1      35.445  34.585  28.769  1.00  0.00     0.014 A 
ATOM     34  C   UNL A   1      35.013  33.307  31.215  1.00  0.00     0.010 A 
ATOM     35  C   UNL A   1      36.497  33.935  29.402  1.00  0.00     0.010 A 
ATOM     36  C   UNL A   1      36.293  33.298  30.635  1.00  0.00    -0.014 A 
BRANCH  36  37
ATOM     37  C   UNL A   1      37.434  32.639  31.314  1.00  0.00     0.031 A 
ATOM     38  C   UNL A   1      38.146  31.499  30.644  1.00  0.00     0.074 A 
ATOM     39  C   UNL A   1      37.789  33.033  32.551  1.00  0.00     0.049 A 
ATOM     40  N   UNL A   1      39.127  30.757  31.092  1.00  0.00    -0.248 NA
ATOM     41  C   UNL A   1      37.675  31.122  29.301  1.00  0.00     0.031 C 
ATOM     42  C   UNL A   1      37.137  34.094  33.322  1.00  0.00     0.029 A 
ATOM     43  N   UNL A   1      38.781  32.582  33.384  1.00  0.00    -0.354 N 
ATOM     44  C   UNL A   1      39.381  29.826  30.094  1.00  0.00     0.074 A 
ATOM     45  C   UNL A   1      38.408  30.049  29.048  1.00  0.00     0.031 C 
ATOM     46  C   UNL A   1      37.763  34.230  34.500  1.00  0.00     0.029 A 
ATOM     47  C   UNL A   1      38.831  33.239  34.589  1.00  0.00     0.049 A 
ATOM     48  H   UNL A   1      39.400  31.855  33.140  1.00  0.00     0.167 HD
ATOM     49  C   UNL A   1      40.358  28.890  30.043  1.00  0.00     0.037 A 
ATOM     50  C   UNL A   1      39.640  33.053  35.649  1.00  0.00     0.037 A 
ATOM     51  C   UNL A   1      41.331  28.686  31.083  1.00  0.00     0.049 A 
ATOM     52  C   UNL A   1      40.705  31.992  35.575  1.00  0.00     0.074 A 
ATOM     53  C   UNL A   1      42.390  27.798  31.110  1.00  0.00     0.029 A 
ATOM     54  N   UNL A   1      41.356  29.378  32.285  1.00  0.00    -0.354 N 
ATOM     55  N   UNL A   1      40.982  31.163  34.597  1.00  0.00    -0.248 NA
ATOM     56  C   UNL A   1      41.576  31.846  36.749  1.00  0.00     0.031 C 
ATOM     57  C   UNL A   1      43.022  27.912  32.353  1.00  0.00     0.029 A 
ATOM     58  C   UNL A   1      42.399  28.918  33.074  1.00  0.00     0.049 A 
ATOM     59  H   UNL A   1      40.728  30.091  32.541  1.00  0.00     0.167 HD
ATOM     60  C   UNL A   1      42.074  30.419  35.024  1.00  0.00     0.074 A 
ATOM     61  C   UNL A   1      42.420  30.909  36.342  1.00  0.00     0.031 C 
ATOM     62  C   UNL A   1      42.732  29.422  34.383  1.00  0.00     0.037 A 
BRANCH  49  63
ATOM     63  C   UNL A   1      40.420  28.019  28.820  1.00  0.00     0.064 A 
ATOM     64  C   UNL A   1      41.166  28.387  27.689  1.00  0.00     0.173 A 
ATOM     65  C   UNL A   1      39.746  26.789  28.786  1.00  0.00     0.173 A 
ATOM     66  F   UNL A   1      41.819  29.558  27.661  1.00  0.00    -0.203 F 
ATOM     67  C   UNL A   1      41.207  27.572  26.559  1.00  0.00     0.198 A 
ATOM     68  C   UNL A   1      39.818  25.961  27.669  1.00  0.00     0.198 A 
ATOM     69  F   UNL A   1      39.020  26.385  29.839  1.00  0.00    -0.203 F 
ATOM     70  F   UNL A   1      41.878  27.974  25.471  1.00  0.00    -0.200 F 
ATOM     71  C   UNL A   1      40.540  26.358  26.553  1.00  0.00     0.200 A 
ATOM     72  F   UNL A   1      39.186  24.780  27.670  1.00  0.00    -0.200 F 
ATOM     73  F   UNL A   1      40.586  25.572  25.469  1.00  0.00    -0.200 F 
ENDBRANCH  49  63
BRANCH  50  74
ATOM     74  C   UNL A   1      39.485  33.901  36.860  1.00  0.00     0.064 A 
ATOM     75  C   UNL A   1      38.741  33.459  37.963  1.00  0.00     0.173 A 
ATOM     76  C   UNL A   1      40.072  35.172  36.940  1.00  0.00     0.173 A 
ATOM     77  F   UNL A   1      38.145  32.257  37.930  1.00  0.00    -0.203 F 
ATOM     78  C   UNL A   1      38.569  34.264  39.088  1.00  0.00     0.198 A 
ATOM     79  C   UNL A   1      39.927  35.964  38.078  1.00  0.00     0.198 A 
ATOM     80  F   UNL A   1      40.801  35.641  35.917  1.00  0.00    -0.203 F 
ATOM     81  F   UNL A   1      37.810  33.836  40.105  1.00  0.00    -0.200 F 
ATOM     82  C   UNL A   1      39.168  35.513  39.146  1.00  0.00     0.200 A 
ATOM     83  F   UNL A   1      40.523  37.163  38.138  1.00  0.00    -0.200 F 
ATOM     84  F   UNL A   1      39.006  36.285  40.229  1.00  0.00    -0.200 F 
ENDBRANCH  50  74
BRANCH  62  85
ATOM     85  C   UNL A   1      43.916  28.818  35.082  1.00  0.00     0.064 A 
ATOM     86  C   UNL A   1      45.212  29.329  34.918  1.00  0.00     0.173 A 
ATOM     87  C   UNL A   1      43.744  27.737  35.961  1.00  0.00     0.173 A 
ATOM     88  F   UNL A   1      45.433  30.353  34.079  1.00  0.00    -0.203 F 
ATOM     89  C   UNL A   1      46.295  28.762  35.584  1.00  0.00     0.198 A 
ATOM     90  C   UNL A   1      44.823  27.195  36.653  1.00  0.00     0.198 A 
ATOM     91  F   UNL A   1      42.524  27.216  36.161  1.00  0.00    -0.203 F 
ATOM     92  F   UNL A   1      47.532  29.231  35.370  1.00  0.00    -0.200 F 
ATOM     93  C   UNL A   1      46.098  27.701  36.457  1.00  0.00     0.200 A 
ATOM     94  F   UNL A   1      44.628  26.184  37.510  1.00  0.00    -0.200 F 
ATOM     95  F   UNL A   1      47.141  27.163  37.106  1.00  0.00    -0.200 F 
ENDBRANCH  62  85
ENDBRANCH  36  37
ENDBRANCH  28  31
ENDBRANCH  26  27
ENDBRANCH  25  26
ENDBRANCH  24  25
ENDBRANCH   1  24
TORSDOF 17
ENDMDL
MODEL 3
REMARK VINA RESULT:     -11.6      1.088      7.545
REMARK SMILES CCC(CC)(NC(=O)CS[C@H]1CCS(=O)(=O)C1)C(=O)NCCCCNC(=O)c1ccc(-c2c3nc(c(-c4c(F)c(F)c(F)c(F)c4F)c4ccc([nH]4)c(-c4c(F)c(F)c(F)c(F)c4F)c4nc(c(-c5c(F)c(F)c(F)c(F)c5F)c5ccc2[nH]5)C=C4)C=C3)cc1
REMARK SMILES IDX 21 1 20 2 18 3 19 4 3 6 2 7 1 8 4 9 5 10 6 11 7 12 8 14 9 15
REMARK SMILES IDX 10 16 11 17 12 18 17 19 13 20 14 21 15 22 16 23 22 24 23 25
REMARK SMILES IDX 24 26 25 27 26 28 27 30 28 31 29 32 90 33 30 34 89 35 31 36
REMARK SMILES IDX 32 37 33 38 83 39 34 40 88 41 82 42 84 43 35 44 87 45 81 46
REMARK SMILES IDX 80 47 36 49 68 50 48 51 67 52 49 53 52 54 66 55 85 56 50 57
REMARK SMILES IDX 51 58 65 60 86 61 53 62 37 63 38 64 46 65 39 66 40 67 44 68
REMARK SMILES IDX 47 69 41 70 42 71 45 72 43 73 69 74 70 75 78 76 71 77 72 78
REMARK SMILES IDX 76 79 79 80 73 81 74 82 77 83 75 84 54 85 55 86 63 87 56 88
REMARK SMILES IDX 57 89 61 90 64 91 58 92 59 93 62 94 60 95
REMARK H PARENT 20 5 6 13 25 29 84 48 52 59
REMARK Flexibility Score: inf
ROOT
ATOM      1  C   UNL A   1      32.376  29.856  25.790  1.00  0.00     0.116 C 
ENDROOT
BRANCH   1   2
ATOM      2  N   UNL A   1      33.244  29.714  24.625  1.00  0.00    -0.354 N 
ATOM      3  C   UNL A   1      33.166  28.879  23.534  1.00  0.00     0.245 C 
ATOM      4  O   UNL A   1      34.043  28.994  22.676  1.00  0.00    -0.272 OA
ATOM      5  H   UNL A   1      34.019  30.320  24.618  1.00  0.00     0.163 HD
BRANCH   3   6
ATOM      6  C   UNL A   1      32.013  27.840  23.420  1.00  0.00     0.118 C 
BRANCH   6   7
ATOM      7  C   UNL A   1      30.555  28.364  23.570  1.00  0.00     0.035 C 
ATOM      8  C   UNL A   1      30.093  29.407  22.565  1.00  0.00     0.007 C 
ENDBRANCH   6   7
BRANCH   6   9
ATOM      9  C   UNL A   1      32.273  26.845  24.610  1.00  0.00     0.035 C 
ATOM     10  C   UNL A   1      31.087  26.448  25.474  1.00  0.00     0.007 C 
ENDBRANCH   6   9
BRANCH   6  11
ATOM     11  N   UNL A   1      32.112  27.230  22.058  1.00  0.00    -0.341 N 
ATOM     12  C   UNL A   1      32.661  26.019  21.672  1.00  0.00     0.230 C 
ATOM     13  H   UNL A   1      31.730  27.770  21.328  1.00  0.00     0.164 HD
ATOM     14  O   UNL A   1      33.240  26.011  20.581  1.00  0.00    -0.274 OA
BRANCH  12  15
ATOM     15  C   UNL A   1      32.418  24.700  22.432  1.00  0.00     0.169 C 
BRANCH  15  16
ATOM     16  S   UNL A   1      33.884  23.869  23.129  1.00  0.00    -0.148 SA
BRANCH  16  17
ATOM     17  C   UNL A   1      33.146  22.963  24.514  1.00  0.00     0.063 C 
ATOM     18  C   UNL A   1      33.172  21.433  24.473  1.00  0.00     0.031 C 
ATOM     19  C   UNL A   1      33.834  23.365  25.810  1.00  0.00     0.151 C 
ATOM     20  C   UNL A   1      32.601  21.003  25.831  1.00  0.00     0.138 C 
ATOM     21  S   UNL A   1      33.224  22.197  27.009  1.00  0.00     0.151 S 
ATOM     22  O   UNL A   1      32.103  22.803  27.703  1.00  0.00    -0.229 OA
ATOM     23  O   UNL A   1      34.345  21.621  27.715  1.00  0.00    -0.229 OA
ENDBRANCH  16  17
ENDBRANCH  15  16
ENDBRANCH  12  15
ENDBRANCH   6  11
ENDBRANCH   3   6
ENDBRANCH   1   2
BRANCH   1  24
ATOM     24  C   UNL A   1      31.460  31.077  25.774  1.00  0.00     0.023 C 
BRANCH  24  25
ATOM     25  C   UNL A   1      31.444  31.919  27.041  1.00  0.00     0.023 C 
BRANCH  25  26
ATOM     26  C   UNL A   1      32.691  32.755  27.273  1.00  0.00     0.116 C 
BRANCH  26  27
ATOM     27  N   UNL A   1      32.399  34.142  27.602  1.00  0.00    -0.352 N 
ATOM     28  C   UNL A   1      32.993  34.960  28.529  1.00  0.00     0.251 C 
ATOM     29  H   UNL A   1      31.670  34.553  27.084  1.00  0.00     0.163 HD
ATOM     30  O   UNL A   1      32.541  36.080  28.747  1.00  0.00    -0.269 OA
BRANCH  28  31
ATOM     31  C   UNL A   1      34.154  34.466  29.290  1.00  0.00     0.039 A 
ATOM     32  C   UNL A   1      33.928  33.814  30.504  1.00  0.00     0.014 A 
ATOM     33  C   UNL A   1      35.451  34.609  28.788  1.00  0.00     0.014 A 
ATOM     34  C   UNL A   1      35.004  33.247  31.185  1.00  0.00     0.010 A 
ATOM     35  C   UNL A   1      36.505  33.961  29.418  1.00  0.00     0.010 A 
ATOM     36  C   UNL A   1      36.293  33.283  30.627  1.00  0.00    -0.014 A 
BRANCH  36  37
ATOM     37  C   UNL A   1      37.436  32.626  31.306  1.00  0.00     0.031 A 
ATOM     38  C   UNL A   1      38.152  31.489  30.634  1.00  0.00     0.074 A 
ATOM     39  C   UNL A   1      37.790  33.019  32.544  1.00  0.00     0.049 A 
ATOM     40  N   UNL A   1      39.135  30.750  31.081  1.00  0.00    -0.248 NA
ATOM     41  C   UNL A   1      37.683  31.112  29.291  1.00  0.00     0.031 C 
ATOM     42  C   UNL A   1      37.135  34.077  33.316  1.00  0.00     0.029 A 
ATOM     43  N   UNL A   1      38.784  32.569  33.376  1.00  0.00    -0.354 N 
ATOM     44  C   UNL A   1      39.392  29.821  30.082  1.00  0.00     0.074 A 
ATOM     45  C   UNL A   1      38.419  30.042  29.036  1.00  0.00     0.031 C 
ATOM     46  C   UNL A   1      37.760  34.212  34.495  1.00  0.00     0.029 A 
ATOM     47  C   UNL A   1      38.831  33.225  34.582  1.00  0.00     0.049 A 
ATOM     48  H   UNL A   1      39.405  31.845  33.131  1.00  0.00     0.167 HD
ATOM     49  C   UNL A   1      40.373  28.888  30.029  1.00  0.00     0.037 A 
ATOM     50  C   UNL A   1      39.641  33.040  35.642  1.00  0.00     0.037 A 
ATOM     51  C   UNL A   1      41.346  28.685  31.069  1.00  0.00     0.049 A 
ATOM     52  C   UNL A   1      40.709  31.983  35.566  1.00  0.00     0.074 A 
ATOM     53  C   UNL A   1      42.408  27.801  31.095  1.00  0.00     0.029 A 
ATOM     54  N   UNL A   1      41.369  29.376  32.273  1.00  0.00    -0.354 N 
ATOM     55  N   UNL A   1      40.989  31.156  34.587  1.00  0.00    -0.248 NA
ATOM     56  C   UNL A   1      41.580  31.837  36.740  1.00  0.00     0.031 C 
ATOM     57  C   UNL A   1      43.040  27.914  32.338  1.00  0.00     0.029 A 
ATOM     58  C   UNL A   1      42.413  28.918  33.060  1.00  0.00     0.049 A 
ATOM     59  H   UNL A   1      40.738  30.086  32.529  1.00  0.00     0.167 HD
ATOM     60  C   UNL A   1      42.083  30.415  35.013  1.00  0.00     0.074 A 
ATOM     61  C   UNL A   1      42.427  30.903  36.332  1.00  0.00     0.031 C 
ATOM     62  C   UNL A   1      42.744  29.420  34.370  1.00  0.00     0.037 A 
BRANCH  49  63
ATOM     63  C   UNL A   1      40.437  28.019  28.805  1.00  0.00     0.064 A 
ATOM     64  C   UNL A   1      39.752  26.796  28.731  1.00  0.00     0.173 A 
ATOM     65  C   UNL A   1      41.173  28.424  27.681  1.00  0.00     0.173 A 
ATOM     66  F   UNL A   1      39.044  26.353  29.781  1.00  0.00    -0.203 F 
ATOM     67  C   UNL A   1      39.829  25.997  27.592  1.00  0.00     0.198 A 
ATOM     68  C   UNL A   1      41.219  27.641  26.531  1.00  0.00     0.198 A 
ATOM     69  F   UNL A   1      41.846  29.585  27.695  1.00  0.00    -0.203 F 
ATOM     70  F   UNL A   1      39.214  24.807  27.569  1.00  0.00    -0.200 F 
ATOM     71  C   UNL A   1      40.555  26.424  26.492  1.00  0.00     0.200 A 
ATOM     72  F   UNL A   1      41.908  28.061  25.463  1.00  0.00    -0.200 F 
ATOM     73  F   UNL A   1      40.623  25.658  25.394  1.00  0.00    -0.200 F 
ENDBRANCH  49  63
BRANCH  50  74
ATOM     74  C   UNL A   1      39.482  33.885  36.854  1.00  0.00     0.064 A 
ATOM     75  C   UNL A   1      38.733  33.442  37.953  1.00  0.00     0.173 A 
ATOM     76  C   UNL A   1      40.072  35.155  36.939  1.00  0.00     0.173 A 
ATOM     77  F   UNL A   1      38.136  32.242  37.915  1.00  0.00    -0.203 F 
ATOM     78  C   UNL A   1      38.559  34.245  39.079  1.00  0.00     0.198 A 
ATOM     79  C   UNL A   1      39.924  35.945  38.078  1.00  0.00     0.198 A 
ATOM     80  F   UNL A   1      40.805  35.626  35.920  1.00  0.00    -0.203 F 
ATOM     81  F   UNL A   1      37.796  33.816  40.093  1.00  0.00    -0.200 F 
ATOM     82  C   UNL A   1      39.160  35.493  39.143  1.00  0.00     0.200 A 
ATOM     83  F   UNL A   1      40.522  37.142  38.143  1.00  0.00    -0.200 F 
ATOM     84  F   UNL A   1      38.996  36.263  40.227  1.00  0.00    -0.200 F 
ENDBRANCH  50  74
BRANCH  62  85
ATOM     85  C   UNL A   1      43.930  28.819  35.068  1.00  0.00     0.064 A 
ATOM     86  C   UNL A   1      43.813  27.683  35.883  1.00  0.00     0.173 A 
ATOM     87  C   UNL A   1      45.211  29.364  34.885  1.00  0.00     0.173 A 
ATOM     88  F   UNL A   1      42.610  27.131  36.102  1.00  0.00    -0.203 F 
ATOM     89  C   UNL A   1      44.928  27.134  36.511  1.00  0.00     0.198 A 
ATOM     90  C   UNL A   1      46.328  28.792  35.485  1.00  0.00     0.198 A 
ATOM     91  F   UNL A   1      45.380  30.446  34.108  1.00  0.00    -0.203 F 
ATOM     92  F   UNL A   1      44.784  26.082  37.328  1.00  0.00    -0.200 F 
ATOM     93  C   UNL A   1      46.185  27.684  36.305  1.00  0.00     0.200 A 
ATOM     94  F   UNL A   1      47.543  29.313  35.269  1.00  0.00    -0.200 F 
ATOM     95  F   UNL A   1      47.258  27.148  36.902  1.00  0.00    -0.200 F 
ENDBRANCH  62  85
ENDBRANCH  36  37
ENDBRANCH  28  31
ENDBRANCH  26  27
ENDBRANCH  25  26
ENDBRANCH  24  25
ENDBRANCH   1  24
TORSDOF 17
ENDMDL
