MODEL 1
REMARK VINA RESULT:     -10.7      0.000      0.000
REMARK SMILES O=C(CC1CCN(C(=O)NCc2ccccn2)CC1)NCCCCNC(=O)c1ccc(-c2c3nc(c(-c4c(F)c(F)c(F)c(F)c4F)c4ccc([nH]4)c(-c4c(F)c(F)c(F)c(F)c4F)c4nc(c(-c5c(F)c(F)c(F)c(F)c5F)c5ccc2[nH]5)C=C4)C=C3)cc1
REMARK SMILES IDX 22 1 21 2 20 3 1 4 2 5 3 7 4 8 5 9 19 10 6 11 18 12 7 13
REMARK SMILES IDX 8 14 9 15 10 16 11 18 12 19 13 20 17 21 14 22 16 23 15 24
REMARK SMILES IDX 23 25 24 26 25 27 26 28 27 30 28 31 29 32 90 33 30 34 89 35
REMARK SMILES IDX 31 36 32 37 33 38 83 39 34 40 88 41 82 42 84 43 35 44 87 45
REMARK SMILES IDX 81 46 80 47 36 49 68 50 48 51 67 52 49 53 52 54 66 55 85 56
REMARK SMILES IDX 50 57 51 58 65 60 86 61 53 62 37 63 38 64 46 65 39 66 40 67
REMARK SMILES IDX 44 68 47 69 41 70 42 71 45 72 43 73 69 74 70 75 78 76 71 77
REMARK SMILES IDX 72 78 76 79 79 80 73 81 74 82 77 83 75 84 54 85 55 86 63 87
REMARK SMILES IDX 56 88 57 89 61 90 64 91 58 92 59 93 62 94 60 95
REMARK H PARENT 20 6 10 17 25 29 84 48 52 59
REMARK Flexibility Score: inf
ROOT
ATOM      1  C   UNL A   1      33.497  34.387  29.329  1.00  0.00     0.023 C 
ENDROOT
BRANCH   1   2
ATOM      2  C   UNL A   1      33.324  35.406  30.455  1.00  0.00     0.116 C 
BRANCH   2   3
ATOM      3  N   UNL A   1      34.448  35.440  31.370  1.00  0.00    -0.356 N 
ATOM      4  O   UNL A   1      33.573  33.935  32.872  1.00  0.00    -0.275 OA
ATOM      5  C   UNL A   1      34.524  34.585  32.449  1.00  0.00     0.220 C 
ATOM      6  H   UNL A   1      35.173  36.089  31.218  1.00  0.00     0.163 HD
BRANCH   5   7
ATOM      7  C   UNL A   1      35.932  34.431  33.000  1.00  0.00     0.103 C 
BRANCH   7   8
ATOM      8  C   UNL A   1      36.926  33.701  32.055  1.00  0.00     0.002 C 
ATOM      9  C   UNL A   1      36.293  32.447  31.417  1.00  0.00     0.026 C 
ATOM     10  C   UNL A   1      38.282  33.296  32.658  1.00  0.00     0.026 C 
ATOM     11  C   UNL A   1      36.266  31.235  32.354  1.00  0.00     0.121 C 
ATOM     12  C   UNL A   1      38.157  32.129  33.628  1.00  0.00     0.121 C 
ATOM     13  N   UNL A   1      37.564  30.967  32.984  1.00  0.00    -0.325 N 
ATOM     14  C   UNL A   1      37.853  29.668  33.296  1.00  0.00     0.317 C 
ATOM     15  O   UNL A   1      37.010  28.771  33.193  1.00  0.00    -0.249 OA
ATOM     16  N   UNL A   1      39.063  29.274  33.726  1.00  0.00    -0.332 N 
ATOM     17  H   UNL A   1      39.045  28.375  34.126  1.00  0.00     0.165 HD
BRANCH  16  18
ATOM     18  C   UNL A   1      40.394  29.862  33.741  1.00  0.00     0.174 C 
BRANCH  18  19
ATOM     19  C   UNL A   1      41.392  28.935  34.411  1.00  0.00     0.060 A 
ATOM     20  C   UNL A   1      42.469  28.426  33.684  1.00  0.00     0.026 A 
ATOM     21  N   UNL A   1      41.153  28.561  35.697  1.00  0.00    -0.259 NA
ATOM     22  C   UNL A   1      43.320  27.502  34.288  1.00  0.00     0.004 A 
ATOM     23  C   UNL A   1      42.002  27.667  36.257  1.00  0.00     0.111 A 
ATOM     24  C   UNL A   1      43.081  27.108  35.597  1.00  0.00     0.020 A 
ENDBRANCH  18  19
ENDBRANCH  16  18
ENDBRANCH   7   8
ENDBRANCH   5   7
ENDBRANCH   2   3
ENDBRANCH   1   2
BRANCH   1  25
ATOM     25  C   UNL A   1      34.720  34.584  28.417  1.00  0.00     0.023 C 
BRANCH  25  26
ATOM     26  C   UNL A   1      35.476  33.320  28.000  1.00  0.00     0.116 C 
BRANCH  26  27
ATOM     27  N   UNL A   1      34.597  32.179  27.798  1.00  0.00    -0.352 N 
ATOM     28  C   UNL A   1      34.808  30.824  27.882  1.00  0.00     0.251 C 
ATOM     29  H   UNL A   1      33.674  32.424  27.558  1.00  0.00     0.163 HD
ATOM     30  O   UNL A   1      33.850  30.088  27.634  1.00  0.00    -0.269 OA
BRANCH  28  31
ATOM     31  C   UNL A   1      36.118  30.196  28.224  1.00  0.00     0.039 A 
ATOM     32  C   UNL A   1      37.135  30.259  27.255  1.00  0.00     0.014 A 
ATOM     33  C   UNL A   1      36.379  29.518  29.415  1.00  0.00     0.014 A 
ATOM     34  C   UNL A   1      38.404  29.722  27.503  1.00  0.00     0.010 A 
ATOM     35  C   UNL A   1      37.656  29.006  29.681  1.00  0.00     0.010 A 
ATOM     36  C   UNL A   1      38.684  29.127  28.740  1.00  0.00    -0.014 A 
BRANCH  36  37
ATOM     37  C   UNL A   1      40.078  28.805  29.131  1.00  0.00     0.031 A 
ATOM     38  C   UNL A   1      40.950  29.779  29.864  1.00  0.00     0.074 A 
ATOM     39  C   UNL A   1      40.583  27.627  28.717  1.00  0.00     0.049 A 
ATOM     40  N   UNL A   1      42.194  29.641  30.251  1.00  0.00    -0.248 NA
ATOM     41  C   UNL A   1      40.358  31.082  30.195  1.00  0.00     0.031 C 
ATOM     42  C   UNL A   1      39.845  26.629  27.941  1.00  0.00     0.029 A 
ATOM     43  N   UNL A   1      41.832  27.081  28.861  1.00  0.00    -0.354 N 
ATOM     44  C   UNL A   1      42.536  30.832  30.876  1.00  0.00     0.074 A 
ATOM     45  C   UNL A   1      41.376  31.697  30.787  1.00  0.00     0.031 C 
ATOM     46  C   UNL A   1      40.656  25.596  27.669  1.00  0.00     0.029 A 
ATOM     47  C   UNL A   1      41.974  25.868  28.235  1.00  0.00     0.049 A 
ATOM     48  H   UNL A   1      42.558  27.516  29.366  1.00  0.00     0.167 HD
ATOM     49  C   UNL A   1      43.707  31.159  31.478  1.00  0.00     0.037 A 
ATOM     50  C   UNL A   1      43.046  25.064  28.120  1.00  0.00     0.037 A 
ATOM     51  C   UNL A   1      44.857  30.290  31.553  1.00  0.00     0.049 A 
ATOM     52  C   UNL A   1      44.330  25.456  28.788  1.00  0.00     0.074 A 
ATOM     53  C   UNL A   1      46.057  30.498  32.215  1.00  0.00     0.029 A 
ATOM     54  N   UNL A   1      44.961  29.056  30.928  1.00  0.00    -0.354 N 
ATOM     55  N   UNL A   1      44.606  26.535  29.478  1.00  0.00    -0.248 NA
ATOM     56  C   UNL A   1      45.448  24.510  28.677  1.00  0.00     0.031 C 
ATOM     57  C   UNL A   1      46.903  29.416  31.947  1.00  0.00     0.029 A 
ATOM     58  C   UNL A   1      46.214  28.507  31.161  1.00  0.00     0.049 A 
ATOM     59  H   UNL A   1      44.248  28.630  30.396  1.00  0.00     0.167 HD
ATOM     60  C   UNL A   1      45.916  26.387  29.909  1.00  0.00     0.074 A 
ATOM     61  C   UNL A   1      46.378  25.108  29.410  1.00  0.00     0.031 C 
ATOM     62  C   UNL A   1      46.665  27.234  30.655  1.00  0.00     0.037 A 
BRANCH  49  63
ATOM     63  C   UNL A   1      43.818  32.517  32.112  1.00  0.00     0.064 A 
ATOM     64  C   UNL A   1      43.573  32.709  33.480  1.00  0.00     0.173 A 
ATOM     65  C   UNL A   1      44.250  33.622  31.363  1.00  0.00     0.173 A 
ATOM     66  F   UNL A   1      43.156  31.687  34.241  1.00  0.00    -0.203 F 
ATOM     67  C   UNL A   1      43.740  33.960  34.070  1.00  0.00     0.198 A 
ATOM     68  C   UNL A   1      44.439  34.866  31.962  1.00  0.00     0.198 A 
ATOM     69  F   UNL A   1      44.507  33.494  30.052  1.00  0.00    -0.203 F 
ATOM     70  F   UNL A   1      43.469  34.127  35.372  1.00  0.00    -0.200 F 
ATOM     71  C   UNL A   1      44.180  35.035  33.313  1.00  0.00     0.200 A 
ATOM     72  F   UNL A   1      44.877  35.901  31.230  1.00  0.00    -0.200 F 
ATOM     73  F   UNL A   1      44.349  36.236  33.884  1.00  0.00    -0.200 F 
ENDBRANCH  49  63
BRANCH  50  74
ATOM     74  C   UNL A   1      42.921  23.785  27.377  1.00  0.00     0.064 A 
ATOM     75  C   UNL A   1      43.282  23.705  26.027  1.00  0.00     0.173 A 
ATOM     76  C   UNL A   1      42.477  22.615  28.009  1.00  0.00     0.173 A 
ATOM     77  F   UNL A   1      43.698  24.803  25.379  1.00  0.00    -0.203 F 
ATOM     78  C   UNL A   1      43.193  22.502  25.331  1.00  0.00     0.198 A 
ATOM     79  C   UNL A   1      42.411  21.408  27.319  1.00  0.00     0.198 A 
ATOM     80  F   UNL A   1      42.129  22.642  29.305  1.00  0.00    -0.203 F 
ATOM     81  F   UNL A   1      43.516  22.459  24.031  1.00  0.00    -0.200 F 
ATOM     82  C   UNL A   1      42.764  21.353  25.979  1.00  0.00     0.200 A 
ATOM     83  F   UNL A   1      42.012  20.296  27.952  1.00  0.00    -0.200 F 
ATOM     84  F   UNL A   1      42.690  20.194  25.311  1.00  0.00    -0.200 F 
ENDBRANCH  50  74
BRANCH  62  85
ATOM     85  C   UNL A   1      48.055  26.788  31.001  1.00  0.00     0.064 A 
ATOM     86  C   UNL A   1      49.162  27.163  30.226  1.00  0.00     0.173 A 
ATOM     87  C   UNL A   1      48.284  25.987  32.130  1.00  0.00     0.173 A 
ATOM     88  F   UNL A   1      48.993  27.912  29.126  1.00  0.00    -0.203 F 
ATOM     89  C   UNL A   1      50.444  26.729  30.552  1.00  0.00     0.198 A 
ATOM     90  C   UNL A   1      49.571  25.579  32.469  1.00  0.00     0.198 A 
ATOM     91  F   UNL A   1      47.260  25.604  32.907  1.00  0.00    -0.203 F 
ATOM     92  F   UNL A   1      51.480  27.056  29.767  1.00  0.00    -0.200 F 
ATOM     93  C   UNL A   1      50.648  25.943  31.676  1.00  0.00     0.200 A 
ATOM     94  F   UNL A   1      49.768  24.826  33.561  1.00  0.00    -0.200 F 
ATOM     95  F   UNL A   1      51.883  25.526  31.989  1.00  0.00    -0.200 F 
ENDBRANCH  62  85
ENDBRANCH  36  37
ENDBRANCH  28  31
ENDBRANCH  26  27
ENDBRANCH  25  26
ENDBRANCH   1  25
TORSDOF 14
ENDMDL
MODEL 2
REMARK VINA RESULT:     -10.6      5.651     11.280
REMARK SMILES O=C(CC1CCN(C(=O)NCc2ccccn2)CC1)NCCCCNC(=O)c1ccc(-c2c3nc(c(-c4c(F)c(F)c(F)c(F)c4F)c4ccc([nH]4)c(-c4c(F)c(F)c(F)c(F)c4F)c4nc(c(-c5c(F)c(F)c(F)c(F)c5F)c5ccc2[nH]5)C=C4)C=C3)cc1
REMARK SMILES IDX 22 1 21 2 20 3 1 4 2 5 3 7 4 8 5 9 19 10 6 11 18 12 7 13
REMARK SMILES IDX 8 14 9 15 10 16 11 18 12 19 13 20 17 21 14 22 16 23 15 24
REMARK SMILES IDX 23 25 24 26 25 27 26 28 27 30 28 31 29 32 90 33 30 34 89 35
REMARK SMILES IDX 31 36 32 37 33 38 83 39 34 40 88 41 82 42 84 43 35 44 87 45
REMARK SMILES IDX 81 46 80 47 36 49 68 50 48 51 67 52 49 53 52 54 66 55 85 56
REMARK SMILES IDX 50 57 51 58 65 60 86 61 53 62 37 63 38 64 46 65 39 66 40 67
REMARK SMILES IDX 44 68 47 69 41 70 42 71 45 72 43 73 69 74 70 75 78 76 71 77
REMARK SMILES IDX 72 78 76 79 79 80 73 81 74 82 77 83 75 84 54 85 55 86 63 87
REMARK SMILES IDX 56 88 57 89 61 90 64 91 58 92 59 93 62 94 60 95
REMARK H PARENT 20 6 10 17 25 29 84 48 52 59
REMARK Flexibility Score: inf
ROOT
ATOM      1  C   UNL A   1      41.486  21.743  26.313  1.00  0.00     0.023 C 
ENDROOT
BRANCH   1   2
ATOM      2  C   UNL A   1      40.596  22.468  27.321  1.00  0.00     0.116 C 
BRANCH   2   3
ATOM      3  N   UNL A   1      39.231  22.635  26.860  1.00  0.00    -0.356 N 
ATOM      4  O   UNL A   1      39.168  24.917  27.132  1.00  0.00    -0.275 OA
ATOM      5  C   UNL A   1      38.678  23.885  26.682  1.00  0.00     0.220 C 
ATOM      6  H   UNL A   1      38.687  21.837  26.669  1.00  0.00     0.163 HD
BRANCH   5   7
ATOM      7  C   UNL A   1      37.460  23.885  25.774  1.00  0.00     0.103 C 
BRANCH   7   8
ATOM      8  C   UNL A   1      37.145  22.519  25.105  1.00  0.00     0.002 C 
ATOM      9  C   UNL A   1      36.830  22.677  23.604  1.00  0.00     0.026 C 
ATOM     10  C   UNL A   1      36.024  21.679  25.742  1.00  0.00     0.026 C 
ATOM     11  C   UNL A   1      35.403  23.161  23.328  1.00  0.00     0.121 C 
ATOM     12  C   UNL A   1      34.644  22.265  25.478  1.00  0.00     0.121 C 
ATOM     13  N   UNL A   1      34.385  22.389  24.052  1.00  0.00    -0.325 N 
ATOM     14  C   UNL A   1      33.156  22.269  23.467  1.00  0.00     0.317 C 
ATOM     15  O   UNL A   1      32.855  22.901  22.449  1.00  0.00    -0.249 OA
ATOM     16  N   UNL A   1      32.196  21.462  23.947  1.00  0.00    -0.332 N 
ATOM     17  H   UNL A   1      31.311  21.662  23.566  1.00  0.00     0.165 HD
BRANCH  16  18
ATOM     18  C   UNL A   1      32.154  20.362  24.899  1.00  0.00     0.174 C 
BRANCH  18  19
ATOM     19  C   UNL A   1      32.793  19.114  24.318  1.00  0.00     0.060 A 
ATOM     20  C   UNL A   1      33.994  18.635  24.844  1.00  0.00     0.026 A 
ATOM     21  N   UNL A   1      32.206  18.542  23.233  1.00  0.00    -0.259 NA
ATOM     22  C   UNL A   1      34.614  17.544  24.238  1.00  0.00     0.004 A 
ATOM     23  C   UNL A   1      32.830  17.479  22.671  1.00  0.00     0.111 A 
ATOM     24  C   UNL A   1      34.028  16.957  23.125  1.00  0.00     0.020 A 
ENDBRANCH  18  19
ENDBRANCH  16  18
ENDBRANCH   7   8
ENDBRANCH   5   7
ENDBRANCH   2   3
ENDBRANCH   1   2
BRANCH   1  25
ATOM     25  C   UNL A   1      41.224  20.238  26.136  1.00  0.00     0.023 C 
BRANCH  25  26
ATOM     26  C   UNL A   1      42.392  19.297  26.445  1.00  0.00     0.116 C 
BRANCH  26  27
ATOM     27  N   UNL A   1      43.172  18.960  25.265  1.00  0.00    -0.352 N 
ATOM     28  C   UNL A   1      44.150  19.637  24.579  1.00  0.00     0.251 C 
ATOM     29  H   UNL A   1      42.959  18.076  24.886  1.00  0.00     0.163 HD
ATOM     30  O   UNL A   1      44.624  19.086  23.583  1.00  0.00    -0.269 OA
BRANCH  28  31
ATOM     31  C   UNL A   1      44.648  20.995  24.947  1.00  0.00     0.039 A 
ATOM     32  C   UNL A   1      44.523  22.010  23.982  1.00  0.00     0.014 A 
ATOM     33  C   UNL A   1      45.265  21.306  26.160  1.00  0.00     0.014 A 
ATOM     34  C   UNL A   1      44.937  23.320  24.253  1.00  0.00     0.010 A 
ATOM     35  C   UNL A   1      45.653  22.621  26.448  1.00  0.00     0.010 A 
ATOM     36  C   UNL A   1      45.469  23.642  25.508  1.00  0.00    -0.014 A 
BRANCH  36  37
ATOM     37  C   UNL A   1      45.653  25.056  25.917  1.00  0.00     0.031 A 
ATOM     38  C   UNL A   1      46.995  25.725  25.905  1.00  0.00     0.074 A 
ATOM     39  C   UNL A   1      44.579  25.708  26.400  1.00  0.00     0.049 A 
ATOM     40  N   UNL A   1      47.308  26.947  26.256  1.00  0.00    -0.248 NA
ATOM     41  C   UNL A   1      48.136  24.917  25.456  1.00  0.00     0.031 C 
ATOM     42  C   UNL A   1      43.237  25.134  26.518  1.00  0.00     0.029 A 
ATOM     43  N   UNL A   1      44.446  26.975  26.907  1.00  0.00    -0.354 N 
ATOM     44  C   UNL A   1      48.678  27.062  26.066  1.00  0.00     0.074 A 
ATOM     45  C   UNL A   1      49.144  25.770  25.601  1.00  0.00     0.031 C 
ATOM     46  C   UNL A   1      42.419  26.041  27.071  1.00  0.00     0.029 A 
ATOM     47  C   UNL A   1      43.181  27.251  27.362  1.00  0.00     0.049 A 
ATOM     48  H   UNL A   1      45.186  27.625  26.941  1.00  0.00     0.167 HD
ATOM     49  C   UNL A   1      49.464  28.152  26.254  1.00  0.00     0.037 A 
ATOM     50  C   UNL A   1      42.687  28.353  27.955  1.00  0.00     0.037 A 
ATOM     51  C   UNL A   1      48.988  29.431  26.725  1.00  0.00     0.049 A 
ATOM     52  C   UNL A   1      43.582  29.539  28.157  1.00  0.00     0.074 A 
ATOM     53  C   UNL A   1      49.690  30.617  26.864  1.00  0.00     0.029 A 
ATOM     54  N   UNL A   1      47.693  29.685  27.155  1.00  0.00    -0.354 N 
ATOM     55  N   UNL A   1      44.851  29.675  27.864  1.00  0.00    -0.248 NA
ATOM     56  C   UNL A   1      42.970  30.733  28.756  1.00  0.00     0.031 C 
ATOM     57  C   UNL A   1      48.836  31.573  27.427  1.00  0.00     0.029 A 
ATOM     58  C   UNL A   1      47.586  30.999  27.591  1.00  0.00     0.049 A 
ATOM     59  H   UNL A   1      46.958  29.030  27.152  1.00  0.00     0.167 HD
ATOM     60  C   UNL A   1      45.186  30.974  28.214  1.00  0.00     0.074 A 
ATOM     61  C   UNL A   1      43.981  31.591  28.732  1.00  0.00     0.031 C 
ATOM     62  C   UNL A   1      46.383  31.601  28.109  1.00  0.00     0.037 A 
BRANCH  49  63
ATOM     63  C   UNL A   1      50.930  28.024  25.948  1.00  0.00     0.064 A 
ATOM     64  C   UNL A   1      51.425  28.194  24.647  1.00  0.00     0.173 A 
ATOM     65  C   UNL A   1      51.858  27.810  26.979  1.00  0.00     0.173 A 
ATOM     66  F   UNL A   1      50.581  28.400  23.625  1.00  0.00    -0.203 F 
ATOM     67  C   UNL A   1      52.793  28.136  24.386  1.00  0.00     0.198 A 
ATOM     68  C   UNL A   1      53.226  27.777  26.718  1.00  0.00     0.198 A 
ATOM     69  F   UNL A   1      51.441  27.649  28.244  1.00  0.00    -0.203 F 
ATOM     70  F   UNL A   1      53.240  28.268  23.129  1.00  0.00    -0.200 F 
ATOM     71  C   UNL A   1      53.692  27.935  25.422  1.00  0.00     0.200 A 
ATOM     72  F   UNL A   1      54.095  27.595  27.723  1.00  0.00    -0.200 F 
ATOM     73  F   UNL A   1      55.008  27.889  25.170  1.00  0.00    -0.200 F 
ENDBRANCH  49  63
BRANCH  50  74
ATOM     74  C   UNL A   1      41.257  28.388  28.351  1.00  0.00     0.064 A 
ATOM     75  C   UNL A   1      40.856  27.951  29.619  1.00  0.00     0.173 A 
ATOM     76  C   UNL A   1      40.274  28.891  27.488  1.00  0.00     0.173 A 
ATOM     77  F   UNL A   1      41.762  27.447  30.471  1.00  0.00    -0.203 F 
ATOM     78  C   UNL A   1      39.520  28.005  30.007  1.00  0.00     0.198 A 
ATOM     79  C   UNL A   1      38.941  28.968  27.886  1.00  0.00     0.198 A 
ATOM     80  F   UNL A   1      40.612  29.330  26.266  1.00  0.00    -0.203 F 
ATOM     81  F   UNL A   1      39.158  27.553  31.215  1.00  0.00    -0.200 F 
ATOM     82  C   UNL A   1      38.565  28.520  29.143  1.00  0.00     0.200 A 
ATOM     83  F   UNL A   1      38.024  29.481  27.055  1.00  0.00    -0.200 F 
ATOM     84  F   UNL A   1      37.281  28.583  29.523  1.00  0.00    -0.200 F 
ENDBRANCH  50  74
BRANCH  62  85
ATOM     85  C   UNL A   1      46.439  33.038  28.539  1.00  0.00     0.064 A 
ATOM     86  C   UNL A   1      46.765  33.399  29.854  1.00  0.00     0.173 A 
ATOM     87  C   UNL A   1      46.177  34.064  27.620  1.00  0.00     0.173 A 
ATOM     88  F   UNL A   1      47.005  32.454  30.775  1.00  0.00    -0.203 F 
ATOM     89  C   UNL A   1      46.799  34.737  30.240  1.00  0.00     0.198 A 
ATOM     90  C   UNL A   1      46.240  35.401  28.003  1.00  0.00     0.198 A 
ATOM     91  F   UNL A   1      45.865  33.771  26.348  1.00  0.00    -0.203 F 
ATOM     92  F   UNL A   1      47.061  35.057  31.516  1.00  0.00    -0.200 F 
ATOM     93  C   UNL A   1      46.542  35.736  29.314  1.00  0.00     0.200 A 
ATOM     94  F   UNL A   1      46.001  36.367  27.104  1.00  0.00    -0.200 F 
ATOM     95  F   UNL A   1      46.575  37.023  29.687  1.00  0.00    -0.200 F 
ENDBRANCH  62  85
ENDBRANCH  36  37
ENDBRANCH  28  31
ENDBRANCH  26  27
ENDBRANCH  25  26
ENDBRANCH   1  25
TORSDOF 14
ENDMDL
MODEL 3
REMARK VINA RESULT:     -10.5      4.197      8.411
REMARK SMILES O=C(CC1CCN(C(=O)NCc2ccccn2)CC1)NCCCCNC(=O)c1ccc(-c2c3nc(c(-c4c(F)c(F)c(F)c(F)c4F)c4ccc([nH]4)c(-c4c(F)c(F)c(F)c(F)c4F)c4nc(c(-c5c(F)c(F)c(F)c(F)c5F)c5ccc2[nH]5)C=C4)C=C3)cc1
REMARK SMILES IDX 22 1 21 2 20 3 1 4 2 5 3 7 4 8 5 9 19 10 6 11 18 12 7 13
REMARK SMILES IDX 8 14 9 15 10 16 11 18 12 19 13 20 17 21 14 22 16 23 15 24
REMARK SMILES IDX 23 25 24 26 25 27 26 28 27 30 28 31 29 32 90 33 30 34 89 35
REMARK SMILES IDX 31 36 32 37 33 38 83 39 34 40 88 41 82 42 84 43 35 44 87 45
REMARK SMILES IDX 81 46 80 47 36 49 68 50 48 51 67 52 49 53 52 54 66 55 85 56
REMARK SMILES IDX 50 57 51 58 65 60 86 61 53 62 37 63 38 64 46 65 39 66 40 67
REMARK SMILES IDX 44 68 47 69 41 70 42 71 45 72 43 73 69 74 70 75 78 76 71 77
REMARK SMILES IDX 72 78 76 79 79 80 73 81 74 82 77 83 75 84 54 85 55 86 63 87
REMARK SMILES IDX 56 88 57 89 61 90 64 91 58 92 59 93 62 94 60 95
REMARK H PARENT 20 6 10 17 25 29 84 48 52 59
REMARK Flexibility Score: inf
ROOT
ATOM      1  C   UNL A   1      34.284  33.727  28.004  1.00  0.00     0.023 C 
ENDROOT
BRANCH   1   2
ATOM      2  C   UNL A   1      34.413  32.269  28.445  1.00  0.00     0.116 C 
BRANCH   2   3
ATOM      3  N   UNL A   1      34.553  31.348  27.334  1.00  0.00    -0.356 N 
ATOM      4  O   UNL A   1      35.072  29.512  28.616  1.00  0.00    -0.275 OA
ATOM      5  C   UNL A   1      34.746  29.998  27.538  1.00  0.00     0.220 C 
ATOM      6  H   UNL A   1      34.509  31.693  26.413  1.00  0.00     0.163 HD
BRANCH   5   7
ATOM      7  C   UNL A   1      34.402  29.148  26.326  1.00  0.00     0.103 C 
BRANCH   7   8
ATOM      8  C   UNL A   1      33.130  28.271  26.484  1.00  0.00     0.002 C 
ATOM      9  C   UNL A   1      33.265  26.927  25.740  1.00  0.00     0.026 C 
ATOM     10  C   UNL A   1      31.793  28.911  26.073  1.00  0.00     0.026 C 
ATOM     11  C   UNL A   1      33.021  27.039  24.231  1.00  0.00     0.121 C 
ATOM     12  C   UNL A   1      31.659  29.047  24.563  1.00  0.00     0.121 C 
ATOM     13  N   UNL A   1      31.784  27.758  23.902  1.00  0.00    -0.325 N 
ATOM     14  C   UNL A   1      31.143  27.406  22.747  1.00  0.00     0.317 C 
ATOM     15  O   UNL A   1      31.649  26.625  21.934  1.00  0.00    -0.249 OA
ATOM     16  N   UNL A   1      29.929  27.873  22.416  1.00  0.00    -0.332 N 
ATOM     17  H   UNL A   1      29.712  27.719  21.468  1.00  0.00     0.165 HD
BRANCH  16  18
ATOM     18  C   UNL A   1      28.857  28.553  23.127  1.00  0.00     0.174 C 
BRANCH  18  19
ATOM     19  C   UNL A   1      28.638  29.951  22.577  1.00  0.00     0.060 A 
ATOM     20  C   UNL A   1      28.682  31.053  23.433  1.00  0.00     0.026 A 
ATOM     21  N   UNL A   1      28.319  30.077  21.261  1.00  0.00    -0.259 NA
ATOM     22  C   UNL A   1      28.384  32.317  22.929  1.00  0.00     0.004 A 
ATOM     23  C   UNL A   1      28.043  31.320  20.800  1.00  0.00     0.111 A 
ATOM     24  C   UNL A   1      28.051  32.456  21.589  1.00  0.00     0.020 A 
ENDBRANCH  18  19
ENDBRANCH  16  18
ENDBRANCH   7   8
ENDBRANCH   5   7
ENDBRANCH   2   3
ENDBRANCH   1   2
BRANCH   1  25
ATOM     25  C   UNL A   1      32.969  34.433  28.377  1.00  0.00     0.023 C 
BRANCH  25  26
ATOM     26  C   UNL A   1      33.075  35.902  28.797  1.00  0.00     0.116 C 
BRANCH  26  27
ATOM     27  N   UNL A   1      32.542  36.148  30.127  1.00  0.00    -0.352 N 
ATOM     28  C   UNL A   1      32.904  35.685  31.369  1.00  0.00     0.251 C 
ATOM     29  H   UNL A   1      31.774  36.765  30.141  1.00  0.00     0.163 HD
ATOM     30  O   UNL A   1      32.235  36.068  32.331  1.00  0.00    -0.269 OA
BRANCH  28  31
ATOM     31  C   UNL A   1      34.029  34.736  31.617  1.00  0.00     0.039 A 
ATOM     32  C   UNL A   1      35.306  35.119  31.167  1.00  0.00     0.014 A 
ATOM     33  C   UNL A   1      33.888  33.487  32.222  1.00  0.00     0.014 A 
ATOM     34  C   UNL A   1      36.423  34.304  31.385  1.00  0.00     0.010 A 
ATOM     35  C   UNL A   1      35.007  32.681  32.469  1.00  0.00     0.010 A 
ATOM     36  C   UNL A   1      36.285  33.094  32.077  1.00  0.00    -0.014 A 
BRANCH  36  37
ATOM     37  C   UNL A   1      37.476  32.354  32.561  1.00  0.00     0.031 A 
ATOM     38  C   UNL A   1      38.171  32.704  33.842  1.00  0.00     0.074 A 
ATOM     39  C   UNL A   1      37.985  31.402  31.756  1.00  0.00     0.049 A 
ATOM     40  N   UNL A   1      39.234  32.158  34.377  1.00  0.00    -0.248 NA
ATOM     41  C   UNL A   1      37.612  33.820  34.618  1.00  0.00     0.031 C 
ATOM     42  C   UNL A   1      37.428  31.023  30.456  1.00  0.00     0.029 A 
ATOM     43  N   UNL A   1      39.092  30.605  31.891  1.00  0.00    -0.354 N 
ATOM     44  C   UNL A   1      39.472  32.854  35.554  1.00  0.00     0.074 A 
ATOM     45  C   UNL A   1      38.460  33.889  35.638  1.00  0.00     0.031 C 
ATOM     46  C   UNL A   1      38.200  30.073  29.909  1.00  0.00     0.029 A 
ATOM     47  C   UNL A   1      39.314  29.790  30.809  1.00  0.00     0.049 A 
ATOM     48  H   UNL A   1      39.672  30.614  32.688  1.00  0.00     0.167 HD
ATOM     49  C   UNL A   1      40.440  32.636  36.479  1.00  0.00     0.037 A 
ATOM     50  C   UNL A   1      40.307  28.918  30.561  1.00  0.00     0.037 A 
ATOM     51  C   UNL A   1      41.447  31.606  36.380  1.00  0.00     0.049 A 
ATOM     52  C   UNL A   1      41.368  28.703  31.599  1.00  0.00     0.074 A 
ATOM     53  C   UNL A   1      42.415  31.250  37.305  1.00  0.00     0.029 A 
ATOM     54  N   UNL A   1      41.631  30.780  35.279  1.00  0.00    -0.354 N 
ATOM     55  N   UNL A   1      41.515  29.286  32.762  1.00  0.00    -0.248 NA
ATOM     56  C   UNL A   1      42.393  27.694  31.296  1.00  0.00     0.031 C 
ATOM     57  C   UNL A   1      43.215  30.248  36.744  1.00  0.00     0.029 A 
ATOM     58  C   UNL A   1      42.715  29.940  35.490  1.00  0.00     0.049 A 
ATOM     59  H   UNL A   1      41.072  30.788  34.468  1.00  0.00     0.167 HD
ATOM     60  C   UNL A   1      42.628  28.699  33.345  1.00  0.00     0.074 A 
ATOM     61  C   UNL A   1      43.113  27.704  32.410  1.00  0.00     0.031 C 
ATOM     62  C   UNL A   1      43.192  28.957  34.550  1.00  0.00     0.037 A 
BRANCH  49  63
ATOM     63  C   UNL A   1      40.468  33.522  37.693  1.00  0.00     0.064 A 
ATOM     64  C   UNL A   1      41.355  34.603  37.791  1.00  0.00     0.173 A 
ATOM     65  C   UNL A   1      39.543  33.337  38.733  1.00  0.00     0.173 A 
ATOM     66  F   UNL A   1      42.260  34.824  36.826  1.00  0.00    -0.203 F 
ATOM     67  C   UNL A   1      41.329  35.456  38.893  1.00  0.00     0.198 A 
ATOM     68  C   UNL A   1      39.503  34.206  39.821  1.00  0.00     0.198 A 
ATOM     69  F   UNL A   1      38.665  32.324  38.686  1.00  0.00    -0.203 F 
ATOM     70  F   UNL A   1      42.209  36.463  38.981  1.00  0.00    -0.200 F 
ATOM     71  C   UNL A   1      40.398  35.261  39.903  1.00  0.00     0.200 A 
ATOM     72  F   UNL A   1      38.595  34.023  40.790  1.00  0.00    -0.200 F 
ATOM     73  F   UNL A   1      40.368  36.088  40.957  1.00  0.00    -0.200 F 
ENDBRANCH  49  63
BRANCH  50  74
ATOM     74  C   UNL A   1      40.303  28.152  29.290  1.00  0.00     0.064 A 
ATOM     75  C   UNL A   1      41.031  28.602  28.183  1.00  0.00     0.173 A 
ATOM     76  C   UNL A   1      39.606  26.941  29.171  1.00  0.00     0.173 A 
ATOM     77  F   UNL A   1      41.700  29.763  28.248  1.00  0.00    -0.203 F 
ATOM     78  C   UNL A   1      41.054  27.875  26.995  1.00  0.00     0.198 A 
ATOM     79  C   UNL A   1      39.649  26.202  27.991  1.00  0.00     0.198 A 
ATOM     80  F   UNL A   1      38.902  26.465  30.209  1.00  0.00    -0.203 F 
ATOM     81  F   UNL A   1      41.733  28.343  25.939  1.00  0.00    -0.200 F 
ATOM     82  C   UNL A   1      40.369  26.672  26.903  1.00  0.00     0.200 A 
ATOM     83  F   UNL A   1      39.000  25.033  27.910  1.00  0.00    -0.200 F 
ATOM     84  F   UNL A   1      40.401  25.968  25.763  1.00  0.00    -0.200 F 
ENDBRANCH  50  74
BRANCH  62  85
ATOM     85  C   UNL A   1      44.383  28.129  34.935  1.00  0.00     0.064 A 
ATOM     86  C   UNL A   1      45.692  28.553  34.664  1.00  0.00     0.173 A 
ATOM     87  C   UNL A   1      44.212  26.903  35.595  1.00  0.00     0.173 A 
ATOM     88  F   UNL A   1      45.907  29.709  34.018  1.00  0.00    -0.203 F 
ATOM     89  C   UNL A   1      46.786  27.767  35.016  1.00  0.00     0.198 A 
ATOM     90  C   UNL A   1      45.310  26.133  35.970  1.00  0.00     0.198 A 
ATOM     91  F   UNL A   1      42.981  26.454  35.881  1.00  0.00    -0.203 F 
ATOM     92  F   UNL A   1      48.026  28.167  34.700  1.00  0.00    -0.200 F 
ATOM     93  C   UNL A   1      46.594  26.561  35.673  1.00  0.00     0.200 A 
ATOM     94  F   UNL A   1      45.123  24.972  36.614  1.00  0.00    -0.200 F 
ATOM     95  F   UNL A   1      47.649  25.805  36.011  1.00  0.00    -0.200 F 
ENDBRANCH  62  85
ENDBRANCH  36  37
ENDBRANCH  28  31
ENDBRANCH  26  27
ENDBRANCH  25  26
ENDBRANCH   1  25
TORSDOF 14
ENDMDL
