MODEL 1
REMARK VINA RESULT:     -13.8      0.000      0.000
REMARK SMILES O=C(NCCCCNC(=O)c1ccc(-c2c3nc(c(-c4c(F)c(F)c(F)c(F)c4F)c4ccc([nH]4)c(-c4c(F)c(F)c(F)c(F)c4F)c4nc(c(-c5c(F)c(F)c(F)c(F)c5F)c5ccc2[nH]5)C=C4)C=C3)cc1)C1=Cc2cc(S(F)(F)(F)(F)F)cc(Br)c2O[C@@H]1C(F)(F)F
REMARK SMILES IDX 6 1 5 2 4 3 3 4 1 5 2 6 74 8 75 9 90 10 76 11 89 12 77 13
REMARK SMILES IDX 88 14 78 15 86 16 85 17 87 18 91 19 92 20 93 21 94 22 79 23
REMARK SMILES IDX 80 24 81 25 82 26 83 27 84 28 7 29 8 30 9 31 10 33 11 34
REMARK SMILES IDX 12 35 73 36 13 37 72 38 14 39 15 40 16 41 66 42 17 43 71 44
REMARK SMILES IDX 65 45 67 46 18 47 70 48 64 49 63 50 19 52 51 53 31 54 50 55
REMARK SMILES IDX 32 56 35 57 49 58 68 59 33 60 34 61 48 63 69 64 36 65 20 66
REMARK SMILES IDX 21 67 29 68 22 69 23 70 27 71 30 72 24 73 25 74 28 75 26 76
REMARK SMILES IDX 52 77 53 78 61 79 54 80 55 81 59 82 62 83 56 84 57 85 60 86
REMARK SMILES IDX 58 87 37 88 38 89 46 90 39 91 40 92 44 93 47 94 41 95 42 96
REMARK SMILES IDX 45 97 43 98
REMARK H PARENT 3 7 8 32 67 51 35 62
REMARK Flexibility Score: inf
ROOT
ATOM      1  C   UNL A   1      32.990  28.174  26.031  1.00  0.00     0.023 C 
ENDROOT
BRANCH   1   2
ATOM      2  C   UNL A   1      33.658  27.354  24.940  1.00  0.00     0.023 C 
BRANCH   2   3
ATOM      3  C   UNL A   1      33.654  25.886  25.335  1.00  0.00     0.116 C 
BRANCH   3   4
ATOM      4  N   UNL A   1      34.046  25.066  24.180  1.00  0.00    -0.352 N 
ATOM      5  O   UNL A   1      33.559  23.208  22.782  1.00  0.00    -0.270 OA
ATOM      6  C   UNL A   1      33.221  23.917  23.781  1.00  0.00     0.251 C 
ATOM      7  H   UNL A   1      34.860  25.286  23.674  1.00  0.00     0.163 HD
BRANCH   6   8
ATOM      8  C   UNL A   1      31.962  23.576  24.563  1.00  0.00     0.067 C 
ATOM      9  C   UNL A   1      31.814  22.338  25.106  1.00  0.00     0.025 C 
ATOM     10  C   UNL A   1      30.870  24.618  24.739  1.00  0.00     0.314 C 
ATOM     11  C   UNL A   1      32.907  21.294  24.931  1.00  0.00     0.020 A 
ATOM     12  O   UNL A   1      34.396  23.075  25.438  1.00  0.00    -0.474 OA
ATOM     13  C   UNL A   1      32.641  20.014  24.477  1.00  0.00     0.036 A 
ATOM     14  C   UNL A   1      34.152  21.712  25.128  1.00  0.00     0.142 A 
ATOM     15  C   UNL A   1      33.754  19.142  24.533  1.00  0.00     0.109 A 
ATOM     16  C   UNL A   1      35.206  20.835  25.034  1.00  0.00     0.062 A 
ATOM     17  C   UNL A   1      35.009  19.537  24.647  1.00  0.00     0.044 A 
ATOM     18  Br  UNL A   1      37.017  21.452  25.460  1.00  0.00    -0.047 Br
BRANCH  10  19
ATOM     19  C   UNL A   1      30.661  24.889  26.219  1.00  0.00     0.429 C 
ATOM     20  F   UNL A   1      30.395  26.180  26.400  1.00  0.00    -0.167 F 
ATOM     21  F   UNL A   1      29.642  24.160  26.664  1.00  0.00    -0.167 F 
ATOM     22  F   UNL A   1      31.764  24.567  26.889  1.00  0.00    -0.167 F 
ENDBRANCH  10  19
BRANCH  15  23
ATOM     23  S   UNL A   1      33.437  17.362  24.444  1.00  0.00     0.310 S 
ATOM     24  F   UNL A   1      34.900  16.999  24.939  1.00  0.00    -0.094 F 
ATOM     25  F   UNL A   1      34.005  17.352  22.975  1.00  0.00    -0.094 F 
ATOM     26  F   UNL A   1      33.148  15.837  24.373  1.00  0.00    -0.094 F 
ATOM     27  F   UNL A   1      33.003  17.366  25.962  1.00  0.00    -0.094 F 
ATOM     28  F   UNL A   1      33.831  18.889  24.569  1.00  0.00    -0.094 F 
ENDBRANCH  15  23
ENDBRANCH   6   8
ENDBRANCH   3   4
ENDBRANCH   2   3
ENDBRANCH   1   2
BRANCH   1  29
ATOM     29  C   UNL A   1      34.029  28.582  27.064  1.00  0.00     0.116 C 
BRANCH  29  30
ATOM     30  N   UNL A   1      33.681  29.900  27.615  1.00  0.00    -0.352 N 
ATOM     31  C   UNL A   1      34.688  30.679  28.349  1.00  0.00     0.251 C 
ATOM     32  H   UNL A   1      32.774  30.260  27.493  1.00  0.00     0.163 HD
ATOM     33  O   UNL A   1      34.387  31.818  28.825  1.00  0.00    -0.269 OA
BRANCH  31  34
ATOM     34  C   UNL A   1      36.090  30.122  28.539  1.00  0.00     0.039 A 
ATOM     35  C   UNL A   1      36.999  30.412  27.535  1.00  0.00     0.014 A 
ATOM     36  C   UNL A   1      36.464  29.490  29.646  1.00  0.00     0.014 A 
ATOM     37  C   UNL A   1      38.233  29.732  27.666  1.00  0.00     0.010 A 
ATOM     38  C   UNL A   1      37.730  28.968  29.759  1.00  0.00     0.010 A 
ATOM     39  C   UNL A   1      38.663  29.166  28.779  1.00  0.00    -0.014 A 
BRANCH  39  40
ATOM     40  C   UNL A   1      40.115  28.756  28.960  1.00  0.00     0.031 A 
ATOM     41  C   UNL A   1      40.545  27.511  28.497  1.00  0.00     0.074 A 
ATOM     42  C   UNL A   1      40.909  29.631  29.680  1.00  0.00     0.049 A 
ATOM     43  N   UNL A   1      41.759  26.970  28.626  1.00  0.00    -0.248 NA
ATOM     44  C   UNL A   1      39.694  26.564  27.762  1.00  0.00     0.031 C 
ATOM     45  C   UNL A   1      40.485  30.892  30.143  1.00  0.00     0.029 A 
ATOM     46  N   UNL A   1      42.217  29.456  30.073  1.00  0.00    -0.354 N 
ATOM     47  C   UNL A   1      41.794  25.773  28.037  1.00  0.00     0.074 A 
ATOM     48  C   UNL A   1      40.466  25.493  27.477  1.00  0.00     0.031 C 
ATOM     49  C   UNL A   1      41.517  31.464  30.816  1.00  0.00     0.029 A 
ATOM     50  C   UNL A   1      42.606  30.571  30.785  1.00  0.00     0.049 A 
ATOM     51  H   UNL A   1      42.778  28.671  29.881  1.00  0.00     0.167 HD
ATOM     52  C   UNL A   1      42.885  24.907  27.941  1.00  0.00     0.037 A 
ATOM     53  C   UNL A   1      43.833  30.813  31.381  1.00  0.00     0.037 A 
ATOM     54  C   UNL A   1      44.126  25.168  28.500  1.00  0.00     0.049 A 
ATOM     55  C   UNL A   1      44.906  29.920  31.335  1.00  0.00     0.074 A 
ATOM     56  C   UNL A   1      45.237  24.309  28.406  1.00  0.00     0.029 A 
ATOM     57  N   UNL A   1      44.507  26.271  29.232  1.00  0.00    -0.354 N 
ATOM     58  N   UNL A   1      44.954  28.741  30.712  1.00  0.00    -0.248 NA
ATOM     59  C   UNL A   1      46.200  30.151  31.990  1.00  0.00     0.031 C 
ATOM     60  C   UNL A   1      46.271  24.881  29.080  1.00  0.00     0.029 A 
ATOM     61  C   UNL A   1      45.821  26.107  29.606  1.00  0.00     0.049 A 
ATOM     62  H   UNL A   1      43.936  27.044  29.449  1.00  0.00     0.167 HD
ATOM     63  C   UNL A   1      46.154  28.182  30.876  1.00  0.00     0.074 A 
ATOM     64  C   UNL A   1      46.971  29.078  31.708  1.00  0.00     0.031 C 
ATOM     65  C   UNL A   1      46.603  26.964  30.364  1.00  0.00     0.037 A 
BRANCH  52  66
ATOM     66  C   UNL A   1      42.701  23.603  27.182  1.00  0.00     0.064 A 
ATOM     67  C   UNL A   1      42.179  22.499  27.836  1.00  0.00     0.173 A 
ATOM     68  C   UNL A   1      43.134  23.521  25.929  1.00  0.00     0.173 A 
ATOM     69  F   UNL A   1      41.509  22.584  28.981  1.00  0.00    -0.203 F 
ATOM     70  C   UNL A   1      42.423  21.272  27.174  1.00  0.00     0.198 A 
ATOM     71  C   UNL A   1      43.217  22.304  25.297  1.00  0.00     0.198 A 
ATOM     72  F   UNL A   1      43.488  24.626  25.280  1.00  0.00    -0.203 F 
ATOM     73  F   UNL A   1      42.288  20.152  27.878  1.00  0.00    -0.200 F 
ATOM     74  C   UNL A   1      42.775  21.162  25.906  1.00  0.00     0.200 A 
ATOM     75  F   UNL A   1      43.737  22.235  24.075  1.00  0.00    -0.200 F 
ATOM     76  F   UNL A   1      42.703  20.004  25.257  1.00  0.00    -0.200 F 
ENDBRANCH  52  66
BRANCH  53  77
ATOM     77  C   UNL A   1      44.022  32.123  32.126  1.00  0.00     0.064 A 
ATOM     78  C   UNL A   1      43.787  32.255  33.485  1.00  0.00     0.173 A 
ATOM     79  C   UNL A   1      44.483  33.138  31.405  1.00  0.00     0.173 A 
ATOM     80  F   UNL A   1      43.572  31.218  34.289  1.00  0.00    -0.203 F 
ATOM     81  C   UNL A   1      43.797  33.596  33.941  1.00  0.00     0.198 A 
ATOM     82  C   UNL A   1      44.595  34.392  31.954  1.00  0.00     0.198 A 
ATOM     83  F   UNL A   1      44.840  32.938  30.140  1.00  0.00    -0.203 F 
ATOM     84  F   UNL A   1      43.238  33.852  35.120  1.00  0.00    -0.200 F 
ATOM     85  C   UNL A   1      44.323  34.608  33.277  1.00  0.00     0.200 A 
ATOM     86  F   UNL A   1      44.974  35.412  31.188  1.00  0.00    -0.200 F 
ATOM     87  F   UNL A   1      44.574  35.775  33.862  1.00  0.00    -0.200 F 
ENDBRANCH  53  77
BRANCH  65  88
ATOM     88  C   UNL A   1      48.038  26.553  30.655  1.00  0.00     0.064 A 
ATOM     89  C   UNL A   1      49.020  27.004  29.789  1.00  0.00     0.173 A 
ATOM     90  C   UNL A   1      48.345  25.851  31.741  1.00  0.00     0.173 A 
ATOM     91  F   UNL A   1      48.793  27.911  28.844  1.00  0.00    -0.203 F 
ATOM     92  C   UNL A   1      50.288  26.412  30.003  1.00  0.00     0.198 A 
ATOM     93  C   UNL A   1      49.632  25.421  31.953  1.00  0.00     0.198 A 
ATOM     94  F   UNL A   1      47.397  25.563  32.629  1.00  0.00    -0.203 F 
ATOM     95  F   UNL A   1      51.184  26.499  29.023  1.00  0.00    -0.200 F 
ATOM     96  C   UNL A   1      50.643  25.779  31.106  1.00  0.00     0.200 A 
ATOM     97  F   UNL A   1      49.898  24.644  33.000  1.00  0.00    -0.200 F 
ATOM     98  F   UNL A   1      51.916  25.505  31.378  1.00  0.00    -0.200 F 
ENDBRANCH  65  88
ENDBRANCH  39  40
ENDBRANCH  31  34
ENDBRANCH  29  30
ENDBRANCH   1  29
TORSDOF 13
ENDMDL
MODEL 2
REMARK VINA RESULT:     -13.8      3.939      9.018
REMARK SMILES O=C(NCCCCNC(=O)c1ccc(-c2c3nc(c(-c4c(F)c(F)c(F)c(F)c4F)c4ccc([nH]4)c(-c4c(F)c(F)c(F)c(F)c4F)c4nc(c(-c5c(F)c(F)c(F)c(F)c5F)c5ccc2[nH]5)C=C4)C=C3)cc1)C1=Cc2cc(S(F)(F)(F)(F)F)cc(Br)c2O[C@@H]1C(F)(F)F
REMARK SMILES IDX 6 1 5 2 4 3 3 4 1 5 2 6 74 8 75 9 90 10 76 11 89 12 77 13
REMARK SMILES IDX 88 14 78 15 86 16 85 17 87 18 91 19 92 20 93 21 94 22 79 23
REMARK SMILES IDX 80 24 81 25 82 26 83 27 84 28 7 29 8 30 9 31 10 33 11 34
REMARK SMILES IDX 12 35 73 36 13 37 72 38 14 39 15 40 16 41 66 42 17 43 71 44
REMARK SMILES IDX 65 45 67 46 18 47 70 48 64 49 63 50 19 52 51 53 31 54 50 55
REMARK SMILES IDX 32 56 35 57 49 58 68 59 33 60 34 61 48 63 69 64 36 65 20 66
REMARK SMILES IDX 21 67 29 68 22 69 23 70 27 71 30 72 24 73 25 74 28 75 26 76
REMARK SMILES IDX 52 77 53 78 61 79 54 80 55 81 59 82 62 83 56 84 57 85 60 86
REMARK SMILES IDX 58 87 37 88 38 89 46 90 39 91 40 92 44 93 47 94 41 95 42 96
REMARK SMILES IDX 45 97 43 98
REMARK H PARENT 3 7 8 32 67 51 35 62
REMARK Flexibility Score: inf
ROOT
ATOM      1  C   UNL A   1      35.586  22.987  25.017  1.00  0.00     0.023 C 
ENDROOT
BRANCH   1   2
ATOM      2  C   UNL A   1      34.989  23.695  23.811  1.00  0.00     0.023 C 
BRANCH   2   3
ATOM      3  C   UNL A   1      34.053  24.796  24.282  1.00  0.00     0.116 C 
BRANCH   3   4
ATOM      4  N   UNL A   1      32.826  24.775  23.474  1.00  0.00    -0.352 N 
ATOM      5  O   UNL A   1      30.469  24.482  23.413  1.00  0.00    -0.270 OA
ATOM      6  C   UNL A   1      31.531  24.500  24.112  1.00  0.00     0.251 C 
ATOM      7  H   UNL A   1      32.871  24.946  22.506  1.00  0.00     0.163 HD
BRANCH   6   8
ATOM      8  C   UNL A   1      31.460  24.236  25.608  1.00  0.00     0.067 C 
ATOM      9  C   UNL A   1      31.613  25.263  26.487  1.00  0.00     0.025 C 
ATOM     10  C   UNL A   1      31.217  22.827  26.121  1.00  0.00     0.314 C 
ATOM     11  C   UNL A   1      31.856  26.675  25.974  1.00  0.00     0.020 A 
ATOM     12  O   UNL A   1      30.136  26.175  24.411  1.00  0.00    -0.474 OA
ATOM     13  C   UNL A   1      32.894  27.463  26.440  1.00  0.00     0.036 A 
ATOM     14  C   UNL A   1      31.085  27.072  24.968  1.00  0.00     0.142 A 
ATOM     15  C   UNL A   1      32.861  28.795  25.965  1.00  0.00     0.109 A 
ATOM     16  C   UNL A   1      31.199  28.345  24.461  1.00  0.00     0.062 A 
ATOM     17  C   UNL A   1      32.166  29.199  24.916  1.00  0.00     0.044 A 
ATOM     18  Br  UNL A   1      29.959  28.943  23.067  1.00  0.00    -0.047 Br
BRANCH  10  19
ATOM     19  C   UNL A   1      29.941  22.799  26.944  1.00  0.00     0.429 C 
ATOM     20  F   UNL A   1      30.241  22.578  28.221  1.00  0.00    -0.167 F 
ATOM     21  F   UNL A   1      29.315  23.967  26.832  1.00  0.00    -0.167 F 
ATOM     22  F   UNL A   1      29.148  21.827  26.501  1.00  0.00    -0.167 F 
ENDBRANCH  10  19
BRANCH  15  23
ATOM     23  S   UNL A   1      33.837  30.032  26.854  1.00  0.00     0.310 S 
ATOM     24  F   UNL A   1      34.131  29.045  28.061  1.00  0.00    -0.094 F 
ATOM     25  F   UNL A   1      32.538  30.478  27.625  1.00  0.00    -0.094 F 
ATOM     26  F   UNL A   1      34.683  31.100  27.603  1.00  0.00    -0.094 F 
ATOM     27  F   UNL A   1      35.152  29.478  26.177  1.00  0.00    -0.094 F 
ATOM     28  F   UNL A   1      33.013  28.869  26.171  1.00  0.00    -0.094 F 
ENDBRANCH  15  23
ENDBRANCH   6   8
ENDBRANCH   3   4
ENDBRANCH   2   3
ENDBRANCH   1   2
BRANCH   1  29
ATOM     29  C   UNL A   1      36.952  23.578  25.326  1.00  0.00     0.116 C 
BRANCH  29  30
ATOM     30  N   UNL A   1      37.939  22.495  25.444  1.00  0.00    -0.352 N 
ATOM     31  C   UNL A   1      39.219  22.739  26.124  1.00  0.00     0.251 C 
ATOM     32  H   UNL A   1      37.743  21.607  25.068  1.00  0.00     0.163 HD
ATOM     33  O   UNL A   1      40.073  21.802  26.226  1.00  0.00    -0.269 OA
BRANCH  31  34
ATOM     34  C   UNL A   1      39.523  24.111  26.704  1.00  0.00     0.039 A 
ATOM     35  C   UNL A   1      39.182  24.297  28.033  1.00  0.00     0.014 A 
ATOM     36  C   UNL A   1      40.176  25.046  26.023  1.00  0.00     0.014 A 
ATOM     37  C   UNL A   1      39.320  25.632  28.479  1.00  0.00     0.010 A 
ATOM     38  C   UNL A   1      40.395  26.287  26.572  1.00  0.00     0.010 A 
ATOM     39  C   UNL A   1      40.031  26.559  27.862  1.00  0.00    -0.014 A 
BRANCH  39  40
ATOM     40  C   UNL A   1      40.421  27.857  28.547  1.00  0.00     0.031 A 
ATOM     41  C   UNL A   1      39.460  28.849  28.752  1.00  0.00     0.074 A 
ATOM     42  C   UNL A   1      41.766  28.010  28.842  1.00  0.00     0.049 A 
ATOM     43  N   UNL A   1      39.642  30.062  29.278  1.00  0.00    -0.248 NA
ATOM     44  C   UNL A   1      38.038  28.702  28.409  1.00  0.00     0.031 C 
ATOM     45  C   UNL A   1      42.740  27.011  28.646  1.00  0.00     0.029 A 
ATOM     46  N   UNL A   1      42.396  29.118  29.362  1.00  0.00    -0.354 N 
ATOM     47  C   UNL A   1      38.482  30.720  29.329  1.00  0.00     0.074 A 
ATOM     48  C   UNL A   1      37.435  29.857  28.766  1.00  0.00     0.031 C 
ATOM     49  C   UNL A   1      43.942  27.514  29.031  1.00  0.00     0.029 A 
ATOM     50  C   UNL A   1      43.740  28.835  29.475  1.00  0.00     0.049 A 
ATOM     51  H   UNL A   1      41.963  29.966  29.609  1.00  0.00     0.167 HD
ATOM     52  C   UNL A   1      38.256  32.005  29.827  1.00  0.00     0.037 A 
ATOM     53  C   UNL A   1      44.747  29.668  29.935  1.00  0.00     0.037 A 
ATOM     54  C   UNL A   1      39.257  32.822  30.328  1.00  0.00     0.049 A 
ATOM     55  C   UNL A   1      44.530  30.975  30.378  1.00  0.00     0.074 A 
ATOM     56  C   UNL A   1      39.045  34.116  30.840  1.00  0.00     0.029 A 
ATOM     57  N   UNL A   1      40.604  32.548  30.418  1.00  0.00    -0.354 N 
ATOM     58  N   UNL A   1      43.365  31.618  30.467  1.00  0.00    -0.248 NA
ATOM     59  C   UNL A   1      45.594  31.877  30.837  1.00  0.00     0.031 C 
ATOM     60  C   UNL A   1      40.248  34.619  31.226  1.00  0.00     0.029 A 
ATOM     61  C   UNL A   1      41.232  33.647  30.958  1.00  0.00     0.049 A 
ATOM     62  H   UNL A   1      41.042  31.710  30.142  1.00  0.00     0.167 HD
ATOM     63  C   UNL A   1      43.553  32.845  30.954  1.00  0.00     0.074 A 
ATOM     64  C   UNL A   1      44.991  33.033  31.192  1.00  0.00     0.031 C 
ATOM     65  C   UNL A   1      42.584  33.816  31.213  1.00  0.00     0.037 A 
BRANCH  52  66
ATOM     66  C   UNL A   1      36.832  32.537  29.820  1.00  0.00     0.064 A 
ATOM     67  C   UNL A   1      36.417  33.364  28.789  1.00  0.00     0.173 A 
ATOM     68  C   UNL A   1      36.042  32.276  30.854  1.00  0.00     0.173 A 
ATOM     69  F   UNL A   1      37.059  33.453  27.627  1.00  0.00    -0.203 F 
ATOM     70  C   UNL A   1      35.247  34.104  29.083  1.00  0.00     0.198 A 
ATOM     71  C   UNL A   1      34.848  32.939  31.007  1.00  0.00     0.198 A 
ATOM     72  F   UNL A   1      36.408  31.364  31.750  1.00  0.00    -0.203 F 
ATOM     73  F   UNL A   1      34.980  35.165  28.326  1.00  0.00    -0.200 F 
ATOM     74  C   UNL A   1      34.403  33.814  30.056  1.00  0.00     0.200 A 
ATOM     75  F   UNL A   1      34.115  32.726  32.095  1.00  0.00    -0.200 F 
ATOM     76  F   UNL A   1      33.185  34.346  30.107  1.00  0.00    -0.200 F 
ENDBRANCH  52  66
BRANCH  53  77
ATOM     77  C   UNL A   1      46.168  29.130  29.957  1.00  0.00     0.064 A 
ATOM     78  C   UNL A   1      46.691  28.433  31.035  1.00  0.00     0.173 A 
ATOM     79  C   UNL A   1      46.876  29.318  28.850  1.00  0.00     0.173 A 
ATOM     80  F   UNL A   1      45.948  28.002  32.050  1.00  0.00    -0.203 F 
ATOM     81  C   UNL A   1      48.088  28.221  30.956  1.00  0.00     0.198 A 
ATOM     82  C   UNL A   1      48.202  28.962  28.798  1.00  0.00     0.198 A 
ATOM     83  F   UNL A   1      46.296  29.857  27.781  1.00  0.00    -0.203 F 
ATOM     84  F   UNL A   1      48.728  27.894  32.076  1.00  0.00    -0.200 F 
ATOM     85  C   UNL A   1      48.800  28.323  29.849  1.00  0.00     0.200 A 
ATOM     86  F   UNL A   1      48.914  29.243  27.710  1.00  0.00    -0.200 F 
ATOM     87  F   UNL A   1      50.033  27.832  29.760  1.00  0.00    -0.200 F 
ENDBRANCH  53  77
BRANCH  65  88
ATOM     88  C   UNL A   1      43.039  35.138  31.811  1.00  0.00     0.064 A 
ATOM     89  C   UNL A   1      43.039  35.248  33.191  1.00  0.00     0.173 A 
ATOM     90  C   UNL A   1      43.491  36.121  31.041  1.00  0.00     0.173 A 
ATOM     91  F   UNL A   1      42.840  34.213  34.002  1.00  0.00    -0.203 F 
ATOM     92  C   UNL A   1      43.271  36.563  33.661  1.00  0.00     0.198 A 
ATOM     93  C   UNL A   1      43.827  37.336  31.585  1.00  0.00     0.198 A 
ATOM     94  F   UNL A   1      43.618  35.926  29.731  1.00  0.00    -0.203 F 
ATOM     95  F   UNL A   1      42.939  36.838  34.919  1.00  0.00    -0.200 F 
ATOM     96  C   UNL A   1      43.795  37.536  32.937  1.00  0.00     0.200 A 
ATOM     97  F   UNL A   1      44.191  38.334  30.784  1.00  0.00    -0.200 F 
ATOM     98  F   UNL A   1      44.264  38.649  33.494  1.00  0.00    -0.200 F 
ENDBRANCH  65  88
ENDBRANCH  39  40
ENDBRANCH  31  34
ENDBRANCH  29  30
ENDBRANCH   1  29
TORSDOF 13
ENDMDL
MODEL 3
REMARK VINA RESULT:     -13.7      1.115      1.342
REMARK SMILES O=C(NCCCCNC(=O)c1ccc(-c2c3nc(c(-c4c(F)c(F)c(F)c(F)c4F)c4ccc([nH]4)c(-c4c(F)c(F)c(F)c(F)c4F)c4nc(c(-c5c(F)c(F)c(F)c(F)c5F)c5ccc2[nH]5)C=C4)C=C3)cc1)C1=Cc2cc(S(F)(F)(F)(F)F)cc(Br)c2O[C@@H]1C(F)(F)F
REMARK SMILES IDX 6 1 5 2 4 3 3 4 1 5 2 6 74 8 75 9 90 10 76 11 89 12 77 13
REMARK SMILES IDX 88 14 78 15 86 16 85 17 87 18 91 19 92 20 93 21 94 22 79 23
REMARK SMILES IDX 80 24 81 25 82 26 83 27 84 28 7 29 8 30 9 31 10 33 11 34
REMARK SMILES IDX 12 35 73 36 13 37 72 38 14 39 15 40 16 41 66 42 17 43 71 44
REMARK SMILES IDX 65 45 67 46 18 47 70 48 64 49 63 50 19 52 51 53 31 54 50 55
REMARK SMILES IDX 32 56 35 57 49 58 68 59 33 60 34 61 48 63 69 64 36 65 20 66
REMARK SMILES IDX 21 67 29 68 22 69 23 70 27 71 30 72 24 73 25 74 28 75 26 76
REMARK SMILES IDX 52 77 53 78 61 79 54 80 55 81 59 82 62 83 56 84 57 85 60 86
REMARK SMILES IDX 58 87 37 88 38 89 46 90 39 91 40 92 44 93 47 94 41 95 42 96
REMARK SMILES IDX 45 97 43 98
REMARK H PARENT 3 7 8 32 67 51 35 62
REMARK Flexibility Score: inf
ROOT
ATOM      1  C   UNL A   1      32.801  28.013  25.920  1.00  0.00     0.023 C 
ENDROOT
BRANCH   1   2
ATOM      2  C   UNL A   1      33.040  27.084  24.740  1.00  0.00     0.023 C 
BRANCH   2   3
ATOM      3  C   UNL A   1      33.481  25.722  25.249  1.00  0.00     0.116 C 
BRANCH   3   4
ATOM      4  N   UNL A   1      33.891  24.883  24.114  1.00  0.00    -0.352 N 
ATOM      5  O   UNL A   1      33.469  22.961  22.784  1.00  0.00    -0.270 OA
ATOM      6  C   UNL A   1      33.114  23.685  23.766  1.00  0.00     0.251 C 
ATOM      7  H   UNL A   1      34.686  25.125  23.586  1.00  0.00     0.163 HD
BRANCH   6   8
ATOM      8  C   UNL A   1      31.886  23.312  24.581  1.00  0.00     0.067 C 
ATOM      9  C   UNL A   1      31.787  22.073  25.133  1.00  0.00     0.025 C 
ATOM     10  C   UNL A   1      30.769  24.324  24.779  1.00  0.00     0.314 C 
ATOM     11  C   UNL A   1      32.905  21.060  24.935  1.00  0.00     0.020 A 
ATOM     12  O   UNL A   1      34.355  22.886  25.397  1.00  0.00    -0.474 OA
ATOM     13  C   UNL A   1      32.665  19.771  24.492  1.00  0.00     0.036 A 
ATOM     14  C   UNL A   1      34.142  21.515  25.098  1.00  0.00     0.142 A 
ATOM     15  C   UNL A   1      33.804  18.932  24.524  1.00  0.00     0.109 A 
ATOM     16  C   UNL A   1      35.218  20.668  24.981  1.00  0.00     0.062 A 
ATOM     17  C   UNL A   1      35.050  19.363  24.605  1.00  0.00     0.044 A 
ATOM     18  Br  UNL A   1      37.021  21.339  25.359  1.00  0.00    -0.047 Br
BRANCH  10  19
ATOM     19  C   UNL A   1      30.590  24.596  26.263  1.00  0.00     0.429 C 
ATOM     20  F   UNL A   1      30.245  25.868  26.442  1.00  0.00    -0.167 F 
ATOM     21  F   UNL A   1      29.635  23.807  26.747  1.00  0.00    -0.167 F 
ATOM     22  F   UNL A   1      31.732  24.353  26.901  1.00  0.00    -0.167 F 
ENDBRANCH  10  19
BRANCH  15  23
ATOM     23  S   UNL A   1      33.536  17.143  24.450  1.00  0.00     0.310 S 
ATOM     24  F   UNL A   1      35.060  16.825  24.757  1.00  0.00    -0.094 F 
ATOM     25  F   UNL A   1      33.919  17.166  22.923  1.00  0.00    -0.094 F 
ATOM     26  F   UNL A   1      33.291  15.610  24.395  1.00  0.00    -0.094 F 
ATOM     27  F   UNL A   1      33.294  17.118  26.011  1.00  0.00    -0.094 F 
ATOM     28  F   UNL A   1      33.893  18.680  24.547  1.00  0.00    -0.094 F 
ENDBRANCH  15  23
ENDBRANCH   6   8
ENDBRANCH   3   4
ENDBRANCH   2   3
ENDBRANCH   1   2
BRANCH   1  29
ATOM     29  C   UNL A   1      34.065  28.809  26.202  1.00  0.00     0.116 C 
BRANCH  29  30
ATOM     30  N   UNL A   1      33.703  30.149  26.685  1.00  0.00    -0.352 N 
ATOM     31  C   UNL A   1      34.598  30.867  27.603  1.00  0.00     0.251 C 
ATOM     32  H   UNL A   1      32.860  30.566  26.394  1.00  0.00     0.163 HD
ATOM     33  O   UNL A   1      34.285  32.026  28.021  1.00  0.00    -0.269 OA
BRANCH  31  34
ATOM     34  C   UNL A   1      35.900  30.223  28.054  1.00  0.00     0.039 A 
ATOM     35  C   UNL A   1      36.990  30.413  27.222  1.00  0.00     0.014 A 
ATOM     36  C   UNL A   1      36.024  29.608  29.224  1.00  0.00     0.014 A 
ATOM     37  C   UNL A   1      38.129  29.656  27.588  1.00  0.00     0.010 A 
ATOM     38  C   UNL A   1      37.209  29.005  29.575  1.00  0.00     0.010 A 
ATOM     39  C   UNL A   1      38.312  29.102  28.773  1.00  0.00    -0.014 A 
BRANCH  39  40
ATOM     40  C   UNL A   1      39.675  28.601  29.220  1.00  0.00     0.031 A 
ATOM     41  C   UNL A   1      40.159  27.385  28.734  1.00  0.00     0.074 A 
ATOM     42  C   UNL A   1      40.317  29.361  30.183  1.00  0.00     0.049 A 
ATOM     43  N   UNL A   1      41.297  26.772  29.065  1.00  0.00    -0.248 NA
ATOM     44  C   UNL A   1      39.462  26.559  27.737  1.00  0.00     0.031 C 
ATOM     45  C   UNL A   1      39.839  30.592  30.672  1.00  0.00     0.029 A 
ATOM     46  N   UNL A   1      41.499  29.080  30.830  1.00  0.00    -0.354 N 
ATOM     47  C   UNL A   1      41.425  25.636  28.376  1.00  0.00     0.074 A 
ATOM     48  C   UNL A   1      40.245  25.481  27.516  1.00  0.00     0.031 C 
ATOM     49  C   UNL A   1      40.714  31.042  31.610  1.00  0.00     0.029 A 
ATOM     50  C   UNL A   1      41.754  30.100  31.722  1.00  0.00     0.049 A 
ATOM     51  H   UNL A   1      42.065  28.288  30.683  1.00  0.00     0.167 HD
ATOM     52  C   UNL A   1      42.483  24.726  28.429  1.00  0.00     0.037 A 
ATOM     53  C   UNL A   1      42.826  30.219  32.591  1.00  0.00     0.037 A 
ATOM     54  C   UNL A   1      43.578  24.868  29.268  1.00  0.00     0.049 A 
ATOM     55  C   UNL A   1      43.856  29.279  32.686  1.00  0.00     0.074 A 
ATOM     56  C   UNL A   1      44.655  23.964  29.328  1.00  0.00     0.029 A 
ATOM     57  N   UNL A   1      43.820  25.874  30.176  1.00  0.00    -0.354 N 
ATOM     58  N   UNL A   1      44.004  28.164  31.968  1.00  0.00    -0.248 NA
ATOM     59  C   UNL A   1      44.979  29.378  33.626  1.00  0.00     0.031 C 
ATOM     60  C   UNL A   1      45.531  24.414  30.265  1.00  0.00     0.029 A 
ATOM     61  C   UNL A   1      45.014  25.606  30.807  1.00  0.00     0.049 A 
ATOM     62  H   UNL A   1      43.239  26.652  30.345  1.00  0.00     0.167 HD
ATOM     63  C   UNL A   1      45.121  27.530  32.330  1.00  0.00     0.074 A 
ATOM     64  C   UNL A   1      45.761  28.298  33.407  1.00  0.00     0.031 C 
ATOM     65  C   UNL A   1      45.635  26.344  31.802  1.00  0.00     0.037 A 
BRANCH  52  66
ATOM     66  C   UNL A   1      42.432  23.513  27.515  1.00  0.00     0.064 A 
ATOM     67  C   UNL A   1      41.906  22.322  27.989  1.00  0.00     0.173 A 
ATOM     68  C   UNL A   1      42.982  23.591  26.309  1.00  0.00     0.173 A 
ATOM     69  F   UNL A   1      41.130  22.250  29.067  1.00  0.00    -0.203 F 
ATOM     70  C   UNL A   1      42.267  21.190  27.222  1.00  0.00     0.198 A 
ATOM     71  C   UNL A   1      43.181  22.459  25.557  1.00  0.00     0.198 A 
ATOM     72  F   UNL A   1      43.341  24.776  25.824  1.00  0.00    -0.203 F 
ATOM     73  F   UNL A   1      42.121  19.992  27.782  1.00  0.00    -0.200 F 
ATOM     74  C   UNL A   1      42.739  21.239  25.990  1.00  0.00     0.200 A 
ATOM     75  F   UNL A   1      43.813  22.550  24.391  1.00  0.00    -0.200 F 
ATOM     76  F   UNL A   1      42.782  20.161  25.212  1.00  0.00    -0.200 F 
ENDBRANCH  52  66
BRANCH  53  77
ATOM     77  C   UNL A   1      42.886  31.441  33.493  1.00  0.00     0.064 A 
ATOM     78  C   UNL A   1      42.355  31.456  34.773  1.00  0.00     0.173 A 
ATOM     79  C   UNL A   1      43.531  32.492  33.002  1.00  0.00     0.173 A 
ATOM     80  F   UNL A   1      41.930  30.360  35.396  1.00  0.00    -0.203 F 
ATOM     81  C   UNL A   1      42.306  32.745  35.357  1.00  0.00     0.198 A 
ATOM     82  C   UNL A   1      43.558  33.680  33.691  1.00  0.00     0.198 A 
ATOM     83  F   UNL A   1      44.157  32.393  31.833  1.00  0.00    -0.203 F 
ATOM     84  F   UNL A   1      41.505  32.919  36.405  1.00  0.00    -0.200 F 
ATOM     85  C   UNL A   1      43.002  33.785  34.936  1.00  0.00     0.200 A 
ATOM     86  F   UNL A   1      44.133  34.745  33.138  1.00  0.00    -0.200 F 
ATOM     87  F   UNL A   1      43.153  34.875  35.681  1.00  0.00    -0.200 F 
ENDBRANCH  53  77
BRANCH  65  88
ATOM     88  C   UNL A   1      46.956  25.832  32.353  1.00  0.00     0.064 A 
ATOM     89  C   UNL A   1      48.117  26.262  31.731  1.00  0.00     0.173 A 
ATOM     90  C   UNL A   1      46.998  25.064  33.435  1.00  0.00     0.173 A 
ATOM     91  F   UNL A   1      48.135  27.224  30.814  1.00  0.00    -0.203 F 
ATOM     92  C   UNL A   1      49.282  25.584  32.161  1.00  0.00     0.198 A 
ATOM     93  C   UNL A   1      48.191  24.545  33.878  1.00  0.00     0.198 A 
ATOM     94  F   UNL A   1      45.875  24.793  34.095  1.00  0.00    -0.203 F 
ATOM     95  F   UNL A   1      50.363  25.661  31.390  1.00  0.00    -0.200 F 
ATOM     96  C   UNL A   1      49.371  24.879  33.275  1.00  0.00     0.200 A 
ATOM     97  F   UNL A   1      48.197  23.705  34.909  1.00  0.00    -0.200 F 
ATOM     98  F   UNL A   1      50.546  24.515  33.782  1.00  0.00    -0.200 F 
ENDBRANCH  65  88
ENDBRANCH  39  40
ENDBRANCH  31  34
ENDBRANCH  29  30
ENDBRANCH   1  29
TORSDOF 13
ENDMDL
