MODEL 1
REMARK VINA RESULT:     -11.6      0.000      0.000
REMARK SMILES CC[C@](C)(NC(=O)N1CCC[C@@H]1C)C(=O)NCCCCNC(=O)c1ccc(-c2c3nc(c(-c4c(F)c(F)c(F)c(F)c4F)c4ccc([nH]4)c(-c4c(F)c(F)c(F)c(F)c4F)c4nc(c(-c5c(F)c(F)c(F)c(F)c5F)c5ccc2[nH]5)C=C4)C=C3)cc1
REMARK SMILES IDX 18 1 17 2 16 3 14 4 15 5 3 7 4 8 2 9 1 10 5 11 6 12 7 14
REMARK SMILES IDX 8 15 9 16 12 17 10 18 11 19 13 20 19 21 20 22 21 23 22 24
REMARK SMILES IDX 23 26 24 27 25 28 86 29 26 30 85 31 27 32 28 33 29 34 79 35
REMARK SMILES IDX 30 36 84 37 78 38 80 39 31 40 83 41 77 42 76 43 32 45 64 46
REMARK SMILES IDX 44 47 63 48 45 49 48 50 62 51 81 52 46 53 47 54 61 56 82 57
REMARK SMILES IDX 49 58 33 59 34 60 42 61 35 62 36 63 40 64 43 65 37 66 38 67
REMARK SMILES IDX 41 68 39 69 65 70 66 71 74 72 67 73 68 74 72 75 75 76 69 77
REMARK SMILES IDX 70 78 73 79 71 80 50 81 51 82 59 83 52 84 53 85 57 86 60 87
REMARK SMILES IDX 54 88 55 89 58 90 56 91
REMARK H PARENT 16 6 5 13 21 25 80 44 48 55
REMARK Flexibility Score: inf
ROOT
ATOM      1  C   UNL A   1      31.418  30.629  25.766  1.00  0.00     0.023 C 
ENDROOT
BRANCH   1   2
ATOM      2  C   UNL A   1      32.747  29.855  25.624  1.00  0.00     0.116 C 
BRANCH   2   3
ATOM      3  N   UNL A   1      33.395  29.638  24.326  1.00  0.00    -0.354 N 
ATOM      4  C   UNL A   1      33.489  28.589  23.438  1.00  0.00     0.245 C 
ATOM      5  O   UNL A   1      34.063  28.812  22.366  1.00  0.00    -0.272 OA
ATOM      6  H   UNL A   1      33.882  30.435  24.015  1.00  0.00     0.163 HD
BRANCH   4   7
ATOM      7  C   UNL A   1      32.768  27.258  23.691  1.00  0.00     0.117 C 
ATOM      8  C   UNL A   1      31.330  27.291  24.256  1.00  0.00     0.045 C 
BRANCH   7   9
ATOM      9  C   UNL A   1      33.658  26.531  24.768  1.00  0.00     0.035 C 
ATOM     10  C   UNL A   1      32.868  26.054  26.001  1.00  0.00     0.007 C 
ENDBRANCH   7   9
BRANCH   7  11
ATOM     11  N   UNL A   1      32.732  26.560  22.401  1.00  0.00    -0.324 N 
ATOM     12  C   UNL A   1      33.067  25.334  21.959  1.00  0.00     0.318 C 
ATOM     13  H   UNL A   1      32.374  27.130  21.681  1.00  0.00     0.166 HD
ATOM     14  O   UNL A   1      33.256  25.321  20.732  1.00  0.00    -0.249 OA
BRANCH  12  15
ATOM     15  N   UNL A   1      33.184  24.179  22.685  1.00  0.00    -0.322 N 
ATOM     16  C   UNL A   1      31.912  23.682  23.211  1.00  0.00     0.122 C 
ATOM     17  C   UNL A   1      34.238  23.166  23.015  1.00  0.00     0.083 C 
ATOM     18  C   UNL A   1      32.045  22.172  23.219  1.00  0.00     0.024 C 
ATOM     19  C   UNL A   1      33.469  21.985  23.662  1.00  0.00     0.027 C 
ATOM     20  C   UNL A   1      35.293  23.500  24.078  1.00  0.00     0.031 C 
ENDBRANCH  12  15
ENDBRANCH   7  11
ENDBRANCH   4   7
ENDBRANCH   2   3
ENDBRANCH   1   2
BRANCH   1  21
ATOM     21  C   UNL A   1      31.305  31.954  26.522  1.00  0.00     0.023 C 
BRANCH  21  22
ATOM     22  C   UNL A   1      32.559  32.465  27.213  1.00  0.00     0.116 C 
BRANCH  22  23
ATOM     23  N   UNL A   1      32.448  33.855  27.605  1.00  0.00    -0.352 N 
ATOM     24  C   UNL A   1      33.220  34.572  28.491  1.00  0.00     0.251 C 
ATOM     25  H   UNL A   1      31.718  34.358  27.179  1.00  0.00     0.163 HD
ATOM     26  O   UNL A   1      32.903  35.712  28.791  1.00  0.00    -0.269 OA
BRANCH  24  27
ATOM     27  C   UNL A   1      34.419  33.956  29.114  1.00  0.00     0.039 A 
ATOM     28  C   UNL A   1      34.224  32.978  30.095  1.00  0.00     0.014 A 
ATOM     29  C   UNL A   1      35.717  34.351  28.777  1.00  0.00     0.014 A 
ATOM     30  C   UNL A   1      35.324  32.372  30.708  1.00  0.00     0.010 A 
ATOM     31  C   UNL A   1      36.817  33.704  29.349  1.00  0.00     0.010 A 
ATOM     32  C   UNL A   1      36.633  32.713  30.326  1.00  0.00    -0.014 A 
BRANCH  32  33
ATOM     33  C   UNL A   1      37.802  32.042  30.957  1.00  0.00     0.031 A 
ATOM     34  C   UNL A   1      38.233  32.405  32.352  1.00  0.00     0.074 A 
ATOM     35  C   UNL A   1      38.490  31.110  30.269  1.00  0.00     0.049 A 
ATOM     36  N   UNL A   1      39.219  31.922  33.068  1.00  0.00    -0.248 NA
ATOM     37  C   UNL A   1      37.468  33.465  33.027  1.00  0.00     0.031 C 
ATOM     38  C   UNL A   1      38.197  30.688  28.899  1.00  0.00     0.029 A 
ATOM     39  N   UNL A   1      39.577  30.348  30.625  1.00  0.00    -0.354 N 
ATOM     40  C   UNL A   1      39.194  32.620  34.269  1.00  0.00     0.074 A 
ATOM     41  C   UNL A   1      38.132  33.596  34.166  1.00  0.00     0.031 C 
ATOM     42  C   UNL A   1      39.061  29.724  28.542  1.00  0.00     0.029 A 
ATOM     43  C   UNL A   1      39.992  29.486  29.641  1.00  0.00     0.049 A 
ATOM     44  H   UNL A   1      40.016  30.414  31.504  1.00  0.00     0.167 HD
ATOM     45  C   UNL A   1      39.972  32.447  35.366  1.00  0.00     0.037 A 
ATOM     46  C   UNL A   1      41.011  28.604  29.622  1.00  0.00     0.037 A 
ATOM     47  C   UNL A   1      41.022  31.466  35.474  1.00  0.00     0.049 A 
ATOM     48  C   UNL A   1      41.880  28.454  30.844  1.00  0.00     0.074 A 
ATOM     49  C   UNL A   1      41.825  31.177  36.564  1.00  0.00     0.029 A 
ATOM     50  N   UNL A   1      41.422  30.620  34.449  1.00  0.00    -0.354 N 
ATOM     51  N   UNL A   1      41.797  29.064  32.001  1.00  0.00    -0.248 NA
ATOM     52  C   UNL A   1      42.981  27.484  30.758  1.00  0.00     0.031 C 
ATOM     53  C   UNL A   1      42.753  30.204  36.179  1.00  0.00     0.029 A 
ATOM     54  C   UNL A   1      42.484  29.835  34.871  1.00  0.00     0.049 A 
ATOM     55  H   UNL A   1      41.013  30.583  33.554  1.00  0.00     0.167 HD
ATOM     56  C   UNL A   1      42.808  28.532  32.789  1.00  0.00     0.074 A 
ATOM     57  C   UNL A   1      43.484  27.536  31.983  1.00  0.00     0.031 C 
ATOM     58  C   UNL A   1      43.146  28.840  34.065  1.00  0.00     0.037 A 
BRANCH  45  59
ATOM     59  C   UNL A   1      39.725  33.348  36.545  1.00  0.00     0.064 A 
ATOM     60  C   UNL A   1      38.786  33.027  37.537  1.00  0.00     0.173 A 
ATOM     61  C   UNL A   1      40.469  34.528  36.706  1.00  0.00     0.173 A 
ATOM     62  F   UNL A   1      38.044  31.914  37.430  1.00  0.00    -0.203 F 
ATOM     63  C   UNL A   1      38.577  33.869  38.627  1.00  0.00     0.198 A 
ATOM     64  C   UNL A   1      40.281  35.349  37.814  1.00  0.00     0.198 A 
ATOM     65  F   UNL A   1      41.386  34.879  35.792  1.00  0.00    -0.203 F 
ATOM     66  F   UNL A   1      37.637  33.568  39.534  1.00  0.00    -0.200 F 
ATOM     67  C   UNL A   1      39.329  35.025  38.768  1.00  0.00     0.200 A 
ATOM     68  F   UNL A   1      41.021  36.458  37.958  1.00  0.00    -0.200 F 
ATOM     69  F   UNL A   1      39.132  35.830  39.822  1.00  0.00    -0.200 F 
ENDBRANCH  45  59
BRANCH  46  70
ATOM     70  C   UNL A   1      41.258  27.775  28.411  1.00  0.00     0.064 A 
ATOM     71  C   UNL A   1      42.145  28.201  27.413  1.00  0.00     0.173 A 
ATOM     72  C   UNL A   1      40.603  26.550  28.220  1.00  0.00     0.173 A 
ATOM     73  F   UNL A   1      42.779  29.377  27.537  1.00  0.00    -0.203 F 
ATOM     74  C   UNL A   1      42.348  27.446  26.259  1.00  0.00     0.198 A 
ATOM     75  C   UNL A   1      40.832  25.780  27.082  1.00  0.00     0.198 A 
ATOM     76  F   UNL A   1      39.745  26.095  29.145  1.00  0.00    -0.203 F 
ATOM     77  F   UNL A   1      43.161  27.903  25.296  1.00  0.00    -0.200 F 
ATOM     78  C   UNL A   1      41.696  26.233  26.098  1.00  0.00     0.200 A 
ATOM     79  F   UNL A   1      40.210  24.601  26.937  1.00  0.00    -0.200 F 
ATOM     80  F   UNL A   1      41.894  25.505  24.989  1.00  0.00    -0.200 F 
ENDBRANCH  46  70
BRANCH  58  81
ATOM     81  C   UNL A   1      44.273  28.066  34.690  1.00  0.00     0.064 A 
ATOM     82  C   UNL A   1      45.595  28.536  34.672  1.00  0.00     0.173 A 
ATOM     83  C   UNL A   1      44.020  26.853  35.351  1.00  0.00     0.173 A 
ATOM     84  F   UNL A   1      45.896  29.683  34.043  1.00  0.00    -0.203 F 
ATOM     85  C   UNL A   1      46.623  27.808  35.266  1.00  0.00     0.198 A 
ATOM     86  C   UNL A   1      45.044  26.146  35.973  1.00  0.00     0.198 A 
ATOM     87  F   UNL A   1      42.773  26.360  35.404  1.00  0.00    -0.203 F 
ATOM     88  F   UNL A   1      47.886  28.252  35.190  1.00  0.00    -0.200 F 
ATOM     89  C   UNL A   1      46.346  26.619  35.923  1.00  0.00     0.200 A 
ATOM     90  F   UNL A   1      44.771  25.006  36.622  1.00  0.00    -0.200 F 
ATOM     91  F   UNL A   1      47.336  25.925  36.502  1.00  0.00    -0.200 F 
ENDBRANCH  58  81
ENDBRANCH  32  33
ENDBRANCH  24  27
ENDBRANCH  22  23
ENDBRANCH  21  22
ENDBRANCH   1  21
TORSDOF 14
ENDMDL
MODEL 2
REMARK VINA RESULT:     -11.6      0.687      7.541
REMARK SMILES CC[C@](C)(NC(=O)N1CCC[C@@H]1C)C(=O)NCCCCNC(=O)c1ccc(-c2c3nc(c(-c4c(F)c(F)c(F)c(F)c4F)c4ccc([nH]4)c(-c4c(F)c(F)c(F)c(F)c4F)c4nc(c(-c5c(F)c(F)c(F)c(F)c5F)c5ccc2[nH]5)C=C4)C=C3)cc1
REMARK SMILES IDX 18 1 17 2 16 3 14 4 15 5 3 7 4 8 2 9 1 10 5 11 6 12 7 14
REMARK SMILES IDX 8 15 9 16 12 17 10 18 11 19 13 20 19 21 20 22 21 23 22 24
REMARK SMILES IDX 23 26 24 27 25 28 86 29 26 30 85 31 27 32 28 33 29 34 79 35
REMARK SMILES IDX 30 36 84 37 78 38 80 39 31 40 83 41 77 42 76 43 32 45 64 46
REMARK SMILES IDX 44 47 63 48 45 49 48 50 62 51 81 52 46 53 47 54 61 56 82 57
REMARK SMILES IDX 49 58 33 59 34 60 42 61 35 62 36 63 40 64 43 65 37 66 38 67
REMARK SMILES IDX 41 68 39 69 65 70 66 71 74 72 67 73 68 74 72 75 75 76 69 77
REMARK SMILES IDX 70 78 73 79 71 80 50 81 51 82 59 83 52 84 53 85 57 86 60 87
REMARK SMILES IDX 54 88 55 89 58 90 56 91
REMARK H PARENT 16 6 5 13 21 25 80 44 48 55
REMARK Flexibility Score: inf
ROOT
ATOM      1  C   UNL A   1      31.403  30.703  26.134  1.00  0.00     0.023 C 
ENDROOT
BRANCH   1   2
ATOM      2  C   UNL A   1      32.717  29.923  25.911  1.00  0.00     0.116 C 
BRANCH   2   3
ATOM      3  N   UNL A   1      33.328  29.773  24.585  1.00  0.00    -0.354 N 
ATOM      4  C   UNL A   1      33.395  28.771  23.642  1.00  0.00     0.245 C 
ATOM      5  O   UNL A   1      33.938  29.050  22.566  1.00  0.00    -0.272 OA
ATOM      6  H   UNL A   1      33.807  30.585  24.302  1.00  0.00     0.163 HD
BRANCH   4   7
ATOM      7  C   UNL A   1      32.679  27.430  23.845  1.00  0.00     0.117 C 
ATOM      8  C   UNL A   1      31.222  27.439  24.360  1.00  0.00     0.045 C 
BRANCH   7   9
ATOM      9  C   UNL A   1      33.538  26.692  24.941  1.00  0.00     0.035 C 
ATOM     10  C   UNL A   1      32.695  26.069  26.069  1.00  0.00     0.007 C 
ENDBRANCH   7   9
BRANCH   7  11
ATOM     11  N   UNL A   1      32.695  26.754  22.543  1.00  0.00    -0.324 N 
ATOM     12  C   UNL A   1      33.084  25.550  22.087  1.00  0.00     0.318 C 
ATOM     13  H   UNL A   1      32.331  27.323  21.826  1.00  0.00     0.166 HD
ATOM     14  O   UNL A   1      33.299  25.566  20.864  1.00  0.00    -0.249 OA
BRANCH  12  15
ATOM     15  N   UNL A   1      33.229  24.387  22.796  1.00  0.00    -0.322 N 
ATOM     16  C   UNL A   1      31.963  23.814  23.254  1.00  0.00     0.122 C 
ATOM     17  C   UNL A   1      34.320  23.423  23.153  1.00  0.00     0.083 C 
ATOM     18  C   UNL A   1      32.174  22.313  23.238  1.00  0.00     0.024 C 
ATOM     19  C   UNL A   1      33.586  22.189  23.741  1.00  0.00     0.027 C 
ATOM     20  C   UNL A   1      35.308  23.787  24.269  1.00  0.00     0.031 C 
ENDBRANCH  12  15
ENDBRANCH   7  11
ENDBRANCH   4   7
ENDBRANCH   2   3
ENDBRANCH   1   2
BRANCH   1  21
ATOM     21  C   UNL A   1      31.371  32.186  26.507  1.00  0.00     0.023 C 
BRANCH  21  22
ATOM     22  C   UNL A   1      32.608  32.757  27.180  1.00  0.00     0.116 C 
BRANCH  22  23
ATOM     23  N   UNL A   1      32.420  34.125  27.618  1.00  0.00    -0.352 N 
ATOM     24  C   UNL A   1      33.094  34.827  28.590  1.00  0.00     0.251 C 
ATOM     25  H   UNL A   1      31.708  34.623  27.154  1.00  0.00     0.163 HD
ATOM     26  O   UNL A   1      32.716  35.943  28.909  1.00  0.00    -0.269 OA
BRANCH  24  27
ATOM     27  C   UNL A   1      34.261  34.222  29.283  1.00  0.00     0.039 A 
ATOM     28  C   UNL A   1      34.020  33.428  30.409  1.00  0.00     0.014 A 
ATOM     29  C   UNL A   1      35.575  34.455  28.866  1.00  0.00     0.014 A 
ATOM     30  C   UNL A   1      35.088  32.839  31.092  1.00  0.00     0.010 A 
ATOM     31  C   UNL A   1      36.638  33.819  29.514  1.00  0.00     0.010 A 
ATOM     32  C   UNL A   1      36.407  33.011  30.639  1.00  0.00    -0.014 A 
BRANCH  32  33
ATOM     33  C   UNL A   1      37.540  32.356  31.348  1.00  0.00     0.031 A 
ATOM     34  C   UNL A   1      38.285  31.214  30.711  1.00  0.00     0.074 A 
ATOM     35  C   UNL A   1      37.894  32.779  32.577  1.00  0.00     0.049 A 
ATOM     36  N   UNL A   1      39.302  30.527  31.170  1.00  0.00    -0.248 NA
ATOM     37  C   UNL A   1      37.814  30.771  29.389  1.00  0.00     0.031 C 
ATOM     38  C   UNL A   1      37.236  33.854  33.320  1.00  0.00     0.029 A 
ATOM     39  N   UNL A   1      38.895  32.358  33.419  1.00  0.00    -0.354 N 
ATOM     40  C   UNL A   1      39.587  29.574  30.202  1.00  0.00     0.074 A 
ATOM     41  C   UNL A   1      38.603  29.734  29.153  1.00  0.00     0.031 C 
ATOM     42  C   UNL A   1      37.868  34.028  34.492  1.00  0.00     0.029 A 
ATOM     43  C   UNL A   1      38.951  33.055  34.601  1.00  0.00     0.049 A 
ATOM     44  H   UNL A   1      39.516  31.626  33.196  1.00  0.00     0.167 HD
ATOM     45  C   UNL A   1      40.590  28.662  30.178  1.00  0.00     0.037 A 
ATOM     46  C   UNL A   1      39.777  32.923  35.658  1.00  0.00     0.037 A 
ATOM     47  C   UNL A   1      41.578  28.512  31.216  1.00  0.00     0.049 A 
ATOM     48  C   UNL A   1      40.864  31.881  35.618  1.00  0.00     0.074 A 
ATOM     49  C   UNL A   1      42.666  27.656  31.254  1.00  0.00     0.029 A 
ATOM     50  N   UNL A   1      41.591  29.227  32.405  1.00  0.00    -0.354 N 
ATOM     51  N   UNL A   1      41.171  31.038  34.663  1.00  0.00    -0.248 NA
ATOM     52  C   UNL A   1      41.726  31.779  36.804  1.00  0.00     0.031 C 
ATOM     53  C   UNL A   1      43.299  27.808  32.492  1.00  0.00     0.029 A 
ATOM     54  C   UNL A   1      42.647  28.806  33.199  1.00  0.00     0.049 A 
ATOM     55  H   UNL A   1      40.946  29.929  32.650  1.00  0.00     0.167 HD
ATOM     56  C   UNL A   1      42.277  30.331  35.116  1.00  0.00     0.074 A 
ATOM     57  C   UNL A   1      42.598  30.854  36.428  1.00  0.00     0.031 C 
ATOM     58  C   UNL A   1      42.964  29.338  34.500  1.00  0.00     0.037 A 
BRANCH  45  59
ATOM     59  C   UNL A   1      40.669  27.743  28.990  1.00  0.00     0.064 A 
ATOM     60  C   UNL A   1      39.860  26.601  28.884  1.00  0.00     0.173 A 
ATOM     61  C   UNL A   1      41.536  28.031  27.925  1.00  0.00     0.173 A 
ATOM     62  F   UNL A   1      39.018  26.275  29.876  1.00  0.00    -0.203 F 
ATOM     63  C   UNL A   1      39.941  25.765  27.773  1.00  0.00     0.198 A 
ATOM     64  C   UNL A   1      41.590  27.212  26.800  1.00  0.00     0.198 A 
ATOM     65  F   UNL A   1      42.326  29.115  27.969  1.00  0.00    -0.203 F 
ATOM     66  F   UNL A   1      39.197  24.651  27.719  1.00  0.00    -0.200 F 
ATOM     67  C   UNL A   1      40.800  26.074  26.729  1.00  0.00     0.200 A 
ATOM     68  F   UNL A   1      42.408  27.522  25.785  1.00  0.00    -0.200 F 
ATOM     69  F   UNL A   1      40.871  25.273  25.657  1.00  0.00    -0.200 F 
ENDBRANCH  45  59
BRANCH  46  70
ATOM     70  C   UNL A   1      39.624  33.814  36.840  1.00  0.00     0.064 A 
ATOM     71  C   UNL A   1      38.845  33.429  37.939  1.00  0.00     0.173 A 
ATOM     72  C   UNL A   1      40.241  35.073  36.888  1.00  0.00     0.173 A 
ATOM     73  F   UNL A   1      38.216  32.244  37.932  1.00  0.00    -0.203 F 
ATOM     74  C   UNL A   1      38.668  34.277  39.030  1.00  0.00     0.198 A 
ATOM     75  C   UNL A   1      40.090  35.907  37.994  1.00  0.00     0.198 A 
ATOM     76  F   UNL A   1      40.998  35.491  35.863  1.00  0.00    -0.203 F 
ATOM     77  F   UNL A   1      37.874  33.905  40.044  1.00  0.00    -0.200 F 
ATOM     78  C   UNL A   1      39.296  35.513  39.059  1.00  0.00     0.200 A 
ATOM     79  F   UNL A   1      40.710  37.095  38.023  1.00  0.00    -0.200 F 
ATOM     80  F   UNL A   1      39.128  36.328  40.110  1.00  0.00    -0.200 F 
ENDBRANCH  46  70
BRANCH  58  81
ATOM     81  C   UNL A   1      44.160  28.775  35.217  1.00  0.00     0.064 A 
ATOM     82  C   UNL A   1      44.058  27.665  36.070  1.00  0.00     0.173 A 
ATOM     83  C   UNL A   1      45.434  29.330  35.017  1.00  0.00     0.173 A 
ATOM     84  F   UNL A   1      42.863  27.103  36.308  1.00  0.00    -0.203 F 
ATOM     85  C   UNL A   1      45.180  27.153  36.717  1.00  0.00     0.198 A 
ATOM     86  C   UNL A   1      46.558  28.794  35.638  1.00  0.00     0.198 A 
ATOM     87  F   UNL A   1      45.590  30.388  34.207  1.00  0.00    -0.203 F 
ATOM     88  F   UNL A   1      45.049  26.126  37.568  1.00  0.00    -0.200 F 
ATOM     89  C   UNL A   1      46.430  27.712  36.494  1.00  0.00     0.200 A 
ATOM     90  F   UNL A   1      47.766  29.325  35.407  1.00  0.00    -0.200 F 
ATOM     91  F   UNL A   1      47.509  27.210  37.110  1.00  0.00    -0.200 F 
ENDBRANCH  58  81
ENDBRANCH  32  33
ENDBRANCH  24  27
ENDBRANCH  22  23
ENDBRANCH  21  22
ENDBRANCH   1  21
TORSDOF 14
ENDMDL
MODEL 3
REMARK VINA RESULT:     -11.6      0.933      1.666
REMARK SMILES CC[C@](C)(NC(=O)N1CCC[C@@H]1C)C(=O)NCCCCNC(=O)c1ccc(-c2c3nc(c(-c4c(F)c(F)c(F)c(F)c4F)c4ccc([nH]4)c(-c4c(F)c(F)c(F)c(F)c4F)c4nc(c(-c5c(F)c(F)c(F)c(F)c5F)c5ccc2[nH]5)C=C4)C=C3)cc1
REMARK SMILES IDX 18 1 17 2 16 3 14 4 15 5 3 7 4 8 2 9 1 10 5 11 6 12 7 14
REMARK SMILES IDX 8 15 9 16 12 17 10 18 11 19 13 20 19 21 20 22 21 23 22 24
REMARK SMILES IDX 23 26 24 27 25 28 86 29 26 30 85 31 27 32 28 33 29 34 79 35
REMARK SMILES IDX 30 36 84 37 78 38 80 39 31 40 83 41 77 42 76 43 32 45 64 46
REMARK SMILES IDX 44 47 63 48 45 49 48 50 62 51 81 52 46 53 47 54 61 56 82 57
REMARK SMILES IDX 49 58 33 59 34 60 42 61 35 62 36 63 40 64 43 65 37 66 38 67
REMARK SMILES IDX 41 68 39 69 65 70 66 71 74 72 67 73 68 74 72 75 75 76 69 77
REMARK SMILES IDX 70 78 73 79 71 80 50 81 51 82 59 83 52 84 53 85 57 86 60 87
REMARK SMILES IDX 54 88 55 89 58 90 56 91
REMARK H PARENT 16 6 5 13 21 25 80 44 48 55
REMARK Flexibility Score: inf
ROOT
ATOM      1  C   UNL A   1      31.383  30.800  25.760  1.00  0.00     0.023 C 
ENDROOT
BRANCH   1   2
ATOM      2  C   UNL A   1      32.677  29.958  25.726  1.00  0.00     0.116 C 
BRANCH   2   3
ATOM      3  N   UNL A   1      33.287  29.502  24.473  1.00  0.00    -0.354 N 
ATOM      4  C   UNL A   1      33.570  28.278  23.906  1.00  0.00     0.245 C 
ATOM      5  O   UNL A   1      34.019  28.285  22.754  1.00  0.00    -0.272 OA
ATOM      6  H   UNL A   1      33.560  30.252  23.897  1.00  0.00     0.163 HD
BRANCH   4   7
ATOM      7  C   UNL A   1      33.188  26.965  24.602  1.00  0.00     0.117 C 
ATOM      8  C   UNL A   1      33.626  26.749  26.067  1.00  0.00     0.045 C 
BRANCH   7   9
ATOM      9  C   UNL A   1      33.903  25.850  23.750  1.00  0.00     0.035 C 
ATOM     10  C   UNL A   1      34.662  24.814  24.601  1.00  0.00     0.007 C 
ENDBRANCH   7   9
BRANCH   7  11
ATOM     11  N   UNL A   1      31.724  26.885  24.550  1.00  0.00    -0.324 N 
ATOM     12  C   UNL A   1      30.818  25.905  24.386  1.00  0.00     0.318 C 
ATOM     13  H   UNL A   1      31.300  27.767  24.664  1.00  0.00     0.166 HD
ATOM     14  O   UNL A   1      29.725  26.346  23.996  1.00  0.00    -0.249 OA
BRANCH  12  15
ATOM     15  N   UNL A   1      30.975  24.564  24.618  1.00  0.00    -0.322 N 
ATOM     16  C   UNL A   1      30.888  23.742  23.411  1.00  0.00     0.122 C 
ATOM     17  C   UNL A   1      31.343  23.661  25.757  1.00  0.00     0.083 C 
ATOM     18  C   UNL A   1      31.827  22.577  23.652  1.00  0.00     0.024 C 
ATOM     19  C   UNL A   1      31.587  22.275  25.104  1.00  0.00     0.027 C 
ATOM     20  C   UNL A   1      30.296  23.344  26.833  1.00  0.00     0.031 C 
ENDBRANCH  12  15
ENDBRANCH   7  11
ENDBRANCH   4   7
ENDBRANCH   2   3
ENDBRANCH   1   2
BRANCH   1  21
ATOM     21  C   UNL A   1      31.276  32.130  26.506  1.00  0.00     0.023 C 
BRANCH  21  22
ATOM     22  C   UNL A   1      32.526  32.628  27.213  1.00  0.00     0.116 C 
BRANCH  22  23
ATOM     23  N   UNL A   1      32.408  34.008  27.642  1.00  0.00    -0.352 N 
ATOM     24  C   UNL A   1      33.173  34.703  28.550  1.00  0.00     0.251 C 
ATOM     25  H   UNL A   1      31.678  34.519  27.225  1.00  0.00     0.163 HD
ATOM     26  O   UNL A   1      32.850  35.834  28.879  1.00  0.00    -0.269 OA
BRANCH  24  27
ATOM     27  C   UNL A   1      34.372  34.075  29.163  1.00  0.00     0.039 A 
ATOM     28  C   UNL A   1      34.176  33.099  30.145  1.00  0.00     0.014 A 
ATOM     29  C   UNL A   1      35.670  34.457  28.814  1.00  0.00     0.014 A 
ATOM     30  C   UNL A   1      35.275  32.482  30.749  1.00  0.00     0.010 A 
ATOM     31  C   UNL A   1      36.768  33.798  29.376  1.00  0.00     0.010 A 
ATOM     32  C   UNL A   1      36.583  32.810  30.355  1.00  0.00    -0.014 A 
BRANCH  32  33
ATOM     33  C   UNL A   1      37.751  32.127  30.975  1.00  0.00     0.031 A 
ATOM     34  C   UNL A   1      38.201  32.489  32.365  1.00  0.00     0.074 A 
ATOM     35  C   UNL A   1      38.421  31.186  30.282  1.00  0.00     0.049 A 
ATOM     36  N   UNL A   1      39.189  31.997  33.073  1.00  0.00    -0.248 NA
ATOM     37  C   UNL A   1      37.455  33.559  33.045  1.00  0.00     0.031 C 
ATOM     38  C   UNL A   1      38.109  30.763  28.917  1.00  0.00     0.029 A 
ATOM     39  N   UNL A   1      39.503  30.412  30.630  1.00  0.00    -0.354 N 
ATOM     40  C   UNL A   1      39.184  32.697  34.271  1.00  0.00     0.074 A 
ATOM     41  C   UNL A   1      38.132  33.685  34.177  1.00  0.00     0.031 C 
ATOM     42  C   UNL A   1      38.959  29.789  28.554  1.00  0.00     0.029 A 
ATOM     43  C   UNL A   1      39.899  29.543  29.643  1.00  0.00     0.049 A 
ATOM     44  H   UNL A   1      39.952  30.476  31.504  1.00  0.00     0.167 HD
ATOM     45  C   UNL A   1      39.971  32.519  35.361  1.00  0.00     0.037 A 
ATOM     46  C   UNL A   1      40.907  28.649  29.616  1.00  0.00     0.037 A 
ATOM     47  C   UNL A   1      41.011  31.525  35.460  1.00  0.00     0.049 A 
ATOM     48  C   UNL A   1      41.786  28.492  30.830  1.00  0.00     0.074 A 
ATOM     49  C   UNL A   1      41.822  31.231  36.543  1.00  0.00     0.029 A 
ATOM     50  N   UNL A   1      41.391  30.672  34.433  1.00  0.00    -0.354 N 
ATOM     51  N   UNL A   1      41.722  29.107  31.985  1.00  0.00    -0.248 NA
ATOM     52  C   UNL A   1      42.875  27.510  30.735  1.00  0.00     0.031 C 
ATOM     53  C   UNL A   1      42.734  30.245  36.151  1.00  0.00     0.029 A 
ATOM     54  C   UNL A   1      42.448  29.876  34.846  1.00  0.00     0.049 A 
ATOM     55  H   UNL A   1      40.972  30.638  33.543  1.00  0.00     0.167 HD
ATOM     56  C   UNL A   1      42.736  28.564  32.765  1.00  0.00     0.074 A 
ATOM     57  C   UNL A   1      43.392  27.559  31.955  1.00  0.00     0.031 C 
ATOM     58  C   UNL A   1      43.091  28.872  34.036  1.00  0.00     0.037 A 
BRANCH  45  59
ATOM     59  C   UNL A   1      39.747  33.425  36.540  1.00  0.00     0.064 A 
ATOM     60  C   UNL A   1      40.435  34.640  36.679  1.00  0.00     0.173 A 
ATOM     61  C   UNL A   1      38.800  33.093  37.522  1.00  0.00     0.173 A 
ATOM     62  F   UNL A   1      41.355  35.004  35.773  1.00  0.00    -0.203 F 
ATOM     63  C   UNL A   1      40.209  35.472  37.774  1.00  0.00     0.198 A 
ATOM     64  C   UNL A   1      38.552  33.943  38.596  1.00  0.00     0.198 A 
ATOM     65  F   UNL A   1      38.107  31.948  37.433  1.00  0.00    -0.203 F 
ATOM     66  F   UNL A   1      40.917  36.601  37.913  1.00  0.00    -0.200 F 
ATOM     67  C   UNL A   1      39.263  35.126  38.727  1.00  0.00     0.200 A 
ATOM     68  F   UNL A   1      37.625  33.616  39.508  1.00  0.00    -0.200 F 
ATOM     69  F   UNL A   1      39.040  35.931  39.776  1.00  0.00    -0.200 F 
ENDBRANCH  45  59
BRANCH  46  70
ATOM     70  C   UNL A   1      41.132  27.814  28.405  1.00  0.00     0.064 A 
ATOM     71  C   UNL A   1      41.978  28.249  27.375  1.00  0.00     0.173 A 
ATOM     72  C   UNL A   1      40.495  26.575  28.246  1.00  0.00     0.173 A 
ATOM     73  F   UNL A   1      42.592  29.438  27.470  1.00  0.00    -0.203 F 
ATOM     74  C   UNL A   1      42.160  27.488  26.222  1.00  0.00     0.198 A 
ATOM     75  C   UNL A   1      40.703  25.799  27.107  1.00  0.00     0.198 A 
ATOM     76  F   UNL A   1      39.677  26.111  29.201  1.00  0.00    -0.203 F 
ATOM     77  F   UNL A   1      42.932  27.953  25.230  1.00  0.00    -0.200 F 
ATOM     78  C   UNL A   1      41.527  26.261  26.092  1.00  0.00     0.200 A 
ATOM     79  F   UNL A   1      40.101  24.608  26.992  1.00  0.00    -0.200 F 
ATOM     80  F   UNL A   1      41.704  25.527  24.984  1.00  0.00    -0.200 F 
ENDBRANCH  46  70
BRANCH  58  81
ATOM     81  C   UNL A   1      44.215  28.087  34.651  1.00  0.00     0.064 A 
ATOM     82  C   UNL A   1      45.542  28.542  34.619  1.00  0.00     0.173 A 
ATOM     83  C   UNL A   1      43.955  26.879  35.318  1.00  0.00     0.173 A 
ATOM     84  F   UNL A   1      45.850  29.683  33.984  1.00  0.00    -0.203 F 
ATOM     85  C   UNL A   1      46.568  27.804  35.205  1.00  0.00     0.198 A 
ATOM     86  C   UNL A   1      44.978  26.161  35.932  1.00  0.00     0.198 A 
ATOM     87  F   UNL A   1      42.703  26.400  35.385  1.00  0.00    -0.203 F 
ATOM     88  F   UNL A   1      47.834  28.233  35.114  1.00  0.00    -0.200 F 
ATOM     89  C   UNL A   1      46.283  26.619  35.867  1.00  0.00     0.200 A 
ATOM     90  F   UNL A   1      44.697  25.026  36.587  1.00  0.00    -0.200 F 
ATOM     91  F   UNL A   1      47.271  25.916  36.438  1.00  0.00    -0.200 F 
ENDBRANCH  58  81
ENDBRANCH  32  33
ENDBRANCH  24  27
ENDBRANCH  22  23
ENDBRANCH  21  22
ENDBRANCH   1  21
TORSDOF 14
ENDMDL
