MODEL 1
REMARK VINA RESULT:     -11.5      0.000      0.000
REMARK SMILES CCCC[C@H](C(=O)NCCCCNC(=O)c1ccc(-c2c3nc(c(-c4c(F)c(F)c(F)c(F)c4F)c4ccc([nH]4)c(-c4c(F)c(F)c(F)c(F)c4F)c4nc(c(-c5c(F)c(F)c(F)c(F)c5F)c5ccc2[nH]5)C=C4)C=C3)cc1)[C@](C)(O)c1ccc(Cl)c(Cl)c1
REMARK SMILES IDX 10 1 9 2 8 3 6 4 7 5 5 7 4 8 3 9 2 10 1 11 79 12 80 13 81 14
REMARK SMILES IDX 82 16 83 17 89 18 84 19 87 20 85 21 88 22 86 23 11 24 12 25
REMARK SMILES IDX 13 26 14 27 15 29 16 30 17 31 78 32 18 33 77 34 19 35 20 36
REMARK SMILES IDX 21 37 71 38 22 39 76 40 70 41 72 42 23 43 75 44 69 45 68 46
REMARK SMILES IDX 24 48 56 49 36 50 55 51 37 52 40 53 54 54 73 55 38 56 39 57
REMARK SMILES IDX 53 59 74 60 41 61 25 62 26 63 34 64 27 65 28 66 32 67 35 68
REMARK SMILES IDX 29 69 30 70 33 71 31 72 57 73 58 74 66 75 59 76 60 77 64 78
REMARK SMILES IDX 67 79 61 80 62 81 65 82 63 83 42 84 43 85 51 86 44 87 45 88
REMARK SMILES IDX 49 89 52 90 46 91 47 92 50 93 48 94
REMARK H PARENT 8 6 81 15 13 28 72 47 40 58
REMARK Flexibility Score: inf
ROOT
ATOM      1  C   UNL A   1      31.270  30.873  26.613  1.00  0.00     0.023 C 
ENDROOT
BRANCH   1   2
ATOM      2  C   UNL A   1      32.056  30.077  25.574  1.00  0.00     0.116 C 
BRANCH   2   3
ATOM      3  N   UNL A   1      31.354  29.974  24.305  1.00  0.00    -0.356 N 
ATOM      4  C   UNL A   1      30.963  28.876  23.587  1.00  0.00     0.226 C 
ATOM      5  O   UNL A   1      30.222  29.057  22.622  1.00  0.00    -0.275 OA
ATOM      6  H   UNL A   1      31.121  30.838  23.893  1.00  0.00     0.163 HD
BRANCH   4   7
ATOM      7  C   UNL A   1      31.473  27.491  23.982  1.00  0.00     0.114 C 
BRANCH   7   8
ATOM      8  C   UNL A   1      30.271  26.645  24.482  1.00  0.00     0.017 C 
BRANCH   8   9
ATOM      9  C   UNL A   1      30.410  25.980  25.854  1.00  0.00     0.001 C 
BRANCH   9  10
ATOM     10  C   UNL A   1      30.653  24.473  25.831  1.00  0.00    -0.003 C 
ATOM     11  C   UNL A   1      31.797  24.043  26.735  1.00  0.00     0.004 C 
ENDBRANCH   9  10
ENDBRANCH   8   9
ENDBRANCH   7   8
BRANCH   7  12
ATOM     12  C   UNL A   1      32.442  26.897  22.876  1.00  0.00     0.098 C 
ATOM     13  C   UNL A   1      33.495  27.984  22.545  1.00  0.00     0.048 C 
BRANCH  12  14
ATOM     14  O   UNL A   1      31.763  26.666  21.631  1.00  0.00    -0.385 OA
ATOM     15  H   UNL A   1      31.741  25.713  21.448  1.00  0.00     0.211 HD
ENDBRANCH  12  14
BRANCH  12  16
ATOM     16  C   UNL A   1      33.069  25.536  23.181  1.00  0.00    -0.014 A 
ATOM     17  C   UNL A   1      34.167  25.391  24.049  1.00  0.00     0.008 A 
ATOM     18  C   UNL A   1      32.549  24.362  22.604  1.00  0.00     0.028 A 
ATOM     19  C   UNL A   1      34.631  24.130  24.430  1.00  0.00     0.022 A 
ATOM     20  C   UNL A   1      32.980  23.095  23.014  1.00  0.00     0.060 A 
ATOM     21  C   UNL A   1      34.014  22.979  23.945  1.00  0.00     0.059 A 
ATOM     22  Cl  UNL A   1      32.154  21.718  22.376  1.00  0.00    -0.083 Cl
ATOM     23  Cl  UNL A   1      34.563  21.457  24.549  1.00  0.00    -0.083 Cl
ENDBRANCH  12  16
ENDBRANCH   7  12
ENDBRANCH   4   7
ENDBRANCH   2   3
ENDBRANCH   1   2
BRANCH   1  24
ATOM     24  C   UNL A   1      31.417  32.390  26.501  1.00  0.00     0.023 C 
BRANCH  24  25
ATOM     25  C   UNL A   1      32.608  32.972  27.249  1.00  0.00     0.116 C 
BRANCH  25  26
ATOM     26  N   UNL A   1      32.377  34.336  27.699  1.00  0.00    -0.352 N 
ATOM     27  C   UNL A   1      32.965  35.023  28.733  1.00  0.00     0.251 C 
ATOM     28  H   UNL A   1      31.702  34.838  27.189  1.00  0.00     0.163 HD
ATOM     29  O   UNL A   1      32.528  36.116  29.070  1.00  0.00    -0.269 OA
BRANCH  27  30
ATOM     30  C   UNL A   1      34.115  34.431  29.451  1.00  0.00     0.039 A 
ATOM     31  C   UNL A   1      33.883  33.751  30.650  1.00  0.00     0.014 A 
ATOM     32  C   UNL A   1      35.414  34.552  28.953  1.00  0.00     0.014 A 
ATOM     33  C   UNL A   1      34.951  33.154  31.323  1.00  0.00     0.010 A 
ATOM     34  C   UNL A   1      36.460  33.878  29.574  1.00  0.00     0.010 A 
ATOM     35  C   UNL A   1      36.244  33.190  30.777  1.00  0.00    -0.014 A 
BRANCH  35  36
ATOM     36  C   UNL A   1      37.394  32.555  31.471  1.00  0.00     0.031 A 
ATOM     37  C   UNL A   1      38.118  31.407  30.820  1.00  0.00     0.074 A 
ATOM     38  C   UNL A   1      37.755  32.973  32.698  1.00  0.00     0.049 A 
ATOM     39  N   UNL A   1      39.100  30.675  31.284  1.00  0.00    -0.248 NA
ATOM     40  C   UNL A   1      37.655  31.006  29.481  1.00  0.00     0.031 C 
ATOM     41  C   UNL A   1      37.106  34.047  33.452  1.00  0.00     0.029 A 
ATOM     42  N   UNL A   1      38.752  32.537  33.535  1.00  0.00    -0.354 N 
ATOM     43  C   UNL A   1      39.357  29.725  30.303  1.00  0.00     0.074 A 
ATOM     44  C   UNL A   1      38.388  29.929  29.250  1.00  0.00     0.031 C 
ATOM     45  C   UNL A   1      37.737  34.203  34.627  1.00  0.00     0.029 A 
ATOM     46  C   UNL A   1      38.807  33.215  34.728  1.00  0.00     0.049 A 
ATOM     47  H   UNL A   1      39.370  31.807  33.301  1.00  0.00     0.167 HD
ATOM     48  C   UNL A   1      40.332  28.786  30.270  1.00  0.00     0.037 A 
ATOM     49  C   UNL A   1      39.625  33.051  35.786  1.00  0.00     0.037 A 
ATOM     50  C   UNL A   1      41.310  28.603  31.309  1.00  0.00     0.049 A 
ATOM     51  C   UNL A   1      40.692  31.990  35.730  1.00  0.00     0.074 A 
ATOM     52  C   UNL A   1      42.372  27.717  31.349  1.00  0.00     0.029 A 
ATOM     53  N   UNL A   1      41.344  29.321  32.497  1.00  0.00    -0.354 N 
ATOM     54  N   UNL A   1      40.970  31.143  34.768  1.00  0.00    -0.248 NA
ATOM     55  C   UNL A   1      41.567  31.870  36.904  1.00  0.00     0.031 C 
ATOM     56  C   UNL A   1      43.013  27.858  32.583  1.00  0.00     0.029 A 
ATOM     57  C   UNL A   1      42.395  28.880  33.285  1.00  0.00     0.049 A 
ATOM     58  H   UNL A   1      40.715  30.038  32.742  1.00  0.00     0.167 HD
ATOM     59  C   UNL A   1      42.072  30.418  35.205  1.00  0.00     0.074 A 
ATOM     60  C   UNL A   1      42.419  30.934  36.512  1.00  0.00     0.031 C 
ATOM     61  C   UNL A   1      42.738  29.416  34.578  1.00  0.00     0.037 A 
BRANCH  48  62
ATOM     62  C   UNL A   1      40.390  27.885  29.069  1.00  0.00     0.064 A 
ATOM     63  C   UNL A   1      41.180  28.194  27.951  1.00  0.00     0.173 A 
ATOM     64  C   UNL A   1      39.670  26.680  29.047  1.00  0.00     0.173 A 
ATOM     65  F   UNL A   1      41.879  29.339  27.912  1.00  0.00    -0.203 F 
ATOM     66  C   UNL A   1      41.220  27.350  26.844  1.00  0.00     0.198 A 
ATOM     67  C   UNL A   1      39.741  25.821  27.954  1.00  0.00     0.198 A 
ATOM     68  F   UNL A   1      38.903  26.331  30.092  1.00  0.00    -0.203 F 
ATOM     69  F   UNL A   1      41.935  27.696  25.765  1.00  0.00    -0.200 F 
ATOM     70  C   UNL A   1      40.507  26.160  26.850  1.00  0.00     0.200 A 
ATOM     71  F   UNL A   1      39.065  24.665  27.968  1.00  0.00    -0.200 F 
ATOM     72  F   UNL A   1      40.553  25.345  25.787  1.00  0.00    -0.200 F 
ENDBRANCH  48  62
BRANCH  49  73
ATOM     73  C   UNL A   1      39.485  33.928  36.979  1.00  0.00     0.064 A 
ATOM     74  C   UNL A   1      40.094  35.191  37.022  1.00  0.00     0.173 A 
ATOM     75  C   UNL A   1      38.760  33.517  38.107  1.00  0.00     0.173 A 
ATOM     76  F   UNL A   1      40.815  35.622  35.976  1.00  0.00    -0.203 F 
ATOM     77  C   UNL A   1      40.007  35.995  38.156  1.00  0.00     0.198 A 
ATOM     78  C   UNL A   1      38.645  34.337  39.228  1.00  0.00     0.198 A 
ATOM     79  F   UNL A   1      38.153  32.321  38.117  1.00  0.00    -0.203 F 
ATOM     80  F   UNL A   1      40.645  37.174  38.190  1.00  0.00    -0.200 F 
ATOM     81  C   UNL A   1      39.279  35.570  39.256  1.00  0.00     0.200 A 
ATOM     82  F   UNL A   1      37.926  33.929  40.283  1.00  0.00    -0.200 F 
ATOM     83  F   UNL A   1      39.194  36.345  40.346  1.00  0.00    -0.200 F 
ENDBRANCH  49  73
BRANCH  61  84
ATOM     84  C   UNL A   1      43.944  28.848  35.270  1.00  0.00     0.064 A 
ATOM     85  C   UNL A   1      43.854  27.758  36.148  1.00  0.00     0.173 A 
ATOM     86  C   UNL A   1      45.219  29.381  35.017  1.00  0.00     0.173 A 
ATOM     87  F   UNL A   1      42.658  27.220  36.435  1.00  0.00    -0.203 F 
ATOM     88  C   UNL A   1      44.988  27.244  36.770  1.00  0.00     0.198 A 
ATOM     89  C   UNL A   1      46.354  28.841  35.612  1.00  0.00     0.198 A 
ATOM     90  F   UNL A   1      45.363  30.418  34.178  1.00  0.00    -0.203 F 
ATOM     91  F   UNL A   1      44.869  26.237  37.648  1.00  0.00    -0.200 F 
ATOM     92  C   UNL A   1      46.238  27.779  36.496  1.00  0.00     0.200 A 
ATOM     93  F   UNL A   1      47.562  29.347  35.330  1.00  0.00    -0.200 F 
ATOM     94  F   UNL A   1      47.329  27.275  37.088  1.00  0.00    -0.200 F 
ENDBRANCH  61  84
ENDBRANCH  35  36
ENDBRANCH  27  30
ENDBRANCH  25  26
ENDBRANCH  24  25
ENDBRANCH   1  24
TORSDOF 17
ENDMDL
MODEL 2
REMARK VINA RESULT:     -11.5      3.650      8.631
REMARK SMILES CCCC[C@H](C(=O)NCCCCNC(=O)c1ccc(-c2c3nc(c(-c4c(F)c(F)c(F)c(F)c4F)c4ccc([nH]4)c(-c4c(F)c(F)c(F)c(F)c4F)c4nc(c(-c5c(F)c(F)c(F)c(F)c5F)c5ccc2[nH]5)C=C4)C=C3)cc1)[C@](C)(O)c1ccc(Cl)c(Cl)c1
REMARK SMILES IDX 10 1 9 2 8 3 6 4 7 5 5 7 4 8 3 9 2 10 1 11 79 12 80 13 81 14
REMARK SMILES IDX 82 16 83 17 89 18 84 19 87 20 85 21 88 22 86 23 11 24 12 25
REMARK SMILES IDX 13 26 14 27 15 29 16 30 17 31 78 32 18 33 77 34 19 35 20 36
REMARK SMILES IDX 21 37 71 38 22 39 76 40 70 41 72 42 23 43 75 44 69 45 68 46
REMARK SMILES IDX 24 48 56 49 36 50 55 51 37 52 40 53 54 54 73 55 38 56 39 57
REMARK SMILES IDX 53 59 74 60 41 61 25 62 26 63 34 64 27 65 28 66 32 67 35 68
REMARK SMILES IDX 29 69 30 70 33 71 31 72 57 73 58 74 66 75 59 76 60 77 64 78
REMARK SMILES IDX 67 79 61 80 62 81 65 82 63 83 42 84 43 85 51 86 44 87 45 88
REMARK SMILES IDX 49 89 52 90 46 91 47 92 50 93 48 94
REMARK H PARENT 8 6 81 15 13 28 72 47 40 58
REMARK Flexibility Score: inf
ROOT
ATOM      1  C   UNL A   1      33.005  29.688  25.157  1.00  0.00     0.023 C 
ENDROOT
BRANCH   1   2
ATOM      2  C   UNL A   1      31.479  29.655  25.095  1.00  0.00     0.116 C 
BRANCH   2   3
ATOM      3  N   UNL A   1      30.981  29.511  23.737  1.00  0.00    -0.356 N 
ATOM      4  C   UNL A   1      30.751  28.390  22.985  1.00  0.00     0.226 C 
ATOM      5  O   UNL A   1      30.156  28.529  21.917  1.00  0.00    -0.275 OA
ATOM      6  H   UNL A   1      30.774  30.360  23.282  1.00  0.00     0.163 HD
BRANCH   4   7
ATOM      7  C   UNL A   1      31.258  27.033  23.472  1.00  0.00     0.114 C 
BRANCH   7   8
ATOM      8  C   UNL A   1      30.038  26.171  23.893  1.00  0.00     0.017 C 
BRANCH   8   9
ATOM      9  C   UNL A   1      29.907  25.828  25.379  1.00  0.00     0.001 C 
BRANCH   9  10
ATOM     10  C   UNL A   1      31.225  25.701  26.141  1.00  0.00    -0.003 C 
ATOM     11  C   UNL A   1      31.551  24.267  26.525  1.00  0.00     0.004 C 
ENDBRANCH   9  10
ENDBRANCH   8   9
ENDBRANCH   7   8
BRANCH   7  12
ATOM     12  C   UNL A   1      32.336  26.431  22.476  1.00  0.00     0.098 C 
ATOM     13  C   UNL A   1      33.396  27.530  22.215  1.00  0.00     0.048 C 
BRANCH  12  14
ATOM     14  O   UNL A   1      31.780  26.154  21.181  1.00  0.00    -0.385 OA
ATOM     15  H   UNL A   1      31.676  26.985  20.690  1.00  0.00     0.211 HD
ENDBRANCH  12  14
BRANCH  12  16
ATOM     16  C   UNL A   1      32.956  25.090  22.876  1.00  0.00    -0.014 A 
ATOM     17  C   UNL A   1      34.043  24.998  23.764  1.00  0.00     0.008 A 
ATOM     18  C   UNL A   1      32.439  23.883  22.368  1.00  0.00     0.028 A 
ATOM     19  C   UNL A   1      34.498  23.763  24.230  1.00  0.00     0.022 A 
ATOM     20  C   UNL A   1      32.861  22.644  22.863  1.00  0.00     0.060 A 
ATOM     21  C   UNL A   1      33.883  22.586  23.812  1.00  0.00     0.059 A 
ATOM     22  Cl  UNL A   1      32.039  21.231  22.304  1.00  0.00    -0.083 Cl
ATOM     23  Cl  UNL A   1      34.421  21.104  24.518  1.00  0.00    -0.083 Cl
ENDBRANCH  12  16
ENDBRANCH   7  12
ENDBRANCH   4   7
ENDBRANCH   2   3
ENDBRANCH   1   2
BRANCH   1  24
ATOM     24  C   UNL A   1      33.646  28.447  25.778  1.00  0.00     0.023 C 
BRANCH  24  25
ATOM     25  C   UNL A   1      34.065  28.607  27.232  1.00  0.00     0.116 C 
BRANCH  25  26
ATOM     26  N   UNL A   1      33.904  29.969  27.717  1.00  0.00    -0.352 N 
ATOM     27  C   UNL A   1      34.773  30.741  28.450  1.00  0.00     0.251 C 
ATOM     28  H   UNL A   1      33.050  30.399  27.486  1.00  0.00     0.163 HD
ATOM     29  O   UNL A   1      34.402  31.813  28.910  1.00  0.00    -0.269 OA
BRANCH  27  30
ATOM     30  C   UNL A   1      36.151  30.264  28.699  1.00  0.00     0.039 A 
ATOM     31  C   UNL A   1      37.116  30.444  27.705  1.00  0.00     0.014 A 
ATOM     32  C   UNL A   1      36.488  29.634  29.899  1.00  0.00     0.014 A 
ATOM     33  C   UNL A   1      38.431  30.034  27.937  1.00  0.00     0.010 A 
ATOM     34  C   UNL A   1      37.815  29.312  30.164  1.00  0.00     0.010 A 
ATOM     35  C   UNL A   1      38.797  29.488  29.177  1.00  0.00    -0.014 A 
BRANCH  35  36
ATOM     36  C   UNL A   1      40.190  29.052  29.450  1.00  0.00     0.031 A 
ATOM     37  C   UNL A   1      41.117  29.949  30.224  1.00  0.00     0.074 A 
ATOM     38  C   UNL A   1      40.637  27.879  28.961  1.00  0.00     0.049 A 
ATOM     39  N   UNL A   1      42.384  29.786  30.511  1.00  0.00    -0.248 NA
ATOM     40  C   UNL A   1      40.553  31.218  30.714  1.00  0.00     0.031 C 
ATOM     41  C   UNL A   1      39.849  26.941  28.160  1.00  0.00     0.029 A 
ATOM     42  N   UNL A   1      41.868  27.280  29.059  1.00  0.00    -0.354 N 
ATOM     43  C   UNL A   1      42.766  30.932  31.198  1.00  0.00     0.074 A 
ATOM     44  C   UNL A   1      41.619  31.811  31.228  1.00  0.00     0.031 C 
ATOM     45  C   UNL A   1      40.608  25.873  27.863  1.00  0.00     0.029 A 
ATOM     46  C   UNL A   1      41.945  26.070  28.414  1.00  0.00     0.049 A 
ATOM     47  H   UNL A   1      42.624  27.680  29.547  1.00  0.00     0.167 HD
ATOM     48  C   UNL A   1      43.957  31.213  31.778  1.00  0.00     0.037 A 
ATOM     49  C   UNL A   1      42.981  25.220  28.277  1.00  0.00     0.037 A 
ATOM     50  C   UNL A   1      45.088  30.323  31.768  1.00  0.00     0.049 A 
ATOM     51  C   UNL A   1      44.300  25.563  28.920  1.00  0.00     0.074 A 
ATOM     52  C   UNL A   1      46.322  30.490  32.370  1.00  0.00     0.029 A 
ATOM     53  N   UNL A   1      45.123  29.098  31.117  1.00  0.00    -0.354 N 
ATOM     54  N   UNL A   1      44.629  26.618  29.626  1.00  0.00    -0.248 NA
ATOM     55  C   UNL A   1      45.388  24.590  28.754  1.00  0.00     0.031 C 
ATOM     56  C   UNL A   1      47.123  29.393  32.037  1.00  0.00     0.029 A 
ATOM     57  C   UNL A   1      46.367  28.510  31.284  1.00  0.00     0.049 A 
ATOM     58  H   UNL A   1      44.375  28.705  30.611  1.00  0.00     0.167 HD
ATOM     59  C   UNL A   1      45.947  26.418  30.019  1.00  0.00     0.074 A 
ATOM     60  C   UNL A   1      46.351  25.135  29.484  1.00  0.00     0.031 C 
ATOM     61  C   UNL A   1      46.749  27.223  30.759  1.00  0.00     0.037 A 
BRANCH  48  62
ATOM     62  C   UNL A   1      44.097  32.537  32.475  1.00  0.00     0.064 A 
ATOM     63  C   UNL A   1      43.779  32.694  33.832  1.00  0.00     0.173 A 
ATOM     64  C   UNL A   1      44.583  33.658  31.783  1.00  0.00     0.173 A 
ATOM     65  F   UNL A   1      43.297  31.659  34.539  1.00  0.00    -0.203 F 
ATOM     66  C   UNL A   1      43.911  33.929  34.463  1.00  0.00     0.198 A 
ATOM     67  C   UNL A   1      44.747  34.881  32.426  1.00  0.00     0.198 A 
ATOM     68  F   UNL A   1      44.907  33.564  30.485  1.00  0.00    -0.203 F 
ATOM     69  F   UNL A   1      43.545  34.067  35.745  1.00  0.00    -0.200 F 
ATOM     70  C   UNL A   1      44.402  35.020  33.761  1.00  0.00     0.200 A 
ATOM     71  F   UNL A   1      45.238  35.930  31.751  1.00  0.00    -0.200 F 
ATOM     72  F   UNL A   1      44.536  36.205  34.371  1.00  0.00    -0.200 F 
ENDBRANCH  48  62
BRANCH  49  73
ATOM     73  C   UNL A   1      42.810  23.950  27.523  1.00  0.00     0.064 A 
ATOM     74  C   UNL A   1      43.115  23.876  26.156  1.00  0.00     0.173 A 
ATOM     75  C   UNL A   1      42.323  22.791  28.144  1.00  0.00     0.173 A 
ATOM     76  F   UNL A   1      43.567  24.962  25.511  1.00  0.00    -0.203 F 
ATOM     77  C   UNL A   1      42.911  22.702  25.434  1.00  0.00     0.198 A 
ATOM     78  C   UNL A   1      42.150  21.608  27.429  1.00  0.00     0.198 A 
ATOM     79  F   UNL A   1      42.021  22.805  29.451  1.00  0.00    -0.203 F 
ATOM     80  F   UNL A   1      43.158  22.676  24.117  1.00  0.00    -0.200 F 
ATOM     81  C   UNL A   1      42.434  21.568  26.072  1.00  0.00     0.200 A 
ATOM     82  F   UNL A   1      41.704  20.509  28.053  1.00  0.00    -0.200 F 
ATOM     83  F   UNL A   1      42.239  20.438  25.378  1.00  0.00    -0.200 F 
ENDBRANCH  49  73
BRANCH  61  84
ATOM     84  C   UNL A   1      48.126  26.719  31.084  1.00  0.00     0.064 A 
ATOM     85  C   UNL A   1      48.374  25.896  32.193  1.00  0.00     0.173 A 
ATOM     86  C   UNL A   1      49.208  27.033  30.246  1.00  0.00     0.173 A 
ATOM     87  F   UNL A   1      47.378  25.577  33.033  1.00  0.00    -0.203 F 
ATOM     88  C   UNL A   1      49.658  25.434  32.468  1.00  0.00     0.198 A 
ATOM     89  C   UNL A   1      50.483  26.539  30.504  1.00  0.00     0.198 A 
ATOM     90  F   UNL A   1      49.024  27.808  29.167  1.00  0.00    -0.203 F 
ATOM     91  F   UNL A   1      49.881  24.695  33.564  1.00  0.00    -0.200 F 
ATOM     92  C   UNL A   1      50.710  25.748  31.619  1.00  0.00     0.200 A 
ATOM     93  F   UNL A   1      51.492  26.827  29.671  1.00  0.00    -0.200 F 
ATOM     94  F   UNL A   1      51.942  25.293  31.880  1.00  0.00    -0.200 F 
ENDBRANCH  61  84
ENDBRANCH  35  36
ENDBRANCH  27  30
ENDBRANCH  25  26
ENDBRANCH  24  25
ENDBRANCH   1  24
TORSDOF 17
ENDMDL
MODEL 3
REMARK VINA RESULT:     -11.4      5.962     11.157
REMARK SMILES CCCC[C@H](C(=O)NCCCCNC(=O)c1ccc(-c2c3nc(c(-c4c(F)c(F)c(F)c(F)c4F)c4ccc([nH]4)c(-c4c(F)c(F)c(F)c(F)c4F)c4nc(c(-c5c(F)c(F)c(F)c(F)c5F)c5ccc2[nH]5)C=C4)C=C3)cc1)[C@](C)(O)c1ccc(Cl)c(Cl)c1
REMARK SMILES IDX 10 1 9 2 8 3 6 4 7 5 5 7 4 8 3 9 2 10 1 11 79 12 80 13 81 14
REMARK SMILES IDX 82 16 83 17 89 18 84 19 87 20 85 21 88 22 86 23 11 24 12 25
REMARK SMILES IDX 13 26 14 27 15 29 16 30 17 31 78 32 18 33 77 34 19 35 20 36
REMARK SMILES IDX 21 37 71 38 22 39 76 40 70 41 72 42 23 43 75 44 69 45 68 46
REMARK SMILES IDX 24 48 56 49 36 50 55 51 37 52 40 53 54 54 73 55 38 56 39 57
REMARK SMILES IDX 53 59 74 60 41 61 25 62 26 63 34 64 27 65 28 66 32 67 35 68
REMARK SMILES IDX 29 69 30 70 33 71 31 72 57 73 58 74 66 75 59 76 60 77 64 78
REMARK SMILES IDX 67 79 61 80 62 81 65 82 63 83 42 84 43 85 51 86 44 87 45 88
REMARK SMILES IDX 49 89 52 90 46 91 47 92 50 93 48 94
REMARK H PARENT 8 6 81 15 13 28 72 47 40 58
REMARK Flexibility Score: inf
ROOT
ATOM      1  C   UNL A   1      37.329  20.960  24.863  1.00  0.00     0.023 C 
ENDROOT
BRANCH   1   2
ATOM      2  C   UNL A   1      35.929  20.622  25.370  1.00  0.00     0.116 C 
BRANCH   2   3
ATOM      3  N   UNL A   1      35.529  21.453  26.494  1.00  0.00    -0.356 N 
ATOM      4  C   UNL A   1      34.562  22.416  26.592  1.00  0.00     0.226 C 
ATOM      5  O   UNL A   1      34.302  22.855  27.712  1.00  0.00    -0.275 OA
ATOM      6  H   UNL A   1      36.040  21.298  27.322  1.00  0.00     0.163 HD
BRANCH   4   7
ATOM      7  C   UNL A   1      33.870  22.929  25.329  1.00  0.00     0.114 C 
BRANCH   7   8
ATOM      8  C   UNL A   1      32.376  23.190  25.655  1.00  0.00     0.017 C 
BRANCH   8   9
ATOM      9  C   UNL A   1      31.400  23.215  24.476  1.00  0.00     0.001 C 
BRANCH   9  10
ATOM     10  C   UNL A   1      30.457  24.416  24.430  1.00  0.00    -0.003 C 
ATOM     11  C   UNL A   1      30.410  25.182  25.741  1.00  0.00     0.004 C 
ENDBRANCH   9  10
ENDBRANCH   8   9
ENDBRANCH   7   8
BRANCH   7  12
ATOM     12  C   UNL A   1      34.728  24.061  24.623  1.00  0.00     0.098 C 
ATOM     13  C   UNL A   1      35.143  23.531  23.228  1.00  0.00     0.048 C 
BRANCH  12  14
ATOM     14  O   UNL A   1      35.972  24.299  25.302  1.00  0.00    -0.385 OA
ATOM     15  H   UNL A   1      36.677  24.427  24.648  1.00  0.00     0.211 HD
ENDBRANCH  12  14
BRANCH  12  16
ATOM     16  C   UNL A   1      34.097  25.454  24.566  1.00  0.00    -0.014 A 
ATOM     17  C   UNL A   1      33.554  25.986  23.383  1.00  0.00     0.008 A 
ATOM     18  C   UNL A   1      34.028  26.256  25.721  1.00  0.00     0.028 A 
ATOM     19  C   UNL A   1      32.853  27.194  23.384  1.00  0.00     0.022 A 
ATOM     20  C   UNL A   1      33.291  27.446  25.739  1.00  0.00     0.060 A 
ATOM     21  C   UNL A   1      32.685  27.907  24.569  1.00  0.00     0.059 A 
ATOM     22  Cl  UNL A   1      33.119  28.264  27.252  1.00  0.00    -0.083 Cl
ATOM     23  Cl  UNL A   1      31.710  29.331  24.519  1.00  0.00    -0.083 Cl
ENDBRANCH  12  16
ENDBRANCH   7  12
ENDBRANCH   4   7
ENDBRANCH   2   3
ENDBRANCH   1   2
BRANCH   1  24
ATOM     24  C   UNL A   1      38.339  19.817  24.965  1.00  0.00     0.023 C 
BRANCH  24  25
ATOM     25  C   UNL A   1      39.316  19.932  26.127  1.00  0.00     0.116 C 
BRANCH  25  26
ATOM     26  N   UNL A   1      40.414  18.983  26.032  1.00  0.00    -0.352 N 
ATOM     27  C   UNL A   1      41.769  19.216  26.030  1.00  0.00     0.251 C 
ATOM     28  H   UNL A   1      40.150  18.038  25.958  1.00  0.00     0.163 HD
ATOM     29  O   UNL A   1      42.547  18.306  25.777  1.00  0.00    -0.269 OA
BRANCH  27  30
ATOM     30  C   UNL A   1      42.282  20.574  26.314  1.00  0.00     0.039 A 
ATOM     31  C   UNL A   1      42.591  21.415  25.242  1.00  0.00     0.014 A 
ATOM     32  C   UNL A   1      42.468  21.013  27.626  1.00  0.00     0.014 A 
ATOM     33  C   UNL A   1      43.042  22.714  25.491  1.00  0.00     0.010 A 
ATOM     34  C   UNL A   1      42.827  22.334  27.872  1.00  0.00     0.010 A 
ATOM     35  C   UNL A   1      43.138  23.192  26.807  1.00  0.00    -0.014 A 
BRANCH  35  36
ATOM     36  C   UNL A   1      43.608  24.572  27.096  1.00  0.00     0.031 A 
ATOM     37  C   UNL A   1      42.636  25.600  27.606  1.00  0.00     0.074 A 
ATOM     38  C   UNL A   1      44.888  24.912  26.855  1.00  0.00     0.049 A 
ATOM     39  N   UNL A   1      42.827  26.871  27.857  1.00  0.00    -0.248 NA
ATOM     40  C   UNL A   1      41.253  25.149  27.835  1.00  0.00     0.031 C 
ATOM     41  C   UNL A   1      45.916  24.018  26.320  1.00  0.00     0.029 A 
ATOM     42  N   UNL A   1      45.542  26.108  27.018  1.00  0.00    -0.354 N 
ATOM     43  C   UNL A   1      41.592  27.368  28.255  1.00  0.00     0.074 A 
ATOM     44  C   UNL A   1      40.645  26.280  28.151  1.00  0.00     0.031 C 
ATOM     45  C   UNL A   1      47.076  24.688  26.225  1.00  0.00     0.029 A 
ATOM     46  C   UNL A   1      46.864  26.069  26.650  1.00  0.00     0.049 A 
ATOM     47  H   UNL A   1      45.103  26.917  27.366  1.00  0.00     0.167 HD
ATOM     48  C   UNL A   1      41.282  28.610  28.697  1.00  0.00     0.037 A 
ATOM     49  C   UNL A   1      47.798  27.039  26.650  1.00  0.00     0.037 A 
ATOM     50  C   UNL A   1      42.234  29.681  28.824  1.00  0.00     0.049 A 
ATOM     51  C   UNL A   1      47.423  28.416  27.133  1.00  0.00     0.074 A 
ATOM     52  C   UNL A   1      42.033  30.960  29.311  1.00  0.00     0.029 A 
ATOM     53  N   UNL A   1      43.570  29.597  28.457  1.00  0.00    -0.354 N 
ATOM     54  N   UNL A   1      46.269  28.855  27.573  1.00  0.00    -0.248 NA
ATOM     55  C   UNL A   1      48.487  29.430  27.129  1.00  0.00     0.031 C 
ATOM     56  C   UNL A   1      43.232  31.668  29.185  1.00  0.00     0.029 A 
ATOM     57  C   UNL A   1      44.198  30.811  28.685  1.00  0.00     0.049 A 
ATOM     58  H   UNL A   1      44.006  28.795  28.089  1.00  0.00     0.167 HD
ATOM     59  C   UNL A   1      46.477  30.181  27.932  1.00  0.00     0.074 A 
ATOM     60  C   UNL A   1      47.871  30.470  27.671  1.00  0.00     0.031 C 
ATOM     61  C   UNL A   1      45.592  31.078  28.435  1.00  0.00     0.037 A 
BRANCH  48  62
ATOM     62  C   UNL A   1      39.853  28.875  29.079  1.00  0.00     0.064 A 
ATOM     63  C   UNL A   1      38.910  29.325  28.142  1.00  0.00     0.173 A 
ATOM     64  C   UNL A   1      39.412  28.648  30.392  1.00  0.00     0.173 A 
ATOM     65  F   UNL A   1      39.279  29.572  26.875  1.00  0.00    -0.203 F 
ATOM     66  C   UNL A   1      37.589  29.570  28.513  1.00  0.00     0.198 A 
ATOM     67  C   UNL A   1      38.084  28.858  30.750  1.00  0.00     0.198 A 
ATOM     68  F   UNL A   1      40.270  28.212  31.328  1.00  0.00    -0.203 F 
ATOM     69  F   UNL A   1      36.722  30.056  27.614  1.00  0.00    -0.200 F 
ATOM     70  C   UNL A   1      37.176  29.329  29.814  1.00  0.00     0.200 A 
ATOM     71  F   UNL A   1      37.683  28.610  32.004  1.00  0.00    -0.200 F 
ATOM     72  F   UNL A   1      35.904  29.557  30.167  1.00  0.00    -0.200 F 
ENDBRANCH  48  62
BRANCH  49  73
ATOM     73  C   UNL A   1      49.185  26.742  26.202  1.00  0.00     0.064 A 
ATOM     74  C   UNL A   1      50.140  26.240  27.097  1.00  0.00     0.173 A 
ATOM     75  C   UNL A   1      49.589  26.968  24.878  1.00  0.00     0.173 A 
ATOM     76  F   UNL A   1      49.808  26.024  28.378  1.00  0.00    -0.203 F 
ATOM     77  C   UNL A   1      51.453  26.005  26.694  1.00  0.00     0.198 A 
ATOM     78  C   UNL A   1      50.894  26.702  24.467  1.00  0.00     0.198 A 
ATOM     79  F   UNL A   1      48.714  27.442  23.979  1.00  0.00    -0.203 F 
ATOM     80  F   UNL A   1      52.359  25.579  27.584  1.00  0.00    -0.200 F 
ATOM     81  C   UNL A   1      51.828  26.231  25.379  1.00  0.00     0.200 A 
ATOM     82  F   UNL A   1      51.247  26.906  23.191  1.00  0.00    -0.200 F 
ATOM     83  F   UNL A   1      53.090  26.004  24.990  1.00  0.00    -0.200 F 
ENDBRANCH  49  73
BRANCH  61  84
ATOM     84  C   UNL A   1      46.115  32.441  28.792  1.00  0.00     0.064 A 
ATOM     85  C   UNL A   1      46.656  32.723  30.054  1.00  0.00     0.173 A 
ATOM     86  C   UNL A   1      46.111  33.470  27.836  1.00  0.00     0.173 A 
ATOM     87  F   UNL A   1      46.672  31.779  31.008  1.00  0.00    -0.203 F 
ATOM     88  C   UNL A   1      47.143  33.991  30.357  1.00  0.00     0.198 A 
ATOM     89  C   UNL A   1      46.633  34.726  28.131  1.00  0.00     0.198 A 
ATOM     90  F   UNL A   1      45.614  33.251  26.609  1.00  0.00    -0.203 F 
ATOM     91  F   UNL A   1      47.604  34.253  31.589  1.00  0.00    -0.200 F 
ATOM     92  C   UNL A   1      47.140  34.989  29.394  1.00  0.00     0.200 A 
ATOM     93  F   UNL A   1      46.646  35.681  27.192  1.00  0.00    -0.200 F 
ATOM     94  F   UNL A   1      47.619  36.206  29.685  1.00  0.00    -0.200 F 
ENDBRANCH  61  84
ENDBRANCH  35  36
ENDBRANCH  27  30
ENDBRANCH  25  26
ENDBRANCH  24  25
ENDBRANCH   1  24
TORSDOF 17
ENDMDL
