MODEL 1
REMARK VINA RESULT:     -12.1      0.000      0.000
REMARK SMILES CCCn1cc(Br)cc1C(=O)NC[C@H]1CC[C@@H](C(=O)NCCCCNC(=O)c2ccc(-c3c4nc(c(-c5c(F)c(F)c(F)c(F)c5F)c5ccc([nH]5)c(-c5c(F)c(F)c(F)c(F)c5F)c5nc(c(-c6c(F)c(F)c(F)c(F)c6F)c6ccc3[nH]6)C=C5)C=C4)cc2)O1
REMARK SMILES IDX 21 1 20 2 18 3 19 4 17 6 14 7 15 8 91 9 16 10 13 11 12 12
REMARK SMILES IDX 10 13 11 14 9 16 4 17 5 18 6 19 8 20 7 21 3 22 2 23 1 24
REMARK SMILES IDX 22 25 23 26 24 27 25 28 26 29 27 31 28 32 29 33 90 34 30 35
REMARK SMILES IDX 89 36 31 37 32 38 33 39 83 40 34 41 88 42 82 43 84 44 35 45
REMARK SMILES IDX 87 46 81 47 80 48 36 50 68 51 48 52 67 53 49 54 52 55 66 56
REMARK SMILES IDX 85 57 50 58 51 59 65 61 86 62 53 63 37 64 38 65 46 66 39 67
REMARK SMILES IDX 40 68 44 69 47 70 41 71 42 72 45 73 43 74 69 75 70 76 78 77
REMARK SMILES IDX 71 78 72 79 76 80 79 81 73 82 74 83 77 84 75 85 54 86 55 87
REMARK SMILES IDX 63 88 56 89 57 90 61 91 64 92 58 93 59 94 62 95 60 96
REMARK H PARENT 20 5 12 15 25 30 84 49 52 60
REMARK Flexibility Score: inf
ROOT
ATOM      1  C   UNL A   1      39.454  20.789  26.119  1.00  0.00     0.116 C 
ENDROOT
BRANCH   1   2
ATOM      2  N   UNL A   1      39.034  22.177  26.210  1.00  0.00    -0.354 N 
ATOM      3  C   UNL A   1      37.920  22.824  25.760  1.00  0.00     0.249 C 
ATOM      4  O   UNL A   1      37.786  24.004  26.103  1.00  0.00    -0.272 OA
ATOM      5  H   UNL A   1      39.671  22.759  26.686  1.00  0.00     0.163 HD
BRANCH   3   6
ATOM      6  C   UNL A   1      36.863  22.150  24.854  1.00  0.00     0.207 C 
ATOM      7  C   UNL A   1      34.581  22.647  24.876  1.00  0.00     0.138 C 
ATOM      8  C   UNL A   1      35.063  22.882  23.460  1.00  0.00     0.037 C 
ATOM      9  O   UNL A   1      35.605  21.808  25.436  1.00  0.00    -0.363 OA
ATOM     10  C   UNL A   1      36.553  23.038  23.644  1.00  0.00     0.045 C 
BRANCH   7  11
ATOM     11  C   UNL A   1      34.382  23.907  25.757  1.00  0.00     0.148 C 
BRANCH  11  12
ATOM     12  N   UNL A   1      33.128  24.019  26.469  1.00  0.00    -0.348 N 
ATOM     13  C   UNL A   1      32.002  24.785  26.525  1.00  0.00     0.268 C 
ATOM     14  O   UNL A   1      31.106  24.184  27.137  1.00  0.00    -0.268 OA
ATOM     15  H   UNL A   1      33.066  23.300  27.139  1.00  0.00     0.163 HD
BRANCH  13  16
ATOM     16  C   UNL A   1      31.746  26.137  26.032  1.00  0.00     0.108 A 
ATOM     17  N   UNL A   1      31.349  26.717  24.832  1.00  0.00    -0.342 N 
ATOM     18  C   UNL A   1      31.292  28.096  24.951  1.00  0.00     0.102 A 
ATOM     19  C   UNL A   1      31.793  28.428  26.171  1.00  0.00     0.036 A 
ATOM     20  C   UNL A   1      32.043  27.238  26.857  1.00  0.00     0.049 A 
ATOM     21  Br  UNL A   1      32.154  30.142  26.824  1.00  0.00    -0.049 Br
BRANCH  17  22
ATOM     22  C   UNL A   1      31.184  26.126  23.524  1.00  0.00     0.122 C 
BRANCH  22  23
ATOM     23  C   UNL A   1      32.479  25.555  22.941  1.00  0.00     0.018 C 
ATOM     24  C   UNL A   1      33.278  26.509  22.059  1.00  0.00     0.006 C 
ENDBRANCH  22  23
ENDBRANCH  17  22
ENDBRANCH  13  16
ENDBRANCH  11  12
ENDBRANCH   7  11
ENDBRANCH   3   6
ENDBRANCH   1   2
BRANCH   1  25
ATOM     25  C   UNL A   1      40.886  20.544  26.575  1.00  0.00     0.023 C 
BRANCH  25  26
ATOM     26  C   UNL A   1      41.562  19.295  26.010  1.00  0.00     0.023 C 
BRANCH  26  27
ATOM     27  C   UNL A   1      43.005  19.083  26.455  1.00  0.00     0.116 C 
BRANCH  27  28
ATOM     28  N   UNL A   1      43.933  18.911  25.345  1.00  0.00    -0.352 N 
ATOM     29  C   UNL A   1      44.419  19.896  24.504  1.00  0.00     0.251 C 
ATOM     30  H   UNL A   1      44.249  17.994  25.175  1.00  0.00     0.163 HD
ATOM     31  O   UNL A   1      44.845  19.622  23.395  1.00  0.00    -0.269 OA
BRANCH  29  32
ATOM     32  C   UNL A   1      44.397  21.296  24.970  1.00  0.00     0.039 A 
ATOM     33  C   UNL A   1      43.407  22.169  24.521  1.00  0.00     0.014 A 
ATOM     34  C   UNL A   1      45.361  21.723  25.885  1.00  0.00     0.014 A 
ATOM     35  C   UNL A   1      43.338  23.444  25.075  1.00  0.00     0.010 A 
ATOM     36  C   UNL A   1      45.231  22.950  26.508  1.00  0.00     0.010 A 
ATOM     37  C   UNL A   1      44.226  23.822  26.102  1.00  0.00    -0.014 A 
BRANCH  37  38
ATOM     38  C   UNL A   1      43.970  25.064  26.837  1.00  0.00     0.031 A 
ATOM     39  C   UNL A   1      44.942  26.157  26.544  1.00  0.00     0.074 A 
ATOM     40  C   UNL A   1      42.891  25.329  27.604  1.00  0.00     0.049 A 
ATOM     41  N   UNL A   1      45.800  26.668  27.364  1.00  0.00    -0.248 NA
ATOM     42  C   UNL A   1      45.062  26.655  25.166  1.00  0.00     0.031 C 
ATOM     43  C   UNL A   1      41.683  24.526  27.795  1.00  0.00     0.029 A 
ATOM     44  N   UNL A   1      42.617  26.457  28.327  1.00  0.00    -0.354 N 
ATOM     45  C   UNL A   1      46.451  27.678  26.665  1.00  0.00     0.074 A 
ATOM     46  C   UNL A   1      46.065  27.529  25.285  1.00  0.00     0.031 C 
ATOM     47  C   UNL A   1      40.727  25.280  28.382  1.00  0.00     0.029 A 
ATOM     48  C   UNL A   1      41.299  26.564  28.751  1.00  0.00     0.049 A 
ATOM     49  H   UNL A   1      43.299  27.138  28.530  1.00  0.00     0.167 HD
ATOM     50  C   UNL A   1      47.064  28.695  27.331  1.00  0.00     0.037 A 
ATOM     51  C   UNL A   1      40.710  27.636  29.340  1.00  0.00     0.037 A 
ATOM     52  C   UNL A   1      47.343  28.333  28.700  1.00  0.00     0.049 A 
ATOM     53  C   UNL A   1      41.787  28.465  29.935  1.00  0.00     0.074 A 
ATOM     54  C   UNL A   1      48.004  27.275  29.300  1.00  0.00     0.029 A 
ATOM     55  N   UNL A   1      46.584  28.892  29.700  1.00  0.00    -0.354 N 
ATOM     56  N   UNL A   1      42.493  28.106  30.970  1.00  0.00    -0.248 NA
ATOM     57  C   UNL A   1      42.377  29.503  29.103  1.00  0.00     0.031 C 
ATOM     58  C   UNL A   1      47.199  26.934  30.428  1.00  0.00     0.029 A 
ATOM     59  C   UNL A   1      46.158  27.859  30.495  1.00  0.00     0.049 A 
ATOM     60  H   UNL A   1      46.386  29.849  29.822  1.00  0.00     0.167 HD
ATOM     61  C   UNL A   1      43.781  28.510  30.661  1.00  0.00     0.074 A 
ATOM     62  C   UNL A   1      43.634  29.446  29.550  1.00  0.00     0.031 C 
ATOM     63  C   UNL A   1      44.867  27.833  31.136  1.00  0.00     0.037 A 
BRANCH  50  64
ATOM     64  C   UNL A   1      47.051  30.129  26.860  1.00  0.00     0.064 A 
ATOM     65  C   UNL A   1      48.219  30.906  26.989  1.00  0.00     0.173 A 
ATOM     66  C   UNL A   1      45.867  30.851  26.597  1.00  0.00     0.173 A 
ATOM     67  F   UNL A   1      49.398  30.327  27.266  1.00  0.00    -0.203 F 
ATOM     68  C   UNL A   1      48.185  32.302  26.948  1.00  0.00     0.198 A 
ATOM     69  C   UNL A   1      45.846  32.240  26.501  1.00  0.00     0.198 A 
ATOM     70  F   UNL A   1      44.667  30.261  26.542  1.00  0.00    -0.203 F 
ATOM     71  F   UNL A   1      49.296  33.003  27.216  1.00  0.00    -0.200 F 
ATOM     72  C   UNL A   1      46.997  32.968  26.710  1.00  0.00     0.200 A 
ATOM     73  F   UNL A   1      44.679  32.867  26.293  1.00  0.00    -0.200 F 
ATOM     74  F   UNL A   1      46.948  34.306  26.737  1.00  0.00    -0.200 F 
ENDBRANCH  50  64
BRANCH  51  75
ATOM     75  C   UNL A   1      39.313  28.125  29.219  1.00  0.00     0.064 A 
ATOM     76  C   UNL A   1      38.493  28.264  30.355  1.00  0.00     0.173 A 
ATOM     77  C   UNL A   1      38.847  28.737  28.040  1.00  0.00     0.173 A 
ATOM     78  F   UNL A   1      38.876  27.750  31.534  1.00  0.00    -0.203 F 
ATOM     79  C   UNL A   1      37.304  29.002  30.320  1.00  0.00     0.198 A 
ATOM     80  C   UNL A   1      37.655  29.464  28.004  1.00  0.00     0.198 A 
ATOM     81  F   UNL A   1      39.584  28.729  26.921  1.00  0.00    -0.203 F 
ATOM     82  F   UNL A   1      36.591  29.174  31.442  1.00  0.00    -0.200 F 
ATOM     83  C   UNL A   1      36.892  29.611  29.148  1.00  0.00     0.200 A 
ATOM     84  F   UNL A   1      37.287  30.078  26.871  1.00  0.00    -0.200 F 
ATOM     85  F   UNL A   1      35.791  30.374  29.129  1.00  0.00    -0.200 F 
ENDBRANCH  51  75
BRANCH  63  86
ATOM     86  C   UNL A   1      44.672  26.827  32.235  1.00  0.00     0.064 A 
ATOM     87  C   UNL A   1      44.466  25.451  32.034  1.00  0.00     0.173 A 
ATOM     88  C   UNL A   1      44.846  27.264  33.558  1.00  0.00     0.173 A 
ATOM     89  F   UNL A   1      44.394  24.932  30.802  1.00  0.00    -0.203 F 
ATOM     90  C   UNL A   1      44.389  24.568  33.111  1.00  0.00     0.198 A 
ATOM     91  C   UNL A   1      44.812  26.373  34.627  1.00  0.00     0.198 A 
ATOM     92  F   UNL A   1      45.096  28.558  33.813  1.00  0.00    -0.203 F 
ATOM     93  F   UNL A   1      44.173  23.262  32.895  1.00  0.00    -0.200 F 
ATOM     94  C   UNL A   1      44.572  25.028  34.405  1.00  0.00     0.200 A 
ATOM     95  F   UNL A   1      45.039  26.818  35.870  1.00  0.00    -0.200 F 
ATOM     96  F   UNL A   1      44.540  24.172  35.436  1.00  0.00    -0.200 F 
ENDBRANCH  63  86
ENDBRANCH  37  38
ENDBRANCH  29  32
ENDBRANCH  27  28
ENDBRANCH  26  27
ENDBRANCH  25  26
ENDBRANCH   1  25
TORSDOF 16
ENDMDL
MODEL 2
REMARK VINA RESULT:     -11.8      0.969      1.818
REMARK SMILES CCCn1cc(Br)cc1C(=O)NC[C@H]1CC[C@@H](C(=O)NCCCCNC(=O)c2ccc(-c3c4nc(c(-c5c(F)c(F)c(F)c(F)c5F)c5ccc([nH]5)c(-c5c(F)c(F)c(F)c(F)c5F)c5nc(c(-c6c(F)c(F)c(F)c(F)c6F)c6ccc3[nH]6)C=C5)C=C4)cc2)O1
REMARK SMILES IDX 21 1 20 2 18 3 19 4 17 6 14 7 15 8 91 9 16 10 13 11 12 12
REMARK SMILES IDX 10 13 11 14 9 16 4 17 5 18 6 19 8 20 7 21 3 22 2 23 1 24
REMARK SMILES IDX 22 25 23 26 24 27 25 28 26 29 27 31 28 32 29 33 90 34 30 35
REMARK SMILES IDX 89 36 31 37 32 38 33 39 83 40 34 41 88 42 82 43 84 44 35 45
REMARK SMILES IDX 87 46 81 47 80 48 36 50 68 51 48 52 67 53 49 54 52 55 66 56
REMARK SMILES IDX 85 57 50 58 51 59 65 61 86 62 53 63 37 64 38 65 46 66 39 67
REMARK SMILES IDX 40 68 44 69 47 70 41 71 42 72 45 73 43 74 69 75 70 76 78 77
REMARK SMILES IDX 71 78 72 79 76 80 79 81 73 82 74 83 77 84 75 85 54 86 55 87
REMARK SMILES IDX 63 88 56 89 57 90 61 91 64 92 58 93 59 94 62 95 60 96
REMARK H PARENT 20 5 12 15 25 30 84 49 52 60
REMARK Flexibility Score: inf
ROOT
ATOM      1  C   UNL A   1      39.444  20.793  25.821  1.00  0.00     0.116 C 
ENDROOT
BRANCH   1   2
ATOM      2  N   UNL A   1      38.917  22.146  25.856  1.00  0.00    -0.354 N 
ATOM      3  C   UNL A   1      37.663  22.642  25.653  1.00  0.00     0.249 C 
ATOM      4  O   UNL A   1      37.498  23.848  25.874  1.00  0.00    -0.272 OA
ATOM      5  H   UNL A   1      39.591  22.834  26.064  1.00  0.00     0.163 HD
BRANCH   3   6
ATOM      6  C   UNL A   1      36.482  21.772  25.159  1.00  0.00     0.207 C 
ATOM      7  C   UNL A   1      34.302  21.894  25.988  1.00  0.00     0.138 C 
ATOM      8  C   UNL A   1      34.216  22.149  24.498  1.00  0.00     0.037 C 
ATOM      9  O   UNL A   1      35.581  21.253  26.136  1.00  0.00    -0.363 OA
ATOM     10  C   UNL A   1      35.629  22.552  24.153  1.00  0.00     0.045 C 
BRANCH   7  11
ATOM     11  C   UNL A   1      34.218  23.137  26.910  1.00  0.00     0.148 C 
BRANCH  11  12
ATOM     12  N   UNL A   1      32.966  23.863  26.919  1.00  0.00    -0.348 N 
ATOM     13  C   UNL A   1      32.215  24.696  26.145  1.00  0.00     0.268 C 
ATOM     14  O   UNL A   1      31.050  24.739  26.568  1.00  0.00    -0.268 OA
ATOM     15  H   UNL A   1      32.500  23.701  27.771  1.00  0.00     0.163 HD
BRANCH  13  16
ATOM     16  C   UNL A   1      32.586  25.517  24.993  1.00  0.00     0.108 A 
ATOM     17  N   UNL A   1      33.077  26.801  24.783  1.00  0.00    -0.342 N 
ATOM     18  C   UNL A   1      33.222  27.053  23.429  1.00  0.00     0.102 A 
ATOM     19  C   UNL A   1      32.687  26.002  22.752  1.00  0.00     0.036 A 
ATOM     20  C   UNL A   1      32.325  25.039  23.695  1.00  0.00     0.049 A 
ATOM     21  Br  UNL A   1      32.412  25.858  20.909  1.00  0.00    -0.049 Br
BRANCH  17  22
ATOM     22  C   UNL A   1      33.265  27.889  25.715  1.00  0.00     0.122 C 
BRANCH  22  23
ATOM     23  C   UNL A   1      31.954  28.503  26.212  1.00  0.00     0.018 C 
ATOM     24  C   UNL A   1      31.557  28.135  27.638  1.00  0.00     0.006 C 
ENDBRANCH  22  23
ENDBRANCH  17  22
ENDBRANCH  13  16
ENDBRANCH  11  12
ENDBRANCH   7  11
ENDBRANCH   3   6
ENDBRANCH   1   2
BRANCH   1  25
ATOM     25  C   UNL A   1      40.808  20.642  26.479  1.00  0.00     0.023 C 
BRANCH  25  26
ATOM     26  C   UNL A   1      41.596  19.387  26.101  1.00  0.00     0.023 C 
BRANCH  26  27
ATOM     27  C   UNL A   1      43.048  19.370  26.570  1.00  0.00     0.116 C 
BRANCH  27  28
ATOM     28  N   UNL A   1      44.004  19.204  25.482  1.00  0.00    -0.352 N 
ATOM     29  C   UNL A   1      44.497  20.191  24.648  1.00  0.00     0.251 C 
ATOM     30  H   UNL A   1      44.333  18.290  25.324  1.00  0.00     0.163 HD
ATOM     31  O   UNL A   1      44.952  19.917  23.550  1.00  0.00    -0.269 OA
BRANCH  29  32
ATOM     32  C   UNL A   1      44.449  21.593  25.107  1.00  0.00     0.039 A 
ATOM     33  C   UNL A   1      43.466  22.454  24.624  1.00  0.00     0.014 A 
ATOM     34  C   UNL A   1      45.381  22.032  26.049  1.00  0.00     0.014 A 
ATOM     35  C   UNL A   1      43.368  23.731  25.170  1.00  0.00     0.010 A 
ATOM     36  C   UNL A   1      45.221  23.260  26.661  1.00  0.00     0.010 A 
ATOM     37  C   UNL A   1      44.221  24.122  26.221  1.00  0.00    -0.014 A 
BRANCH  37  38
ATOM     38  C   UNL A   1      43.932  25.365  26.942  1.00  0.00     0.031 A 
ATOM     39  C   UNL A   1      44.860  26.487  26.620  1.00  0.00     0.074 A 
ATOM     40  C   UNL A   1      42.856  25.603  27.722  1.00  0.00     0.049 A 
ATOM     41  N   UNL A   1      45.712  27.039  27.418  1.00  0.00    -0.248 NA
ATOM     42  C   UNL A   1      44.942  26.969  25.232  1.00  0.00     0.031 C 
ATOM     43  C   UNL A   1      41.680  24.759  27.943  1.00  0.00     0.029 A 
ATOM     44  N   UNL A   1      42.553  26.730  28.433  1.00  0.00    -0.354 N 
ATOM     45  C   UNL A   1      46.316  28.062  26.696  1.00  0.00     0.074 A 
ATOM     46  C   UNL A   1      45.915  27.879  25.324  1.00  0.00     0.031 C 
ATOM     47  C   UNL A   1      40.707  25.488  28.534  1.00  0.00     0.029 A 
ATOM     48  C   UNL A   1      41.238  26.796  28.876  1.00  0.00     0.049 A 
ATOM     49  H   UNL A   1      43.213  27.438  28.616  1.00  0.00     0.167 HD
ATOM     50  C   UNL A   1      46.902  29.109  27.338  1.00  0.00     0.037 A 
ATOM     51  C   UNL A   1      40.620  27.856  29.459  1.00  0.00     0.037 A 
ATOM     52  C   UNL A   1      47.214  28.778  28.707  1.00  0.00     0.049 A 
ATOM     53  C   UNL A   1      41.676  28.731  30.025  1.00  0.00     0.074 A 
ATOM     54  C   UNL A   1      47.921  27.752  29.312  1.00  0.00     0.029 A 
ATOM     55  N   UNL A   1      46.451  29.324  29.710  1.00  0.00    -0.354 N 
ATOM     56  N   UNL A   1      42.410  28.413  31.055  1.00  0.00    -0.248 NA
ATOM     57  C   UNL A   1      42.216  29.777  29.170  1.00  0.00     0.031 C 
ATOM     58  C   UNL A   1      47.145  27.400  30.456  1.00  0.00     0.029 A 
ATOM     59  C   UNL A   1      46.074  28.289  30.526  1.00  0.00     0.049 A 
ATOM     60  H   UNL A   1      46.220  30.275  29.822  1.00  0.00     0.167 HD
ATOM     61  C   UNL A   1      43.677  28.857  30.720  1.00  0.00     0.074 A 
ATOM     62  C   UNL A   1      43.481  29.771  29.598  1.00  0.00     0.031 C 
ATOM     63  C   UNL A   1      44.794  28.226  31.188  1.00  0.00     0.037 A 
BRANCH  50  64
ATOM     64  C   UNL A   1      46.830  30.535  26.847  1.00  0.00     0.064 A 
ATOM     65  C   UNL A   1      47.978  31.349  26.930  1.00  0.00     0.173 A 
ATOM     66  C   UNL A   1      45.618  31.216  26.608  1.00  0.00     0.173 A 
ATOM     67  F   UNL A   1      49.181  30.811  27.180  1.00  0.00    -0.203 F 
ATOM     68  C   UNL A   1      47.899  32.743  26.869  1.00  0.00     0.198 A 
ATOM     69  C   UNL A   1      45.551  32.603  26.493  1.00  0.00     0.198 A 
ATOM     70  F   UNL A   1      44.436  30.589  26.597  1.00  0.00    -0.203 F 
ATOM     71  F   UNL A   1      48.995  33.481  27.095  1.00  0.00    -0.200 F 
ATOM     72  C   UNL A   1      46.685  33.369  26.658  1.00  0.00     0.200 A 
ATOM     73  F   UNL A   1      44.360  33.191  26.310  1.00  0.00    -0.200 F 
ATOM     74  F   UNL A   1      46.595  34.705  26.667  1.00  0.00    -0.200 F 
ENDBRANCH  50  64
BRANCH  51  75
ATOM     75  C   UNL A   1      39.205  28.293  29.353  1.00  0.00     0.064 A 
ATOM     76  C   UNL A   1      38.406  28.446  30.501  1.00  0.00     0.173 A 
ATOM     77  C   UNL A   1      38.693  28.846  28.163  1.00  0.00     0.173 A 
ATOM     78  F   UNL A   1      38.831  27.988  31.688  1.00  0.00    -0.203 F 
ATOM     79  C   UNL A   1      37.192  29.141  30.467  1.00  0.00     0.198 A 
ATOM     80  C   UNL A   1      37.476  29.531  28.129  1.00  0.00     0.198 A 
ATOM     81  F   UNL A   1      39.406  28.822  27.029  1.00  0.00    -0.203 F 
ATOM     82  F   UNL A   1      36.498  29.330  31.598  1.00  0.00    -0.200 F 
ATOM     83  C   UNL A   1      36.734  29.694  29.284  1.00  0.00     0.200 A 
ATOM     84  F   UNL A   1      37.063  30.091  26.983  1.00  0.00    -0.200 F 
ATOM     85  F   UNL A   1      35.607  30.418  29.263  1.00  0.00    -0.200 F 
ENDBRANCH  51  75
BRANCH  63  86
ATOM     86  C   UNL A   1      44.652  27.230  32.304  1.00  0.00     0.064 A 
ATOM     87  C   UNL A   1      44.557  27.562  33.667  1.00  0.00     0.173 A 
ATOM     88  C   UNL A   1      44.459  25.883  31.956  1.00  0.00     0.173 A 
ATOM     89  F   UNL A   1      44.623  28.835  34.079  1.00  0.00    -0.203 F 
ATOM     90  C   UNL A   1      44.330  26.583  34.634  1.00  0.00     0.198 A 
ATOM     91  C   UNL A   1      44.189  24.917  32.920  1.00  0.00     0.198 A 
ATOM     92  F   UNL A   1      44.488  25.510  30.667  1.00  0.00    -0.203 F 
ATOM     93  F   UNL A   1      44.263  26.922  35.930  1.00  0.00    -0.200 F 
ATOM     94  C   UNL A   1      44.137  25.263  34.259  1.00  0.00     0.200 A 
ATOM     95  F   UNL A   1      43.954  23.652  32.544  1.00  0.00    -0.200 F 
ATOM     96  F   UNL A   1      43.876  24.329  35.185  1.00  0.00    -0.200 F 
ENDBRANCH  63  86
ENDBRANCH  37  38
ENDBRANCH  29  32
ENDBRANCH  27  28
ENDBRANCH  26  27
ENDBRANCH  25  26
ENDBRANCH   1  25
TORSDOF 16
ENDMDL
MODEL 3
REMARK VINA RESULT:     -11.4      2.627      3.905
REMARK SMILES CCCn1cc(Br)cc1C(=O)NC[C@H]1CC[C@@H](C(=O)NCCCCNC(=O)c2ccc(-c3c4nc(c(-c5c(F)c(F)c(F)c(F)c5F)c5ccc([nH]5)c(-c5c(F)c(F)c(F)c(F)c5F)c5nc(c(-c6c(F)c(F)c(F)c(F)c6F)c6ccc3[nH]6)C=C5)C=C4)cc2)O1
REMARK SMILES IDX 21 1 20 2 18 3 19 4 17 6 14 7 15 8 91 9 16 10 13 11 12 12
REMARK SMILES IDX 10 13 11 14 9 16 4 17 5 18 6 19 8 20 7 21 3 22 2 23 1 24
REMARK SMILES IDX 22 25 23 26 24 27 25 28 26 29 27 31 28 32 29 33 90 34 30 35
REMARK SMILES IDX 89 36 31 37 32 38 33 39 83 40 34 41 88 42 82 43 84 44 35 45
REMARK SMILES IDX 87 46 81 47 80 48 36 50 68 51 48 52 67 53 49 54 52 55 66 56
REMARK SMILES IDX 85 57 50 58 51 59 65 61 86 62 53 63 37 64 38 65 46 66 39 67
REMARK SMILES IDX 40 68 44 69 47 70 41 71 42 72 45 73 43 74 69 75 70 76 78 77
REMARK SMILES IDX 71 78 72 79 76 80 79 81 73 82 74 83 77 84 75 85 54 86 55 87
REMARK SMILES IDX 63 88 56 89 57 90 61 91 64 92 58 93 59 94 62 95 60 96
REMARK H PARENT 20 5 12 15 25 30 84 49 52 60
REMARK Flexibility Score: inf
ROOT
ATOM      1  C   UNL A   1      37.687  23.610  25.435  1.00  0.00     0.116 C 
ENDROOT
BRANCH   1   2
ATOM      2  N   UNL A   1      37.019  23.410  24.161  1.00  0.00    -0.354 N 
ATOM      3  C   UNL A   1      35.699  23.335  23.826  1.00  0.00     0.249 C 
ATOM      4  O   UNL A   1      35.433  23.279  22.619  1.00  0.00    -0.272 OA
ATOM      5  H   UNL A   1      37.633  23.311  23.397  1.00  0.00     0.163 HD
BRANCH   3   6
ATOM      6  C   UNL A   1      34.563  23.304  24.876  1.00  0.00     0.207 C 
ATOM      7  C   UNL A   1      32.326  23.807  24.431  1.00  0.00     0.138 C 
ATOM      8  C   UNL A   1      32.352  22.406  25.004  1.00  0.00     0.037 C 
ATOM      9  O   UNL A   1      33.593  24.350  24.840  1.00  0.00    -0.363 OA
ATOM     10  C   UNL A   1      33.785  21.988  24.783  1.00  0.00     0.045 C 
BRANCH   7  11
ATOM     11  C   UNL A   1      32.167  23.923  22.894  1.00  0.00     0.148 C 
BRANCH  11  12
ATOM     12  N   UNL A   1      32.847  25.024  22.245  1.00  0.00    -0.348 N 
ATOM     13  C   UNL A   1      32.944  26.382  22.282  1.00  0.00     0.268 C 
ATOM     14  O   UNL A   1      33.962  26.755  21.678  1.00  0.00    -0.268 OA
ATOM     15  H   UNL A   1      33.437  24.673  21.540  1.00  0.00     0.163 HD
BRANCH  13  16
ATOM     16  C   UNL A   1      32.051  27.386  22.860  1.00  0.00     0.108 A 
ATOM     17  N   UNL A   1      32.066  28.239  23.957  1.00  0.00    -0.342 N 
ATOM     18  C   UNL A   1      30.894  28.976  24.020  1.00  0.00     0.102 A 
ATOM     19  C   UNL A   1      30.055  28.501  23.060  1.00  0.00     0.036 A 
ATOM     20  C   UNL A   1      30.761  27.551  22.321  1.00  0.00     0.049 A 
ATOM     21  Br  UNL A   1      28.264  28.961  22.788  1.00  0.00    -0.049 Br
BRANCH  17  22
ATOM     22  C   UNL A   1      32.993  28.317  25.063  1.00  0.00     0.122 C 
BRANCH  22  23
ATOM     23  C   UNL A   1      32.633  27.394  26.230  1.00  0.00     0.018 C 
ATOM     24  C   UNL A   1      31.980  28.077  27.427  1.00  0.00     0.006 C 
ENDBRANCH  22  23
ENDBRANCH  17  22
ENDBRANCH  13  16
ENDBRANCH  11  12
ENDBRANCH   7  11
ENDBRANCH   3   6
ENDBRANCH   1   2
BRANCH   1  25
ATOM     25  C   UNL A   1      37.901  22.330  26.230  1.00  0.00     0.023 C 
BRANCH  25  26
ATOM     26  C   UNL A   1      39.020  21.414  25.732  1.00  0.00     0.023 C 
BRANCH  26  27
ATOM     27  C   UNL A   1      40.214  21.283  26.672  1.00  0.00     0.116 C 
BRANCH  27  28
ATOM     28  N   UNL A   1      41.498  21.452  26.001  1.00  0.00    -0.352 N 
ATOM     29  C   UNL A   1      42.161  22.640  25.757  1.00  0.00     0.251 C 
ATOM     30  H   UNL A   1      41.940  20.630  25.689  1.00  0.00     0.163 HD
ATOM     31  O   UNL A   1      42.989  22.727  24.866  1.00  0.00    -0.269 OA
BRANCH  29  32
ATOM     32  C   UNL A   1      41.835  23.815  26.589  1.00  0.00     0.039 A 
ATOM     33  C   UNL A   1      42.392  23.949  27.860  1.00  0.00     0.014 A 
ATOM     34  C   UNL A   1      40.988  24.798  26.076  1.00  0.00     0.014 A 
ATOM     35  C   UNL A   1      42.168  25.127  28.568  1.00  0.00     0.010 A 
ATOM     36  C   UNL A   1      40.849  26.006  26.733  1.00  0.00     0.010 A 
ATOM     37  C   UNL A   1      41.429  26.176  27.986  1.00  0.00    -0.014 A 
BRANCH  37  38
ATOM     38  C   UNL A   1      41.423  27.486  28.642  1.00  0.00     0.031 A 
ATOM     39  C   UNL A   1      42.546  28.378  28.233  1.00  0.00     0.074 A 
ATOM     40  C   UNL A   1      40.446  27.977  29.435  1.00  0.00     0.049 A 
ATOM     41  N   UNL A   1      43.521  28.785  28.977  1.00  0.00    -0.248 NA
ATOM     42  C   UNL A   1      42.673  28.763  26.819  1.00  0.00     0.031 C 
ATOM     43  C   UNL A   1      39.134  27.403  29.733  1.00  0.00     0.029 A 
ATOM     44  N   UNL A   1      40.404  29.177  30.088  1.00  0.00    -0.354 N 
ATOM     45  C   UNL A   1      44.292  29.626  28.183  1.00  0.00     0.074 A 
ATOM     46  C   UNL A   1      43.812  29.459  26.834  1.00  0.00     0.031 C 
ATOM     47  C   UNL A   1      38.350  28.344  30.307  1.00  0.00     0.029 A 
ATOM     48  C   UNL A   1      39.146  29.532  30.560  1.00  0.00     0.049 A 
ATOM     49  H   UNL A   1      41.199  29.744  30.214  1.00  0.00     0.167 HD
ATOM     50  C   UNL A   1      45.101  30.562  28.749  1.00  0.00     0.037 A 
ATOM     51  C   UNL A   1      38.776  30.724  31.098  1.00  0.00     0.037 A 
ATOM     52  C   UNL A   1      45.389  30.244  30.126  1.00  0.00     0.049 A 
ATOM     53  C   UNL A   1      40.008  31.393  31.586  1.00  0.00     0.074 A 
ATOM     54  C   UNL A   1      45.896  29.128  30.770  1.00  0.00     0.029 A 
ATOM     55  N   UNL A   1      44.789  30.984  31.116  1.00  0.00    -0.354 N 
ATOM     56  N   UNL A   1      40.699  30.984  32.613  1.00  0.00    -0.248 NA
ATOM     57  C   UNL A   1      40.716  32.262  30.659  1.00  0.00     0.031 C 
ATOM     58  C   UNL A   1      45.107  28.999  31.953  1.00  0.00     0.029 A 
ATOM     59  C   UNL A   1      44.240  30.090  31.999  1.00  0.00     0.049 A 
ATOM     60  H   UNL A   1      44.759  31.966  31.180  1.00  0.00     0.167 HD
ATOM     61  C   UNL A   1      42.017  31.143  32.222  1.00  0.00     0.074 A 
ATOM     62  C   UNL A   1      41.968  32.021  31.055  1.00  0.00     0.031 C 
ATOM     63  C   UNL A   1      43.000  30.323  32.695  1.00  0.00     0.037 A 
BRANCH  50  64
ATOM     64  C   UNL A   1      45.301  31.947  28.180  1.00  0.00     0.064 A 
ATOM     65  C   UNL A   1      44.178  32.775  27.978  1.00  0.00     0.173 A 
ATOM     66  C   UNL A   1      46.486  32.359  27.534  1.00  0.00     0.173 A 
ATOM     67  F   UNL A   1      42.993  32.465  28.524  1.00  0.00    -0.203 F 
ATOM     68  C   UNL A   1      44.221  33.878  27.121  1.00  0.00     0.198 A 
ATOM     69  C   UNL A   1      46.538  33.492  26.724  1.00  0.00     0.198 A 
ATOM     70  F   UNL A   1      47.604  31.626  27.556  1.00  0.00    -0.203 F 
ATOM     71  F   UNL A   1      43.095  34.552  26.849  1.00  0.00    -0.200 F 
ATOM     72  C   UNL A   1      45.399  34.231  26.490  1.00  0.00     0.200 A 
ATOM     73  F   UNL A   1      47.685  33.803  26.104  1.00  0.00    -0.200 F 
ATOM     74  F   UNL A   1      45.427  35.246  25.617  1.00  0.00    -0.200 F 
ENDBRANCH  50  64
BRANCH  51  75
ATOM     75  C   UNL A   1      37.476  31.433  31.003  1.00  0.00     0.064 A 
ATOM     76  C   UNL A   1      36.634  31.556  32.123  1.00  0.00     0.173 A 
ATOM     77  C   UNL A   1      37.163  32.252  29.900  1.00  0.00     0.173 A 
ATOM     78  F   UNL A   1      36.880  30.847  33.236  1.00  0.00    -0.203 F 
ATOM     79  C   UNL A   1      35.572  32.467  32.152  1.00  0.00     0.198 A 
ATOM     80  C   UNL A   1      36.097  33.153  29.926  1.00  0.00     0.198 A 
ATOM     81  F   UNL A   1      37.943  32.269  28.811  1.00  0.00    -0.203 F 
ATOM     82  F   UNL A   1      34.841  32.607  33.267  1.00  0.00    -0.200 F 
ATOM     83  C   UNL A   1      35.312  33.274  31.058  1.00  0.00     0.200 A 
ATOM     84  F   UNL A   1      35.878  33.952  28.873  1.00  0.00    -0.200 F 
ATOM     85  F   UNL A   1      34.340  34.194  31.108  1.00  0.00    -0.200 F 
ENDBRANCH  51  75
BRANCH  63  86
ATOM     86  C   UNL A   1      42.699  29.434  33.870  1.00  0.00     0.064 A 
ATOM     87  C   UNL A   1      42.024  28.203  33.790  1.00  0.00     0.173 A 
ATOM     88  C   UNL A   1      43.251  29.785  35.112  1.00  0.00     0.173 A 
ATOM     89  F   UNL A   1      41.558  27.740  32.624  1.00  0.00    -0.203 F 
ATOM     90  C   UNL A   1      41.870  27.391  34.914  1.00  0.00     0.198 A 
ATOM     91  C   UNL A   1      43.132  28.952  36.220  1.00  0.00     0.198 A 
ATOM     92  F   UNL A   1      43.950  30.924  35.241  1.00  0.00    -0.203 F 
ATOM     93  F   UNL A   1      41.205  26.231  34.818  1.00  0.00    -0.200 F 
ATOM     94  C   UNL A   1      42.431  27.762  36.125  1.00  0.00     0.200 A 
ATOM     95  F   UNL A   1      43.721  29.294  37.375  1.00  0.00    -0.200 F 
ATOM     96  F   UNL A   1      42.319  26.962  37.195  1.00  0.00    -0.200 F 
ENDBRANCH  63  86
ENDBRANCH  37  38
ENDBRANCH  29  32
ENDBRANCH  27  28
ENDBRANCH  26  27
ENDBRANCH  25  26
ENDBRANCH   1  25
TORSDOF 16
ENDMDL
