MODEL 1
REMARK VINA RESULT:     -11.9      0.000      0.000
REMARK SMILES C[C@@H]1CC[C@H]([N@@H+](CC(=O)NCCCCNC(=O)c2ccc(-c3c4nc(c(-c5c(F)c(F)c(F)c(F)c5F)c5ccc([nH]5)c(-c5c(F)c(F)c(F)c(F)c5F)c5nc(c(-c6c(F)c(F)c(F)c(F)c6F)c6ccc3[nH]6)C=C5)C=C4)cc2)CC(F)(F)F)C[C@@H]1C
REMARK SMILES IDX 12 1 11 2 10 3 8 4 9 5 7 7 6 8 5 10 1 11 2 12 3 13 87 14
REMARK SMILES IDX 4 15 86 16 88 17 81 18 82 19 83 20 84 21 85 22 13 23 14 24
REMARK SMILES IDX 15 25 16 26 17 28 18 29 19 30 80 31 20 32 79 33 21 34 22 35
REMARK SMILES IDX 23 36 73 37 24 38 78 39 72 40 74 41 25 42 77 43 71 44 70 45
REMARK SMILES IDX 26 47 58 48 38 49 57 50 39 51 42 52 56 53 75 54 40 55 41 56
REMARK SMILES IDX 55 58 76 59 43 60 27 61 28 62 36 63 29 64 30 65 34 66 37 67
REMARK SMILES IDX 31 68 32 69 35 70 33 71 59 72 60 73 68 74 61 75 62 76 66 77
REMARK SMILES IDX 69 78 63 79 64 80 67 81 65 82 44 83 45 84 53 85 46 86 47 87
REMARK SMILES IDX 51 88 54 89 48 90 49 91 52 92 50 93
REMARK H PARENT 10 6 6 9 15 27 74 46 42 57
REMARK Flexibility Score: inf
ROOT
ATOM      1  C   UNL A   1      31.514  30.806  26.080  1.00  0.00     0.023 C 
ENDROOT
BRANCH   1   2
ATOM      2  C   UNL A   1      32.222  29.814  27.019  1.00  0.00     0.116 C 
BRANCH   2   3
ATOM      3  N   UNL A   1      31.609  28.494  27.110  1.00  0.00    -0.351 N 
ATOM      4  C   UNL A   1      31.996  27.261  26.666  1.00  0.00     0.275 C 
ATOM      5  O   UNL A   1      31.353  26.299  27.096  1.00  0.00    -0.269 OA
ATOM      6  H   UNL A   1      30.747  28.491  27.586  1.00  0.00     0.163 HD
BRANCH   4   7
ATOM      7  C   UNL A   1      33.133  27.075  25.647  1.00  0.00     0.364 C 
BRANCH   7   8
ATOM      8  N   UNL A   1      32.768  26.310  24.425  1.00  0.00    -0.317 N 
ATOM      9  H   UNL A   1      31.806  26.011  24.580  1.00  0.00     0.349 HD
BRANCH   8  10
ATOM     10  C   UNL A   1      33.437  25.020  24.302  1.00  0.00     0.184 C 
ATOM     11  C   UNL A   1      36.591  22.987  23.171  1.00  0.00     0.008 C 
ATOM     12  C   UNL A   1      35.245  22.698  23.831  1.00  0.00    -0.011 C 
ATOM     13  C   UNL A   1      34.074  23.040  22.874  1.00  0.00     0.010 C 
ATOM     14  C   UNL A   1      35.074  23.390  25.197  1.00  0.00    -0.006 C 
ATOM     15  C   UNL A   1      33.647  24.523  22.862  1.00  0.00     0.065 C 
ATOM     16  C   UNL A   1      34.764  24.876  25.051  1.00  0.00     0.068 C 
ATOM     17  C   UNL A   1      36.188  23.159  26.212  1.00  0.00     0.008 C 
ENDBRANCH   8  10
BRANCH   8  18
ATOM     18  C   UNL A   1      32.531  27.110  23.203  1.00  0.00     0.379 C 
BRANCH  18  19
ATOM     19  C   UNL A   1      31.298  28.009  22.941  1.00  0.00     0.438 C 
ATOM     20  F   UNL A   1      31.630  29.255  22.547  1.00  0.00    -0.165 F 
ATOM     21  F   UNL A   1      30.565  27.473  21.928  1.00  0.00    -0.165 F 
ATOM     22  F   UNL A   1      30.480  28.095  24.004  1.00  0.00    -0.165 F 
ENDBRANCH  18  19
ENDBRANCH   8  18
ENDBRANCH   7   8
ENDBRANCH   4   7
ENDBRANCH   2   3
ENDBRANCH   1   2
BRANCH   1  23
ATOM     23  C   UNL A   1      31.382  32.237  26.608  1.00  0.00     0.023 C 
BRANCH  23  24
ATOM     24  C   UNL A   1      32.625  32.802  27.267  1.00  0.00     0.116 C 
BRANCH  24  25
ATOM     25  N   UNL A   1      32.458  34.205  27.612  1.00  0.00    -0.352 N 
ATOM     26  C   UNL A   1      33.010  34.957  28.622  1.00  0.00     0.251 C 
ATOM     27  H   UNL A   1      31.846  34.699  27.021  1.00  0.00     0.163 HD
ATOM     28  O   UNL A   1      32.526  36.061  28.866  1.00  0.00    -0.269 OA
BRANCH  26  29
ATOM     29  C   UNL A   1      34.173  34.486  29.422  1.00  0.00     0.039 A 
ATOM     30  C   UNL A   1      35.456  34.572  28.864  1.00  0.00     0.014 A 
ATOM     31  C   UNL A   1      34.019  33.864  30.662  1.00  0.00     0.014 A 
ATOM     32  C   UNL A   1      36.563  34.049  29.544  1.00  0.00     0.010 A 
ATOM     33  C   UNL A   1      35.131  33.451  31.392  1.00  0.00     0.010 A 
ATOM     34  C   UNL A   1      36.409  33.485  30.818  1.00  0.00    -0.014 A 
BRANCH  34  35
ATOM     35  C   UNL A   1      37.533  32.811  31.522  1.00  0.00     0.031 A 
ATOM     36  C   UNL A   1      38.234  31.652  30.855  1.00  0.00     0.074 A 
ATOM     37  C   UNL A   1      37.894  33.191  32.762  1.00  0.00     0.049 A 
ATOM     38  N   UNL A   1      39.161  30.855  31.324  1.00  0.00    -0.248 NA
ATOM     39  C   UNL A   1      37.801  31.318  29.487  1.00  0.00     0.031 C 
ATOM     40  C   UNL A   1      37.269  34.266  33.533  1.00  0.00     0.029 A 
ATOM     41  N   UNL A   1      38.869  32.705  33.596  1.00  0.00    -0.354 N 
ATOM     42  C   UNL A   1      39.387  29.911  30.329  1.00  0.00     0.074 A 
ATOM     43  C   UNL A   1      38.461  30.194  29.257  1.00  0.00     0.031 C 
ATOM     44  C   UNL A   1      37.894  34.376  34.717  1.00  0.00     0.029 A 
ATOM     45  C   UNL A   1      38.938  33.359  34.802  1.00  0.00     0.049 A 
ATOM     46  H   UNL A   1      39.463  31.959  33.353  1.00  0.00     0.167 HD
ATOM     47  C   UNL A   1      40.306  28.917  30.295  1.00  0.00     0.037 A 
ATOM     48  C   UNL A   1      39.753  33.156  35.856  1.00  0.00     0.037 A 
ATOM     49  C   UNL A   1      41.270  28.679  31.334  1.00  0.00     0.049 A 
ATOM     50  C   UNL A   1      40.790  32.068  35.781  1.00  0.00     0.074 A 
ATOM     51  C   UNL A   1      42.297  27.752  31.367  1.00  0.00     0.029 A 
ATOM     52  N   UNL A   1      41.331  29.388  32.525  1.00  0.00    -0.354 N 
ATOM     53  N   UNL A   1      41.034  31.220  34.812  1.00  0.00    -0.248 NA
ATOM     54  C   UNL A   1      41.672  31.914  36.948  1.00  0.00     0.031 C 
ATOM     55  C   UNL A   1      42.957  27.878  32.594  1.00  0.00     0.029 A 
ATOM     56  C   UNL A   1      42.368  28.910  33.307  1.00  0.00     0.049 A 
ATOM     57  H   UNL A   1      40.726  30.123  32.777  1.00  0.00     0.167 HD
ATOM     58  C   UNL A   1      42.107  30.448  35.239  1.00  0.00     0.074 A 
ATOM     59  C   UNL A   1      42.479  30.942  36.548  1.00  0.00     0.031 C 
ATOM     60  C   UNL A   1      42.725  29.421  34.605  1.00  0.00     0.037 A 
BRANCH  47  61
ATOM     61  C   UNL A   1      40.319  28.022  29.087  1.00  0.00     0.064 A 
ATOM     62  C   UNL A   1      41.073  28.332  27.945  1.00  0.00     0.173 A 
ATOM     63  C   UNL A   1      39.579  26.830  29.077  1.00  0.00     0.173 A 
ATOM     64  F   UNL A   1      41.789  29.466  27.897  1.00  0.00    -0.203 F 
ATOM     65  C   UNL A   1      41.056  27.504  26.825  1.00  0.00     0.198 A 
ATOM     66  C   UNL A   1      39.590  25.987  27.968  1.00  0.00     0.198 A 
ATOM     67  F   UNL A   1      38.844  26.479  30.144  1.00  0.00    -0.203 F 
ATOM     68  F   UNL A   1      41.736  27.855  25.725  1.00  0.00    -0.200 F 
ATOM     69  C   UNL A   1      40.320  26.331  26.840  1.00  0.00     0.200 A 
ATOM     70  F   UNL A   1      38.888  24.846  27.987  1.00  0.00    -0.200 F 
ATOM     71  F   UNL A   1      40.305  25.534  25.762  1.00  0.00    -0.200 F 
ENDBRANCH  47  61
BRANCH  48  72
ATOM     72  C   UNL A   1      39.645  34.030  37.053  1.00  0.00     0.064 A 
ATOM     73  C   UNL A   1      38.883  33.636  38.162  1.00  0.00     0.173 A 
ATOM     74  C   UNL A   1      40.302  35.267  37.120  1.00  0.00     0.173 A 
ATOM     75  F   UNL A   1      38.219  32.471  38.137  1.00  0.00    -0.203 F 
ATOM     76  C   UNL A   1      38.771  34.451  39.286  1.00  0.00     0.198 A 
ATOM     77  C   UNL A   1      40.209  36.070  38.255  1.00  0.00     0.198 A 
ATOM     78  F   UNL A   1      41.045  35.689  36.087  1.00  0.00    -0.203 F 
ATOM     79  F   UNL A   1      38.004  34.067  40.316  1.00  0.00    -0.200 F 
ATOM     80  C   UNL A   1      39.440  35.665  39.334  1.00  0.00     0.200 A 
ATOM     81  F   UNL A   1      40.868  37.236  38.304  1.00  0.00    -0.200 F 
ATOM     82  F   UNL A   1      39.338  36.445  40.419  1.00  0.00    -0.200 F 
ENDBRANCH  48  72
BRANCH  60  83
ATOM     83  C   UNL A   1      43.885  28.781  35.308  1.00  0.00     0.064 A 
ATOM     84  C   UNL A   1      43.706  27.691  36.172  1.00  0.00     0.173 A 
ATOM     85  C   UNL A   1      45.193  29.231  35.077  1.00  0.00     0.173 A 
ATOM     86  F   UNL A   1      42.472  27.233  36.434  1.00  0.00    -0.203 F 
ATOM     87  C   UNL A   1      44.794  27.089  36.797  1.00  0.00     0.198 A 
ATOM     88  C   UNL A   1      46.281  28.609  35.682  1.00  0.00     0.198 A 
ATOM     89  F   UNL A   1      45.417  30.265  34.252  1.00  0.00    -0.203 F 
ATOM     90  F   UNL A   1      44.597  26.075  37.652  1.00  0.00    -0.200 F 
ATOM     91  C   UNL A   1      46.080  27.544  36.546  1.00  0.00     0.200 A 
ATOM     92  F   UNL A   1      47.525  29.040  35.428  1.00  0.00    -0.200 F 
ATOM     93  F   UNL A   1      47.127  26.957  37.143  1.00  0.00    -0.200 F 
ENDBRANCH  60  83
ENDBRANCH  34  35
ENDBRANCH  26  29
ENDBRANCH  24  25
ENDBRANCH  23  24
ENDBRANCH   1  23
TORSDOF 15
ENDMDL
MODEL 2
REMARK VINA RESULT:     -11.8      1.020      2.028
REMARK SMILES C[C@@H]1CC[C@H]([N@@H+](CC(=O)NCCCCNC(=O)c2ccc(-c3c4nc(c(-c5c(F)c(F)c(F)c(F)c5F)c5ccc([nH]5)c(-c5c(F)c(F)c(F)c(F)c5F)c5nc(c(-c6c(F)c(F)c(F)c(F)c6F)c6ccc3[nH]6)C=C5)C=C4)cc2)CC(F)(F)F)C[C@@H]1C
REMARK SMILES IDX 12 1 11 2 10 3 8 4 9 5 7 7 6 8 5 10 1 11 2 12 3 13 87 14
REMARK SMILES IDX 4 15 86 16 88 17 81 18 82 19 83 20 84 21 85 22 13 23 14 24
REMARK SMILES IDX 15 25 16 26 17 28 18 29 19 30 80 31 20 32 79 33 21 34 22 35
REMARK SMILES IDX 23 36 73 37 24 38 78 39 72 40 74 41 25 42 77 43 71 44 70 45
REMARK SMILES IDX 26 47 58 48 38 49 57 50 39 51 42 52 56 53 75 54 40 55 41 56
REMARK SMILES IDX 55 58 76 59 43 60 27 61 28 62 36 63 29 64 30 65 34 66 37 67
REMARK SMILES IDX 31 68 32 69 35 70 33 71 59 72 60 73 68 74 61 75 62 76 66 77
REMARK SMILES IDX 69 78 63 79 64 80 67 81 65 82 44 83 45 84 53 85 46 86 47 87
REMARK SMILES IDX 51 88 54 89 48 90 49 91 52 92 50 93
REMARK H PARENT 10 6 6 9 15 27 74 46 42 57
REMARK Flexibility Score: inf
ROOT
ATOM      1  C   UNL A   1      31.533  30.594  26.633  1.00  0.00     0.023 C 
ENDROOT
BRANCH   1   2
ATOM      2  C   UNL A   1      31.346  29.970  25.239  1.00  0.00     0.116 C 
BRANCH   2   3
ATOM      3  N   UNL A   1      32.577  29.603  24.549  1.00  0.00    -0.351 N 
ATOM      4  C   UNL A   1      33.437  28.550  24.687  1.00  0.00     0.275 C 
ATOM      5  O   UNL A   1      34.280  28.412  23.796  1.00  0.00    -0.269 OA
ATOM      6  H   UNL A   1      32.840  30.239  23.846  1.00  0.00     0.163 HD
BRANCH   4   7
ATOM      7  C   UNL A   1      33.398  27.613  25.906  1.00  0.00     0.364 C 
BRANCH   7   8
ATOM      8  N   UNL A   1      32.696  26.320  25.688  1.00  0.00    -0.317 N 
ATOM      9  H   UNL A   1      31.976  26.287  26.409  1.00  0.00     0.349 HD
BRANCH   8  10
ATOM     10  C   UNL A   1      33.483  25.142  26.037  1.00  0.00     0.184 C 
ATOM     11  C   UNL A   1      34.744  21.560  25.068  1.00  0.00     0.008 C 
ATOM     12  C   UNL A   1      34.921  22.538  26.226  1.00  0.00    -0.011 C 
ATOM     13  C   UNL A   1      33.573  22.791  26.949  1.00  0.00     0.010 C 
ATOM     14  C   UNL A   1      35.592  23.862  25.811  1.00  0.00    -0.006 C 
ATOM     15  C   UNL A   1      32.671  23.864  26.301  1.00  0.00     0.065 C 
ATOM     16  C   UNL A   1      34.626  24.789  25.081  1.00  0.00     0.068 C 
ATOM     17  C   UNL A   1      36.910  23.739  25.054  1.00  0.00     0.008 C 
ENDBRANCH   8  10
BRANCH   8  18
ATOM     18  C   UNL A   1      31.800  26.255  24.512  1.00  0.00     0.379 C 
BRANCH  18  19
ATOM     19  C   UNL A   1      30.254  26.176  24.561  1.00  0.00     0.438 C 
ATOM     20  F   UNL A   1      29.654  27.281  24.075  1.00  0.00    -0.165 F 
ATOM     21  F   UNL A   1      29.838  25.143  23.781  1.00  0.00    -0.165 F 
ATOM     22  F   UNL A   1      29.784  25.938  25.798  1.00  0.00    -0.165 F 
ENDBRANCH  18  19
ENDBRANCH   8  18
ENDBRANCH   7   8
ENDBRANCH   4   7
ENDBRANCH   2   3
ENDBRANCH   1   2
BRANCH   1  23
ATOM     23  C   UNL A   1      31.486  32.124  26.685  1.00  0.00     0.023 C 
BRANCH  23  24
ATOM     24  C   UNL A   1      32.765  32.795  27.144  1.00  0.00     0.116 C 
BRANCH  24  25
ATOM     25  N   UNL A   1      32.529  34.167  27.565  1.00  0.00    -0.352 N 
ATOM     26  C   UNL A   1      33.025  34.882  28.630  1.00  0.00     0.251 C 
ATOM     27  H   UNL A   1      31.909  34.669  26.988  1.00  0.00     0.163 HD
ATOM     28  O   UNL A   1      32.488  35.947  28.925  1.00  0.00    -0.269 OA
BRANCH  26  29
ATOM     29  C   UNL A   1      34.189  34.414  29.430  1.00  0.00     0.039 A 
ATOM     30  C   UNL A   1      35.477  34.552  28.893  1.00  0.00     0.014 A 
ATOM     31  C   UNL A   1      34.035  33.748  30.646  1.00  0.00     0.014 A 
ATOM     32  C   UNL A   1      36.588  34.035  29.571  1.00  0.00     0.010 A 
ATOM     33  C   UNL A   1      35.149  33.340  31.378  1.00  0.00     0.010 A 
ATOM     34  C   UNL A   1      36.433  33.425  30.824  1.00  0.00    -0.014 A 
BRANCH  34  35
ATOM     35  C   UNL A   1      37.565  32.757  31.520  1.00  0.00     0.031 A 
ATOM     36  C   UNL A   1      38.257  31.592  30.856  1.00  0.00     0.074 A 
ATOM     37  C   UNL A   1      37.940  33.149  32.752  1.00  0.00     0.049 A 
ATOM     38  N   UNL A   1      39.190  30.799  31.322  1.00  0.00    -0.248 NA
ATOM     39  C   UNL A   1      37.808  31.245  29.497  1.00  0.00     0.031 C 
ATOM     40  C   UNL A   1      37.326  34.231  33.520  1.00  0.00     0.029 A 
ATOM     41  N   UNL A   1      38.925  32.670  33.579  1.00  0.00    -0.354 N 
ATOM     42  C   UNL A   1      39.404  29.845  30.333  1.00  0.00     0.074 A 
ATOM     43  C   UNL A   1      38.464  30.119  29.269  1.00  0.00     0.031 C 
ATOM     44  C   UNL A   1      37.964  34.352  34.696  1.00  0.00     0.029 A 
ATOM     45  C   UNL A   1      39.009  33.336  34.778  1.00  0.00     0.049 A 
ATOM     46  H   UNL A   1      39.516  31.922  33.336  1.00  0.00     0.167 HD
ATOM     47  C   UNL A   1      40.322  28.850  30.297  1.00  0.00     0.037 A 
ATOM     48  C   UNL A   1      39.837  33.143  35.824  1.00  0.00     0.037 A 
ATOM     49  C   UNL A   1      41.298  28.622  31.327  1.00  0.00     0.049 A 
ATOM     50  C   UNL A   1      40.872  32.053  35.747  1.00  0.00     0.074 A 
ATOM     51  C   UNL A   1      42.325  27.695  31.356  1.00  0.00     0.029 A 
ATOM     52  N   UNL A   1      41.373  29.342  32.510  1.00  0.00    -0.354 N 
ATOM     53  N   UNL A   1      41.104  31.196  34.783  1.00  0.00    -0.248 NA
ATOM     54  C   UNL A   1      41.768  31.910  36.904  1.00  0.00     0.031 C 
ATOM     55  C   UNL A   1      42.999  27.832  32.574  1.00  0.00     0.029 A 
ATOM     56  C   UNL A   1      42.420  28.871  33.284  1.00  0.00     0.049 A 
ATOM     57  H   UNL A   1      40.771  30.080  32.762  1.00  0.00     0.167 HD
ATOM     58  C   UNL A   1      42.182  30.428  35.204  1.00  0.00     0.074 A 
ATOM     59  C   UNL A   1      42.570  30.934  36.504  1.00  0.00     0.031 C 
ATOM     60  C   UNL A   1      42.792  29.395  34.573  1.00  0.00     0.037 A 
BRANCH  47  61
ATOM     61  C   UNL A   1      40.319  27.944  29.098  1.00  0.00     0.064 A 
ATOM     62  C   UNL A   1      39.556  26.766  29.063  1.00  0.00     0.173 A 
ATOM     63  C   UNL A   1      41.076  28.266  27.961  1.00  0.00     0.173 A 
ATOM     64  F   UNL A   1      38.824  26.405  30.127  1.00  0.00    -0.203 F 
ATOM     65  C   UNL A   1      39.583  25.926  27.953  1.00  0.00     0.198 A 
ATOM     66  C   UNL A   1      41.074  27.440  26.840  1.00  0.00     0.198 A 
ATOM     67  F   UNL A   1      41.819  29.383  27.936  1.00  0.00    -0.203 F 
ATOM     68  F   UNL A   1      38.895  24.775  27.970  1.00  0.00    -0.200 F 
ATOM     69  C   UNL A   1      40.336  26.265  26.841  1.00  0.00     0.200 A 
ATOM     70  F   UNL A   1      41.794  27.775  25.760  1.00  0.00    -0.200 F 
ATOM     71  F   UNL A   1      40.359  25.457  25.773  1.00  0.00    -0.200 F 
ENDBRANCH  47  61
BRANCH  48  72
ATOM     72  C   UNL A   1      39.744  34.028  37.013  1.00  0.00     0.064 A 
ATOM     73  C   UNL A   1      40.438  35.246  37.057  1.00  0.00     0.173 A 
ATOM     74  C   UNL A   1      38.958  33.686  38.124  1.00  0.00     0.173 A 
ATOM     75  F   UNL A   1      41.219  35.607  36.028  1.00  0.00    -0.203 F 
ATOM     76  C   UNL A   1      40.363  36.079  38.170  1.00  0.00     0.198 A 
ATOM     77  C   UNL A   1      38.863  34.533  39.226  1.00  0.00     0.198 A 
ATOM     78  F   UNL A   1      38.272  32.534  38.131  1.00  0.00    -0.203 F 
ATOM     79  F   UNL A   1      41.068  37.219  38.201  1.00  0.00    -0.200 F 
ATOM     80  C   UNL A   1      39.569  35.726  39.251  1.00  0.00     0.200 A 
ATOM     81  F   UNL A   1      38.085  34.194  40.263  1.00  0.00    -0.200 F 
ATOM     82  F   UNL A   1      39.491  36.532  40.319  1.00  0.00    -0.200 F 
ENDBRANCH  48  72
BRANCH  60  83
ATOM     83  C   UNL A   1      43.960  28.760  35.268  1.00  0.00     0.064 A 
ATOM     84  C   UNL A   1      43.791  27.679  36.145  1.00  0.00     0.173 A 
ATOM     85  C   UNL A   1      45.265  29.208  35.017  1.00  0.00     0.173 A 
ATOM     86  F   UNL A   1      42.560  27.224  36.426  1.00  0.00    -0.203 F 
ATOM     87  C   UNL A   1      44.887  27.083  36.763  1.00  0.00     0.198 A 
ATOM     88  C   UNL A   1      46.360  28.591  35.615  1.00  0.00     0.198 A 
ATOM     89  F   UNL A   1      45.479  30.234  34.179  1.00  0.00    -0.203 F 
ATOM     90  F   UNL A   1      44.699  26.078  37.629  1.00  0.00    -0.200 F 
ATOM     91  C   UNL A   1      46.170  27.534  36.491  1.00  0.00     0.200 A 
ATOM     92  F   UNL A   1      47.601  29.019  35.342  1.00  0.00    -0.200 F 
ATOM     93  F   UNL A   1      47.223  26.953  37.081  1.00  0.00    -0.200 F 
ENDBRANCH  60  83
ENDBRANCH  34  35
ENDBRANCH  26  29
ENDBRANCH  24  25
ENDBRANCH  23  24
ENDBRANCH   1  23
TORSDOF 15
ENDMDL
MODEL 3
REMARK VINA RESULT:     -11.8      5.872     11.213
REMARK SMILES C[C@@H]1CC[C@H]([N@@H+](CC(=O)NCCCCNC(=O)c2ccc(-c3c4nc(c(-c5c(F)c(F)c(F)c(F)c5F)c5ccc([nH]5)c(-c5c(F)c(F)c(F)c(F)c5F)c5nc(c(-c6c(F)c(F)c(F)c(F)c6F)c6ccc3[nH]6)C=C5)C=C4)cc2)CC(F)(F)F)C[C@@H]1C
REMARK SMILES IDX 12 1 11 2 10 3 8 4 9 5 7 7 6 8 5 10 1 11 2 12 3 13 87 14
REMARK SMILES IDX 4 15 86 16 88 17 81 18 82 19 83 20 84 21 85 22 13 23 14 24
REMARK SMILES IDX 15 25 16 26 17 28 18 29 19 30 80 31 20 32 79 33 21 34 22 35
REMARK SMILES IDX 23 36 73 37 24 38 78 39 72 40 74 41 25 42 77 43 71 44 70 45
REMARK SMILES IDX 26 47 58 48 38 49 57 50 39 51 42 52 56 53 75 54 40 55 41 56
REMARK SMILES IDX 55 58 76 59 43 60 27 61 28 62 36 63 29 64 30 65 34 66 37 67
REMARK SMILES IDX 31 68 32 69 35 70 33 71 59 72 60 73 68 74 61 75 62 76 66 77
REMARK SMILES IDX 69 78 63 79 64 80 67 81 65 82 44 83 45 84 53 85 46 86 47 87
REMARK SMILES IDX 51 88 54 89 48 90 49 91 52 92 50 93
REMARK H PARENT 10 6 6 9 15 27 74 46 42 57
REMARK Flexibility Score: inf
ROOT
ATOM      1  C   UNL A   1      36.672  20.472  24.937  1.00  0.00     0.023 C 
ENDROOT
BRANCH   1   2
ATOM      2  C   UNL A   1      36.765  21.782  25.738  1.00  0.00     0.116 C 
BRANCH   2   3
ATOM      3  N   UNL A   1      35.560  22.154  26.469  1.00  0.00    -0.351 N 
ATOM      4  C   UNL A   1      34.781  23.277  26.460  1.00  0.00     0.275 C 
ATOM      5  O   UNL A   1      33.697  23.195  27.042  1.00  0.00    -0.269 OA
ATOM      6  H   UNL A   1      35.246  21.460  27.092  1.00  0.00     0.163 HD
BRANCH   4   7
ATOM      7  C   UNL A   1      35.244  24.591  25.807  1.00  0.00     0.364 C 
BRANCH   7   8
ATOM      8  N   UNL A   1      34.484  24.997  24.595  1.00  0.00    -0.317 N 
ATOM      9  H   UNL A   1      35.157  24.941  23.832  1.00  0.00     0.349 HD
BRANCH   8  10
ATOM     10  C   UNL A   1      34.140  26.414  24.549  1.00  0.00     0.184 C 
ATOM     11  C   UNL A   1      31.407  29.200  24.909  1.00  0.00     0.008 C 
ATOM     12  C   UNL A   1      32.901  29.124  24.605  1.00  0.00    -0.011 C 
ATOM     13  C   UNL A   1      33.159  28.362  23.280  1.00  0.00     0.010 C 
ATOM     14  C   UNL A   1      33.730  28.534  25.763  1.00  0.00    -0.006 C 
ATOM     15  C   UNL A   1      33.199  26.824  23.403  1.00  0.00     0.065 C 
ATOM     16  C   UNL A   1      33.597  27.017  25.847  1.00  0.00     0.068 C 
ATOM     17  C   UNL A   1      33.529  29.178  27.130  1.00  0.00     0.008 C 
ENDBRANCH   8  10
BRANCH   8  18
ATOM     18  C   UNL A   1      33.513  24.010  24.075  1.00  0.00     0.379 C 
BRANCH  18  19
ATOM     19  C   UNL A   1      33.852  22.815  23.149  1.00  0.00     0.438 C 
ATOM     20  F   UNL A   1      33.149  22.825  21.999  1.00  0.00    -0.165 F 
ATOM     21  F   UNL A   1      35.163  22.888  22.793  1.00  0.00    -0.165 F 
ATOM     22  F   UNL A   1      33.682  21.625  23.750  1.00  0.00    -0.165 F 
ENDBRANCH  18  19
ENDBRANCH   8  18
ENDBRANCH   7   8
ENDBRANCH   4   7
ENDBRANCH   2   3
ENDBRANCH   1   2
BRANCH   1  23
ATOM     23  C   UNL A   1      37.956  19.640  24.875  1.00  0.00     0.023 C 
BRANCH  23  24
ATOM     24  C   UNL A   1      39.121  20.188  25.677  1.00  0.00     0.116 C 
BRANCH  24  25
ATOM     25  N   UNL A   1      40.134  19.171  25.913  1.00  0.00    -0.352 N 
ATOM     26  C   UNL A   1      41.493  19.277  26.095  1.00  0.00     0.251 C 
ATOM     27  H   UNL A   1      39.786  18.251  25.949  1.00  0.00     0.163 HD
ATOM     28  O   UNL A   1      42.177  18.258  26.027  1.00  0.00    -0.269 OA
BRANCH  26  29
ATOM     29  C   UNL A   1      42.159  20.577  26.377  1.00  0.00     0.039 A 
ATOM     30  C   UNL A   1      42.264  21.007  27.708  1.00  0.00     0.014 A 
ATOM     31  C   UNL A   1      42.587  21.429  25.358  1.00  0.00     0.014 A 
ATOM     32  C   UNL A   1      42.795  22.269  28.006  1.00  0.00     0.010 A 
ATOM     33  C   UNL A   1      43.225  22.631  25.659  1.00  0.00     0.010 A 
ATOM     34  C   UNL A   1      43.284  23.092  26.981  1.00  0.00    -0.014 A 
BRANCH  34  35
ATOM     35  C   UNL A   1      43.743  24.483  27.240  1.00  0.00     0.031 A 
ATOM     36  C   UNL A   1      42.746  25.516  27.705  1.00  0.00     0.074 A 
ATOM     37  C   UNL A   1      45.022  24.837  27.015  1.00  0.00     0.049 A 
ATOM     38  N   UNL A   1      42.901  26.804  27.889  1.00  0.00    -0.248 NA
ATOM     39  C   UNL A   1      41.374  25.043  27.958  1.00  0.00     0.031 C 
ATOM     40  C   UNL A   1      46.073  23.945  26.524  1.00  0.00     0.029 A 
ATOM     41  N   UNL A   1      45.652  26.047  27.160  1.00  0.00    -0.354 N 
ATOM     42  C   UNL A   1      41.646  27.290  28.235  1.00  0.00     0.074 A 
ATOM     43  C   UNL A   1      40.728  26.176  28.177  1.00  0.00     0.031 C 
ATOM     44  C   UNL A   1      47.224  24.633  26.434  1.00  0.00     0.029 A 
ATOM     45  C   UNL A   1      46.984  26.018  26.827  1.00  0.00     0.049 A 
ATOM     46  H   UNL A   1      45.193  26.859  27.473  1.00  0.00     0.167 HD
ATOM     47  C   UNL A   1      41.293  28.546  28.601  1.00  0.00     0.037 A 
ATOM     48  C   UNL A   1      47.905  27.002  26.837  1.00  0.00     0.037 A 
ATOM     49  C   UNL A   1      42.221  29.636  28.721  1.00  0.00     0.049 A 
ATOM     50  C   UNL A   1      47.498  28.382  27.281  1.00  0.00     0.074 A 
ATOM     51  C   UNL A   1      41.987  30.927  29.161  1.00  0.00     0.029 A 
ATOM     52  N   UNL A   1      43.571  29.557  28.410  1.00  0.00    -0.354 N 
ATOM     53  N   UNL A   1      46.322  28.817  27.663  1.00  0.00    -0.248 NA
ATOM     54  C   UNL A   1      48.552  29.407  27.303  1.00  0.00     0.031 C 
ATOM     55  C   UNL A   1      43.189  31.639  29.081  1.00  0.00     0.029 A 
ATOM     56  C   UNL A   1      44.180  30.780  28.632  1.00  0.00     0.049 A 
ATOM     57  H   UNL A   1      44.028  28.750  28.079  1.00  0.00     0.167 HD
ATOM     58  C   UNL A   1      46.496  30.154  27.990  1.00  0.00     0.074 A 
ATOM     59  C   UNL A   1      47.897  30.456  27.780  1.00  0.00     0.031 C 
ATOM     60  C   UNL A   1      45.578  31.054  28.422  1.00  0.00     0.037 A 
BRANCH  47  61
ATOM     61  C   UNL A   1      39.845  28.799  28.910  1.00  0.00     0.064 A 
ATOM     62  C   UNL A   1      39.316  28.597  30.195  1.00  0.00     0.173 A 
ATOM     63  C   UNL A   1      38.975  29.266  27.913  1.00  0.00     0.173 A 
ATOM     64  F   UNL A   1      40.101  28.139  31.183  1.00  0.00    -0.203 F 
ATOM     65  C   UNL A   1      37.967  28.815  30.459  1.00  0.00     0.198 A 
ATOM     66  C   UNL A   1      37.633  29.515  28.189  1.00  0.00     0.198 A 
ATOM     67  F   UNL A   1      39.426  29.484  26.668  1.00  0.00    -0.203 F 
ATOM     68  F   UNL A   1      37.475  28.554  31.679  1.00  0.00    -0.200 F 
ATOM     69  C   UNL A   1      37.128  29.278  29.459  1.00  0.00     0.200 A 
ATOM     70  F   UNL A   1      36.825  29.976  27.224  1.00  0.00    -0.200 F 
ATOM     71  F   UNL A   1      35.829  29.489  29.716  1.00  0.00    -0.200 F 
ENDBRANCH  47  61
BRANCH  48  72
ATOM     72  C   UNL A   1      49.309  26.705  26.452  1.00  0.00     0.064 A 
ATOM     73  C   UNL A   1      49.743  26.881  25.130  1.00  0.00     0.173 A 
ATOM     74  C   UNL A   1      50.246  26.248  27.390  1.00  0.00     0.173 A 
ATOM     75  F   UNL A   1      48.878  27.296  24.193  1.00  0.00    -0.203 F 
ATOM     76  C   UNL A   1      51.055  26.599  24.758  1.00  0.00     0.198 A 
ATOM     77  C   UNL A   1      51.565  25.990  27.022  1.00  0.00     0.198 A 
ATOM     78  F   UNL A   1      49.883  26.065  28.667  1.00  0.00    -0.203 F 
ATOM     79  F   UNL A   1      51.432  26.740  23.480  1.00  0.00    -0.200 F 
ATOM     80  C   UNL A   1      51.967  26.161  25.706  1.00  0.00     0.200 A 
ATOM     81  F   UNL A   1      52.448  25.579  27.943  1.00  0.00    -0.200 F 
ATOM     82  F   UNL A   1      53.231  25.896  25.349  1.00  0.00    -0.200 F 
ENDBRANCH  48  72
BRANCH  60  83
ATOM     83  C   UNL A   1      46.065  32.441  28.721  1.00  0.00     0.064 A 
ATOM     84  C   UNL A   1      46.054  33.447  27.745  1.00  0.00     0.173 A 
ATOM     85  C   UNL A   1      46.502  32.778  30.011  1.00  0.00     0.173 A 
ATOM     86  F   UNL A   1      45.657  33.169  26.494  1.00  0.00    -0.203 F 
ATOM     87  C   UNL A   1      46.484  34.737  28.044  1.00  0.00     0.198 A 
ATOM     88  C   UNL A   1      46.905  34.075  30.314  1.00  0.00     0.198 A 
ATOM     89  F   UNL A   1      46.523  31.852  30.982  1.00  0.00    -0.203 F 
ATOM     90  F   UNL A   1      46.505  35.673  27.085  1.00  0.00    -0.200 F 
ATOM     91  C   UNL A   1      46.902  35.051  29.329  1.00  0.00     0.200 A 
ATOM     92  F   UNL A   1      47.295  34.382  31.558  1.00  0.00    -0.200 F 
ATOM     93  F   UNL A   1      47.307  36.296  29.616  1.00  0.00    -0.200 F 
ENDBRANCH  60  83
ENDBRANCH  34  35
ENDBRANCH  26  29
ENDBRANCH  24  25
ENDBRANCH  23  24
ENDBRANCH   1  23
TORSDOF 15
ENDMDL
