MODEL 1
REMARK VINA RESULT:     -12.2      0.000      0.000
REMARK SMILES CC(C)C[C@H](NS(=O)(=O)N1C[C@@H](C)C[C@H](C)C1)C(=O)NCCCCNC(=O)c1ccc(-c2c3nc(c(-c4c(F)c(F)c(F)c(F)c4F)c4ccc([nH]4)c(-c4c(F)c(F)c(F)c(F)c4F)c4nc(c(-c5c(F)c(F)c(F)c(F)c5F)c5ccc2[nH]5)C=C4)C=C3)cc1
REMARK SMILES IDX 22 1 21 2 20 3 18 4 19 5 5 7 4 8 2 9 1 10 3 11 6 12 7 14
REMARK SMILES IDX 8 15 9 16 10 17 11 18 17 19 12 20 15 21 13 22 14 23 16 24
REMARK SMILES IDX 23 25 24 26 25 27 26 28 27 30 28 31 29 32 90 33 30 34 89 35
REMARK SMILES IDX 31 36 32 37 33 38 83 39 34 40 88 41 82 42 84 43 35 44 87 45
REMARK SMILES IDX 81 46 80 47 36 49 68 50 48 51 67 52 49 53 52 54 66 55 85 56
REMARK SMILES IDX 50 57 51 58 65 60 86 61 53 62 37 63 38 64 46 65 39 66 40 67
REMARK SMILES IDX 44 68 47 69 41 70 42 71 45 72 43 73 69 74 70 75 78 76 71 77
REMARK SMILES IDX 72 78 76 79 79 80 73 81 74 82 77 83 75 84 54 85 55 86 63 87
REMARK SMILES IDX 56 88 57 89 61 90 64 91 58 92 59 93 62 94 60 95
REMARK H PARENT 20 6 6 13 25 29 84 48 52 59
REMARK Flexibility Score: inf
ROOT
ATOM      1  C   UNL A   1      31.991  30.599  26.636  1.00  0.00     0.023 C 
ENDROOT
BRANCH   1   2
ATOM      2  C   UNL A   1      31.410  30.048  25.346  1.00  0.00     0.116 C 
BRANCH   2   3
ATOM      3  N   UNL A   1      32.393  29.615  24.384  1.00  0.00    -0.355 N 
ATOM      4  C   UNL A   1      32.230  28.812  23.293  1.00  0.00     0.238 C 
ATOM      5  O   UNL A   1      33.189  28.746  22.514  1.00  0.00    -0.273 OA
ATOM      6  H   UNL A   1      33.308  29.944  24.536  1.00  0.00     0.163 HD
BRANCH   4   7
ATOM      7  C   UNL A   1      30.942  28.018  23.006  1.00  0.00     0.160 C 
BRANCH   7   8
ATOM      8  C   UNL A   1      29.831  28.813  22.314  1.00  0.00     0.033 C 
BRANCH   8   9
ATOM      9  C   UNL A   1      28.765  29.527  23.174  1.00  0.00    -0.015 C 
ATOM     10  C   UNL A   1      28.748  31.032  22.896  1.00  0.00     0.007 C 
ATOM     11  C   UNL A   1      27.361  28.963  22.935  1.00  0.00     0.007 C 
ENDBRANCH   8   9
ENDBRANCH   7   8
BRANCH   7  12
ATOM     12  N   UNL A   1      30.598  27.011  24.026  1.00  0.00    -0.190 NA
ATOM     13  H   UNL A   1      29.855  26.466  23.587  1.00  0.00     0.143 HD
BRANCH  12  14
ATOM     14  S   UNL A   1      31.511  25.878  24.794  1.00  0.00     0.280 S 
ATOM     15  O   UNL A   1      32.171  26.657  25.819  1.00  0.00    -0.195 OA
ATOM     16  O   UNL A   1      30.707  24.735  25.131  1.00  0.00    -0.195 OA
BRANCH  14  17
ATOM     17  N   UNL A   1      32.647  25.434  23.641  1.00  0.00    -0.188 NA
ATOM     18  C   UNL A   1      34.080  25.422  24.039  1.00  0.00     0.106 C 
ATOM     19  C   UNL A   1      32.331  24.283  22.765  1.00  0.00     0.106 C 
ATOM     20  C   UNL A   1      34.507  24.097  24.701  1.00  0.00     0.001 C 
ATOM     21  C   UNL A   1      32.585  22.954  23.484  1.00  0.00     0.001 C 
ATOM     22  C   UNL A   1      34.048  23.982  26.158  1.00  0.00     0.009 C 
ATOM     23  C   UNL A   1      34.062  22.873  23.876  1.00  0.00     0.009 C 
ATOM     24  C   UNL A   1      32.145  21.769  22.619  1.00  0.00     0.009 C 
ENDBRANCH  14  17
ENDBRANCH  12  14
ENDBRANCH   7  12
ENDBRANCH   4   7
ENDBRANCH   2   3
ENDBRANCH   1   2
BRANCH   1  25
ATOM     25  C   UNL A   1      31.666  32.065  26.894  1.00  0.00     0.023 C 
BRANCH  25  26
ATOM     26  C   UNL A   1      32.857  32.931  27.289  1.00  0.00     0.116 C 
BRANCH  26  27
ATOM     27  N   UNL A   1      32.490  34.280  27.698  1.00  0.00    -0.352 N 
ATOM     28  C   UNL A   1      33.029  35.047  28.706  1.00  0.00     0.251 C 
ATOM     29  H   UNL A   1      31.761  34.699  27.185  1.00  0.00     0.163 HD
ATOM     30  O   UNL A   1      32.539  36.127  29.009  1.00  0.00    -0.269 OA
BRANCH  28  31
ATOM     31  C   UNL A   1      34.192  34.526  29.451  1.00  0.00     0.039 A 
ATOM     32  C   UNL A   1      33.977  33.841  30.648  1.00  0.00     0.014 A 
ATOM     33  C   UNL A   1      35.482  34.653  28.928  1.00  0.00     0.014 A 
ATOM     34  C   UNL A   1      35.050  33.210  31.279  1.00  0.00     0.010 A 
ATOM     35  C   UNL A   1      36.529  33.948  29.507  1.00  0.00     0.010 A 
ATOM     36  C   UNL A   1      36.326  33.218  30.689  1.00  0.00    -0.014 A 
BRANCH  36  37
ATOM     37  C   UNL A   1      37.457  32.466  31.289  1.00  0.00     0.031 A 
ATOM     38  C   UNL A   1      37.965  32.835  32.655  1.00  0.00     0.074 A 
ATOM     39  C   UNL A   1      38.069  31.498  30.579  1.00  0.00     0.049 A 
ATOM     40  N   UNL A   1      38.978  32.341  33.323  1.00  0.00    -0.248 NA
ATOM     41  C   UNL A   1      37.260  33.922  33.351  1.00  0.00     0.031 C 
ATOM     42  C   UNL A   1      37.703  31.081  29.224  1.00  0.00     0.029 A 
ATOM     43  N   UNL A   1      39.135  30.691  30.895  1.00  0.00    -0.354 N 
ATOM     44  C   UNL A   1      39.037  33.067  34.506  1.00  0.00     0.074 A 
ATOM     45  C   UNL A   1      38.000  34.073  34.440  1.00  0.00     0.031 C 
ATOM     46  C   UNL A   1      38.508  30.078  28.838  1.00  0.00     0.029 A 
ATOM     47  C   UNL A   1      39.475  29.811  29.898  1.00  0.00     0.049 A 
ATOM     48  H   UNL A   1      39.610  30.739  31.756  1.00  0.00     0.167 HD
ATOM     49  C   UNL A   1      39.864  32.892  35.564  1.00  0.00     0.037 A 
ATOM     50  C   UNL A   1      40.463  28.896  29.842  1.00  0.00     0.037 A 
ATOM     51  C   UNL A   1      40.880  31.875  35.635  1.00  0.00     0.049 A 
ATOM     52  C   UNL A   1      41.381  28.735  31.024  1.00  0.00     0.074 A 
ATOM     53  C   UNL A   1      41.727  31.574  36.687  1.00  0.00     0.029 A 
ATOM     54  N   UNL A   1      41.192  30.996  34.607  1.00  0.00    -0.354 N 
ATOM     55  N   UNL A   1      41.377  29.373  32.170  1.00  0.00    -0.248 NA
ATOM     56  C   UNL A   1      42.439  27.722  30.908  1.00  0.00     0.031 C 
ATOM     57  C   UNL A   1      42.591  30.555  36.275  1.00  0.00     0.029 A 
ATOM     58  C   UNL A   1      42.239  30.174  34.990  1.00  0.00     0.049 A 
ATOM     59  H   UNL A   1      40.735  30.962  33.735  1.00  0.00     0.167 HD
ATOM     60  C   UNL A   1      42.405  28.817  32.920  1.00  0.00     0.074 A 
ATOM     61  C   UNL A   1      43.001  27.778  32.106  1.00  0.00     0.031 C 
ATOM     62  C   UNL A   1      42.817  29.137  34.173  1.00  0.00     0.037 A 
BRANCH  49  63
ATOM     63  C   UNL A   1      39.707  33.822  36.732  1.00  0.00     0.064 A 
ATOM     64  C   UNL A   1      38.893  33.500  37.830  1.00  0.00     0.173 A 
ATOM     65  C   UNL A   1      40.408  35.037  36.774  1.00  0.00     0.173 A 
ATOM     66  F   UNL A   1      38.190  32.357  37.837  1.00  0.00    -0.203 F 
ATOM     67  C   UNL A   1      38.763  34.371  38.908  1.00  0.00     0.198 A 
ATOM     68  C   UNL A   1      40.304  35.890  37.869  1.00  0.00     0.198 A 
ATOM     69  F   UNL A   1      41.205  35.394  35.755  1.00  0.00    -0.203 F 
ATOM     70  F   UNL A   1      37.937  34.066  39.918  1.00  0.00    -0.200 F 
ATOM     71  C   UNL A   1      39.474  35.561  38.931  1.00  0.00     0.200 A 
ATOM     72  F   UNL A   1      41.005  37.032  37.897  1.00  0.00    -0.200 F 
ATOM     73  F   UNL A   1      39.357  36.394  39.974  1.00  0.00    -0.200 F 
ENDBRANCH  49  63
BRANCH  50  74
ATOM     74  C   UNL A   1      40.626  28.043  28.633  1.00  0.00     0.064 A 
ATOM     75  C   UNL A   1      41.420  28.463  27.557  1.00  0.00     0.173 A 
ATOM     76  C   UNL A   1      39.979  26.803  28.520  1.00  0.00     0.173 A 
ATOM     77  F   UNL A   1      42.043  29.650  27.607  1.00  0.00    -0.203 F 
ATOM     78  C   UNL A   1      41.539  27.690  26.404  1.00  0.00     0.198 A 
ATOM     79  C   UNL A   1      40.126  26.017  27.379  1.00  0.00     0.198 A 
ATOM     80  F   UNL A   1      39.211  26.352  29.521  1.00  0.00    -0.203 F 
ATOM     81  F   UNL A   1      42.260  28.141  25.369  1.00  0.00    -0.200 F 
ATOM     82  C   UNL A   1      40.897  26.464  26.317  1.00  0.00     0.200 A 
ATOM     83  F   UNL A   1      39.515  24.825  27.307  1.00  0.00    -0.200 F 
ATOM     84  F   UNL A   1      41.012  25.721  25.209  1.00  0.00    -0.200 F 
ENDBRANCH  50  74
BRANCH  62  85
ATOM     85  C   UNL A   1      43.938  28.328  34.759  1.00  0.00     0.064 A 
ATOM     86  C   UNL A   1      45.278  28.727  34.647  1.00  0.00     0.173 A 
ATOM     87  C   UNL A   1      43.661  27.155  35.480  1.00  0.00     0.173 A 
ATOM     88  F   UNL A   1      45.598  29.831  33.956  1.00  0.00    -0.203 F 
ATOM     89  C   UNL A   1      46.301  27.967  35.210  1.00  0.00     0.198 A 
ATOM     90  C   UNL A   1      44.682  26.417  36.071  1.00  0.00     0.198 A 
ATOM     91  F   UNL A   1      42.396  26.731  35.625  1.00  0.00    -0.203 F 
ATOM     92  F   UNL A   1      47.577  28.338  35.043  1.00  0.00    -0.200 F 
ATOM     93  C   UNL A   1      46.002  26.818  35.927  1.00  0.00     0.200 A 
ATOM     94  F   UNL A   1      44.390  25.318  36.780  1.00  0.00    -0.200 F 
ATOM     95  F   UNL A   1      46.987  26.094  36.476  1.00  0.00    -0.200 F 
ENDBRANCH  62  85
ENDBRANCH  36  37
ENDBRANCH  28  31
ENDBRANCH  26  27
ENDBRANCH  25  26
ENDBRANCH   1  25
TORSDOF 16
ENDMDL
MODEL 2
REMARK VINA RESULT:     -12.2      0.943      7.290
REMARK SMILES CC(C)C[C@H](NS(=O)(=O)N1C[C@@H](C)C[C@H](C)C1)C(=O)NCCCCNC(=O)c1ccc(-c2c3nc(c(-c4c(F)c(F)c(F)c(F)c4F)c4ccc([nH]4)c(-c4c(F)c(F)c(F)c(F)c4F)c4nc(c(-c5c(F)c(F)c(F)c(F)c5F)c5ccc2[nH]5)C=C4)C=C3)cc1
REMARK SMILES IDX 22 1 21 2 20 3 18 4 19 5 5 7 4 8 2 9 1 10 3 11 6 12 7 14
REMARK SMILES IDX 8 15 9 16 10 17 11 18 17 19 12 20 15 21 13 22 14 23 16 24
REMARK SMILES IDX 23 25 24 26 25 27 26 28 27 30 28 31 29 32 90 33 30 34 89 35
REMARK SMILES IDX 31 36 32 37 33 38 83 39 34 40 88 41 82 42 84 43 35 44 87 45
REMARK SMILES IDX 81 46 80 47 36 49 68 50 48 51 67 52 49 53 52 54 66 55 85 56
REMARK SMILES IDX 50 57 51 58 65 60 86 61 53 62 37 63 38 64 46 65 39 66 40 67
REMARK SMILES IDX 44 68 47 69 41 70 42 71 45 72 43 73 69 74 70 75 78 76 71 77
REMARK SMILES IDX 72 78 76 79 79 80 73 81 74 82 77 83 75 84 54 85 55 86 63 87
REMARK SMILES IDX 56 88 57 89 61 90 64 91 58 92 59 93 62 94 60 95
REMARK H PARENT 20 6 6 13 25 29 84 48 52 59
REMARK Flexibility Score: inf
ROOT
ATOM      1  C   UNL A   1      32.097  30.411  26.633  1.00  0.00     0.023 C 
ENDROOT
BRANCH   1   2
ATOM      2  C   UNL A   1      31.528  29.811  25.360  1.00  0.00     0.116 C 
BRANCH   2   3
ATOM      3  N   UNL A   1      32.516  29.449  24.375  1.00  0.00    -0.355 N 
ATOM      4  C   UNL A   1      32.331  28.958  23.115  1.00  0.00     0.238 C 
ATOM      5  O   UNL A   1      33.336  28.909  22.394  1.00  0.00    -0.273 OA
ATOM      6  H   UNL A   1      33.453  29.572  24.650  1.00  0.00     0.163 HD
BRANCH   4   7
ATOM      7  C   UNL A   1      30.968  28.485  22.578  1.00  0.00     0.160 C 
BRANCH   7   8
ATOM      8  C   UNL A   1      29.999  29.606  22.190  1.00  0.00     0.033 C 
BRANCH   8   9
ATOM      9  C   UNL A   1      28.879  30.011  23.173  1.00  0.00    -0.015 C 
ATOM     10  C   UNL A   1      28.755  31.533  23.274  1.00  0.00     0.007 C 
ATOM     11  C   UNL A   1      27.521  29.430  22.769  1.00  0.00     0.007 C 
ENDBRANCH   8   9
ENDBRANCH   7   8
BRANCH   7  12
ATOM     12  N   UNL A   1      30.452  27.253  23.202  1.00  0.00    -0.190 NA
ATOM     13  H   UNL A   1      29.663  26.993  22.610  1.00  0.00     0.143 HD
BRANCH  12  14
ATOM     14  S   UNL A   1      31.175  25.815  23.542  1.00  0.00     0.280 S 
ATOM     15  O   UNL A   1      30.043  24.924  23.676  1.00  0.00    -0.195 OA
ATOM     16  O   UNL A   1      32.223  25.549  22.595  1.00  0.00    -0.195 OA
BRANCH  14  17
ATOM     17  N   UNL A   1      31.851  26.057  25.059  1.00  0.00    -0.188 NA
ATOM     18  C   UNL A   1      31.189  25.423  26.229  1.00  0.00     0.106 C 
ATOM     19  C   UNL A   1      33.325  25.984  25.180  1.00  0.00     0.106 C 
ATOM     20  C   UNL A   1      31.647  23.969  26.462  1.00  0.00     0.001 C 
ATOM     21  C   UNL A   1      33.805  24.530  25.232  1.00  0.00     0.001 C 
ATOM     22  C   UNL A   1      30.999  22.977  25.492  1.00  0.00     0.009 C 
ATOM     23  C   UNL A   1      33.183  23.842  26.450  1.00  0.00     0.009 C 
ATOM     24  C   UNL A   1      35.334  24.455  25.237  1.00  0.00     0.009 C 
ENDBRANCH  14  17
ENDBRANCH  12  14
ENDBRANCH   7  12
ENDBRANCH   4   7
ENDBRANCH   2   3
ENDBRANCH   1   2
BRANCH   1  25
ATOM     25  C   UNL A   1      31.738  31.875  26.852  1.00  0.00     0.023 C 
BRANCH  25  26
ATOM     26  C   UNL A   1      32.867  32.743  27.397  1.00  0.00     0.116 C 
BRANCH  26  27
ATOM     27  N   UNL A   1      32.467  34.117  27.674  1.00  0.00    -0.352 N 
ATOM     28  C   UNL A   1      32.982  34.988  28.607  1.00  0.00     0.251 C 
ATOM     29  H   UNL A   1      31.733  34.468  27.119  1.00  0.00     0.163 HD
ATOM     30  O   UNL A   1      32.465  36.081  28.803  1.00  0.00    -0.269 OA
BRANCH  28  31
ATOM     31  C   UNL A   1      34.150  34.566  29.405  1.00  0.00     0.039 A 
ATOM     32  C   UNL A   1      33.946  34.066  30.692  1.00  0.00     0.014 A 
ATOM     33  C   UNL A   1      35.433  34.599  28.851  1.00  0.00     0.014 A 
ATOM     34  C   UNL A   1      35.021  33.520  31.394  1.00  0.00     0.010 A 
ATOM     35  C   UNL A   1      36.481  33.972  29.513  1.00  0.00     0.010 A 
ATOM     36  C   UNL A   1      36.288  33.426  30.792  1.00  0.00    -0.014 A 
BRANCH  36  37
ATOM     37  C   UNL A   1      37.420  32.755  31.480  1.00  0.00     0.031 A 
ATOM     38  C   UNL A   1      38.114  31.591  30.827  1.00  0.00     0.074 A 
ATOM     39  C   UNL A   1      37.781  33.150  32.716  1.00  0.00     0.049 A 
ATOM     40  N   UNL A   1      39.079  30.837  31.290  1.00  0.00    -0.248 NA
ATOM     41  C   UNL A   1      37.640  31.205  29.489  1.00  0.00     0.031 C 
ATOM     42  C   UNL A   1      37.154  34.234  33.477  1.00  0.00     0.029 A 
ATOM     43  N   UNL A   1      38.760  32.681  33.557  1.00  0.00    -0.354 N 
ATOM     44  C   UNL A   1      39.314  29.883  30.308  1.00  0.00     0.074 A 
ATOM     45  C   UNL A   1      38.353  30.114  29.252  1.00  0.00     0.031 C 
ATOM     46  C   UNL A   1      37.782  34.365  34.656  1.00  0.00     0.029 A 
ATOM     47  C   UNL A   1      38.825  33.349  34.756  1.00  0.00     0.049 A 
ATOM     48  H   UNL A   1      39.359  31.935  33.324  1.00  0.00     0.167 HD
ATOM     49  C   UNL A   1      40.264  28.918  30.278  1.00  0.00     0.037 A 
ATOM     50  C   UNL A   1      39.631  33.158  35.819  1.00  0.00     0.037 A 
ATOM     51  C   UNL A   1      41.233  28.706  31.321  1.00  0.00     0.049 A 
ATOM     52  C   UNL A   1      40.666  32.066  35.766  1.00  0.00     0.074 A 
ATOM     53  C   UNL A   1      42.276  27.798  31.357  1.00  0.00     0.029 A 
ATOM     54  N   UNL A   1      41.272  29.408  32.518  1.00  0.00    -0.354 N 
ATOM     55  N   UNL A   1      40.932  31.221  34.800  1.00  0.00    -0.248 NA
ATOM     56  C   UNL A   1      41.517  31.904  36.953  1.00  0.00     0.031 C 
ATOM     57  C   UNL A   1      42.908  27.908  32.600  1.00  0.00     0.029 A 
ATOM     58  C   UNL A   1      42.303  28.931  33.311  1.00  0.00     0.049 A 
ATOM     59  H   UNL A   1      40.659  30.138  32.766  1.00  0.00     0.167 HD
ATOM     60  C   UNL A   1      42.000  30.453  35.246  1.00  0.00     0.074 A 
ATOM     61  C   UNL A   1      42.343  30.943  36.565  1.00  0.00     0.031 C 
ATOM     62  C   UNL A   1      42.640  29.435  34.619  1.00  0.00     0.037 A 
BRANCH  49  63
ATOM     63  C   UNL A   1      40.303  28.016  29.078  1.00  0.00     0.064 A 
ATOM     64  C   UNL A   1      39.579  26.813  29.034  1.00  0.00     0.173 A 
ATOM     65  C   UNL A   1      41.044  28.374  27.942  1.00  0.00     0.173 A 
ATOM     66  F   UNL A   1      38.863  26.417  30.097  1.00  0.00    -0.203 F 
ATOM     67  C   UNL A   1      39.621  25.991  27.911  1.00  0.00     0.198 A 
ATOM     68  C   UNL A   1      41.056  27.567  26.808  1.00  0.00     0.198 A 
ATOM     69  F   UNL A   1      41.750  29.515  27.927  1.00  0.00    -0.203 F 
ATOM     70  F   UNL A   1      38.966  24.822  27.914  1.00  0.00    -0.200 F 
ATOM     71  C   UNL A   1      40.352  26.372  26.797  1.00  0.00     0.200 A 
ATOM     72  F   UNL A   1      41.750  27.945  25.725  1.00  0.00    -0.200 F 
ATOM     73  F   UNL A   1      40.383  25.585  25.712  1.00  0.00    -0.200 F 
ENDBRANCH  49  63
BRANCH  50  74
ATOM     74  C   UNL A   1      39.509  34.032  37.017  1.00  0.00     0.064 A 
ATOM     75  C   UNL A   1      40.153  35.276  37.070  1.00  0.00     0.173 A 
ATOM     76  C   UNL A   1      38.763  33.637  38.138  1.00  0.00     0.173 A 
ATOM     77  F   UNL A   1      40.896  35.689  36.032  1.00  0.00    -0.203 F 
ATOM     78  C   UNL A   1      40.081  36.078  38.207  1.00  0.00     0.198 A 
ATOM     79  C   UNL A   1      38.665  34.456  39.261  1.00  0.00     0.198 A 
ATOM     80  F   UNL A   1      38.122  32.460  38.138  1.00  0.00    -0.203 F 
ATOM     81  F   UNL A   1      40.753  37.236  38.251  1.00  0.00    -0.200 F 
ATOM     82  C   UNL A   1      39.331  35.670  39.300  1.00  0.00     0.200 A 
ATOM     83  F   UNL A   1      37.925  34.064  40.309  1.00  0.00    -0.200 F 
ATOM     84  F   UNL A   1      39.260  36.442  40.393  1.00  0.00    -0.200 F 
ENDBRANCH  50  74
BRANCH  62  85
ATOM     85  C   UNL A   1      43.804  28.808  35.331  1.00  0.00     0.064 A 
ATOM     86  C   UNL A   1      45.121  29.249  35.130  1.00  0.00     0.173 A 
ATOM     87  C   UNL A   1      43.593  27.778  36.262  1.00  0.00     0.173 A 
ATOM     88  F   UNL A   1      45.379  30.220  34.241  1.00  0.00    -0.203 F 
ATOM     89  C   UNL A   1      46.184  28.662  35.811  1.00  0.00     0.198 A 
ATOM     90  C   UNL A   1      44.654  27.218  36.967  1.00  0.00     0.198 A 
ATOM     91  F   UNL A   1      42.353  27.324  36.499  1.00  0.00    -0.203 F 
ATOM     92  F   UNL A   1      47.438  29.062  35.562  1.00  0.00    -0.200 F 
ATOM     93  C   UNL A   1      45.950  27.653  36.734  1.00  0.00     0.200 A 
ATOM     94  F   UNL A   1      44.423  26.257  37.872  1.00  0.00    -0.200 F 
ATOM     95  F   UNL A   1      46.974  27.097  37.396  1.00  0.00    -0.200 F 
ENDBRANCH  62  85
ENDBRANCH  36  37
ENDBRANCH  28  31
ENDBRANCH  26  27
ENDBRANCH  25  26
ENDBRANCH   1  25
TORSDOF 16
ENDMDL
MODEL 3
REMARK VINA RESULT:     -12.2      0.931      7.459
REMARK SMILES CC(C)C[C@H](NS(=O)(=O)N1C[C@@H](C)C[C@H](C)C1)C(=O)NCCCCNC(=O)c1ccc(-c2c3nc(c(-c4c(F)c(F)c(F)c(F)c4F)c4ccc([nH]4)c(-c4c(F)c(F)c(F)c(F)c4F)c4nc(c(-c5c(F)c(F)c(F)c(F)c5F)c5ccc2[nH]5)C=C4)C=C3)cc1
REMARK SMILES IDX 22 1 21 2 20 3 18 4 19 5 5 7 4 8 2 9 1 10 3 11 6 12 7 14
REMARK SMILES IDX 8 15 9 16 10 17 11 18 17 19 12 20 15 21 13 22 14 23 16 24
REMARK SMILES IDX 23 25 24 26 25 27 26 28 27 30 28 31 29 32 90 33 30 34 89 35
REMARK SMILES IDX 31 36 32 37 33 38 83 39 34 40 88 41 82 42 84 43 35 44 87 45
REMARK SMILES IDX 81 46 80 47 36 49 68 50 48 51 67 52 49 53 52 54 66 55 85 56
REMARK SMILES IDX 50 57 51 58 65 60 86 61 53 62 37 63 38 64 46 65 39 66 40 67
REMARK SMILES IDX 44 68 47 69 41 70 42 71 45 72 43 73 69 74 70 75 78 76 71 77
REMARK SMILES IDX 72 78 76 79 79 80 73 81 74 82 77 83 75 84 54 85 55 86 63 87
REMARK SMILES IDX 56 88 57 89 61 90 64 91 58 92 59 93 62 94 60 95
REMARK H PARENT 20 6 6 13 25 29 84 48 52 59
REMARK Flexibility Score: inf
ROOT
ATOM      1  C   UNL A   1      32.068  30.318  26.880  1.00  0.00     0.023 C 
ENDROOT
BRANCH   1   2
ATOM      2  C   UNL A   1      31.994  29.632  25.527  1.00  0.00     0.116 C 
BRANCH   2   3
ATOM      3  N   UNL A   1      31.084  28.516  25.470  1.00  0.00    -0.355 N 
ATOM      4  C   UNL A   1      30.709  27.768  24.392  1.00  0.00     0.238 C 
ATOM      5  O   UNL A   1      30.063  26.741  24.636  1.00  0.00    -0.273 OA
ATOM      6  H   UNL A   1      30.675  28.258  26.328  1.00  0.00     0.163 HD
BRANCH   4   7
ATOM      7  C   UNL A   1      31.052  28.142  22.938  1.00  0.00     0.160 C 
BRANCH   7   8
ATOM      8  C   UNL A   1      30.101  29.149  22.285  1.00  0.00     0.033 C 
BRANCH   8   9
ATOM      9  C   UNL A   1      28.962  29.766  23.125  1.00  0.00    -0.015 C 
ATOM     10  C   UNL A   1      28.916  31.287  22.963  1.00  0.00     0.007 C 
ATOM     11  C   UNL A   1      27.593  29.188  22.752  1.00  0.00     0.007 C 
ENDBRANCH   8   9
ENDBRANCH   7   8
BRANCH   7  12
ATOM     12  N   UNL A   1      31.619  27.043  22.135  1.00  0.00    -0.190 NA
ATOM     13  H   UNL A   1      31.811  27.477  21.232  1.00  0.00     0.143 HD
BRANCH  12  14
ATOM     14  S   UNL A   1      32.920  26.067  22.384  1.00  0.00     0.280 S 
ATOM     15  O   UNL A   1      33.737  26.339  21.221  1.00  0.00    -0.195 OA
ATOM     16  O   UNL A   1      33.434  26.252  23.713  1.00  0.00    -0.195 OA
BRANCH  14  17
ATOM     17  N   UNL A   1      32.288  24.518  22.247  1.00  0.00    -0.188 NA
ATOM     18  C   UNL A   1      33.212  23.418  21.865  1.00  0.00     0.106 C 
ATOM     19  C   UNL A   1      31.327  24.069  23.280  1.00  0.00     0.106 C 
ATOM     20  C   UNL A   1      33.952  22.809  23.073  1.00  0.00     0.001 C 
ATOM     21  C   UNL A   1      32.051  23.628  24.556  1.00  0.00     0.001 C 
ATOM     22  C   UNL A   1      35.111  23.681  23.564  1.00  0.00     0.009 C 
ATOM     23  C   UNL A   1      32.985  22.462  24.223  1.00  0.00     0.009 C 
ATOM     24  C   UNL A   1      31.052  23.278  25.661  1.00  0.00     0.009 C 
ENDBRANCH  14  17
ENDBRANCH  12  14
ENDBRANCH   7  12
ENDBRANCH   4   7
ENDBRANCH   2   3
ENDBRANCH   1   2
BRANCH   1  25
ATOM     25  C   UNL A   1      31.799  31.816  26.839  1.00  0.00     0.023 C 
BRANCH  25  26
ATOM     26  C   UNL A   1      32.928  32.691  27.373  1.00  0.00     0.116 C 
BRANCH  26  27
ATOM     27  N   UNL A   1      32.526  34.063  27.649  1.00  0.00    -0.352 N 
ATOM     28  C   UNL A   1      33.030  34.931  28.590  1.00  0.00     0.251 C 
ATOM     29  H   UNL A   1      31.797  34.416  27.087  1.00  0.00     0.163 HD
ATOM     30  O   UNL A   1      32.511  36.024  28.784  1.00  0.00    -0.269 OA
BRANCH  28  31
ATOM     31  C   UNL A   1      34.189  34.508  29.400  1.00  0.00     0.039 A 
ATOM     32  C   UNL A   1      33.966  33.896  30.634  1.00  0.00     0.014 A 
ATOM     33  C   UNL A   1      35.488  34.652  28.903  1.00  0.00     0.014 A 
ATOM     34  C   UNL A   1      35.043  33.351  31.334  1.00  0.00     0.010 A 
ATOM     35  C   UNL A   1      36.544  34.029  29.556  1.00  0.00     0.010 A 
ATOM     36  C   UNL A   1      36.334  33.372  30.779  1.00  0.00    -0.014 A 
BRANCH  36  37
ATOM     37  C   UNL A   1      37.476  32.707  31.457  1.00  0.00     0.031 A 
ATOM     38  C   UNL A   1      38.174  31.550  30.797  1.00  0.00     0.074 A 
ATOM     39  C   UNL A   1      37.842  33.102  32.692  1.00  0.00     0.049 A 
ATOM     40  N   UNL A   1      39.147  30.802  31.252  1.00  0.00    -0.248 NA
ATOM     41  C   UNL A   1      37.694  31.165  29.461  1.00  0.00     0.031 C 
ATOM     42  C   UNL A   1      37.212  34.179  33.460  1.00  0.00     0.029 A 
ATOM     43  N   UNL A   1      38.830  32.637  33.526  1.00  0.00    -0.354 N 
ATOM     44  C   UNL A   1      39.383  29.853  30.266  1.00  0.00     0.074 A 
ATOM     45  C   UNL A   1      38.414  30.080  29.217  1.00  0.00     0.031 C 
ATOM     46  C   UNL A   1      37.847  34.311  34.636  1.00  0.00     0.029 A 
ATOM     47  C   UNL A   1      38.898  33.303  34.726  1.00  0.00     0.049 A 
ATOM     48  H   UNL A   1      39.433  31.897  33.287  1.00  0.00     0.167 HD
ATOM     49  C   UNL A   1      40.340  28.895  30.226  1.00  0.00     0.037 A 
ATOM     50  C   UNL A   1      39.712  33.114  35.783  1.00  0.00     0.037 A 
ATOM     51  C   UNL A   1      41.317  28.687  31.263  1.00  0.00     0.049 A 
ATOM     52  C   UNL A   1      40.754  32.030  35.721  1.00  0.00     0.074 A 
ATOM     53  C   UNL A   1      42.367  27.787  31.290  1.00  0.00     0.029 A 
ATOM     54  N   UNL A   1      41.359  29.386  32.461  1.00  0.00    -0.354 N 
ATOM     55  N   UNL A   1      41.020  31.190  34.750  1.00  0.00    -0.248 NA
ATOM     56  C   UNL A   1      41.614  31.871  36.902  1.00  0.00     0.031 C 
ATOM     57  C   UNL A   1      43.006  27.897  32.528  1.00  0.00     0.029 A 
ATOM     58  C   UNL A   1      42.398  28.914  33.247  1.00  0.00     0.049 A 
ATOM     59  H   UNL A   1      40.742  30.110  32.715  1.00  0.00     0.167 HD
ATOM     60  C   UNL A   1      42.096  30.428  35.188  1.00  0.00     0.074 A 
ATOM     61  C   UNL A   1      42.444  30.917  36.506  1.00  0.00     0.031 C 
ATOM     62  C   UNL A   1      42.740  29.416  34.554  1.00  0.00     0.037 A 
BRANCH  49  63
ATOM     63  C   UNL A   1      40.377  27.996  29.024  1.00  0.00     0.064 A 
ATOM     64  C   UNL A   1      39.656  26.792  28.978  1.00  0.00     0.173 A 
ATOM     65  C   UNL A   1      41.114  28.359  27.887  1.00  0.00     0.173 A 
ATOM     66  F   UNL A   1      38.944  26.391  30.042  1.00  0.00    -0.203 F 
ATOM     67  C   UNL A   1      39.697  25.973  27.853  1.00  0.00     0.198 A 
ATOM     68  C   UNL A   1      41.126  27.556  26.751  1.00  0.00     0.198 A 
ATOM     69  F   UNL A   1      41.819  29.502  27.873  1.00  0.00    -0.203 F 
ATOM     70  F   UNL A   1      39.045  24.803  27.855  1.00  0.00    -0.200 F 
ATOM     71  C   UNL A   1      40.425  26.359  26.738  1.00  0.00     0.200 A 
ATOM     72  F   UNL A   1      41.816  27.938  25.667  1.00  0.00    -0.200 F 
ATOM     73  F   UNL A   1      40.454  25.575  25.651  1.00  0.00    -0.200 F 
ENDBRANCH  49  63
BRANCH  50  74
ATOM     74  C   UNL A   1      39.591  33.984  36.985  1.00  0.00     0.064 A 
ATOM     75  C   UNL A   1      38.820  33.589  38.086  1.00  0.00     0.173 A 
ATOM     76  C   UNL A   1      40.228  35.233  37.050  1.00  0.00     0.173 A 
ATOM     77  F   UNL A   1      38.174  32.414  38.064  1.00  0.00    -0.203 F 
ATOM     78  C   UNL A   1      38.666  34.419  39.194  1.00  0.00     0.198 A 
ATOM     79  C   UNL A   1      40.100  36.047  38.173  1.00  0.00     0.198 A 
ATOM     80  F   UNL A   1      40.982  35.657  36.027  1.00  0.00    -0.203 F 
ATOM     81  F   UNL A   1      37.878  34.040  40.209  1.00  0.00    -0.200 F 
ATOM     82  C   UNL A   1      39.311  35.646  39.240  1.00  0.00     0.200 A 
ATOM     83  F   UNL A   1      40.739  37.225  38.219  1.00  0.00    -0.200 F 
ATOM     84  F   UNL A   1      39.165  36.444  40.306  1.00  0.00    -0.200 F 
ENDBRANCH  50  74
BRANCH  62  85
ATOM     85  C   UNL A   1      43.914  28.797  35.257  1.00  0.00     0.064 A 
ATOM     86  C   UNL A   1      43.765  27.713  36.135  1.00  0.00     0.173 A 
ATOM     87  C   UNL A   1      45.213  29.270  35.014  1.00  0.00     0.173 A 
ATOM     88  F   UNL A   1      42.544  27.232  36.412  1.00  0.00    -0.203 F 
ATOM     89  C   UNL A   1      44.870  27.146  36.765  1.00  0.00     0.198 A 
ATOM     90  C   UNL A   1      46.318  28.678  35.618  1.00  0.00     0.198 A 
ATOM     91  F   UNL A   1      45.414  30.299  34.176  1.00  0.00    -0.203 F 
ATOM     92  F   UNL A   1      44.697  26.148  37.642  1.00  0.00    -0.200 F 
ATOM     93  C   UNL A   1      46.145  27.623  36.501  1.00  0.00     0.200 A 
ATOM     94  F   UNL A   1      47.551  29.128  35.347  1.00  0.00    -0.200 F 
ATOM     95  F   UNL A   1      47.207  27.069  37.102  1.00  0.00    -0.200 F 
ENDBRANCH  62  85
ENDBRANCH  36  37
ENDBRANCH  28  31
ENDBRANCH  26  27
ENDBRANCH  25  26
ENDBRANCH   1  25
TORSDOF 16
ENDMDL
