MODEL 1
REMARK VINA RESULT:      -9.5      0.000      0.000
REMARK SMILES O=C(/C=C/c1ccc(I)cc1)NCCCCNC(=O)c1ccc(-c2c3nc(c(-c4c(F)c(F)c(F)c(F)c4F)c4ccc([nH]4)c(-c4c(F)c(F)c(F)c(F)c4F)c4nc(c(-c5c(F)c(F)c(F)c(F)c5F)c5ccc2[nH]5)C=C4)C=C3)cc1
REMARK SMILES IDX 15 1 14 2 13 3 12 4 1 5 2 6 3 8 4 9 5 10 6 11 11 12 7 13
REMARK SMILES IDX 10 14 8 15 9 16 16 17 17 18 18 19 19 21 20 22 21 23 82 24
REMARK SMILES IDX 22 25 81 26 23 27 24 28 25 29 75 30 26 31 80 32 74 33 76 34
REMARK SMILES IDX 27 35 79 36 73 37 72 38 28 40 60 41 40 42 59 43 41 44 44 45
REMARK SMILES IDX 58 46 77 47 42 48 43 49 57 51 78 52 45 53 29 54 30 55 38 56
REMARK SMILES IDX 31 57 32 58 36 59 39 60 33 61 34 62 37 63 35 64 61 65 62 66
REMARK SMILES IDX 70 67 63 68 64 69 68 70 71 71 65 72 66 73 69 74 67 75 46 76
REMARK SMILES IDX 47 77 55 78 48 79 49 80 53 81 56 82 50 83 51 84 54 85 52 86
REMARK H PARENT 12 7 17 20 76 39 44 50
REMARK Flexibility Score: inf
ROOT
ATOM      1  C   UNL A   1      32.815  36.373  31.045  1.00  0.00     0.023 C 
ENDROOT
BRANCH   1   2
ATOM      2  C   UNL A   1      33.719  37.062  32.071  1.00  0.00     0.023 C 
BRANCH   2   3
ATOM      3  C   UNL A   1      33.580  36.548  33.505  1.00  0.00     0.116 C 
BRANCH   3   4
ATOM      4  N   UNL A   1      34.664  35.661  33.880  1.00  0.00    -0.353 N 
ATOM      5  O   UNL A   1      33.641  33.738  33.158  1.00  0.00    -0.270 OA
ATOM      6  C   UNL A   1      34.590  34.306  33.686  1.00  0.00     0.243 C 
ATOM      7  H   UNL A   1      35.475  36.042  34.287  1.00  0.00     0.163 HD
BRANCH   6   8
ATOM      8  C   UNL A   1      35.757  33.498  34.127  1.00  0.00     0.072 C 
ATOM      9  C   UNL A   1      36.166  32.318  33.632  1.00  0.00     0.014 C 
BRANCH   9  10
ATOM     10  C   UNL A   1      37.390  31.652  34.102  1.00  0.00    -0.025 A 
ATOM     11  C   UNL A   1      38.063  32.057  35.262  1.00  0.00     0.009 A 
ATOM     12  C   UNL A   1      37.884  30.558  33.380  1.00  0.00     0.009 A 
ATOM     13  C   UNL A   1      39.230  31.403  35.673  1.00  0.00     0.015 A 
ATOM     14  C   UNL A   1      39.049  29.902  33.788  1.00  0.00     0.015 A 
ATOM     15  C   UNL A   1      39.721  30.331  34.931  1.00  0.00     0.013 A 
ATOM     16  I   UNL A   1      41.463  29.370  35.528  1.00  0.00    -0.044 I 
ENDBRANCH   9  10
ENDBRANCH   6   8
ENDBRANCH   3   4
ENDBRANCH   2   3
ENDBRANCH   1   2
BRANCH   1  17
ATOM     17  C   UNL A   1      33.285  36.455  29.596  1.00  0.00     0.116 C 
BRANCH  17  18
ATOM     18  N   UNL A   1      32.746  35.396  28.759  1.00  0.00    -0.352 N 
ATOM     19  C   UNL A   1      33.322  34.212  28.364  1.00  0.00     0.251 C 
ATOM     20  H   UNL A   1      31.832  35.550  28.426  1.00  0.00     0.163 HD
ATOM     21  O   UNL A   1      32.755  33.499  27.540  1.00  0.00    -0.269 OA
BRANCH  19  22
ATOM     22  C   UNL A   1      34.640  33.803  28.900  1.00  0.00     0.039 A 
ATOM     23  C   UNL A   1      34.680  32.911  29.977  1.00  0.00     0.014 A 
ATOM     24  C   UNL A   1      35.831  34.292  28.358  1.00  0.00     0.014 A 
ATOM     25  C   UNL A   1      35.910  32.454  30.458  1.00  0.00     0.010 A 
ATOM     26  C   UNL A   1      37.054  33.777  28.787  1.00  0.00     0.010 A 
ATOM     27  C   UNL A   1      37.107  32.850  29.840  1.00  0.00    -0.014 A 
BRANCH  27  28
ATOM     28  C   UNL A   1      38.419  32.295  30.271  1.00  0.00     0.031 A 
ATOM     29  C   UNL A   1      38.906  30.981  29.727  1.00  0.00     0.074 A 
ATOM     30  C   UNL A   1      39.144  32.944  31.203  1.00  0.00     0.049 A 
ATOM     31  N   UNL A   1      39.986  30.305  30.032  1.00  0.00    -0.248 NA
ATOM     32  C   UNL A   1      38.053  30.324  28.723  1.00  0.00     0.031 C 
ATOM     33  C   UNL A   1      38.765  34.206  31.841  1.00  0.00     0.029 A 
ATOM     34  N   UNL A   1      40.347  32.628  31.785  1.00  0.00    -0.354 N 
ATOM     35  C   UNL A   1      39.935  29.144  29.273  1.00  0.00     0.074 A 
ATOM     36  C   UNL A   1      38.693  29.178  28.532  1.00  0.00     0.031 C 
ATOM     37  C   UNL A   1      39.726  34.568  32.705  1.00  0.00     0.029 A 
ATOM     38  C   UNL A   1      40.767  33.545  32.718  1.00  0.00     0.049 A 
ATOM     39  H   UNL A   1      40.861  31.820  31.555  1.00  0.00     0.167 HD
ATOM     40  C   UNL A   1      40.851  28.149  29.183  1.00  0.00     0.037 A 
ATOM     41  C   UNL A   1      41.862  33.557  33.503  1.00  0.00     0.037 A 
ATOM     42  C   UNL A   1      42.096  28.126  29.907  1.00  0.00     0.049 A 
ATOM     43  C   UNL A   1      42.853  32.427  33.400  1.00  0.00     0.074 A 
ATOM     44  C   UNL A   1      43.117  27.193  29.837  1.00  0.00     0.029 A 
ATOM     45  N   UNL A   1      42.489  29.076  30.839  1.00  0.00    -0.354 N 
ATOM     46  N   UNL A   1      42.828  31.370  32.625  1.00  0.00    -0.248 NA
ATOM     47  C   UNL A   1      44.028  32.497  34.281  1.00  0.00     0.031 C 
ATOM     48  C   UNL A   1      44.097  27.546  30.768  1.00  0.00     0.029 A 
ATOM     49  C   UNL A   1      43.721  28.735  31.373  1.00  0.00     0.049 A 
ATOM     50  H   UNL A   1      41.968  29.876  31.084  1.00  0.00     0.167 HD
ATOM     51  C   UNL A   1      43.995  30.669  32.899  1.00  0.00     0.074 A 
ATOM     52  C   UNL A   1      44.713  31.428  33.900  1.00  0.00     0.031 C 
ATOM     53  C   UNL A   1      44.432  29.501  32.365  1.00  0.00     0.037 A 
BRANCH  40  54
ATOM     54  C   UNL A   1      40.541  26.996  28.271  1.00  0.00     0.064 A 
ATOM     55  C   UNL A   1      39.598  26.015  28.614  1.00  0.00     0.173 A 
ATOM     56  C   UNL A   1      41.165  26.894  27.017  1.00  0.00     0.173 A 
ATOM     57  F   UNL A   1      38.979  26.060  29.803  1.00  0.00    -0.203 F 
ATOM     58  C   UNL A   1      39.314  24.959  27.751  1.00  0.00     0.198 A 
ATOM     59  C   UNL A   1      40.853  25.855  26.144  1.00  0.00     0.198 A 
ATOM     60  F   UNL A   1      42.069  27.807  26.634  1.00  0.00    -0.203 F 
ATOM     61  F   UNL A   1      38.449  24.006  28.124  1.00  0.00    -0.200 F 
ATOM     62  C   UNL A   1      39.936  24.884  26.514  1.00  0.00     0.200 A 
ATOM     63  F   UNL A   1      41.443  25.793  24.941  1.00  0.00    -0.200 F 
ATOM     64  F   UNL A   1      39.655  23.872  25.682  1.00  0.00    -0.200 F 
ENDBRANCH  40  54
BRANCH  41  65
ATOM     65  C   UNL A   1      42.092  34.684  34.444  1.00  0.00     0.064 A 
ATOM     66  C   UNL A   1      41.816  34.548  35.813  1.00  0.00     0.173 A 
ATOM     67  C   UNL A   1      42.576  35.924  33.999  1.00  0.00     0.173 A 
ATOM     68  F   UNL A   1      41.331  33.390  36.285  1.00  0.00    -0.203 F 
ATOM     69  C   UNL A   1      41.993  35.613  36.694  1.00  0.00     0.198 A 
ATOM     70  C   UNL A   1      42.782  36.978  34.886  1.00  0.00     0.198 A 
ATOM     71  F   UNL A   1      42.859  36.106  32.701  1.00  0.00    -0.203 F 
ATOM     72  F   UNL A   1      41.670  35.470  37.986  1.00  0.00    -0.200 F 
ATOM     73  C   UNL A   1      42.481  36.825  36.230  1.00  0.00     0.200 A 
ATOM     74  F   UNL A   1      43.269  38.143  34.437  1.00  0.00    -0.200 F 
ATOM     75  F   UNL A   1      42.652  37.849  37.078  1.00  0.00    -0.200 F 
ENDBRANCH  41  65
BRANCH  53  76
ATOM     76  C   UNL A   1      45.769  28.990  32.822  1.00  0.00     0.064 A 
ATOM     77  C   UNL A   1      45.895  28.109  33.906  1.00  0.00     0.173 A 
ATOM     78  C   UNL A   1      46.939  29.359  32.138  1.00  0.00     0.173 A 
ATOM     79  F   UNL A   1      44.810  27.737  34.602  1.00  0.00    -0.203 F 
ATOM     80  C   UNL A   1      47.142  27.639  34.306  1.00  0.00     0.198 A 
ATOM     81  C   UNL A   1      48.181  28.861  32.520  1.00  0.00     0.198 A 
ATOM     82  F   UNL A   1      46.875  30.193  31.090  1.00  0.00    -0.203 F 
ATOM     83  F   UNL A   1      47.243  26.842  35.378  1.00  0.00    -0.200 F 
ATOM     84  C   UNL A   1      48.283  28.008  33.609  1.00  0.00     0.200 A 
ATOM     85  F   UNL A   1      49.279  29.205  31.833  1.00  0.00    -0.200 F 
ATOM     86  F   UNL A   1      49.483  27.548  33.991  1.00  0.00    -0.200 F 
ENDBRANCH  53  76
ENDBRANCH  27  28
ENDBRANCH  19  22
ENDBRANCH  17  18
ENDBRANCH   1  17
TORSDOF 12
ENDMDL
MODEL 2
REMARK VINA RESULT:      -9.5      0.355      2.063
REMARK SMILES O=C(/C=C/c1ccc(I)cc1)NCCCCNC(=O)c1ccc(-c2c3nc(c(-c4c(F)c(F)c(F)c(F)c4F)c4ccc([nH]4)c(-c4c(F)c(F)c(F)c(F)c4F)c4nc(c(-c5c(F)c(F)c(F)c(F)c5F)c5ccc2[nH]5)C=C4)C=C3)cc1
REMARK SMILES IDX 15 1 14 2 13 3 12 4 1 5 2 6 3 8 4 9 5 10 6 11 11 12 7 13
REMARK SMILES IDX 10 14 8 15 9 16 16 17 17 18 18 19 19 21 20 22 21 23 82 24
REMARK SMILES IDX 22 25 81 26 23 27 24 28 25 29 75 30 26 31 80 32 74 33 76 34
REMARK SMILES IDX 27 35 79 36 73 37 72 38 28 40 60 41 40 42 59 43 41 44 44 45
REMARK SMILES IDX 58 46 77 47 42 48 43 49 57 51 78 52 45 53 29 54 30 55 38 56
REMARK SMILES IDX 31 57 32 58 36 59 39 60 33 61 34 62 37 63 35 64 61 65 62 66
REMARK SMILES IDX 70 67 63 68 64 69 68 70 71 71 65 72 66 73 69 74 67 75 46 76
REMARK SMILES IDX 47 77 55 78 48 79 49 80 53 81 56 82 50 83 51 84 54 85 52 86
REMARK H PARENT 12 7 17 20 76 39 44 50
REMARK Flexibility Score: inf
ROOT
ATOM      1  C   UNL A   1      32.738  36.518  30.966  1.00  0.00     0.023 C 
ENDROOT
BRANCH   1   2
ATOM      2  C   UNL A   1      33.598  37.290  31.969  1.00  0.00     0.023 C 
BRANCH   2   3
ATOM      3  C   UNL A   1      33.738  36.633  33.342  1.00  0.00     0.116 C 
BRANCH   3   4
ATOM      4  N   UNL A   1      34.784  35.628  33.369  1.00  0.00    -0.353 N 
ATOM      5  O   UNL A   1      33.368  33.828  33.225  1.00  0.00    -0.270 OA
ATOM      6  C   UNL A   1      34.500  34.288  33.324  1.00  0.00     0.243 C 
ATOM      7  H   UNL A   1      35.723  35.917  33.420  1.00  0.00     0.163 HD
BRANCH   6   8
ATOM      8  C   UNL A   1      35.655  33.353  33.375  1.00  0.00     0.072 C 
ATOM      9  C   UNL A   1      36.424  33.064  34.437  1.00  0.00     0.014 C 
BRANCH   9  10
ATOM     10  C   UNL A   1      37.494  32.057  34.380  1.00  0.00    -0.025 A 
ATOM     11  C   UNL A   1      38.594  32.085  35.249  1.00  0.00     0.009 A 
ATOM     12  C   UNL A   1      37.397  31.019  33.444  1.00  0.00     0.009 A 
ATOM     13  C   UNL A   1      39.597  31.113  35.159  1.00  0.00     0.015 A 
ATOM     14  C   UNL A   1      38.398  30.047  33.352  1.00  0.00     0.015 A 
ATOM     15  C   UNL A   1      39.497  30.101  34.206  1.00  0.00     0.013 A 
ATOM     16  I   UNL A   1      40.994  28.668  34.058  1.00  0.00    -0.044 I 
ENDBRANCH   9  10
ENDBRANCH   6   8
ENDBRANCH   3   4
ENDBRANCH   2   3
ENDBRANCH   1   2
BRANCH   1  17
ATOM     17  C   UNL A   1      33.294  36.439  29.547  1.00  0.00     0.116 C 
BRANCH  17  18
ATOM     18  N   UNL A   1      32.723  35.354  28.768  1.00  0.00    -0.352 N 
ATOM     19  C   UNL A   1      33.278  34.149  28.405  1.00  0.00     0.251 C 
ATOM     20  H   UNL A   1      31.802  35.502  28.454  1.00  0.00     0.163 HD
ATOM     21  O   UNL A   1      32.683  33.410  27.625  1.00  0.00    -0.269 OA
BRANCH  19  22
ATOM     22  C   UNL A   1      34.607  33.749  28.921  1.00  0.00     0.039 A 
ATOM     23  C   UNL A   1      34.673  32.779  29.926  1.00  0.00     0.014 A 
ATOM     24  C   UNL A   1      35.782  34.323  28.429  1.00  0.00     0.014 A 
ATOM     25  C   UNL A   1      35.916  32.332  30.383  1.00  0.00     0.010 A 
ATOM     26  C   UNL A   1      37.021  33.822  28.830  1.00  0.00     0.010 A 
ATOM     27  C   UNL A   1      37.102  32.819  29.808  1.00  0.00    -0.014 A 
BRANCH  27  28
ATOM     28  C   UNL A   1      38.430  32.281  30.208  1.00  0.00     0.031 A 
ATOM     29  C   UNL A   1      38.920  30.971  29.655  1.00  0.00     0.074 A 
ATOM     30  C   UNL A   1      39.170  32.942  31.120  1.00  0.00     0.049 A 
ATOM     31  N   UNL A   1      40.015  30.310  29.936  1.00  0.00    -0.248 NA
ATOM     32  C   UNL A   1      38.051  30.301  28.675  1.00  0.00     0.031 C 
ATOM     33  C   UNL A   1      38.791  34.200  31.764  1.00  0.00     0.029 A 
ATOM     34  N   UNL A   1      40.391  32.643  31.673  1.00  0.00    -0.354 N 
ATOM     35  C   UNL A   1      39.960  29.146  29.181  1.00  0.00     0.074 A 
ATOM     36  C   UNL A   1      38.700  29.163  28.471  1.00  0.00     0.031 C 
ATOM     37  C   UNL A   1      39.769  34.577  32.603  1.00  0.00     0.029 A 
ATOM     38  C   UNL A   1      40.823  33.567  32.593  1.00  0.00     0.049 A 
ATOM     39  H   UNL A   1      40.910  31.840  31.432  1.00  0.00     0.167 HD
ATOM     40  C   UNL A   1      40.886  28.162  29.071  1.00  0.00     0.037 A 
ATOM     41  C   UNL A   1      41.937  33.595  33.350  1.00  0.00     0.037 A 
ATOM     42  C   UNL A   1      42.149  28.157  29.763  1.00  0.00     0.049 A 
ATOM     43  C   UNL A   1      42.939  32.477  33.226  1.00  0.00     0.074 A 
ATOM     44  C   UNL A   1      43.179  27.236  29.671  1.00  0.00     0.029 A 
ATOM     45  N   UNL A   1      42.553  29.115  30.683  1.00  0.00    -0.354 N 
ATOM     46  N   UNL A   1      42.908  31.418  32.454  1.00  0.00    -0.248 NA
ATOM     47  C   UNL A   1      44.134  32.563  34.077  1.00  0.00     0.031 C 
ATOM     48  C   UNL A   1      44.178  27.604  30.577  1.00  0.00     0.029 A 
ATOM     49  C   UNL A   1      43.802  28.790  31.187  1.00  0.00     0.049 A 
ATOM     50  H   UNL A   1      42.028  29.908  30.939  1.00  0.00     0.167 HD
ATOM     51  C   UNL A   1      44.090  30.732  32.701  1.00  0.00     0.074 A 
ATOM     52  C   UNL A   1      44.823  31.502  33.682  1.00  0.00     0.031 C 
ATOM     53  C   UNL A   1      44.528  29.568  32.159  1.00  0.00     0.037 A 
BRANCH  40  54
ATOM     54  C   UNL A   1      40.568  27.003  28.169  1.00  0.00     0.064 A 
ATOM     55  C   UNL A   1      41.228  26.815  26.945  1.00  0.00     0.173 A 
ATOM     56  C   UNL A   1      39.620  26.042  28.556  1.00  0.00     0.173 A 
ATOM     57  F   UNL A   1      42.136  27.708  26.524  1.00  0.00    -0.203 F 
ATOM     58  C   UNL A   1      40.928  25.729  26.127  1.00  0.00     0.198 A 
ATOM     59  C   UNL A   1      39.348  24.939  27.751  1.00  0.00     0.198 A 
ATOM     60  F   UNL A   1      38.965  26.166  29.720  1.00  0.00    -0.203 F 
ATOM     61  F   UNL A   1      41.533  25.601  24.938  1.00  0.00    -0.200 F 
ATOM     62  C   UNL A   1      39.995  24.788  26.534  1.00  0.00     0.200 A 
ATOM     63  F   UNL A   1      38.458  24.021  28.154  1.00  0.00    -0.200 F 
ATOM     64  F   UNL A   1      39.714  23.738  25.750  1.00  0.00    -0.200 F 
ENDBRANCH  40  54
BRANCH  41  65
ATOM     65  C   UNL A   1      42.176  34.727  34.283  1.00  0.00     0.064 A 
ATOM     66  C   UNL A   1      42.713  35.939  33.823  1.00  0.00     0.173 A 
ATOM     67  C   UNL A   1      41.891  34.622  35.652  1.00  0.00     0.173 A 
ATOM     68  F   UNL A   1      43.023  36.082  32.526  1.00  0.00    -0.203 F 
ATOM     69  C   UNL A   1      42.976  36.990  34.698  1.00  0.00     0.198 A 
ATOM     70  C   UNL A   1      42.124  35.685  36.522  1.00  0.00     0.198 A 
ATOM     71  F   UNL A   1      41.373  33.487  36.144  1.00  0.00    -0.203 F 
ATOM     72  F   UNL A   1      43.539  38.116  34.239  1.00  0.00    -0.200 F 
ATOM     73  C   UNL A   1      42.676  36.864  36.046  1.00  0.00     0.200 A 
ATOM     74  F   UNL A   1      41.819  35.565  37.821  1.00  0.00    -0.200 F 
ATOM     75  F   UNL A   1      42.928  37.876  36.888  1.00  0.00    -0.200 F 
ENDBRANCH  41  65
BRANCH  53  76
ATOM     76  C   UNL A   1      45.882  29.074  32.584  1.00  0.00     0.064 A 
ATOM     77  C   UNL A   1      47.052  29.438  31.900  1.00  0.00     0.173 A 
ATOM     78  C   UNL A   1      46.013  28.256  33.717  1.00  0.00     0.173 A 
ATOM     79  F   UNL A   1      46.980  30.206  30.803  1.00  0.00    -0.203 F 
ATOM     80  C   UNL A   1      48.297  28.978  32.318  1.00  0.00     0.198 A 
ATOM     81  C   UNL A   1      47.264  27.825  34.151  1.00  0.00     0.198 A 
ATOM     82  F   UNL A   1      44.928  27.883  34.412  1.00  0.00    -0.203 F 
ATOM     83  F   UNL A   1      49.395  29.294  31.617  1.00  0.00    -0.200 F 
ATOM     84  C   UNL A   1      48.404  28.179  33.446  1.00  0.00     0.200 A 
ATOM     85  F   UNL A   1      47.365  27.068  35.253  1.00  0.00    -0.200 F 
ATOM     86  F   UNL A   1      49.605  27.745  33.851  1.00  0.00    -0.200 F 
ENDBRANCH  53  76
ENDBRANCH  27  28
ENDBRANCH  19  22
ENDBRANCH  17  18
ENDBRANCH   1  17
TORSDOF 12
ENDMDL
MODEL 3
REMARK VINA RESULT:      -9.4      3.591      9.028
REMARK SMILES O=C(/C=C/c1ccc(I)cc1)NCCCCNC(=O)c1ccc(-c2c3nc(c(-c4c(F)c(F)c(F)c(F)c4F)c4ccc([nH]4)c(-c4c(F)c(F)c(F)c(F)c4F)c4nc(c(-c5c(F)c(F)c(F)c(F)c5F)c5ccc2[nH]5)C=C4)C=C3)cc1
REMARK SMILES IDX 15 1 14 2 13 3 12 4 1 5 2 6 3 8 4 9 5 10 6 11 11 12 7 13
REMARK SMILES IDX 10 14 8 15 9 16 16 17 17 18 18 19 19 21 20 22 21 23 82 24
REMARK SMILES IDX 22 25 81 26 23 27 24 28 25 29 75 30 26 31 80 32 74 33 76 34
REMARK SMILES IDX 27 35 79 36 73 37 72 38 28 40 60 41 40 42 59 43 41 44 44 45
REMARK SMILES IDX 58 46 77 47 42 48 43 49 57 51 78 52 45 53 29 54 30 55 38 56
REMARK SMILES IDX 31 57 32 58 36 59 39 60 33 61 34 62 37 63 35 64 61 65 62 66
REMARK SMILES IDX 70 67 63 68 64 69 68 70 71 71 65 72 66 73 69 74 67 75 46 76
REMARK SMILES IDX 47 77 55 78 48 79 49 80 53 81 56 82 50 83 51 84 54 85 52 86
REMARK H PARENT 12 7 17 20 76 39 44 50
REMARK Flexibility Score: inf
ROOT
ATOM      1  C   UNL A   1      33.277  34.592  28.663  1.00  0.00     0.023 C 
ENDROOT
BRANCH   1   2
ATOM      2  C   UNL A   1      34.561  33.812  28.367  1.00  0.00     0.023 C 
BRANCH   2   3
ATOM      3  C   UNL A   1      34.837  32.639  29.307  1.00  0.00     0.116 C 
BRANCH   3   4
ATOM      4  N   UNL A   1      34.368  31.377  28.766  1.00  0.00    -0.353 N 
ATOM      5  O   UNL A   1      36.299  30.890  27.626  1.00  0.00    -0.270 OA
ATOM      6  C   UNL A   1      35.149  30.607  27.944  1.00  0.00     0.243 C 
ATOM      7  H   UNL A   1      33.464  31.065  28.997  1.00  0.00     0.163 HD
BRANCH   6   8
ATOM      8  C   UNL A   1      34.553  29.342  27.440  1.00  0.00     0.072 C 
ATOM      9  C   UNL A   1      33.251  29.076  27.243  1.00  0.00     0.014 C 
BRANCH   9  10
ATOM     10  C   UNL A   1      32.789  27.807  26.661  1.00  0.00    -0.025 A 
ATOM     11  C   UNL A   1      31.441  27.423  26.682  1.00  0.00     0.009 A 
ATOM     12  C   UNL A   1      33.723  26.967  26.041  1.00  0.00     0.009 A 
ATOM     13  C   UNL A   1      31.041  26.203  26.126  1.00  0.00     0.015 A 
ATOM     14  C   UNL A   1      33.326  25.748  25.484  1.00  0.00     0.015 A 
ATOM     15  C   UNL A   1      31.987  25.368  25.533  1.00  0.00     0.013 A 
ATOM     16  I   UNL A   1      31.397  23.548  24.722  1.00  0.00    -0.044 I 
ENDBRANCH   9  10
ENDBRANCH   6   8
ENDBRANCH   3   4
ENDBRANCH   2   3
ENDBRANCH   1   2
BRANCH   1  17
ATOM     17  C   UNL A   1      33.469  35.929  29.372  1.00  0.00     0.116 C 
BRANCH  17  18
ATOM     18  N   UNL A   1      32.523  36.144  30.454  1.00  0.00    -0.352 N 
ATOM     19  C   UNL A   1      32.581  35.730  31.764  1.00  0.00     0.251 C 
ATOM     20  H   UNL A   1      31.722  36.664  30.214  1.00  0.00     0.163 HD
ATOM     21  O   UNL A   1      31.614  35.896  32.503  1.00  0.00    -0.269 OA
BRANCH  19  22
ATOM     22  C   UNL A   1      33.790  35.052  32.284  1.00  0.00     0.039 A 
ATOM     23  C   UNL A   1      33.661  33.769  32.824  1.00  0.00     0.014 A 
ATOM     24  C   UNL A   1      35.043  35.670  32.250  1.00  0.00     0.014 A 
ATOM     25  C   UNL A   1      34.795  33.078  33.259  1.00  0.00     0.010 A 
ATOM     26  C   UNL A   1      36.182  34.951  32.612  1.00  0.00     0.010 A 
ATOM     27  C   UNL A   1      36.072  33.647  33.117  1.00  0.00    -0.014 A 
BRANCH  27  28
ATOM     28  C   UNL A   1      37.299  32.887  33.478  1.00  0.00     0.031 A 
ATOM     29  C   UNL A   1      38.027  33.178  34.761  1.00  0.00     0.074 A 
ATOM     30  C   UNL A   1      37.796  31.976  32.618  1.00  0.00     0.049 A 
ATOM     31  N   UNL A   1      39.146  32.670  35.215  1.00  0.00    -0.248 NA
ATOM     32  C   UNL A   1      37.431  34.195  35.643  1.00  0.00     0.031 C 
ATOM     33  C   UNL A   1      37.211  31.629  31.322  1.00  0.00     0.029 A 
ATOM     34  N   UNL A   1      38.914  31.181  32.699  1.00  0.00    -0.354 N 
ATOM     35  C   UNL A   1      39.393  33.312  36.421  1.00  0.00     0.074 A 
ATOM     36  C   UNL A   1      38.339  34.285  36.604  1.00  0.00     0.031 C 
ATOM     37  C   UNL A   1      37.958  30.677  30.742  1.00  0.00     0.029 A 
ATOM     38  C   UNL A   1      39.100  30.376  31.601  1.00  0.00     0.049 A 
ATOM     39  H   UNL A   1      39.525  31.188  33.472  1.00  0.00     0.167 HD
ATOM     40  C   UNL A   1      40.396  33.095  37.306  1.00  0.00     0.037 A 
ATOM     41  C   UNL A   1      40.083  29.503  31.312  1.00  0.00     0.037 A 
ATOM     42  C   UNL A   1      41.434  32.112  37.131  1.00  0.00     0.049 A 
ATOM     43  C   UNL A   1      41.199  29.297  32.303  1.00  0.00     0.074 A 
ATOM     44  C   UNL A   1      42.458  31.774  37.999  1.00  0.00     0.029 A 
ATOM     45  N   UNL A   1      41.585  31.311  36.007  1.00  0.00    -0.354 N 
ATOM     46  N   UNL A   1      41.383  29.859  33.474  1.00  0.00    -0.248 NA
ATOM     47  C   UNL A   1      42.242  28.329  31.934  1.00  0.00     0.031 C 
ATOM     48  C   UNL A   1      43.262  30.815  37.377  1.00  0.00     0.029 A 
ATOM     49  C   UNL A   1      42.703  30.504  36.148  1.00  0.00     0.049 A 
ATOM     50  H   UNL A   1      40.986  31.316  35.225  1.00  0.00     0.167 HD
ATOM     51  C   UNL A   1      42.539  29.291  33.993  1.00  0.00     0.074 A 
ATOM     52  C   UNL A   1      43.006  28.330  33.017  1.00  0.00     0.031 C 
ATOM     53  C   UNL A   1      43.156  29.544  35.174  1.00  0.00     0.037 A 
BRANCH  40  54
ATOM     54  C   UNL A   1      40.425  33.940  38.549  1.00  0.00     0.064 A 
ATOM     55  C   UNL A   1      41.146  35.142  38.608  1.00  0.00     0.173 A 
ATOM     56  C   UNL A   1      39.684  33.564  39.681  1.00  0.00     0.173 A 
ATOM     57  F   UNL A   1      41.877  35.544  37.557  1.00  0.00    -0.203 F 
ATOM     58  C   UNL A   1      41.152  35.919  39.764  1.00  0.00     0.198 A 
ATOM     59  C   UNL A   1      39.666  34.361  40.822  1.00  0.00     0.198 A 
ATOM     60  F   UNL A   1      38.970  32.429  39.677  1.00  0.00    -0.203 F 
ATOM     61  F   UNL A   1      41.892  37.036  39.815  1.00  0.00    -0.200 F 
ATOM     62  C   UNL A   1      40.406  35.532  40.867  1.00  0.00     0.200 A 
ATOM     63  F   UNL A   1      38.931  33.994  41.882  1.00  0.00    -0.200 F 
ATOM     64  F   UNL A   1      40.406  36.285  41.975  1.00  0.00    -0.200 F 
ENDBRANCH  40  54
BRANCH  41  65
ATOM     65  C   UNL A   1      40.053  28.740  30.037  1.00  0.00     0.064 A 
ATOM     66  C   UNL A   1      39.444  27.478  29.966  1.00  0.00     0.173 A 
ATOM     67  C   UNL A   1      40.642  29.244  28.867  1.00  0.00     0.173 A 
ATOM     68  F   UNL A   1      38.885  26.943  31.062  1.00  0.00    -0.203 F 
ATOM     69  C   UNL A   1      39.446  26.742  28.784  1.00  0.00     0.198 A 
ATOM     70  C   UNL A   1      40.615  28.520  27.677  1.00  0.00     0.198 A 
ATOM     71  F   UNL A   1      41.234  30.446  28.879  1.00  0.00    -0.203 F 
ATOM     72  F   UNL A   1      38.903  25.517  28.759  1.00  0.00    -0.200 F 
ATOM     73  C   UNL A   1      40.027  27.266  27.639  1.00  0.00     0.200 A 
ATOM     74  F   UNL A   1      41.164  29.036  26.570  1.00  0.00    -0.200 F 
ATOM     75  F   UNL A   1      40.028  26.557  26.501  1.00  0.00    -0.200 F 
ENDBRANCH  41  65
BRANCH  53  76
ATOM     76  C   UNL A   1      44.383  28.739  35.498  1.00  0.00     0.064 A 
ATOM     77  C   UNL A   1      44.307  27.511  36.172  1.00  0.00     0.173 A 
ATOM     78  C   UNL A   1      45.650  29.188  35.093  1.00  0.00     0.173 A 
ATOM     79  F   UNL A   1      43.122  27.045  36.594  1.00  0.00    -0.203 F 
ATOM     80  C   UNL A   1      45.456  26.777  36.453  1.00  0.00     0.198 A 
ATOM     81  C   UNL A   1      46.793  28.434  35.347  1.00  0.00     0.198 A 
ATOM     82  F   UNL A   1      45.780  30.351  34.440  1.00  0.00    -0.203 F 
ATOM     83  F   UNL A   1      45.364  25.633  37.146  1.00  0.00    -0.200 F 
ATOM     84  C   UNL A   1      46.696  27.234  36.034  1.00  0.00     0.200 A 
ATOM     85  F   UNL A   1      47.988  28.869  34.924  1.00  0.00    -0.200 F 
ATOM     86  F   UNL A   1      47.800  26.521  36.298  1.00  0.00    -0.200 F 
ENDBRANCH  53  76
ENDBRANCH  27  28
ENDBRANCH  19  22
ENDBRANCH  17  18
ENDBRANCH   1  17
TORSDOF 12
ENDMDL
