MODEL 1
REMARK VINA RESULT:     -13.4      0.000      0.000
REMARK SMILES C[C@@H]([C@H]1CC=CS1)n1nccc1NC(=O)CC1(CC(=O)NCCCCNC(=O)c2ccc(-c3c4nc(c(-c5c(F)c(F)c(F)c(F)c5F)c5ccc([nH]5)c(-c5c(F)c(F)c(F)c(F)c5F)c5nc(c(-c6c(F)c(F)c(F)c(F)c6F)c6ccc3[nH]6)C=C5)C=C4)cc2)CCCCC1
REMARK SMILES IDX 19 1 20 2 21 3 18 5 17 6 92 7 96 8 93 9 95 10 94 11 16 12
REMARK SMILES IDX 14 13 13 14 15 16 12 17 8 18 9 19 10 20 11 21 2 22 1 23 3 24
REMARK SMILES IDX 4 25 7 26 5 27 6 28 22 29 23 30 24 31 25 32 26 33 27 34
REMARK SMILES IDX 28 36 29 37 30 38 91 39 31 40 90 41 32 42 33 43 34 44 84 45
REMARK SMILES IDX 35 46 89 47 83 48 85 49 36 50 88 51 82 52 81 53 37 55 69 56
REMARK SMILES IDX 49 57 68 58 50 59 53 60 67 61 86 62 51 63 52 64 66 66 87 67
REMARK SMILES IDX 54 68 38 69 39 70 47 71 40 72 41 73 45 74 48 75 42 76 43 77
REMARK SMILES IDX 46 78 44 79 70 80 71 81 79 82 72 83 73 84 77 85 80 86 74 87
REMARK SMILES IDX 75 88 78 89 76 90 55 91 56 92 64 93 57 94 58 95 62 96 65 97
REMARK SMILES IDX 59 98 60 99 63 100 61 101
REMARK H PARENT 21 4 13 15 26 35 85 54 53 65
REMARK Flexibility Score: inf
ROOT
ATOM      1  C   UNL A   1      33.811  21.247  26.326  1.00  0.00     0.220 C 
ATOM      2  O   UNL A   1      33.513  21.582  27.474  1.00  0.00    -0.275 OA
ATOM      3  N   UNL A   1      35.050  20.729  26.126  1.00  0.00    -0.356 N 
ATOM      4  H   UNL A   1      35.609  20.690  26.935  1.00  0.00     0.163 HD
ENDROOT
BRANCH   1   5
ATOM      5  C   UNL A   1      32.800  21.432  25.199  1.00  0.00     0.107 C 
BRANCH   5   6
ATOM      6  C   UNL A   1      32.420  22.887  24.773  1.00  0.00    -0.012 C 
ATOM      7  C   UNL A   1      32.637  23.033  23.238  1.00  0.00     0.008 C 
ATOM      8  C   UNL A   1      33.346  23.959  25.409  1.00  0.00     0.008 C 
ATOM      9  C   UNL A   1      34.096  22.953  22.781  1.00  0.00     0.001 C 
ATOM     10  C   UNL A   1      34.815  23.864  25.009  1.00  0.00     0.001 C 
ATOM     11  C   UNL A   1      34.967  23.978  23.501  1.00  0.00     0.000 C 
BRANCH   6  12
ATOM     12  C   UNL A   1      30.959  23.248  25.207  1.00  0.00     0.108 C 
BRANCH  12  13
ATOM     13  C   UNL A   1      30.756  24.094  26.446  1.00  0.00     0.226 C 
ATOM     14  N   UNL A   1      30.353  25.466  26.397  1.00  0.00    -0.311 N 
ATOM     15  H   UNL A   1      30.097  25.872  27.257  1.00  0.00     0.171 HD
ATOM     16  O   UNL A   1      30.886  23.674  27.585  1.00  0.00    -0.275 OA
BRANCH  14  17
ATOM     17  C   UNL A   1      30.279  26.291  25.292  1.00  0.00     0.131 A 
ATOM     18  N   UNL A   1      31.213  27.230  24.902  1.00  0.00    -0.246 N 
ATOM     19  N   UNL A   1      30.799  27.955  23.841  1.00  0.00    -0.179 NA
ATOM     20  C   UNL A   1      29.632  27.415  23.501  1.00  0.00     0.137 A 
ATOM     21  C   UNL A   1      29.298  26.328  24.325  1.00  0.00     0.068 A 
BRANCH  18  22
ATOM     22  C   UNL A   1      32.597  27.366  25.356  1.00  0.00     0.120 C 
ATOM     23  C   UNL A   1      33.502  27.487  24.124  1.00  0.00     0.034 C 
BRANCH  22  24
ATOM     24  C   UNL A   1      32.845  28.407  26.485  1.00  0.00     0.079 C 
ATOM     25  C   UNL A   1      34.332  28.630  26.850  1.00  0.00     0.045 C 
ATOM     26  S   UNL A   1      32.177  30.112  26.301  1.00  0.00    -0.128 SA
ATOM     27  C   UNL A   1      34.465  29.986  27.472  1.00  0.00    -0.019 C 
ATOM     28  C   UNL A   1      33.440  30.814  27.251  1.00  0.00     0.037 C 
ENDBRANCH  22  24
ENDBRANCH  18  22
ENDBRANCH  14  17
ENDBRANCH  12  13
ENDBRANCH   6  12
ENDBRANCH   5   6
ENDBRANCH   1   5
BRANCH   3  29
ATOM     29  C   UNL A   1      35.693  20.222  24.930  1.00  0.00     0.116 C 
BRANCH  29  30
ATOM     30  C   UNL A   1      37.219  20.355  25.001  1.00  0.00     0.023 C 
BRANCH  30  31
ATOM     31  C   UNL A   1      37.796  21.770  24.935  1.00  0.00     0.023 C 
BRANCH  31  32
ATOM     32  C   UNL A   1      38.633  22.190  26.136  1.00  0.00     0.116 C 
BRANCH  32  33
ATOM     33  N   UNL A   1      40.065  21.940  25.975  1.00  0.00    -0.352 N 
ATOM     34  C   UNL A   1      41.099  22.835  26.195  1.00  0.00     0.251 C 
ATOM     35  H   UNL A   1      40.322  21.038  25.675  1.00  0.00     0.163 HD
ATOM     36  O   UNL A   1      42.211  22.674  25.736  1.00  0.00    -0.269 OA
BRANCH  34  37
ATOM     37  C   UNL A   1      40.786  24.005  27.034  1.00  0.00     0.039 A 
ATOM     38  C   UNL A   1      41.553  24.300  28.160  1.00  0.00     0.014 A 
ATOM     39  C   UNL A   1      39.849  24.902  26.534  1.00  0.00     0.014 A 
ATOM     40  C   UNL A   1      41.447  25.571  28.724  1.00  0.00     0.010 A 
ATOM     41  C   UNL A   1      39.842  26.194  27.020  1.00  0.00     0.010 A 
ATOM     42  C   UNL A   1      40.622  26.540  28.127  1.00  0.00    -0.014 A 
BRANCH  42  43
ATOM     43  C   UNL A   1      40.655  27.927  28.610  1.00  0.00     0.031 A 
ATOM     44  C   UNL A   1      41.758  28.815  28.113  1.00  0.00     0.074 A 
ATOM     45  C   UNL A   1      39.663  28.499  29.329  1.00  0.00     0.049 A 
ATOM     46  N   UNL A   1      42.663  29.431  28.808  1.00  0.00    -0.248 NA
ATOM     47  C   UNL A   1      41.884  29.031  26.663  1.00  0.00     0.031 C 
ATOM     48  C   UNL A   1      38.353  27.954  29.702  1.00  0.00     0.029 A 
ATOM     49  N   UNL A   1      39.607  29.773  29.809  1.00  0.00    -0.354 N 
ATOM     50  C   UNL A   1      43.402  30.210  27.915  1.00  0.00     0.074 A 
ATOM     51  C   UNL A   1      42.926  29.865  26.598  1.00  0.00     0.031 C 
ATOM     52  C   UNL A   1      37.554  28.951  30.137  1.00  0.00     0.029 A 
ATOM     53  C   UNL A   1      38.357  30.151  30.265  1.00  0.00     0.049 A 
ATOM     54  H   UNL A   1      40.387  30.372  29.830  1.00  0.00     0.167 HD
ATOM     55  C   UNL A   1      44.260  31.184  28.336  1.00  0.00     0.037 A 
ATOM     56  C   UNL A   1      37.991  31.365  30.729  1.00  0.00     0.037 A 
ATOM     57  C   UNL A   1      44.588  31.036  29.727  1.00  0.00     0.049 A 
ATOM     58  C   UNL A   1      39.217  32.060  31.179  1.00  0.00     0.074 A 
ATOM     59  C   UNL A   1      45.219  30.066  30.482  1.00  0.00     0.029 A 
ATOM     60  N   UNL A   1      43.981  31.863  30.636  1.00  0.00    -0.354 N 
ATOM     61  N   UNL A   1      39.934  31.683  32.201  1.00  0.00    -0.248 NA
ATOM     62  C   UNL A   1      39.877  32.959  30.248  1.00  0.00     0.031 C 
ATOM     63  C   UNL A   1      44.529  30.068  31.730  1.00  0.00     0.029 A 
ATOM     64  C   UNL A   1      43.551  31.062  31.661  1.00  0.00     0.049 A 
ATOM     65  H   UNL A   1      43.876  32.839  30.567  1.00  0.00     0.167 HD
ATOM     66  C   UNL A   1      41.242  31.956  31.834  1.00  0.00     0.074 A 
ATOM     67  C   UNL A   1      41.135  32.842  30.680  1.00  0.00     0.031 C 
ATOM     68  C   UNL A   1      42.284  31.227  32.330  1.00  0.00     0.037 A 
BRANCH  55  69
ATOM     69  C   UNL A   1      44.617  32.442  27.579  1.00  0.00     0.064 A 
ATOM     70  C   UNL A   1      45.857  32.528  26.907  1.00  0.00     0.173 A 
ATOM     71  C   UNL A   1      43.929  33.662  27.739  1.00  0.00     0.173 A 
ATOM     72  F   UNL A   1      46.607  31.434  26.712  1.00  0.00    -0.203 F 
ATOM     73  C   UNL A   1      46.398  33.752  26.499  1.00  0.00     0.198 A 
ATOM     74  C   UNL A   1      44.450  34.876  27.285  1.00  0.00     0.198 A 
ATOM     75  F   UNL A   1      42.788  33.740  28.433  1.00  0.00    -0.203 F 
ATOM     76  F   UNL A   1      47.632  33.794  25.977  1.00  0.00    -0.200 F 
ATOM     77  C   UNL A   1      45.697  34.926  26.694  1.00  0.00     0.200 A 
ATOM     78  F   UNL A   1      43.763  36.008  27.496  1.00  0.00    -0.200 F 
ATOM     79  F   UNL A   1      46.237  36.105  26.361  1.00  0.00    -0.200 F 
ENDBRANCH  55  69
BRANCH  56  80
ATOM     80  C   UNL A   1      36.682  32.028  30.572  1.00  0.00     0.064 A 
ATOM     81  C   UNL A   1      35.861  32.296  31.675  1.00  0.00     0.173 A 
ATOM     82  C   UNL A   1      36.327  32.641  29.353  1.00  0.00     0.173 A 
ATOM     83  F   UNL A   1      36.157  31.778  32.875  1.00  0.00    -0.203 F 
ATOM     84  C   UNL A   1      34.760  33.151  31.572  1.00  0.00     0.198 A 
ATOM     85  C   UNL A   1      35.226  33.488  29.249  1.00  0.00     0.198 A 
ATOM     86  F   UNL A   1      37.096  32.498  28.263  1.00  0.00    -0.203 F 
ATOM     87  F   UNL A   1      34.028  33.431  32.659  1.00  0.00    -0.200 F 
ATOM     88  C   UNL A   1      34.450  33.754  30.362  1.00  0.00     0.200 A 
ATOM     89  F   UNL A   1      34.957  34.090  28.082  1.00  0.00    -0.200 F 
ATOM     90  F   UNL A   1      33.430  34.619  30.278  1.00  0.00    -0.200 F 
ENDBRANCH  56  80
BRANCH  68  91
ATOM     91  C   UNL A   1      42.018  30.308  33.489  1.00  0.00     0.064 A 
ATOM     92  C   UNL A   1      41.626  28.966  33.343  1.00  0.00     0.173 A 
ATOM     93  C   UNL A   1      42.342  30.748  34.778  1.00  0.00     0.173 A 
ATOM     94  F   UNL A   1      41.399  28.442  32.133  1.00  0.00    -0.203 F 
ATOM     95  C   UNL A   1      41.531  28.117  34.443  1.00  0.00     0.198 A 
ATOM     96  C   UNL A   1      42.279  29.889  35.872  1.00  0.00     0.198 A 
ATOM     97  F   UNL A   1      42.782  32.002  34.969  1.00  0.00    -0.203 F 
ATOM     98  F   UNL A   1      41.153  26.840  34.277  1.00  0.00    -0.200 F 
ATOM     99  C   UNL A   1      41.866  28.576  35.706  1.00  0.00     0.200 A 
ATOM    100  F   UNL A   1      42.653  30.323  37.083  1.00  0.00    -0.200 F 
ATOM    101  F   UNL A   1      41.821  27.747  36.757  1.00  0.00    -0.200 F 
ENDBRANCH  68  91
ENDBRANCH  42  43
ENDBRANCH  34  37
ENDBRANCH  32  33
ENDBRANCH  31  32
ENDBRANCH  30  31
ENDBRANCH  29  30
ENDBRANCH   3  29
TORSDOF 17
ENDMDL
MODEL 2
REMARK VINA RESULT:     -13.2      3.344      8.819
REMARK SMILES C[C@@H]([C@H]1CC=CS1)n1nccc1NC(=O)CC1(CC(=O)NCCCCNC(=O)c2ccc(-c3c4nc(c(-c5c(F)c(F)c(F)c(F)c5F)c5ccc([nH]5)c(-c5c(F)c(F)c(F)c(F)c5F)c5nc(c(-c6c(F)c(F)c(F)c(F)c6F)c6ccc3[nH]6)C=C5)C=C4)cc2)CCCCC1
REMARK SMILES IDX 19 1 20 2 21 3 18 5 17 6 92 7 96 8 93 9 95 10 94 11 16 12
REMARK SMILES IDX 14 13 13 14 15 16 12 17 8 18 9 19 10 20 11 21 2 22 1 23 3 24
REMARK SMILES IDX 4 25 7 26 5 27 6 28 22 29 23 30 24 31 25 32 26 33 27 34
REMARK SMILES IDX 28 36 29 37 30 38 91 39 31 40 90 41 32 42 33 43 34 44 84 45
REMARK SMILES IDX 35 46 89 47 83 48 85 49 36 50 88 51 82 52 81 53 37 55 69 56
REMARK SMILES IDX 49 57 68 58 50 59 53 60 67 61 86 62 51 63 52 64 66 66 87 67
REMARK SMILES IDX 54 68 38 69 39 70 47 71 40 72 41 73 45 74 48 75 42 76 43 77
REMARK SMILES IDX 46 78 44 79 70 80 71 81 79 82 72 83 73 84 77 85 80 86 74 87
REMARK SMILES IDX 75 88 78 89 76 90 55 91 56 92 64 93 57 94 58 95 62 96 65 97
REMARK SMILES IDX 59 98 60 99 63 100 61 101
REMARK H PARENT 21 4 13 15 26 35 85 54 53 65
REMARK Flexibility Score: inf
ROOT
ATOM      1  C   UNL A   1      32.027  28.225  27.422  1.00  0.00     0.220 C 
ATOM      2  O   UNL A   1      31.324  27.892  28.378  1.00  0.00    -0.275 OA
ATOM      3  N   UNL A   1      33.268  28.702  27.694  1.00  0.00    -0.356 N 
ATOM      4  H   UNL A   1      33.482  28.755  28.653  1.00  0.00     0.163 HD
ENDROOT
BRANCH   1   5
ATOM      5  C   UNL A   1      31.481  28.100  26.004  1.00  0.00     0.107 C 
BRANCH   5   6
ATOM      6  C   UNL A   1      31.765  26.782  25.212  1.00  0.00    -0.012 C 
ATOM      7  C   UNL A   1      32.598  27.129  23.943  1.00  0.00     0.008 C 
ATOM      8  C   UNL A   1      30.469  26.120  24.667  1.00  0.00     0.008 C 
ATOM      9  C   UNL A   1      31.859  27.964  22.893  1.00  0.00     0.001 C 
ATOM     10  C   UNL A   1      29.689  26.958  23.659  1.00  0.00     0.001 C 
ATOM     11  C   UNL A   1      30.557  27.298  22.459  1.00  0.00     0.000 C 
BRANCH   6  12
ATOM     12  C   UNL A   1      32.467  25.710  26.112  1.00  0.00     0.108 C 
BRANCH  12  13
ATOM     13  C   UNL A   1      31.803  24.362  26.290  1.00  0.00     0.226 C 
ATOM     14  N   UNL A   1      32.058  23.247  25.430  1.00  0.00    -0.311 N 
ATOM     15  H   UNL A   1      31.699  22.380  25.729  1.00  0.00     0.171 HD
ATOM     16  O   UNL A   1      31.024  24.100  27.193  1.00  0.00    -0.275 OA
BRANCH  14  17
ATOM     17  C   UNL A   1      32.745  23.238  24.232  1.00  0.00     0.131 A 
ATOM     18  N   UNL A   1      34.073  22.912  24.048  1.00  0.00    -0.246 N 
ATOM     19  N   UNL A   1      34.478  23.108  22.775  1.00  0.00    -0.179 NA
ATOM     20  C   UNL A   1      33.377  23.478  22.127  1.00  0.00     0.137 A 
ATOM     21  C   UNL A   1      32.255  23.502  22.971  1.00  0.00     0.068 A 
BRANCH  18  22
ATOM     22  C   UNL A   1      34.969  22.222  24.977  1.00  0.00     0.120 C 
ATOM     23  C   UNL A   1      34.768  20.711  24.813  1.00  0.00     0.034 C 
BRANCH  22  24
ATOM     24  C   UNL A   1      36.445  22.713  24.993  1.00  0.00     0.079 C 
ATOM     25  C   UNL A   1      36.722  23.909  25.935  1.00  0.00     0.045 C 
ATOM     26  S   UNL A   1      37.788  21.519  25.392  1.00  0.00    -0.128 SA
ATOM     27  C   UNL A   1      38.177  23.898  26.293  1.00  0.00    -0.019 C 
ATOM     28  C   UNL A   1      38.807  22.742  26.068  1.00  0.00     0.037 C 
ENDBRANCH  22  24
ENDBRANCH  18  22
ENDBRANCH  14  17
ENDBRANCH  12  13
ENDBRANCH   6  12
ENDBRANCH   5   6
ENDBRANCH   1   5
BRANCH   3  29
ATOM     29  C   UNL A   1      34.335  29.147  26.818  1.00  0.00     0.116 C 
BRANCH  29  30
ATOM     30  C   UNL A   1      35.058  30.379  27.379  1.00  0.00     0.023 C 
BRANCH  30  31
ATOM     31  C   UNL A   1      34.187  31.482  27.981  1.00  0.00     0.023 C 
BRANCH  31  32
ATOM     32  C   UNL A   1      34.942  32.700  28.496  1.00  0.00     0.116 C 
BRANCH  32  33
ATOM     33  N   UNL A   1      34.909  32.843  29.951  1.00  0.00    -0.352 N 
ATOM     34  C   UNL A   1      35.581  32.066  30.882  1.00  0.00     0.251 C 
ATOM     35  H   UNL A   1      34.348  33.569  30.309  1.00  0.00     0.163 HD
ATOM     36  O   UNL A   1      35.258  32.026  32.052  1.00  0.00    -0.269 OA
BRANCH  34  37
ATOM     37  C   UNL A   1      36.727  31.288  30.382  1.00  0.00     0.039 A 
ATOM     38  C   UNL A   1      37.944  31.909  30.106  1.00  0.00     0.014 A 
ATOM     39  C   UNL A   1      36.605  29.903  30.412  1.00  0.00     0.014 A 
ATOM     40  C   UNL A   1      39.081  31.115  29.964  1.00  0.00     0.010 A 
ATOM     41  C   UNL A   1      37.752  29.136  30.395  1.00  0.00     0.010 A 
ATOM     42  C   UNL A   1      38.997  29.724  30.154  1.00  0.00    -0.014 A 
BRANCH  42  43
ATOM     43  C   UNL A   1      40.222  28.914  30.189  1.00  0.00     0.031 A 
ATOM     44  C   UNL A   1      40.885  28.708  31.519  1.00  0.00     0.074 A 
ATOM     45  C   UNL A   1      40.687  28.205  29.137  1.00  0.00     0.049 A 
ATOM     46  N   UNL A   1      42.088  29.038  31.872  1.00  0.00    -0.248 NA
ATOM     47  C   UNL A   1      40.111  28.073  32.597  1.00  0.00     0.031 C 
ATOM     48  C   UNL A   1      40.083  27.996  27.816  1.00  0.00     0.029 A 
ATOM     49  N   UNL A   1      41.804  27.425  29.083  1.00  0.00    -0.354 N 
ATOM     50  C   UNL A   1      42.280  28.553  33.168  1.00  0.00     0.074 A 
ATOM     51  C   UNL A   1      41.003  28.034  33.591  1.00  0.00     0.031 C 
ATOM     52  C   UNL A   1      40.708  26.978  27.187  1.00  0.00     0.029 A 
ATOM     53  C   UNL A   1      41.872  26.610  27.968  1.00  0.00     0.049 A 
ATOM     54  H   UNL A   1      42.502  27.441  29.777  1.00  0.00     0.167 HD
ATOM     55  C   UNL A   1      43.514  28.491  33.747  1.00  0.00     0.037 A 
ATOM     56  C   UNL A   1      42.821  25.692  27.685  1.00  0.00     0.037 A 
ATOM     57  C   UNL A   1      44.467  29.314  33.054  1.00  0.00     0.049 A 
ATOM     58  C   UNL A   1      44.035  26.055  28.449  1.00  0.00     0.074 A 
ATOM     59  C   UNL A   1      44.585  30.666  32.799  1.00  0.00     0.029 A 
ATOM     60  N   UNL A   1      45.370  28.708  32.218  1.00  0.00    -0.354 N 
ATOM     61  N   UNL A   1      44.744  27.126  28.223  1.00  0.00    -0.248 NA
ATOM     62  C   UNL A   1      44.249  25.423  29.740  1.00  0.00     0.031 C 
ATOM     63  C   UNL A   1      45.150  30.745  31.492  1.00  0.00     0.029 A 
ATOM     64  C   UNL A   1      45.370  29.436  31.056  1.00  0.00     0.049 A 
ATOM     65  H   UNL A   1      45.912  27.911  32.414  1.00  0.00     0.167 HD
ATOM     66  C   UNL A   1      45.177  27.534  29.474  1.00  0.00     0.074 A 
ATOM     67  C   UNL A   1      44.941  26.389  30.348  1.00  0.00     0.031 C 
ATOM     68  C   UNL A   1      45.435  28.847  29.741  1.00  0.00     0.037 A 
BRANCH  55  69
ATOM     69  C   UNL A   1      43.959  27.491  34.789  1.00  0.00     0.064 A 
ATOM     70  C   UNL A   1      43.885  26.108  34.508  1.00  0.00     0.173 A 
ATOM     71  C   UNL A   1      44.165  27.824  36.142  1.00  0.00     0.173 A 
ATOM     72  F   UNL A   1      43.674  25.673  33.257  1.00  0.00    -0.203 F 
ATOM     73  C   UNL A   1      43.937  25.141  35.517  1.00  0.00     0.198 A 
ATOM     74  C   UNL A   1      44.267  26.853  37.141  1.00  0.00     0.198 A 
ATOM     75  F   UNL A   1      44.168  29.095  36.561  1.00  0.00    -0.203 F 
ATOM     76  F   UNL A   1      43.739  23.850  35.214  1.00  0.00    -0.200 F 
ATOM     77  C   UNL A   1      44.121  25.515  36.834  1.00  0.00     0.200 A 
ATOM     78  F   UNL A   1      44.431  27.234  38.416  1.00  0.00    -0.200 F 
ATOM     79  F   UNL A   1      44.110  24.598  37.811  1.00  0.00    -0.200 F 
ENDBRANCH  55  69
BRANCH  56  80
ATOM     80  C   UNL A   1      42.643  24.403  26.989  1.00  0.00     0.064 A 
ATOM     81  C   UNL A   1      43.112  24.206  25.684  1.00  0.00     0.173 A 
ATOM     82  C   UNL A   1      42.229  23.255  27.695  1.00  0.00     0.173 A 
ATOM     83  F   UNL A   1      43.557  25.246  24.965  1.00  0.00    -0.203 F 
ATOM     84  C   UNL A   1      43.188  22.927  25.124  1.00  0.00     0.198 A 
ATOM     85  C   UNL A   1      42.300  21.982  27.134  1.00  0.00     0.198 A 
ATOM     86  F   UNL A   1      41.834  23.341  28.974  1.00  0.00    -0.203 F 
ATOM     87  F   UNL A   1      43.695  22.767  23.894  1.00  0.00    -0.200 F 
ATOM     88  C   UNL A   1      42.792  21.817  25.853  1.00  0.00     0.200 A 
ATOM     89  F   UNL A   1      41.943  20.914  27.862  1.00  0.00    -0.200 F 
ATOM     90  F   UNL A   1      42.920  20.586  25.337  1.00  0.00    -0.200 F 
ENDBRANCH  56  80
BRANCH  68  91
ATOM     91  C   UNL A   1      45.510  29.804  28.586  1.00  0.00     0.064 A 
ATOM     92  C   UNL A   1      44.395  30.483  28.065  1.00  0.00     0.173 A 
ATOM     93  C   UNL A   1      46.773  30.179  28.110  1.00  0.00     0.173 A 
ATOM     94  F   UNL A   1      43.166  30.256  28.540  1.00  0.00    -0.203 F 
ATOM     95  C   UNL A   1      44.539  31.466  27.088  1.00  0.00     0.198 A 
ATOM     96  C   UNL A   1      46.917  31.185  27.158  1.00  0.00     0.198 A 
ATOM     97  F   UNL A   1      47.878  29.607  28.616  1.00  0.00    -0.203 F 
ATOM     98  F   UNL A   1      43.458  32.099  26.606  1.00  0.00    -0.200 F 
ATOM     99  C   UNL A   1      45.801  31.823  26.642  1.00  0.00     0.200 A 
ATOM    100  F   UNL A   1      48.142  31.562  26.767  1.00  0.00    -0.200 F 
ATOM    101  F   UNL A   1      45.943  32.802  25.738  1.00  0.00    -0.200 F 
ENDBRANCH  68  91
ENDBRANCH  42  43
ENDBRANCH  34  37
ENDBRANCH  32  33
ENDBRANCH  31  32
ENDBRANCH  30  31
ENDBRANCH  29  30
ENDBRANCH   3  29
TORSDOF 17
ENDMDL
MODEL 3
REMARK VINA RESULT:     -13.1      1.368      2.151
REMARK SMILES C[C@@H]([C@H]1CC=CS1)n1nccc1NC(=O)CC1(CC(=O)NCCCCNC(=O)c2ccc(-c3c4nc(c(-c5c(F)c(F)c(F)c(F)c5F)c5ccc([nH]5)c(-c5c(F)c(F)c(F)c(F)c5F)c5nc(c(-c6c(F)c(F)c(F)c(F)c6F)c6ccc3[nH]6)C=C5)C=C4)cc2)CCCCC1
REMARK SMILES IDX 19 1 20 2 21 3 18 5 17 6 92 7 96 8 93 9 95 10 94 11 16 12
REMARK SMILES IDX 14 13 13 14 15 16 12 17 8 18 9 19 10 20 11 21 2 22 1 23 3 24
REMARK SMILES IDX 4 25 7 26 5 27 6 28 22 29 23 30 24 31 25 32 26 33 27 34
REMARK SMILES IDX 28 36 29 37 30 38 91 39 31 40 90 41 32 42 33 43 34 44 84 45
REMARK SMILES IDX 35 46 89 47 83 48 85 49 36 50 88 51 82 52 81 53 37 55 69 56
REMARK SMILES IDX 49 57 68 58 50 59 53 60 67 61 86 62 51 63 52 64 66 66 87 67
REMARK SMILES IDX 54 68 38 69 39 70 47 71 40 72 41 73 45 74 48 75 42 76 43 77
REMARK SMILES IDX 46 78 44 79 70 80 71 81 79 82 72 83 73 84 77 85 80 86 74 87
REMARK SMILES IDX 75 88 78 89 76 90 55 91 56 92 64 93 57 94 58 95 62 96 65 97
REMARK SMILES IDX 59 98 60 99 63 100 61 101
REMARK H PARENT 21 4 13 15 26 35 85 54 53 65
REMARK Flexibility Score: inf
ROOT
ATOM      1  C   UNL A   1      36.475  22.971  23.558  1.00  0.00     0.220 C 
ATOM      2  O   UNL A   1      36.648  22.955  22.338  1.00  0.00    -0.275 OA
ATOM      3  N   UNL A   1      37.408  23.603  24.314  1.00  0.00    -0.356 N 
ATOM      4  H   UNL A   1      38.160  23.979  23.802  1.00  0.00     0.163 HD
ENDROOT
BRANCH   1   5
ATOM      5  C   UNL A   1      35.251  22.285  24.156  1.00  0.00     0.107 C 
BRANCH   5   6
ATOM      6  C   UNL A   1      33.925  23.104  24.277  1.00  0.00    -0.012 C 
ATOM      7  C   UNL A   1      33.349  22.915  25.711  1.00  0.00     0.008 C 
ATOM      8  C   UNL A   1      32.810  22.583  23.329  1.00  0.00     0.008 C 
ATOM      9  C   UNL A   1      32.863  21.498  26.031  1.00  0.00     0.001 C 
ATOM     10  C   UNL A   1      32.350  21.153  23.597  1.00  0.00     0.001 C 
ATOM     11  C   UNL A   1      31.830  21.016  25.019  1.00  0.00     0.000 C 
BRANCH   6  12
ATOM     12  C   UNL A   1      34.146  24.612  23.916  1.00  0.00     0.108 C 
BRANCH  12  13
ATOM     13  C   UNL A   1      33.324  25.220  22.799  1.00  0.00     0.226 C 
ATOM     14  N   UNL A   1      32.093  25.914  23.024  1.00  0.00    -0.311 N 
ATOM     15  H   UNL A   1      31.727  26.404  22.253  1.00  0.00     0.171 HD
ATOM     16  O   UNL A   1      33.654  25.200  21.624  1.00  0.00    -0.275 OA
BRANCH  14  17
ATOM     17  C   UNL A   1      31.357  25.979  24.190  1.00  0.00     0.131 A 
ATOM     18  N   UNL A   1      31.431  26.963  25.157  1.00  0.00    -0.246 N 
ATOM     19  N   UNL A   1      30.663  26.684  26.232  1.00  0.00    -0.179 NA
ATOM     20  C   UNL A   1      30.031  25.560  25.909  1.00  0.00     0.137 A 
ATOM     21  C   UNL A   1      30.369  25.119  24.620  1.00  0.00     0.068 A 
BRANCH  18  22
ATOM     22  C   UNL A   1      32.048  28.286  25.050  1.00  0.00     0.120 C 
ATOM     23  C   UNL A   1      31.064  29.223  24.341  1.00  0.00     0.034 C 
BRANCH  22  24
ATOM     24  C   UNL A   1      32.699  28.840  26.349  1.00  0.00     0.079 C 
ATOM     25  C   UNL A   1      34.235  28.671  26.430  1.00  0.00     0.045 C 
ATOM     26  S   UNL A   1      32.426  30.601  26.813  1.00  0.00    -0.128 SA
ATOM     27  C   UNL A   1      34.773  29.704  27.371  1.00  0.00    -0.019 C 
ATOM     28  C   UNL A   1      33.948  30.723  27.626  1.00  0.00     0.037 C 
ENDBRANCH  22  24
ENDBRANCH  18  22
ENDBRANCH  14  17
ENDBRANCH  12  13
ENDBRANCH   6  12
ENDBRANCH   5   6
ENDBRANCH   1   5
BRANCH   3  29
ATOM     29  C   UNL A   1      37.491  23.822  25.745  1.00  0.00     0.116 C 
BRANCH  29  30
ATOM     30  C   UNL A   1      37.838  22.533  26.501  1.00  0.00     0.023 C 
BRANCH  30  31
ATOM     31  C   UNL A   1      39.060  21.752  26.018  1.00  0.00     0.023 C 
BRANCH  31  32
ATOM     32  C   UNL A   1      40.243  21.733  26.978  1.00  0.00     0.116 C 
BRANCH  32  33
ATOM     33  N   UNL A   1      41.535  21.947  26.326  1.00  0.00    -0.352 N 
ATOM     34  C   UNL A   1      42.153  23.162  26.076  1.00  0.00     0.251 C 
ATOM     35  H   UNL A   1      42.017  21.140  26.033  1.00  0.00     0.163 HD
ATOM     36  O   UNL A   1      43.041  23.285  25.258  1.00  0.00    -0.269 OA
BRANCH  34  37
ATOM     37  C   UNL A   1      41.683  24.312  26.867  1.00  0.00     0.039 A 
ATOM     38  C   UNL A   1      42.248  24.602  28.108  1.00  0.00     0.014 A 
ATOM     39  C   UNL A   1      40.824  25.201  26.230  1.00  0.00     0.014 A 
ATOM     40  C   UNL A   1      42.026  25.862  28.663  1.00  0.00     0.010 A 
ATOM     41  C   UNL A   1      40.712  26.484  26.726  1.00  0.00     0.010 A 
ATOM     42  C   UNL A   1      41.292  26.826  27.951  1.00  0.00    -0.014 A 
BRANCH  42  43
ATOM     43  C   UNL A   1      41.217  28.206  28.451  1.00  0.00     0.031 A 
ATOM     44  C   UNL A   1      42.245  29.183  27.961  1.00  0.00     0.074 A 
ATOM     45  C   UNL A   1      40.186  28.689  29.179  1.00  0.00     0.049 A 
ATOM     46  N   UNL A   1      43.101  29.860  28.661  1.00  0.00    -0.248 NA
ATOM     47  C   UNL A   1      42.348  29.426  26.514  1.00  0.00     0.031 C 
ATOM     48  C   UNL A   1      38.924  28.038  29.550  1.00  0.00     0.029 A 
ATOM     49  N   UNL A   1      40.031  29.949  29.676  1.00  0.00    -0.354 N 
ATOM     50  C   UNL A   1      43.773  30.706  27.775  1.00  0.00     0.074 A 
ATOM     51  C   UNL A   1      43.320  30.340  26.456  1.00  0.00     0.031 C 
ATOM     52  C   UNL A   1      38.051  28.964  29.999  1.00  0.00     0.029 A 
ATOM     53  C   UNL A   1      38.758  30.221  30.140  1.00  0.00     0.049 A 
ATOM     54  H   UNL A   1      40.763  30.607  29.701  1.00  0.00     0.167 HD
ATOM     55  C   UNL A   1      44.553  31.739  28.205  1.00  0.00     0.037 A 
ATOM     56  C   UNL A   1      38.299  31.398  30.620  1.00  0.00     0.037 A 
ATOM     57  C   UNL A   1      44.898  31.601  29.593  1.00  0.00     0.049 A 
ATOM     58  C   UNL A   1      39.469  32.181  31.074  1.00  0.00     0.074 A 
ATOM     59  C   UNL A   1      45.606  30.675  30.334  1.00  0.00     0.029 A 
ATOM     60  N   UNL A   1      44.231  32.367  30.514  1.00  0.00    -0.354 N 
ATOM     61  N   UNL A   1      40.218  31.849  32.089  1.00  0.00    -0.248 NA
ATOM     62  C   UNL A   1      40.053  33.141  30.152  1.00  0.00     0.031 C 
ATOM     63  C   UNL A   1      44.924  30.607  31.585  1.00  0.00     0.029 A 
ATOM     64  C   UNL A   1      43.870  31.522  31.531  1.00  0.00     0.049 A 
ATOM     65  H   UNL A   1      44.049  33.332  30.457  1.00  0.00     0.167 HD
ATOM     66  C   UNL A   1      41.498  32.229  31.722  1.00  0.00     0.074 A 
ATOM     67  C   UNL A   1      41.317  33.118  30.579  1.00  0.00     0.031 C 
ATOM     68  C   UNL A   1      42.596  31.578  32.206  1.00  0.00     0.037 A 
BRANCH  55  69
ATOM     69  C   UNL A   1      44.807  33.031  27.463  1.00  0.00     0.064 A 
ATOM     70  C   UNL A   1      46.021  33.210  26.762  1.00  0.00     0.173 A 
ATOM     71  C   UNL A   1      44.045  34.199  27.662  1.00  0.00     0.173 A 
ATOM     72  F   UNL A   1      46.837  32.171  26.529  1.00  0.00    -0.203 F 
ATOM     73  C   UNL A   1      46.470  34.473  26.363  1.00  0.00     0.198 A 
ATOM     74  C   UNL A   1      44.472  35.452  27.216  1.00  0.00     0.198 A 
ATOM     75  F   UNL A   1      42.918  34.190  28.384  1.00  0.00    -0.203 F 
ATOM     76  F   UNL A   1      47.684  34.605  25.812  1.00  0.00    -0.200 F 
ATOM     77  C   UNL A   1      45.698  35.594  26.596  1.00  0.00     0.200 A 
ATOM     78  F   UNL A   1      43.718  36.532  27.465  1.00  0.00    -0.200 F 
ATOM     79  F   UNL A   1      46.150  36.812  26.271  1.00  0.00    -0.200 F 
ENDBRANCH  55  69
BRANCH  56  80
ATOM     80  C   UNL A   1      36.941  31.956  30.475  1.00  0.00     0.064 A 
ATOM     81  C   UNL A   1      36.028  31.944  31.537  1.00  0.00     0.173 A 
ATOM     82  C   UNL A   1      36.604  32.748  29.358  1.00  0.00     0.173 A 
ATOM     83  F   UNL A   1      36.298  31.244  32.648  1.00  0.00    -0.203 F 
ATOM     84  C   UNL A   1      34.853  32.700  31.496  1.00  0.00     0.198 A 
ATOM     85  C   UNL A   1      35.431  33.497  29.315  1.00  0.00     0.198 A 
ATOM     86  F   UNL A   1      37.453  32.876  28.326  1.00  0.00    -0.203 F 
ATOM     87  F   UNL A   1      34.028  32.710  32.552  1.00  0.00    -0.200 F 
ATOM     88  C   UNL A   1      34.561  33.484  30.390  1.00  0.00     0.200 A 
ATOM     89  F   UNL A   1      35.176  34.275  28.253  1.00  0.00    -0.200 F 
ATOM     90  F   UNL A   1      33.464  34.254  30.375  1.00  0.00    -0.200 F 
ENDBRANCH  56  80
BRANCH  68  91
ATOM     91  C   UNL A   1      42.408  30.628  33.354  1.00  0.00     0.064 A 
ATOM     92  C   UNL A   1      42.431  31.022  34.702  1.00  0.00     0.173 A 
ATOM     93  C   UNL A   1      42.015  29.312  33.074  1.00  0.00     0.173 A 
ATOM     94  F   UNL A   1      42.694  32.288  35.046  1.00  0.00    -0.203 F 
ATOM     95  C   UNL A   1      42.109  30.130  35.722  1.00  0.00     0.198 A 
ATOM     96  C   UNL A   1      41.662  28.432  34.092  1.00  0.00     0.198 A 
ATOM     97  F   UNL A   1      41.916  28.898  31.800  1.00  0.00    -0.203 F 
ATOM     98  F   UNL A   1      42.139  30.532  37.003  1.00  0.00    -0.200 F 
ATOM     99  C   UNL A   1      41.716  28.837  35.416  1.00  0.00     0.200 A 
ATOM    100  F   UNL A   1      41.233  27.199  33.789  1.00  0.00    -0.200 F 
ATOM    101  F   UNL A   1      41.360  27.993  36.394  1.00  0.00    -0.200 F 
ENDBRANCH  68  91
ENDBRANCH  42  43
ENDBRANCH  34  37
ENDBRANCH  32  33
ENDBRANCH  31  32
ENDBRANCH  30  31
ENDBRANCH  29  30
ENDBRANCH   3  29
TORSDOF 17
ENDMDL
