MODEL 1
REMARK VINA RESULT:     -12.3      0.000      0.000
REMARK SMILES O=C(NCCCCNC(=O)[C@H]1CCCN(C(=O)CCOc2ccc(F)cc2)C1)c1ccc(-c2c3nc(c(-c4c(F)c(F)c(F)c(F)c4F)c4ccc([nH]4)c(-c4c(F)c(F)c(F)c(F)c4F)c4nc(c(-c5c(F)c(F)c(F)c(F)c5F)c5ccc2[nH]5)C=C4)C=C3)cc1
REMARK SMILES IDX 7 1 6 2 5 3 4 4 3 5 1 6 2 7 29 9 30 10 91 11 31 12 90 13
REMARK SMILES IDX 32 14 33 15 34 16 84 17 35 18 89 19 83 20 85 21 36 22 88 23
REMARK SMILES IDX 82 24 81 25 37 27 69 28 49 29 68 30 50 31 53 32 67 33 86 34
REMARK SMILES IDX 51 35 52 36 66 38 87 39 54 40 38 41 39 42 47 43 40 44 41 45
REMARK SMILES IDX 45 46 48 47 42 48 43 49 46 50 44 51 70 52 71 53 79 54 72 55
REMARK SMILES IDX 73 56 77 57 80 58 74 59 75 60 78 61 76 62 55 63 56 64 64 65
REMARK SMILES IDX 57 66 58 67 62 68 65 69 59 70 60 71 63 72 61 73 8 74 9 75
REMARK SMILES IDX 10 77 11 78 12 79 28 80 13 81 15 82 14 83 16 84 17 85 18 86
REMARK SMILES IDX 19 87 20 88 21 89 22 90 27 91 23 92 26 93 24 94 25 95
REMARK H PARENT 3 8 85 26 53 37 8 76
REMARK Flexibility Score: inf
ROOT
ATOM      1  C   UNL A   1      35.701  20.994  25.449  1.00  0.00     0.116 C 
ENDROOT
BRANCH   1   2
ATOM      2  C   UNL A   1      37.111  21.144  24.793  1.00  0.00     0.023 C 
BRANCH   2   3
ATOM      3  C   UNL A   1      38.016  19.920  24.952  1.00  0.00     0.023 C 
BRANCH   3   4
ATOM      4  C   UNL A   1      39.230  20.288  25.774  1.00  0.00     0.116 C 
BRANCH   4   5
ATOM      5  N   UNL A   1      40.201  19.191  25.825  1.00  0.00    -0.352 N 
ATOM      6  O   UNL A   1      42.258  18.263  25.936  1.00  0.00    -0.269 OA
ATOM      7  C   UNL A   1      41.545  19.250  26.054  1.00  0.00     0.251 C 
ATOM      8  H   UNL A   1      39.834  18.291  25.674  1.00  0.00     0.163 HD
BRANCH   7   9
ATOM      9  C   UNL A   1      42.096  20.557  26.405  1.00  0.00     0.039 A 
ATOM     10  C   UNL A   1      42.332  20.854  27.750  1.00  0.00     0.014 A 
ATOM     11  C   UNL A   1      42.237  21.512  25.402  1.00  0.00     0.014 A 
ATOM     12  C   UNL A   1      42.568  22.161  28.116  1.00  0.00     0.010 A 
ATOM     13  C   UNL A   1      42.605  22.798  25.764  1.00  0.00     0.010 A 
ATOM     14  C   UNL A   1      42.754  23.130  27.121  1.00  0.00    -0.014 A 
BRANCH  14  15
ATOM     15  C   UNL A   1      43.220  24.474  27.501  1.00  0.00     0.031 A 
ATOM     16  C   UNL A   1      42.268  25.488  28.042  1.00  0.00     0.074 A 
ATOM     17  C   UNL A   1      44.512  24.773  27.277  1.00  0.00     0.049 A 
ATOM     18  N   UNL A   1      42.474  26.755  28.282  1.00  0.00    -0.248 NA
ATOM     19  C   UNL A   1      40.902  25.028  28.337  1.00  0.00     0.031 C 
ATOM     20  C   UNL A   1      45.514  23.837  26.761  1.00  0.00     0.029 A 
ATOM     21  N   UNL A   1      45.200  25.944  27.437  1.00  0.00    -0.354 N 
ATOM     22  C   UNL A   1      41.259  27.255  28.723  1.00  0.00     0.074 A 
ATOM     23  C   UNL A   1      40.314  26.159  28.698  1.00  0.00     0.031 C 
ATOM     24  C   UNL A   1      46.691  24.464  26.664  1.00  0.00     0.029 A 
ATOM     25  C   UNL A   1      46.503  25.864  27.020  1.00  0.00     0.049 A 
ATOM     26  H   UNL A   1      44.800  26.761  27.814  1.00  0.00     0.167 HD
ATOM     27  C   UNL A   1      40.976  28.520  29.109  1.00  0.00     0.037 A 
ATOM     28  C   UNL A   1      47.437  26.822  26.887  1.00  0.00     0.037 A 
ATOM     29  C   UNL A   1      41.946  29.584  29.124  1.00  0.00     0.049 A 
ATOM     30  C   UNL A   1      47.083  28.228  27.260  1.00  0.00     0.074 A 
ATOM     31  C   UNL A   1      41.780  30.890  29.547  1.00  0.00     0.029 A 
ATOM     32  N   UNL A   1      43.257  29.471  28.676  1.00  0.00    -0.354 N 
ATOM     33  N   UNL A   1      45.943  28.693  27.709  1.00  0.00    -0.248 NA
ATOM     34  C   UNL A   1      48.132  29.242  27.109  1.00  0.00     0.031 C 
ATOM     35  C   UNL A   1      42.954  31.589  29.267  1.00  0.00     0.029 A 
ATOM     36  C   UNL A   1      43.892  30.699  28.766  1.00  0.00     0.049 A 
ATOM     37  H   UNL A   1      43.673  28.642  28.344  1.00  0.00     0.167 HD
ATOM     38  C   UNL A   1      46.141  30.048  27.923  1.00  0.00     0.074 A 
ATOM     39  C   UNL A   1      47.512  30.332  27.548  1.00  0.00     0.031 C 
ATOM     40  C   UNL A   1      45.263  30.964  28.396  1.00  0.00     0.037 A 
BRANCH  27  41
ATOM     41  C   UNL A   1      39.562  28.837  29.502  1.00  0.00     0.064 A 
ATOM     42  C   UNL A   1      38.677  29.388  28.560  1.00  0.00     0.173 A 
ATOM     43  C   UNL A   1      39.087  28.648  30.808  1.00  0.00     0.173 A 
ATOM     44  F   UNL A   1      39.078  29.597  27.297  1.00  0.00    -0.203 F 
ATOM     45  C   UNL A   1      37.379  29.743  28.913  1.00  0.00     0.198 A 
ATOM     46  C   UNL A   1      37.774  28.965  31.147  1.00  0.00     0.198 A 
ATOM     47  F   UNL A   1      39.885  28.119  31.749  1.00  0.00    -0.203 F 
ATOM     48  F   UNL A   1      36.569  30.299  28.002  1.00  0.00    -0.200 F 
ATOM     49  C   UNL A   1      36.925  29.521  30.203  1.00  0.00     0.200 A 
ATOM     50  F   UNL A   1      37.327  28.721  32.387  1.00  0.00    -0.200 F 
ATOM     51  F   UNL A   1      35.666  29.838  30.534  1.00  0.00    -0.200 F 
ENDBRANCH  27  41
BRANCH  28  52
ATOM     52  C   UNL A   1      48.775  26.437  26.380  1.00  0.00     0.064 A 
ATOM     53  C   UNL A   1      49.774  25.963  27.247  1.00  0.00     0.173 A 
ATOM     54  C   UNL A   1      49.123  26.666  25.044  1.00  0.00     0.173 A 
ATOM     55  F   UNL A   1      49.494  25.752  28.542  1.00  0.00    -0.203 F 
ATOM     56  C   UNL A   1      51.081  25.776  26.804  1.00  0.00     0.198 A 
ATOM     57  C   UNL A   1      50.423  26.449  24.594  1.00  0.00     0.198 A 
ATOM     58  F   UNL A   1      48.200  27.114  24.180  1.00  0.00    -0.203 F 
ATOM     59  F   UNL A   1      52.031  25.394  27.667  1.00  0.00    -0.200 F 
ATOM     60  C   UNL A   1      51.404  26.020  25.477  1.00  0.00     0.200 A 
ATOM     61  F   UNL A   1      50.731  26.674  23.310  1.00  0.00    -0.200 F 
ATOM     62  F   UNL A   1      52.663  25.852  25.052  1.00  0.00    -0.200 F 
ENDBRANCH  28  52
BRANCH  40  63
ATOM     63  C   UNL A   1      45.743  32.374  28.585  1.00  0.00     0.064 A 
ATOM     64  C   UNL A   1      45.657  33.288  27.523  1.00  0.00     0.173 A 
ATOM     65  C   UNL A   1      46.432  32.768  29.740  1.00  0.00     0.173 A 
ATOM     66  F   UNL A   1      45.013  32.954  26.394  1.00  0.00    -0.203 F 
ATOM     67  C   UNL A   1      46.290  34.525  27.590  1.00  0.00     0.198 A 
ATOM     68  C   UNL A   1      47.036  34.020  29.816  1.00  0.00     0.198 A 
ATOM     69  F   UNL A   1      46.527  31.936  30.788  1.00  0.00    -0.203 F 
ATOM     70  F   UNL A   1      46.259  35.349  26.534  1.00  0.00    -0.200 F 
ATOM     71  C   UNL A   1      46.983  34.887  28.734  1.00  0.00     0.200 A 
ATOM     72  F   UNL A   1      47.687  34.380  30.930  1.00  0.00    -0.200 F 
ATOM     73  F   UNL A   1      47.609  36.071  28.791  1.00  0.00    -0.200 F 
ENDBRANCH  40  63
ENDBRANCH  14  15
ENDBRANCH   7   9
ENDBRANCH   4   5
ENDBRANCH   3   4
ENDBRANCH   2   3
ENDBRANCH   1   2
BRANCH   1  74
ATOM     74  N   UNL A   1      34.495  20.435  24.719  1.00  0.00    -0.356 N 
ATOM     75  C   UNL A   1      33.186  20.725  24.310  1.00  0.00     0.224 C 
ATOM     76  H   UNL A   1      34.713  19.523  24.420  1.00  0.00     0.163 HD
ATOM     77  O   UNL A   1      32.681  19.830  23.608  1.00  0.00    -0.275 OA
BRANCH  75  78
ATOM     78  C   UNL A   1      32.178  22.252  24.524  1.00  0.00     0.098 C 
ATOM     79  C   UNL A   1      31.976  23.530  26.336  1.00  0.00     0.017 C 
ATOM     80  C   UNL A   1      33.359  22.956  23.141  1.00  0.00     0.132 C 
ATOM     81  C   UNL A   1      33.354  24.978  26.309  1.00  0.00     0.022 C 
ATOM     82  N   UNL A   1      33.829  24.535  23.215  1.00  0.00    -0.342 N 
ATOM     83  C   UNL A   1      34.386  25.186  24.714  1.00  0.00     0.119 C 
BRANCH  82  84
ATOM     84  C   UNL A   1      33.040  25.276  22.263  1.00  0.00     0.226 C 
ATOM     85  O   UNL A   1      33.517  25.637  21.182  1.00  0.00    -0.275 OA
BRANCH  84  86
ATOM     86  C   UNL A   1      31.496  25.356  22.453  1.00  0.00     0.141 C 
BRANCH  86  87
ATOM     87  C   UNL A   1      30.875  26.813  22.415  1.00  0.00     0.239 C 
BRANCH  87  88
ATOM     88  O   UNL A   1      31.596  28.081  22.519  1.00  0.00    -0.493 OA
BRANCH  88  89
ATOM     89  C   UNL A   1      32.073  28.458  23.740  1.00  0.00     0.119 A 
ATOM     90  C   UNL A   1      31.081  28.143  24.997  1.00  0.00     0.049 A 
ATOM     91  C   UNL A   1      33.658  28.723  24.075  1.00  0.00     0.049 A 
ATOM     92  C   UNL A   1      31.581  28.176  26.879  1.00  0.00     0.043 A 
ATOM     93  C   UNL A   1      34.295  28.779  25.643  1.00  0.00     0.043 A 
ATOM     94  C   UNL A   1      33.379  28.522  27.057  1.00  0.00     0.123 A 
ATOM     95  F   UNL A   1      34.062  28.860  28.156  1.00  0.00    -0.207 F 
ENDBRANCH  88  89
ENDBRANCH  87  88
ENDBRANCH  86  87
ENDBRANCH  84  86
ENDBRANCH  82  84
ENDBRANCH  75  78
ENDBRANCH   1  74
TORSDOF 16
ENDMDL
MODEL 2
REMARK VINA RESULT:     -12.3      5.564     10.995
REMARK SMILES O=C(NCCCCNC(=O)[C@H]1CCCN(C(=O)CCOc2ccc(F)cc2)C1)c1ccc(-c2c3nc(c(-c4c(F)c(F)c(F)c(F)c4F)c4ccc([nH]4)c(-c4c(F)c(F)c(F)c(F)c4F)c4nc(c(-c5c(F)c(F)c(F)c(F)c5F)c5ccc2[nH]5)C=C4)C=C3)cc1
REMARK SMILES IDX 7 1 6 2 5 3 4 4 3 5 1 6 2 7 29 9 30 10 91 11 31 12 90 13
REMARK SMILES IDX 32 14 33 15 34 16 84 17 35 18 89 19 83 20 85 21 36 22 88 23
REMARK SMILES IDX 82 24 81 25 37 27 69 28 49 29 68 30 50 31 53 32 67 33 86 34
REMARK SMILES IDX 51 35 52 36 66 38 87 39 54 40 38 41 39 42 47 43 40 44 41 45
REMARK SMILES IDX 45 46 48 47 42 48 43 49 46 50 44 51 70 52 71 53 79 54 72 55
REMARK SMILES IDX 73 56 77 57 80 58 74 59 75 60 78 61 76 62 55 63 56 64 64 65
REMARK SMILES IDX 57 66 58 67 62 68 65 69 59 70 60 71 63 72 61 73 8 74 9 75
REMARK SMILES IDX 10 77 11 78 12 79 28 80 13 81 15 82 14 83 16 84 17 85 18 86
REMARK SMILES IDX 19 87 20 88 21 89 22 90 27 91 23 92 26 93 24 94 25 95
REMARK H PARENT 3 8 85 26 53 37 8 76
REMARK Flexibility Score: inf
ROOT
ATOM      1  C   UNL A   1      34.295  30.147  27.498  1.00  0.00     0.116 C 
ENDROOT
BRANCH   1   2
ATOM      2  C   UNL A   1      34.389  31.626  27.990  1.00  0.00     0.023 C 
BRANCH   2   3
ATOM      3  C   UNL A   1      33.123  32.453  27.755  1.00  0.00     0.023 C 
BRANCH   3   4
ATOM      4  C   UNL A   1      33.501  33.871  27.392  1.00  0.00     0.116 C 
BRANCH   4   5
ATOM      5  N   UNL A   1      32.820  34.848  28.247  1.00  0.00    -0.352 N 
ATOM      6  O   UNL A   1      32.370  35.944  30.171  1.00  0.00    -0.269 OA
ATOM      7  C   UNL A   1      33.108  35.208  29.531  1.00  0.00     0.251 C 
ATOM      8  H   UNL A   1      32.051  35.307  27.839  1.00  0.00     0.163 HD
BRANCH   7   9
ATOM      9  C   UNL A   1      34.317  34.636  30.119  1.00  0.00     0.039 A 
ATOM     10  C   UNL A   1      35.554  34.911  29.527  1.00  0.00     0.014 A 
ATOM     11  C   UNL A   1      34.185  33.725  31.163  1.00  0.00     0.014 A 
ATOM     12  C   UNL A   1      36.649  34.155  29.884  1.00  0.00     0.010 A 
ATOM     13  C   UNL A   1      35.318  33.063  31.608  1.00  0.00     0.010 A 
ATOM     14  C   UNL A   1      36.548  33.263  30.959  1.00  0.00    -0.014 A 
BRANCH  14  15
ATOM     15  C   UNL A   1      37.766  32.620  31.480  1.00  0.00     0.031 A 
ATOM     16  C   UNL A   1      38.421  31.507  30.733  1.00  0.00     0.074 A 
ATOM     17  C   UNL A   1      38.220  33.023  32.680  1.00  0.00     0.049 A 
ATOM     18  N   UNL A   1      39.401  30.733  31.116  1.00  0.00    -0.248 NA
ATOM     19  C   UNL A   1      37.902  31.210  29.389  1.00  0.00     0.031 C 
ATOM     20  C   UNL A   1      37.645  34.112  33.474  1.00  0.00     0.029 A 
ATOM     21  N   UNL A   1      39.252  32.559  33.449  1.00  0.00    -0.354 N 
ATOM     22  C   UNL A   1      39.596  29.835  30.078  1.00  0.00     0.074 A 
ATOM     23  C   UNL A   1      38.618  30.146  29.057  1.00  0.00     0.031 C 
ATOM     24  C   UNL A   1      38.342  34.246  34.606  1.00  0.00     0.029 A 
ATOM     25  C   UNL A   1      39.349  33.193  34.660  1.00  0.00     0.049 A 
ATOM     26  H   UNL A   1      39.863  31.844  33.160  1.00  0.00     0.167 HD
ATOM     27  C   UNL A   1      40.513  28.844  30.002  1.00  0.00     0.037 A 
ATOM     28  C   UNL A   1      40.126  32.928  35.724  1.00  0.00     0.037 A 
ATOM     29  C   UNL A   1      41.474  28.567  31.039  1.00  0.00     0.049 A 
ATOM     30  C   UNL A   1      41.090  31.786  35.643  1.00  0.00     0.074 A 
ATOM     31  C   UNL A   1      42.483  27.622  31.042  1.00  0.00     0.029 A 
ATOM     32  N   UNL A   1      41.531  29.220  32.265  1.00  0.00    -0.354 N 
ATOM     33  N   UNL A   1      41.297  30.958  34.647  1.00  0.00    -0.248 NA
ATOM     34  C   UNL A   1      41.926  31.534  36.821  1.00  0.00     0.031 C 
ATOM     35  C   UNL A   1      43.085  27.636  32.300  1.00  0.00     0.029 A 
ATOM     36  C   UNL A   1      42.525  28.660  33.050  1.00  0.00     0.049 A 
ATOM     37  H   UNL A   1      40.951  29.969  32.535  1.00  0.00     0.167 HD
ATOM     38  C   UNL A   1      42.305  30.104  35.064  1.00  0.00     0.074 A 
ATOM     39  C   UNL A   1      42.666  30.511  36.408  1.00  0.00     0.031 C 
ATOM     40  C   UNL A   1      42.880  29.083  34.385  1.00  0.00     0.037 A 
BRANCH  27  41
ATOM     41  C   UNL A   1      40.498  27.960  28.789  1.00  0.00     0.064 A 
ATOM     42  C   UNL A   1      39.765  26.762  28.801  1.00  0.00     0.173 A 
ATOM     43  C   UNL A   1      41.236  28.259  27.634  1.00  0.00     0.173 A 
ATOM     44  F   UNL A   1      39.044  26.420  29.881  1.00  0.00    -0.203 F 
ATOM     45  C   UNL A   1      39.778  25.898  27.711  1.00  0.00     0.198 A 
ATOM     46  C   UNL A   1      41.213  27.413  26.528  1.00  0.00     0.198 A 
ATOM     47  F   UNL A   1      41.950  29.394  27.563  1.00  0.00    -0.203 F 
ATOM     48  F   UNL A   1      39.098  24.745  27.765  1.00  0.00    -0.200 F 
ATOM     49  C   UNL A   1      40.493  26.229  26.571  1.00  0.00     0.200 A 
ATOM     50  F   UNL A   1      41.880  27.750  25.416  1.00  0.00    -0.200 F 
ATOM     51  F   UNL A   1      40.484  25.409  25.512  1.00  0.00    -0.200 F 
ENDBRANCH  27  41
BRANCH  28  52
ATOM     52  C   UNL A   1      39.991  33.784  36.927  1.00  0.00     0.064 A 
ATOM     53  C   UNL A   1      39.108  33.446  37.965  1.00  0.00     0.173 A 
ATOM     54  C   UNL A   1      40.640  35.022  36.996  1.00  0.00     0.173 A 
ATOM     55  F   UNL A   1      38.444  32.280  37.930  1.00  0.00    -0.203 F 
ATOM     56  C   UNL A   1      38.846  34.336  39.004  1.00  0.00     0.198 A 
ATOM     57  C   UNL A   1      40.401  35.898  38.051  1.00  0.00     0.198 A 
ATOM     58  F   UNL A   1      41.496  35.383  36.028  1.00  0.00    -0.203 F 
ATOM     59  F   UNL A   1      37.944  34.021  39.943  1.00  0.00    -0.200 F 
ATOM     60  C   UNL A   1      39.493  35.562  39.045  1.00  0.00     0.200 A 
ATOM     61  F   UNL A   1      41.036  37.077  38.095  1.00  0.00    -0.200 F 
ATOM     62  F   UNL A   1      39.233  36.424  40.037  1.00  0.00    -0.200 F 
ENDBRANCH  28  52
BRANCH  40  63
ATOM     63  C   UNL A   1      43.998  28.333  35.047  1.00  0.00     0.064 A 
ATOM     64  C   UNL A   1      45.327  28.738  34.842  1.00  0.00     0.173 A 
ATOM     65  C   UNL A   1      43.774  27.132  35.733  1.00  0.00     0.173 A 
ATOM     66  F   UNL A   1      45.593  29.878  34.185  1.00  0.00    -0.203 F 
ATOM     67  C   UNL A   1      46.390  27.941  35.253  1.00  0.00     0.198 A 
ATOM     68  C   UNL A   1      44.841  26.352  36.173  1.00  0.00     0.198 A 
ATOM     69  F   UNL A   1      42.522  26.711  35.968  1.00  0.00    -0.203 F 
ATOM     70  F   UNL A   1      47.648  28.311  34.978  1.00  0.00    -0.200 F 
ATOM     71  C   UNL A   1      46.146  26.747  35.914  1.00  0.00     0.200 A 
ATOM     72  F   UNL A   1      44.606  25.209  36.830  1.00  0.00    -0.200 F 
ATOM     73  F   UNL A   1      47.170  25.970  36.292  1.00  0.00    -0.200 F 
ENDBRANCH  40  63
ENDBRANCH  14  15
ENDBRANCH   7   9
ENDBRANCH   4   5
ENDBRANCH   3   4
ENDBRANCH   2   3
ENDBRANCH   1   2
BRANCH   1  74
ATOM     74  N   UNL A   1      33.103  29.249  27.769  1.00  0.00    -0.356 N 
ATOM     75  C   UNL A   1      32.435  28.095  27.339  1.00  0.00     0.224 C 
ATOM     76  H   UNL A   1      32.611  29.618  28.538  1.00  0.00     0.163 HD
ATOM     77  O   UNL A   1      31.481  27.776  28.071  1.00  0.00    -0.275 OA
BRANCH  75  78
ATOM     78  C   UNL A   1      32.833  26.925  25.973  1.00  0.00     0.098 C 
ATOM     79  C   UNL A   1      32.609  24.709  25.943  1.00  0.00     0.017 C 
ATOM     80  C   UNL A   1      31.443  27.911  25.026  1.00  0.00     0.132 C 
ATOM     81  C   UNL A   1      30.803  24.214  25.245  1.00  0.00     0.022 C 
ATOM     82  N   UNL A   1      30.439  27.097  24.000  1.00  0.00    -0.342 N 
ATOM     83  C   UNL A   1      29.724  25.611  24.513  1.00  0.00     0.119 C 
BRANCH  82  84
ATOM     84  C   UNL A   1      30.885  27.349  22.652  1.00  0.00     0.226 C 
ATOM     85  O   UNL A   1      30.302  28.165  21.930  1.00  0.00    -0.275 OA
BRANCH  84  86
ATOM     86  C   UNL A   1      32.283  26.830  22.204  1.00  0.00     0.141 C 
BRANCH  86  87
ATOM     87  C   UNL A   1      32.389  25.269  21.960  1.00  0.00     0.239 C 
BRANCH  87  88
ATOM     88  O   UNL A   1      33.612  24.487  21.774  1.00  0.00    -0.493 OA
BRANCH  88  89
ATOM     89  C   UNL A   1      33.708  23.276  22.395  1.00  0.00     0.119 A 
ATOM     90  C   UNL A   1      34.985  23.112  23.398  1.00  0.00     0.049 A 
ATOM     91  C   UNL A   1      32.457  22.229  22.585  1.00  0.00     0.049 A 
ATOM     92  C   UNL A   1      35.219  21.705  24.724  1.00  0.00     0.043 A 
ATOM     93  C   UNL A   1      32.460  20.946  23.690  1.00  0.00     0.043 A 
ATOM     94  C   UNL A   1      33.739  20.615  24.767  1.00  0.00     0.123 A 
ATOM     95  F   UNL A   1      33.596  19.419  25.350  1.00  0.00    -0.207 F 
ENDBRANCH  88  89
ENDBRANCH  87  88
ENDBRANCH  86  87
ENDBRANCH  84  86
ENDBRANCH  82  84
ENDBRANCH  75  78
ENDBRANCH   1  74
TORSDOF 16
ENDMDL
MODEL 3
REMARK VINA RESULT:     -12.2      5.529     11.220
REMARK SMILES O=C(NCCCCNC(=O)[C@H]1CCCN(C(=O)CCOc2ccc(F)cc2)C1)c1ccc(-c2c3nc(c(-c4c(F)c(F)c(F)c(F)c4F)c4ccc([nH]4)c(-c4c(F)c(F)c(F)c(F)c4F)c4nc(c(-c5c(F)c(F)c(F)c(F)c5F)c5ccc2[nH]5)C=C4)C=C3)cc1
REMARK SMILES IDX 7 1 6 2 5 3 4 4 3 5 1 6 2 7 29 9 30 10 91 11 31 12 90 13
REMARK SMILES IDX 32 14 33 15 34 16 84 17 35 18 89 19 83 20 85 21 36 22 88 23
REMARK SMILES IDX 82 24 81 25 37 27 69 28 49 29 68 30 50 31 53 32 67 33 86 34
REMARK SMILES IDX 51 35 52 36 66 38 87 39 54 40 38 41 39 42 47 43 40 44 41 45
REMARK SMILES IDX 45 46 48 47 42 48 43 49 46 50 44 51 70 52 71 53 79 54 72 55
REMARK SMILES IDX 73 56 77 57 80 58 74 59 75 60 78 61 76 62 55 63 56 64 64 65
REMARK SMILES IDX 57 66 58 67 62 68 65 69 59 70 60 71 63 72 61 73 8 74 9 75
REMARK SMILES IDX 10 77 11 78 12 79 28 80 13 81 15 82 14 83 16 84 17 85 18 86
REMARK SMILES IDX 19 87 20 88 21 89 22 90 27 91 23 92 26 93 24 94 25 95
REMARK H PARENT 3 8 85 26 53 37 8 76
REMARK Flexibility Score: inf
ROOT
ATOM      1  C   UNL A   1      33.110  29.903  26.640  1.00  0.00     0.116 C 
ENDROOT
BRANCH   1   2
ATOM      2  C   UNL A   1      31.732  30.588  26.910  1.00  0.00     0.023 C 
BRANCH   2   3
ATOM      3  C   UNL A   1      31.691  32.080  26.573  1.00  0.00     0.023 C 
BRANCH   3   4
ATOM      4  C   UNL A   1      32.821  32.794  27.281  1.00  0.00     0.116 C 
BRANCH   4   5
ATOM      5  N   UNL A   1      32.438  34.152  27.678  1.00  0.00    -0.352 N 
ATOM      6  O   UNL A   1      32.468  36.008  28.965  1.00  0.00    -0.269 OA
ATOM      7  C   UNL A   1      32.976  34.941  28.652  1.00  0.00     0.251 C 
ATOM      8  H   UNL A   1      31.692  34.548  27.173  1.00  0.00     0.163 HD
BRANCH   7   9
ATOM      9  C   UNL A   1      34.163  34.428  29.333  1.00  0.00     0.039 A 
ATOM     10  C   UNL A   1      35.425  34.713  28.802  1.00  0.00     0.014 A 
ATOM     11  C   UNL A   1      33.993  33.559  30.406  1.00  0.00     0.014 A 
ATOM     12  C   UNL A   1      36.516  34.004  29.253  1.00  0.00     0.010 A 
ATOM     13  C   UNL A   1      35.115  32.948  30.944  1.00  0.00     0.010 A 
ATOM     14  C   UNL A   1      36.375  33.155  30.359  1.00  0.00    -0.014 A 
BRANCH  14  15
ATOM     15  C   UNL A   1      37.576  32.569  30.977  1.00  0.00     0.031 A 
ATOM     16  C   UNL A   1      38.310  31.452  30.312  1.00  0.00     0.074 A 
ATOM     17  C   UNL A   1      37.943  33.028  32.187  1.00  0.00     0.049 A 
ATOM     18  N   UNL A   1      39.286  30.723  30.781  1.00  0.00    -0.248 NA
ATOM     19  C   UNL A   1      37.884  31.093  28.950  1.00  0.00     0.031 C 
ATOM     20  C   UNL A   1      37.288  34.125  32.903  1.00  0.00     0.029 A 
ATOM     21  N   UNL A   1      38.938  32.623  33.033  1.00  0.00    -0.354 N 
ATOM     22  C   UNL A   1      39.571  29.797  29.791  1.00  0.00     0.074 A 
ATOM     23  C   UNL A   1      38.650  30.041  28.701  1.00  0.00     0.031 C 
ATOM     24  C   UNL A   1      37.909  34.319  34.071  1.00  0.00     0.029 A 
ATOM     25  C   UNL A   1      38.941  33.301  34.224  1.00  0.00     0.049 A 
ATOM     26  H   UNL A   1      39.588  31.918  32.809  1.00  0.00     0.167 HD
ATOM     27  C   UNL A   1      40.520  28.833  29.807  1.00  0.00     0.037 A 
ATOM     28  C   UNL A   1      39.658  33.097  35.343  1.00  0.00     0.037 A 
ATOM     29  C   UNL A   1      41.422  28.623  30.911  1.00  0.00     0.049 A 
ATOM     30  C   UNL A   1      40.659  31.984  35.362  1.00  0.00     0.074 A 
ATOM     31  C   UNL A   1      42.456  27.710  31.010  1.00  0.00     0.029 A 
ATOM     32  N   UNL A   1      41.384  29.318  32.113  1.00  0.00    -0.354 N 
ATOM     33  N   UNL A   1      40.951  31.129  34.412  1.00  0.00    -0.248 NA
ATOM     34  C   UNL A   1      41.427  31.799  36.598  1.00  0.00     0.031 C 
ATOM     35  C   UNL A   1      42.979  27.786  32.301  1.00  0.00     0.029 A 
ATOM     36  C   UNL A   1      42.343  28.817  32.977  1.00  0.00     0.049 A 
ATOM     37  H   UNL A   1      40.766  30.057  32.320  1.00  0.00     0.167 HD
ATOM     38  C   UNL A   1      41.955  30.322  34.921  1.00  0.00     0.074 A 
ATOM     39  C   UNL A   1      42.220  30.786  36.268  1.00  0.00     0.031 C 
ATOM     40  C   UNL A   1      42.601  29.297  34.315  1.00  0.00     0.037 A 
BRANCH  27  41
ATOM     41  C   UNL A   1      40.606  27.907  28.629  1.00  0.00     0.064 A 
ATOM     42  C   UNL A   1      41.368  28.267  27.505  1.00  0.00     0.173 A 
ATOM     43  C   UNL A   1      39.907  26.692  28.578  1.00  0.00     0.173 A 
ATOM     44  F   UNL A   1      42.053  29.421  27.494  1.00  0.00    -0.203 F 
ATOM     45  C   UNL A   1      41.419  27.453  26.378  1.00  0.00     0.198 A 
ATOM     46  C   UNL A   1      39.994  25.859  27.466  1.00  0.00     0.198 A 
ATOM     47  F   UNL A   1      39.168  26.293  29.625  1.00  0.00    -0.203 F 
ATOM     48  F   UNL A   1      42.126  27.840  25.307  1.00  0.00    -0.200 F 
ATOM     49  C   UNL A   1      40.742  26.245  26.363  1.00  0.00     0.200 A 
ATOM     50  F   UNL A   1      39.363  24.677  27.465  1.00  0.00    -0.200 F 
ATOM     51  F   UNL A   1      40.813  25.449  25.287  1.00  0.00    -0.200 F 
ENDBRANCH  27  41
BRANCH  28  52
ATOM     52  C   UNL A   1      39.424  33.989  36.503  1.00  0.00     0.064 A 
ATOM     53  C   UNL A   1      40.081  35.226  36.615  1.00  0.00     0.173 A 
ATOM     54  C   UNL A   1      38.646  33.560  37.585  1.00  0.00     0.173 A 
ATOM     55  F   UNL A   1      40.856  35.667  35.614  1.00  0.00    -0.203 F 
ATOM     56  C   UNL A   1      40.004  35.977  37.786  1.00  0.00     0.198 A 
ATOM     57  C   UNL A   1      38.545  34.327  38.743  1.00  0.00     0.198 A 
ATOM     58  F   UNL A   1      37.998  32.388  37.519  1.00  0.00    -0.203 F 
ATOM     59  F   UNL A   1      40.698  37.117  37.894  1.00  0.00    -0.200 F 
ATOM     60  C   UNL A   1      39.235  35.526  38.848  1.00  0.00     0.200 A 
ATOM     61  F   UNL A   1      37.793  33.895  39.765  1.00  0.00    -0.200 F 
ATOM     62  F   UNL A   1      39.170  36.242  39.979  1.00  0.00    -0.200 F 
ENDBRANCH  28  52
BRANCH  40  63
ATOM     63  C   UNL A   1      43.698  28.606  35.071  1.00  0.00     0.064 A 
ATOM     64  C   UNL A   1      43.384  27.570  35.965  1.00  0.00     0.173 A 
ATOM     65  C   UNL A   1      45.019  29.072  35.040  1.00  0.00     0.173 A 
ATOM     66  F   UNL A   1      42.131  27.094  36.036  1.00  0.00    -0.203 F 
ATOM     67  C   UNL A   1      44.340  27.064  36.839  1.00  0.00     0.198 A 
ATOM     68  C   UNL A   1      45.983  28.539  35.893  1.00  0.00     0.198 A 
ATOM     69  F   UNL A   1      45.373  30.048  34.191  1.00  0.00    -0.203 F 
ATOM     70  F   UNL A   1      43.998  26.130  37.737  1.00  0.00    -0.200 F 
ATOM     71  C   UNL A   1      45.637  27.552  36.805  1.00  0.00     0.200 A 
ATOM     72  F   UNL A   1      47.241  28.995  35.847  1.00  0.00    -0.200 F 
ATOM     73  F   UNL A   1      46.553  27.078  37.661  1.00  0.00    -0.200 F 
ENDBRANCH  40  63
ENDBRANCH  14  15
ENDBRANCH   7   9
ENDBRANCH   4   5
ENDBRANCH   3   4
ENDBRANCH   2   3
ENDBRANCH   1   2
BRANCH   1  74
ATOM     74  N   UNL A   1      33.586  29.498  25.259  1.00  0.00    -0.356 N 
ATOM     75  C   UNL A   1      33.449  28.531  24.253  1.00  0.00     0.224 C 
ATOM     76  H   UNL A   1      34.240  30.167  24.952  1.00  0.00     0.163 HD
ATOM     77  O   UNL A   1      34.086  28.803  23.220  1.00  0.00    -0.275 OA
BRANCH  75  78
ATOM     78  C   UNL A   1      32.382  27.032  24.176  1.00  0.00     0.098 C 
ATOM     79  C   UNL A   1      31.905  25.766  22.407  1.00  0.00     0.017 C 
ATOM     80  C   UNL A   1      33.719  26.293  25.387  1.00  0.00     0.132 C 
ATOM     81  C   UNL A   1      33.235  24.283  22.249  1.00  0.00     0.022 C 
ATOM     82  N   UNL A   1      34.133  24.702  25.251  1.00  0.00    -0.342 N 
ATOM     83  C   UNL A   1      34.467  24.042  23.690  1.00  0.00     0.119 C 
BRANCH  82  84
ATOM     84  C   UNL A   1      33.460  23.978  26.300  1.00  0.00     0.226 C 
ATOM     85  O   UNL A   1      32.229  23.873  26.314  1.00  0.00    -0.275 OA
BRANCH  84  86
ATOM     86  C   UNL A   1      34.291  23.063  27.248  1.00  0.00     0.141 C 
BRANCH  86  87
ATOM     87  C   UNL A   1      34.327  21.527  26.862  1.00  0.00     0.239 C 
BRANCH  87  88
ATOM     88  O   UNL A   1      35.168  20.893  25.848  1.00  0.00    -0.493 OA
BRANCH  88  89
ATOM     89  C   UNL A   1      34.560  20.248  24.811  1.00  0.00     0.119 A 
ATOM     90  C   UNL A   1      34.997  18.687  24.616  1.00  0.00     0.049 A 
ATOM     91  C   UNL A   1      33.156  20.733  24.112  1.00  0.00     0.049 A 
ATOM     92  C   UNL A   1      34.067  17.372  23.522  1.00  0.00     0.043 A 
ATOM     93  C   UNL A   1      32.196  19.739  23.134  1.00  0.00     0.043 A 
ATOM     94  C   UNL A   1      32.545  18.105  22.795  1.00  0.00     0.123 A 
ATOM     95  F   UNL A   1      31.772  17.628  21.814  1.00  0.00    -0.207 F 
ENDBRANCH  88  89
ENDBRANCH  87  88
ENDBRANCH  86  87
ENDBRANCH  84  86
ENDBRANCH  82  84
ENDBRANCH  75  78
ENDBRANCH   1  74
TORSDOF 16
ENDMDL
