MODEL 1
REMARK VINA RESULT:     -11.5      0.000      0.000
REMARK SMILES CCCC[C@H](C(=O)NCCCCNC(=O)c1ccc(-c2c3nc(c(-c4c(F)c(F)c(F)c(F)c4F)c4ccc([nH]4)c(-c4c(F)c(F)c(F)c(F)c4F)c4nc(c(-c5c(F)c(F)c(F)c(F)c5F)c5ccc2[nH]5)C=C4)C=C3)cc1)[C@H](O)c1ccc(C(F)(F)F)cc1
REMARK SMILES IDX 10 1 9 2 8 3 6 4 7 5 5 7 4 8 3 9 2 10 1 11 79 12 81 13 82 14
REMARK SMILES IDX 90 15 83 16 89 17 84 18 85 19 86 20 87 21 88 22 80 23 11 25
REMARK SMILES IDX 12 26 13 27 14 28 15 30 16 31 17 32 78 33 18 34 77 35 19 36
REMARK SMILES IDX 20 37 21 38 71 39 22 40 76 41 70 42 72 43 23 44 75 45 69 46
REMARK SMILES IDX 68 47 24 49 56 50 36 51 55 52 37 53 40 54 54 55 73 56 38 57
REMARK SMILES IDX 39 58 53 60 74 61 41 62 25 63 26 64 34 65 27 66 28 67 32 68
REMARK SMILES IDX 35 69 29 70 30 71 33 72 31 73 57 74 58 75 66 76 59 77 60 78
REMARK SMILES IDX 64 79 67 80 61 81 62 82 65 83 63 84 42 85 43 86 51 87 44 88
REMARK SMILES IDX 45 89 49 90 52 91 46 92 47 93 50 94 48 95
REMARK H PARENT 8 6 80 24 13 29 72 48 40 59
REMARK Flexibility Score: inf
ROOT
ATOM      1  C   UNL A   1      31.776  30.339  26.677  1.00  0.00     0.023 C 
ENDROOT
BRANCH   1   2
ATOM      2  C   UNL A   1      33.104  29.853  26.114  1.00  0.00     0.116 C 
BRANCH   2   3
ATOM      3  N   UNL A   1      33.130  29.855  24.660  1.00  0.00    -0.356 N 
ATOM      4  C   UNL A   1      32.852  28.839  23.788  1.00  0.00     0.226 C 
ATOM      5  O   UNL A   1      32.786  29.116  22.593  1.00  0.00    -0.275 OA
ATOM      6  H   UNL A   1      33.384  30.710  24.243  1.00  0.00     0.163 HD
BRANCH   4   7
ATOM      7  C   UNL A   1      32.689  27.420  24.314  1.00  0.00     0.111 C 
BRANCH   7   8
ATOM      8  C   UNL A   1      31.226  27.066  24.629  1.00  0.00     0.016 C 
BRANCH   8   9
ATOM      9  C   UNL A   1      30.997  26.581  26.073  1.00  0.00     0.001 C 
BRANCH   9  10
ATOM     10  C   UNL A   1      31.397  25.138  26.392  1.00  0.00    -0.003 C 
ATOM     11  C   UNL A   1      30.845  24.105  25.423  1.00  0.00     0.004 C 
ENDBRANCH   9  10
ENDBRANCH   8   9
ENDBRANCH   7   8
BRANCH   7  12
ATOM     12  C   UNL A   1      33.424  26.414  23.390  1.00  0.00     0.157 C 
BRANCH  12  13
ATOM     13  C   UNL A   1      34.055  25.120  23.876  1.00  0.00    -0.019 A 
ATOM     14  C   UNL A   1      34.020  23.903  23.187  1.00  0.00     0.007 A 
ATOM     15  C   UNL A   1      34.630  25.115  25.163  1.00  0.00     0.007 A 
ATOM     16  C   UNL A   1      34.450  22.714  23.792  1.00  0.00     0.013 A 
ATOM     17  C   UNL A   1      35.075  23.933  25.766  1.00  0.00     0.013 A 
ATOM     18  C   UNL A   1      34.963  22.712  25.094  1.00  0.00     0.056 A 
BRANCH  18  19
ATOM     19  C   UNL A   1      35.346  21.412  25.756  1.00  0.00     0.416 C 
ATOM     20  F   UNL A   1      34.853  21.314  27.024  1.00  0.00    -0.166 F 
ATOM     21  F   UNL A   1      34.878  20.320  25.090  1.00  0.00    -0.166 F 
ATOM     22  F   UNL A   1      36.692  21.230  25.870  1.00  0.00    -0.166 F 
ENDBRANCH  18  19
ENDBRANCH  12  13
BRANCH  12  23
ATOM     23  O   UNL A   1      32.633  26.155  22.219  1.00  0.00    -0.388 OA
ATOM     24  H   UNL A   1      31.763  26.572  22.318  1.00  0.00     0.211 HD
ENDBRANCH  12  23
ENDBRANCH   7  12
ENDBRANCH   4   7
ENDBRANCH   2   3
ENDBRANCH   1   2
BRANCH   1  25
ATOM     25  C   UNL A   1      31.596  31.854  26.699  1.00  0.00     0.023 C 
BRANCH  25  26
ATOM     26  C   UNL A   1      32.767  32.639  27.274  1.00  0.00     0.116 C 
BRANCH  26  27
ATOM     27  N   UNL A   1      32.426  34.017  27.596  1.00  0.00    -0.352 N 
ATOM     28  C   UNL A   1      32.968  34.841  28.551  1.00  0.00     0.251 C 
ATOM     29  H   UNL A   1      31.705  34.414  27.054  1.00  0.00     0.163 HD
ATOM     30  O   UNL A   1      32.471  35.938  28.789  1.00  0.00    -0.269 OA
BRANCH  28  31
ATOM     31  C   UNL A   1      34.145  34.381  29.314  1.00  0.00     0.039 A 
ATOM     32  C   UNL A   1      33.953  33.736  30.537  1.00  0.00     0.014 A 
ATOM     33  C   UNL A   1      35.431  34.552  28.795  1.00  0.00     0.014 A 
ATOM     34  C   UNL A   1      35.051  33.192  31.207  1.00  0.00     0.010 A 
ATOM     35  C   UNL A   1      36.511  33.943  29.423  1.00  0.00     0.010 A 
ATOM     36  C   UNL A   1      36.332  33.259  30.636  1.00  0.00    -0.014 A 
BRANCH  36  37
ATOM     37  C   UNL A   1      37.507  32.636  31.293  1.00  0.00     0.031 A 
ATOM     38  C   UNL A   1      38.231  31.508  30.610  1.00  0.00     0.074 A 
ATOM     39  C   UNL A   1      37.876  33.030  32.527  1.00  0.00     0.049 A 
ATOM     40  N   UNL A   1      39.205  30.757  31.056  1.00  0.00    -0.248 NA
ATOM     41  C   UNL A   1      37.777  31.159  29.255  1.00  0.00     0.031 C 
ATOM     42  C   UNL A   1      37.231  34.086  33.309  1.00  0.00     0.029 A 
ATOM     43  N   UNL A   1      38.879  32.577  33.349  1.00  0.00    -0.354 N 
ATOM     44  C   UNL A   1      39.466  29.841  30.046  1.00  0.00     0.074 A 
ATOM     45  C   UNL A   1      38.513  30.091  28.988  1.00  0.00     0.031 C 
ATOM     46  C   UNL A   1      37.865  34.213  34.486  1.00  0.00     0.029 A 
ATOM     47  C   UNL A   1      38.933  33.222  34.560  1.00  0.00     0.049 A 
ATOM     48  H   UNL A   1      39.500  31.857  33.093  1.00  0.00     0.167 HD
ATOM     49  C   UNL A   1      40.434  28.895  29.994  1.00  0.00     0.037 A 
ATOM     50  C   UNL A   1      39.748  33.025  35.615  1.00  0.00     0.037 A 
ATOM     51  C   UNL A   1      41.398  28.668  31.036  1.00  0.00     0.049 A 
ATOM     52  C   UNL A   1      40.805  31.955  35.535  1.00  0.00     0.074 A 
ATOM     53  C   UNL A   1      42.443  27.760  31.062  1.00  0.00     0.029 A 
ATOM     54  N   UNL A   1      41.436  29.358  32.238  1.00  0.00    -0.354 N 
ATOM     55  N   UNL A   1      41.078  31.130  34.553  1.00  0.00    -0.248 NA
ATOM     56  C   UNL A   1      41.671  31.790  36.711  1.00  0.00     0.031 C 
ATOM     57  C   UNL A   1      43.091  27.876  32.296  1.00  0.00     0.029 A 
ATOM     58  C   UNL A   1      42.480  28.889  33.018  1.00  0.00     0.049 A 
ATOM     59  H   UNL A   1      40.814  30.076  32.498  1.00  0.00     0.167 HD
ATOM     60  C   UNL A   1      42.167  30.381  34.975  1.00  0.00     0.074 A 
ATOM     61  C   UNL A   1      42.512  30.853  36.299  1.00  0.00     0.031 C 
ATOM     62  C   UNL A   1      42.825  29.390  34.323  1.00  0.00     0.037 A 
BRANCH  49  63
ATOM     63  C   UNL A   1      40.502  28.041  28.761  1.00  0.00     0.064 A 
ATOM     64  C   UNL A   1      41.278  28.414  27.654  1.00  0.00     0.173 A 
ATOM     65  C   UNL A   1      39.819  26.817  28.701  1.00  0.00     0.173 A 
ATOM     66  F   UNL A   1      41.940  29.581  27.655  1.00  0.00    -0.203 F 
ATOM     67  C   UNL A   1      41.346  27.607  26.522  1.00  0.00     0.198 A 
ATOM     68  C   UNL A   1      39.914  25.998  27.579  1.00  0.00     0.198 A 
ATOM     69  F   UNL A   1      39.065  26.411  29.734  1.00  0.00    -0.203 F 
ATOM     70  F   UNL A   1      42.055  28.008  25.456  1.00  0.00    -0.200 F 
ATOM     71  C   UNL A   1      40.671  26.397  26.488  1.00  0.00     0.200 A 
ATOM     72  F   UNL A   1      39.271  24.823  27.554  1.00  0.00    -0.200 F 
ATOM     73  F   UNL A   1      40.746  25.616  25.401  1.00  0.00    -0.200 F 
ENDBRANCH  49  63
BRANCH  50  74
ATOM     74  C   UNL A   1      39.618  33.870  36.832  1.00  0.00     0.064 A 
ATOM     75  C   UNL A   1      38.826  33.455  37.912  1.00  0.00     0.173 A 
ATOM     76  C   UNL A   1      40.254  35.115  36.930  1.00  0.00     0.173 A 
ATOM     77  F   UNL A   1      38.180  32.280  37.857  1.00  0.00    -0.203 F 
ATOM     78  C   UNL A   1      38.652  34.265  39.033  1.00  0.00     0.198 A 
ATOM     79  C   UNL A   1      40.104  35.912  38.064  1.00  0.00     0.198 A 
ATOM     80  F   UNL A   1      41.026  35.557  35.927  1.00  0.00    -0.203 F 
ATOM     81  F   UNL A   1      37.845  33.867  40.026  1.00  0.00    -0.200 F 
ATOM     82  C   UNL A   1      39.294  35.492  39.109  1.00  0.00     0.200 A 
ATOM     83  F   UNL A   1      40.736  37.091  38.140  1.00  0.00    -0.200 F 
ATOM     84  F   UNL A   1      39.124  36.273  40.185  1.00  0.00    -0.200 F 
ENDBRANCH  50  74
BRANCH  62  85
ATOM     85  C   UNL A   1      44.019  28.789  35.005  1.00  0.00     0.064 A 
ATOM     86  C   UNL A   1      45.309  29.311  34.834  1.00  0.00     0.173 A 
ATOM     87  C   UNL A   1      43.859  27.704  35.881  1.00  0.00     0.173 A 
ATOM     88  F   UNL A   1      45.516  30.339  33.997  1.00  0.00    -0.203 F 
ATOM     89  C   UNL A   1      46.399  28.754  35.497  1.00  0.00     0.198 A 
ATOM     90  C   UNL A   1      44.946  27.169  36.566  1.00  0.00     0.198 A 
ATOM     91  F   UNL A   1      42.644  27.173  36.084  1.00  0.00    -0.203 F 
ATOM     92  F   UNL A   1      47.630  29.239  35.284  1.00  0.00    -0.200 F 
ATOM     93  C   UNL A   1      46.216  27.689  36.368  1.00  0.00     0.200 A 
ATOM     94  F   UNL A   1      44.764  26.150  37.418  1.00  0.00    -0.200 F 
ATOM     95  F   UNL A   1      47.264  27.161  37.013  1.00  0.00    -0.200 F 
ENDBRANCH  62  85
ENDBRANCH  36  37
ENDBRANCH  28  31
ENDBRANCH  26  27
ENDBRANCH  25  26
ENDBRANCH   1  25
TORSDOF 18
ENDMDL
MODEL 2
REMARK VINA RESULT:     -11.4      4.483      8.193
REMARK SMILES CCCC[C@H](C(=O)NCCCCNC(=O)c1ccc(-c2c3nc(c(-c4c(F)c(F)c(F)c(F)c4F)c4ccc([nH]4)c(-c4c(F)c(F)c(F)c(F)c4F)c4nc(c(-c5c(F)c(F)c(F)c(F)c5F)c5ccc2[nH]5)C=C4)C=C3)cc1)[C@H](O)c1ccc(C(F)(F)F)cc1
REMARK SMILES IDX 10 1 9 2 8 3 6 4 7 5 5 7 4 8 3 9 2 10 1 11 79 12 81 13 82 14
REMARK SMILES IDX 90 15 83 16 89 17 84 18 85 19 86 20 87 21 88 22 80 23 11 25
REMARK SMILES IDX 12 26 13 27 14 28 15 30 16 31 17 32 78 33 18 34 77 35 19 36
REMARK SMILES IDX 20 37 21 38 71 39 22 40 76 41 70 42 72 43 23 44 75 45 69 46
REMARK SMILES IDX 68 47 24 49 56 50 36 51 55 52 37 53 40 54 54 55 73 56 38 57
REMARK SMILES IDX 39 58 53 60 74 61 41 62 25 63 26 64 34 65 27 66 28 67 32 68
REMARK SMILES IDX 35 69 29 70 30 71 33 72 31 73 57 74 58 75 66 76 59 77 60 78
REMARK SMILES IDX 64 79 67 80 61 81 62 82 65 83 63 84 42 85 43 86 51 87 44 88
REMARK SMILES IDX 45 89 49 90 52 91 46 92 47 93 50 94 48 95
REMARK H PARENT 8 6 80 24 13 29 72 48 40 59
REMARK Flexibility Score: inf
ROOT
ATOM      1  C   UNL A   1      34.359  23.072  26.810  1.00  0.00     0.023 C 
ENDROOT
BRANCH   1   2
ATOM      2  C   UNL A   1      33.269  22.046  26.535  1.00  0.00     0.116 C 
BRANCH   2   3
ATOM      3  N   UNL A   1      32.004  22.390  27.162  1.00  0.00    -0.356 N 
ATOM      4  C   UNL A   1      31.062  23.299  26.767  1.00  0.00     0.226 C 
ATOM      5  O   UNL A   1      29.990  23.308  27.370  1.00  0.00    -0.275 OA
ATOM      6  H   UNL A   1      31.794  21.899  27.989  1.00  0.00     0.163 HD
BRANCH   4   7
ATOM      7  C   UNL A   1      31.387  24.282  25.652  1.00  0.00     0.111 C 
BRANCH   7   8
ATOM      8  C   UNL A   1      30.969  23.768  24.263  1.00  0.00     0.016 C 
BRANCH   8   9
ATOM      9  C   UNL A   1      32.106  23.779  23.225  1.00  0.00     0.001 C 
BRANCH   9  10
ATOM     10  C   UNL A   1      32.210  25.010  22.321  1.00  0.00    -0.003 C 
ATOM     11  C   UNL A   1      33.345  25.956  22.679  1.00  0.00     0.004 C 
ENDBRANCH   9  10
ENDBRANCH   8   9
ENDBRANCH   7   8
BRANCH   7  12
ATOM     12  C   UNL A   1      30.865  25.699  26.012  1.00  0.00     0.157 C 
BRANCH  12  13
ATOM     13  C   UNL A   1      31.748  26.822  26.531  1.00  0.00    -0.019 A 
ATOM     14  C   UNL A   1      31.290  27.940  27.235  1.00  0.00     0.007 A 
ATOM     15  C   UNL A   1      33.115  26.790  26.191  1.00  0.00     0.007 A 
ATOM     16  C   UNL A   1      32.137  29.024  27.505  1.00  0.00     0.013 A 
ATOM     17  C   UNL A   1      33.969  27.863  26.471  1.00  0.00     0.013 A 
ATOM     18  C   UNL A   1      33.479  29.007  27.108  1.00  0.00     0.056 A 
BRANCH  18  19
ATOM     19  C   UNL A   1      34.352  30.215  27.336  1.00  0.00     0.416 C 
ATOM     20  F   UNL A   1      33.760  31.368  26.914  1.00  0.00    -0.166 F 
ATOM     21  F   UNL A   1      34.654  30.411  28.650  1.00  0.00    -0.166 F 
ATOM     22  F   UNL A   1      35.548  30.157  26.684  1.00  0.00    -0.166 F 
ENDBRANCH  18  19
ENDBRANCH  12  13
BRANCH  12  23
ATOM     23  O   UNL A   1      30.025  26.195  24.957  1.00  0.00    -0.388 OA
ATOM     24  H   UNL A   1      30.571  26.430  24.191  1.00  0.00     0.211 HD
ENDBRANCH  12  23
ENDBRANCH   7  12
ENDBRANCH   4   7
ENDBRANCH   2   3
ENDBRANCH   1   2
BRANCH   1  25
ATOM     25  C   UNL A   1      35.115  23.561  25.578  1.00  0.00     0.023 C 
BRANCH  25  26
ATOM     26  C   UNL A   1      36.559  23.980  25.825  1.00  0.00     0.116 C 
BRANCH  26  27
ATOM     27  N   UNL A   1      37.469  22.848  25.932  1.00  0.00    -0.352 N 
ATOM     28  C   UNL A   1      38.778  22.828  26.346  1.00  0.00     0.251 C 
ATOM     29  H   UNL A   1      37.094  21.975  25.671  1.00  0.00     0.163 HD
ATOM     30  O   UNL A   1      39.452  21.807  26.247  1.00  0.00    -0.269 OA
BRANCH  28  31
ATOM     31  C   UNL A   1      39.379  24.062  26.889  1.00  0.00     0.039 A 
ATOM     32  C   UNL A   1      40.022  24.945  26.019  1.00  0.00     0.014 A 
ATOM     33  C   UNL A   1      39.267  24.361  28.249  1.00  0.00     0.014 A 
ATOM     34  C   UNL A   1      40.488  26.169  26.502  1.00  0.00     0.010 A 
ATOM     35  C   UNL A   1      39.661  25.610  28.712  1.00  0.00     0.010 A 
ATOM     36  C   UNL A   1      40.277  26.526  27.844  1.00  0.00    -0.014 A 
BRANCH  36  37
ATOM     37  C   UNL A   1      40.705  27.845  28.372  1.00  0.00     0.031 A 
ATOM     38  C   UNL A   1      42.155  28.084  28.691  1.00  0.00     0.074 A 
ATOM     39  C   UNL A   1      39.787  28.796  28.632  1.00  0.00     0.049 A 
ATOM     40  N   UNL A   1      42.719  29.118  29.261  1.00  0.00    -0.248 NA
ATOM     41  C   UNL A   1      43.091  27.001  28.352  1.00  0.00     0.031 C 
ATOM     42  C   UNL A   1      38.347  28.671  28.401  1.00  0.00     0.029 A 
ATOM     43  N   UNL A   1      39.928  30.055  29.163  1.00  0.00    -0.354 N 
ATOM     44  C   UNL A   1      44.067  28.802  29.361  1.00  0.00     0.074 A 
ATOM     45  C   UNL A   1      44.230  27.460  28.848  1.00  0.00     0.031 C 
ATOM     46  C   UNL A   1      37.741  29.812  28.770  1.00  0.00     0.029 A 
ATOM     47  C   UNL A   1      38.741  30.732  29.300  1.00  0.00     0.049 A 
ATOM     48  H   UNL A   1      40.799  30.435  29.422  1.00  0.00     0.167 HD
ATOM     49  C   UNL A   1      45.083  29.574  29.815  1.00  0.00     0.037 A 
ATOM     50  C   UNL A   1      38.491  31.954  29.808  1.00  0.00     0.037 A 
ATOM     51  C   UNL A   1      44.923  30.919  30.298  1.00  0.00     0.049 A 
ATOM     52  C   UNL A   1      39.639  32.785  30.319  1.00  0.00     0.074 A 
ATOM     53  C   UNL A   1      45.894  31.799  30.743  1.00  0.00     0.029 A 
ATOM     54  N   UNL A   1      43.707  31.580  30.398  1.00  0.00    -0.354 N 
ATOM     55  N   UNL A   1      40.917  32.497  30.359  1.00  0.00    -0.248 NA
ATOM     56  C   UNL A   1      39.308  34.114  30.853  1.00  0.00     0.031 C 
ATOM     57  C   UNL A   1      45.262  32.979  31.146  1.00  0.00     0.029 A 
ATOM     58  C   UNL A   1      43.903  32.853  30.908  1.00  0.00     0.049 A 
ATOM     59  H   UNL A   1      42.835  31.201  30.144  1.00  0.00     0.167 HD
ATOM     60  C   UNL A   1      41.545  33.619  30.882  1.00  0.00     0.074 A 
ATOM     61  C   UNL A   1      40.509  34.597  31.137  1.00  0.00     0.031 C 
ATOM     62  C   UNL A   1      42.863  33.823  31.129  1.00  0.00     0.037 A 
BRANCH  49  63
ATOM     63  C   UNL A   1      46.464  28.984  29.798  1.00  0.00     0.064 A 
ATOM     64  C   UNL A   1      46.978  28.291  30.904  1.00  0.00     0.173 A 
ATOM     65  C   UNL A   1      47.265  29.075  28.650  1.00  0.00     0.173 A 
ATOM     66  F   UNL A   1      46.258  28.187  32.031  1.00  0.00    -0.203 F 
ATOM     67  C   UNL A   1      48.254  27.735  30.872  1.00  0.00     0.198 A 
ATOM     68  C   UNL A   1      48.529  28.491  28.610  1.00  0.00     0.198 A 
ATOM     69  F   UNL A   1      46.820  29.723  27.563  1.00  0.00    -0.203 F 
ATOM     70  F   UNL A   1      48.743  27.120  31.957  1.00  0.00    -0.200 F 
ATOM     71  C   UNL A   1      49.024  27.829  29.722  1.00  0.00     0.200 A 
ATOM     72  F   UNL A   1      49.266  28.571  27.494  1.00  0.00    -0.200 F 
ATOM     73  F   UNL A   1      50.249  27.284  29.690  1.00  0.00    -0.200 F 
ENDBRANCH  49  63
BRANCH  50  74
ATOM     74  C   UNL A   1      37.102  32.483  29.840  1.00  0.00     0.064 A 
ATOM     75  C   UNL A   1      36.586  33.211  28.757  1.00  0.00     0.173 A 
ATOM     76  C   UNL A   1      36.272  32.299  30.955  1.00  0.00     0.173 A 
ATOM     77  F   UNL A   1      37.348  33.432  27.676  1.00  0.00    -0.203 F 
ATOM     78  C   UNL A   1      35.306  33.760  28.801  1.00  0.00     0.198 A 
ATOM     79  C   UNL A   1      34.981  32.822  30.986  1.00  0.00     0.198 A 
ATOM     80  F   UNL A   1      36.715  31.606  32.014  1.00  0.00    -0.203 F 
ATOM     81  F   UNL A   1      34.860  34.498  27.776  1.00  0.00    -0.200 F 
ATOM     82  C   UNL A   1      34.503  33.561  29.914  1.00  0.00     0.200 A 
ATOM     83  F   UNL A   1      34.203  32.617  32.057  1.00  0.00    -0.200 F 
ATOM     84  F   UNL A   1      33.272  34.091  29.957  1.00  0.00    -0.200 F 
ENDBRANCH  50  74
BRANCH  62  85
ATOM     85  C   UNL A   1      43.268  35.171  31.649  1.00  0.00     0.064 A 
ATOM     86  C   UNL A   1      43.670  36.204  30.789  1.00  0.00     0.173 A 
ATOM     87  C   UNL A   1      43.206  35.445  33.023  1.00  0.00     0.173 A 
ATOM     88  F   UNL A   1      43.758  35.987  29.469  1.00  0.00    -0.203 F 
ATOM     89  C   UNL A   1      44.017  37.455  31.291  1.00  0.00     0.198 A 
ATOM     90  C   UNL A   1      43.524  36.707  33.518  1.00  0.00     0.198 A 
ATOM     91  F   UNL A   1      42.821  34.492  33.886  1.00  0.00    -0.203 F 
ATOM     92  F   UNL A   1      44.442  38.414  30.457  1.00  0.00    -0.200 F 
ATOM     93  C   UNL A   1      43.937  37.708  32.653  1.00  0.00     0.200 A 
ATOM     94  F   UNL A   1      43.431  36.952  34.833  1.00  0.00    -0.200 F 
ATOM     95  F   UNL A   1      44.261  38.916  33.132  1.00  0.00    -0.200 F 
ENDBRANCH  62  85
ENDBRANCH  36  37
ENDBRANCH  28  31
ENDBRANCH  26  27
ENDBRANCH  25  26
ENDBRANCH   1  25
TORSDOF 18
ENDMDL
MODEL 3
REMARK VINA RESULT:     -11.3      2.189      3.662
REMARK SMILES CCCC[C@H](C(=O)NCCCCNC(=O)c1ccc(-c2c3nc(c(-c4c(F)c(F)c(F)c(F)c4F)c4ccc([nH]4)c(-c4c(F)c(F)c(F)c(F)c4F)c4nc(c(-c5c(F)c(F)c(F)c(F)c5F)c5ccc2[nH]5)C=C4)C=C3)cc1)[C@H](O)c1ccc(C(F)(F)F)cc1
REMARK SMILES IDX 10 1 9 2 8 3 6 4 7 5 5 7 4 8 3 9 2 10 1 11 79 12 81 13 82 14
REMARK SMILES IDX 90 15 83 16 89 17 84 18 85 19 86 20 87 21 88 22 80 23 11 25
REMARK SMILES IDX 12 26 13 27 14 28 15 30 16 31 17 32 78 33 18 34 77 35 19 36
REMARK SMILES IDX 20 37 21 38 71 39 22 40 76 41 70 42 72 43 23 44 75 45 69 46
REMARK SMILES IDX 68 47 24 49 56 50 36 51 55 52 37 53 40 54 54 55 73 56 38 57
REMARK SMILES IDX 39 58 53 60 74 61 41 62 25 63 26 64 34 65 27 66 28 67 32 68
REMARK SMILES IDX 35 69 29 70 30 71 33 72 31 73 57 74 58 75 66 76 59 77 60 78
REMARK SMILES IDX 64 79 67 80 61 81 62 82 65 83 63 84 42 85 43 86 51 87 44 88
REMARK SMILES IDX 45 89 49 90 52 91 46 92 47 93 50 94 48 95
REMARK H PARENT 8 6 80 24 13 29 72 48 40 59
REMARK Flexibility Score: inf
ROOT
ATOM      1  C   UNL A   1      31.410  27.967  25.912  1.00  0.00     0.023 C 
ENDROOT
BRANCH   1   2
ATOM      2  C   UNL A   1      30.683  26.735  25.390  1.00  0.00     0.116 C 
BRANCH   2   3
ATOM      3  N   UNL A   1      30.664  25.645  26.352  1.00  0.00    -0.356 N 
ATOM      4  C   UNL A   1      31.508  24.576  26.466  1.00  0.00     0.226 C 
ATOM      5  O   UNL A   1      31.392  23.861  27.459  1.00  0.00    -0.275 OA
ATOM      6  H   UNL A   1      29.939  25.683  27.018  1.00  0.00     0.163 HD
BRANCH   4   7
ATOM      7  C   UNL A   1      32.505  24.284  25.354  1.00  0.00     0.111 C 
BRANCH   7   8
ATOM      8  C   UNL A   1      33.915  23.972  25.886  1.00  0.00     0.016 C 
BRANCH   8   9
ATOM      9  C   UNL A   1      35.051  24.486  24.982  1.00  0.00     0.001 C 
BRANCH   9  10
ATOM     10  C   UNL A   1      36.225  23.535  24.733  1.00  0.00    -0.003 C 
ATOM     11  C   UNL A   1      36.046  22.619  23.533  1.00  0.00     0.004 C 
ENDBRANCH   9  10
ENDBRANCH   8   9
ENDBRANCH   7   8
BRANCH   7  12
ATOM     12  C   UNL A   1      31.927  23.232  24.371  1.00  0.00     0.157 C 
BRANCH  12  13
ATOM     13  C   UNL A   1      32.262  21.751  24.419  1.00  0.00    -0.019 A 
ATOM     14  C   UNL A   1      32.746  21.075  25.544  1.00  0.00     0.007 A 
ATOM     15  C   UNL A   1      32.179  21.022  23.215  1.00  0.00     0.007 A 
ATOM     16  C   UNL A   1      33.218  19.758  25.452  1.00  0.00     0.013 A 
ATOM     17  C   UNL A   1      32.634  19.702  23.121  1.00  0.00     0.013 A 
ATOM     18  C   UNL A   1      33.187  19.065  24.237  1.00  0.00     0.056 A 
BRANCH  18  19
ATOM     19  C   UNL A   1      33.772  17.678  24.140  1.00  0.00     0.416 C 
ATOM     20  F   UNL A   1      33.383  17.031  23.005  1.00  0.00    -0.166 F 
ATOM     21  F   UNL A   1      35.134  17.678  24.119  1.00  0.00    -0.166 F 
ATOM     22  F   UNL A   1      33.416  16.859  25.170  1.00  0.00    -0.166 F 
ENDBRANCH  18  19
ENDBRANCH  12  13
BRANCH  12  23
ATOM     23  O   UNL A   1      30.505  23.401  24.253  1.00  0.00    -0.388 OA
ATOM     24  H   UNL A   1      30.315  24.231  23.788  1.00  0.00     0.211 HD
ENDBRANCH  12  23
ENDBRANCH   7  12
ENDBRANCH   4   7
ENDBRANCH   2   3
ENDBRANCH   1   2
BRANCH   1  25
ATOM     25  C   UNL A   1      32.922  27.963  25.706  1.00  0.00     0.023 C 
BRANCH  25  26
ATOM     26  C   UNL A   1      33.513  29.277  25.213  1.00  0.00     0.116 C 
BRANCH  26  27
ATOM     27  N   UNL A   1      32.886  30.445  25.816  1.00  0.00    -0.352 N 
ATOM     28  C   UNL A   1      33.280  31.166  26.916  1.00  0.00     0.251 C 
ATOM     29  H   UNL A   1      32.065  30.762  25.373  1.00  0.00     0.163 HD
ATOM     30  O   UNL A   1      32.561  32.046  27.380  1.00  0.00    -0.269 OA
BRANCH  28  31
ATOM     31  C   UNL A   1      34.571  30.851  27.558  1.00  0.00     0.039 A 
ATOM     32  C   UNL A   1      35.539  31.852  27.663  1.00  0.00     0.014 A 
ATOM     33  C   UNL A   1      34.802  29.580  28.091  1.00  0.00     0.014 A 
ATOM     34  C   UNL A   1      36.715  31.599  28.373  1.00  0.00     0.010 A 
ATOM     35  C   UNL A   1      35.935  29.356  28.862  1.00  0.00     0.010 A 
ATOM     36  C   UNL A   1      36.904  30.361  29.009  1.00  0.00    -0.014 A 
BRANCH  36  37
ATOM     37  C   UNL A   1      38.114  30.085  29.823  1.00  0.00     0.031 A 
ATOM     38  C   UNL A   1      39.171  29.157  29.292  1.00  0.00     0.074 A 
ATOM     39  C   UNL A   1      38.226  30.605  31.060  1.00  0.00     0.049 A 
ATOM     40  N   UNL A   1      40.244  28.697  29.883  1.00  0.00    -0.248 NA
ATOM     41  C   UNL A   1      38.980  28.656  27.922  1.00  0.00     0.031 C 
ATOM     42  C   UNL A   1      37.250  31.487  31.702  1.00  0.00     0.029 A 
ATOM     43  N   UNL A   1      39.208  30.453  32.009  1.00  0.00    -0.354 N 
ATOM     44  C   UNL A   1      40.842  27.844  28.966  1.00  0.00     0.074 A 
ATOM     45  C   UNL A   1      39.986  27.803  27.801  1.00  0.00     0.031 C 
ATOM     46  C   UNL A   1      37.691  31.813  32.928  1.00  0.00     0.029 A 
ATOM     47  C   UNL A   1      38.957  31.133  33.176  1.00  0.00     0.049 A 
ATOM     48  H   UNL A   1      40.016  29.908  31.864  1.00  0.00     0.167 HD
ATOM     49  C   UNL A   1      42.016  27.176  29.075  1.00  0.00     0.037 A 
ATOM     50  C   UNL A   1      39.667  31.189  34.319  1.00  0.00     0.037 A 
ATOM     51  C   UNL A   1      42.878  27.241  30.223  1.00  0.00     0.049 A 
ATOM     52  C   UNL A   1      40.961  30.424  34.417  1.00  0.00     0.074 A 
ATOM     53  C   UNL A   1      44.107  26.633  30.415  1.00  0.00     0.029 A 
ATOM     54  N   UNL A   1      42.602  27.961  31.376  1.00  0.00    -0.354 N 
ATOM     55  N   UNL A   1      41.544  29.663  33.523  1.00  0.00    -0.248 NA
ATOM     56  C   UNL A   1      41.698  30.529  35.685  1.00  0.00     0.031 C 
ATOM     57  C   UNL A   1      44.557  26.956  31.699  1.00  0.00     0.029 A 
ATOM     58  C   UNL A   1      43.633  27.803  32.288  1.00  0.00     0.049 A 
ATOM     59  H   UNL A   1      41.794  28.503  31.524  1.00  0.00     0.167 HD
ATOM     60  C   UNL A   1      42.730  29.234  34.102  1.00  0.00     0.074 A 
ATOM     61  C   UNL A   1      42.789  29.825  35.422  1.00  0.00     0.031 C 
ATOM     62  C   UNL A   1      43.687  28.422  33.587  1.00  0.00     0.037 A 
BRANCH  49  63
ATOM     63  C   UNL A   1      42.439  26.325  27.912  1.00  0.00     0.064 A 
ATOM     64  C   UNL A   1      41.957  25.018  27.746  1.00  0.00     0.173 A 
ATOM     65  C   UNL A   1      43.304  26.835  26.932  1.00  0.00     0.173 A 
ATOM     66  F   UNL A   1      41.139  24.479  28.662  1.00  0.00    -0.203 F 
ATOM     67  C   UNL A   1      42.345  24.244  26.657  1.00  0.00     0.198 A 
ATOM     68  C   UNL A   1      43.666  26.068  25.827  1.00  0.00     0.198 A 
ATOM     69  F   UNL A   1      43.792  28.080  27.040  1.00  0.00    -0.203 F 
ATOM     70  F   UNL A   1      41.910  22.981  26.545  1.00  0.00    -0.200 F 
ATOM     71  C   UNL A   1      43.192  24.772  25.695  1.00  0.00     0.200 A 
ATOM     72  F   UNL A   1      44.474  26.585  24.892  1.00  0.00    -0.200 F 
ATOM     73  F   UNL A   1      43.557  24.028  24.641  1.00  0.00    -0.200 F 
ENDBRANCH  49  63
BRANCH  50  74
ATOM     74  C   UNL A   1      39.189  32.015  35.459  1.00  0.00     0.064 A 
ATOM     75  C   UNL A   1      39.526  33.373  35.552  1.00  0.00     0.173 A 
ATOM     76  C   UNL A   1      38.413  31.464  36.489  1.00  0.00     0.173 A 
ATOM     77  F   UNL A   1      40.284  33.941  34.602  1.00  0.00    -0.203 F 
ATOM     78  C   UNL A   1      39.130  34.142  36.645  1.00  0.00     0.198 A 
ATOM     79  C   UNL A   1      37.992  32.241  37.567  1.00  0.00     0.198 A 
ATOM     80  F   UNL A   1      38.059  30.172  36.446  1.00  0.00    -0.203 F 
ATOM     81  F   UNL A   1      39.514  35.422  36.736  1.00  0.00    -0.200 F 
ATOM     82  C   UNL A   1      38.360  33.575  37.650  1.00  0.00     0.200 A 
ATOM     83  F   UNL A   1      37.237  31.694  38.529  1.00  0.00    -0.200 F 
ATOM     84  F   UNL A   1      37.983  34.314  38.703  1.00  0.00    -0.200 F 
ENDBRANCH  50  74
BRANCH  62  85
ATOM     85  C   UNL A   1      44.905  28.172  34.426  1.00  0.00     0.064 A 
ATOM     86  C   UNL A   1      46.022  29.019  34.378  1.00  0.00     0.173 A 
ATOM     87  C   UNL A   1      44.934  27.095  35.324  1.00  0.00     0.173 A 
ATOM     88  F   UNL A   1      46.049  30.054  33.526  1.00  0.00    -0.203 F 
ATOM     89  C   UNL A   1      47.132  28.783  35.184  1.00  0.00     0.198 A 
ATOM     90  C   UNL A   1      46.034  26.880  36.151  1.00  0.00     0.198 A 
ATOM     91  F   UNL A   1      43.888  26.259  35.412  1.00  0.00    -0.203 F 
ATOM     92  F   UNL A   1      48.207  29.578  35.091  1.00  0.00    -0.200 F 
ATOM     93  C   UNL A   1      47.134  27.718  36.075  1.00  0.00     0.200 A 
ATOM     94  F   UNL A   1      46.026  25.860  37.021  1.00  0.00    -0.200 F 
ATOM     95  F   UNL A   1      48.199  27.500  36.858  1.00  0.00    -0.200 F 
ENDBRANCH  62  85
ENDBRANCH  36  37
ENDBRANCH  28  31
ENDBRANCH  26  27
ENDBRANCH  25  26
ENDBRANCH   1  25
TORSDOF 18
ENDMDL
