MODEL 1
REMARK VINA RESULT:     -11.4      0.000      0.000
REMARK SMILES CCCC[C@@H](C(=O)NCCCCNC(=O)c1ccc(-c2c3nc(c(-c4c(F)c(F)c(F)c(F)c4F)c4ccc([nH]4)c(-c4c(F)c(F)c(F)c(F)c4F)c4nc(c(-c5c(F)c(F)c(F)c(F)c5F)c5ccc2[nH]5)C=C4)C=C3)cc1)[C@H](O)c1ccc(Br)cc1F
REMARK SMILES IDX 10 1 9 2 8 3 6 4 7 5 5 7 4 8 3 9 2 10 1 11 79 12 81 13 82 14
REMARK SMILES IDX 87 15 83 16 86 17 88 18 84 19 85 20 80 21 11 23 12 24 13 25
REMARK SMILES IDX 14 26 15 28 16 29 17 30 78 31 18 32 77 33 19 34 20 35 21 36
REMARK SMILES IDX 71 37 22 38 76 39 70 40 72 41 23 42 75 43 69 44 68 45 24 47
REMARK SMILES IDX 56 48 36 49 55 50 37 51 40 52 54 53 73 54 38 55 39 56 53 58
REMARK SMILES IDX 74 59 41 60 25 61 26 62 34 63 27 64 28 65 32 66 35 67 29 68
REMARK SMILES IDX 30 69 33 70 31 71 57 72 58 73 66 74 59 75 60 76 64 77 67 78
REMARK SMILES IDX 61 79 62 80 65 81 63 82 42 83 43 84 51 85 44 86 45 87 49 88
REMARK SMILES IDX 52 89 46 90 47 91 50 92 48 93
REMARK H PARENT 8 6 80 22 13 27 72 46 40 57
REMARK Flexibility Score: inf
ROOT
ATOM      1  C   UNL A   1      34.979  20.364  25.142  1.00  0.00     0.023 C 
ENDROOT
BRANCH   1   2
ATOM      2  C   UNL A   1      33.509  20.746  25.309  1.00  0.00     0.116 C 
BRANCH   2   3
ATOM      3  N   UNL A   1      33.247  21.248  26.638  1.00  0.00    -0.356 N 
ATOM      4  C   UNL A   1      32.911  22.499  27.058  1.00  0.00     0.226 C 
ATOM      5  O   UNL A   1      32.530  22.583  28.228  1.00  0.00    -0.275 OA
ATOM      6  H   UNL A   1      33.322  20.577  27.355  1.00  0.00     0.163 HD
BRANCH   4   7
ATOM      7  C   UNL A   1      32.934  23.704  26.105  1.00  0.00     0.112 C 
BRANCH   7   8
ATOM      8  C   UNL A   1      34.286  24.448  25.939  1.00  0.00     0.016 C 
BRANCH   8   9
ATOM      9  C   UNL A   1      34.718  24.915  24.543  1.00  0.00     0.001 C 
BRANCH   9  10
ATOM     10  C   UNL A   1      33.945  24.380  23.339  1.00  0.00    -0.003 C 
ATOM     11  C   UNL A   1      33.246  25.470  22.551  1.00  0.00     0.004 C 
ENDBRANCH   9  10
ENDBRANCH   8   9
ENDBRANCH   7   8
BRANCH   7  12
ATOM     12  C   UNL A   1      31.787  24.680  26.512  1.00  0.00     0.160 C 
BRANCH  12  13
ATOM     13  C   UNL A   1      31.337  25.861  25.657  1.00  0.00     0.017 A 
ATOM     14  C   UNL A   1      30.230  25.666  24.802  1.00  0.00     0.010 A 
ATOM     15  C   UNL A   1      31.878  27.152  25.698  1.00  0.00     0.130 A 
ATOM     16  C   UNL A   1      29.721  26.701  24.011  1.00  0.00     0.016 A 
ATOM     17  C   UNL A   1      31.377  28.193  24.916  1.00  0.00     0.055 A 
ATOM     18  F   UNL A   1      32.908  27.454  26.496  1.00  0.00    -0.207 F 
ATOM     19  C   UNL A   1      30.300  27.962  24.072  1.00  0.00     0.020 A 
ATOM     20  Br  UNL A   1      29.616  29.370  23.016  1.00  0.00    -0.051 Br
ENDBRANCH  12  13
BRANCH  12  21
ATOM     21  O   UNL A   1      30.634  23.846  26.777  1.00  0.00    -0.387 OA
ATOM     22  H   UNL A   1      29.831  24.298  26.475  1.00  0.00     0.211 HD
ENDBRANCH  12  21
ENDBRANCH   7  12
ENDBRANCH   4   7
ENDBRANCH   2   3
ENDBRANCH   1   2
BRANCH   1  23
ATOM     23  C   UNL A   1      35.879  21.476  24.622  1.00  0.00     0.023 C 
BRANCH  23  24
ATOM     24  C   UNL A   1      37.009  21.878  25.557  1.00  0.00     0.116 C 
BRANCH  24  25
ATOM     25  N   UNL A   1      38.080  20.896  25.658  1.00  0.00    -0.352 N 
ATOM     26  C   UNL A   1      39.351  21.079  26.156  1.00  0.00     0.251 C 
ATOM     27  H   UNL A   1      37.869  19.991  25.331  1.00  0.00     0.163 HD
ATOM     28  O   UNL A   1      40.180  20.182  26.125  1.00  0.00    -0.269 OA
BRANCH  26  29
ATOM     29  C   UNL A   1      39.708  22.412  26.680  1.00  0.00     0.039 A 
ATOM     30  C   UNL A   1      40.710  22.509  27.647  1.00  0.00     0.014 A 
ATOM     31  C   UNL A   1      39.134  23.559  26.127  1.00  0.00     0.014 A 
ATOM     32  C   UNL A   1      41.204  23.766  27.996  1.00  0.00     0.010 A 
ATOM     33  C   UNL A   1      39.683  24.801  26.412  1.00  0.00     0.010 A 
ATOM     34  C   UNL A   1      40.728  24.917  27.344  1.00  0.00    -0.014 A 
BRANCH  34  35
ATOM     35  C   UNL A   1      41.309  26.254  27.610  1.00  0.00     0.031 A 
ATOM     36  C   UNL A   1      42.708  26.560  27.159  1.00  0.00     0.074 A 
ATOM     37  C   UNL A   1      40.617  27.152  28.337  1.00  0.00     0.049 A 
ATOM     38  N   UNL A   1      43.436  27.625  27.382  1.00  0.00    -0.248 NA
ATOM     39  C   UNL A   1      43.396  25.513  26.387  1.00  0.00     0.031 C 
ATOM     40  C   UNL A   1      39.278  26.944  28.892  1.00  0.00     0.029 A 
ATOM     41  N   UNL A   1      40.954  28.418  28.747  1.00  0.00    -0.354 N 
ATOM     42  C   UNL A   1      44.671  27.361  26.807  1.00  0.00     0.074 A 
ATOM     43  C   UNL A   1      44.613  26.020  26.270  1.00  0.00     0.031 C 
ATOM     44  C   UNL A   1      38.897  28.052  29.549  1.00  0.00     0.029 A 
ATOM     45  C   UNL A   1      39.975  29.034  29.488  1.00  0.00     0.049 A 
ATOM     46  H   UNL A   1      41.814  28.843  28.531  1.00  0.00     0.167 HD
ATOM     47  C   UNL A   1      45.749  28.174  26.715  1.00  0.00     0.037 A 
ATOM     48  C   UNL A   1      39.952  30.256  30.054  1.00  0.00     0.037 A 
ATOM     49  C   UNL A   1      45.785  29.525  27.206  1.00  0.00     0.049 A 
ATOM     50  C   UNL A   1      41.143  31.161  29.891  1.00  0.00     0.074 A 
ATOM     51  C   UNL A   1      46.798  30.460  27.089  1.00  0.00     0.029 A 
ATOM     52  N   UNL A   1      44.753  30.136  27.902  1.00  0.00    -0.354 N 
ATOM     53  N   UNL A   1      42.281  30.929  29.283  1.00  0.00    -0.248 NA
ATOM     54  C   UNL A   1      41.044  32.500  30.488  1.00  0.00     0.031 C 
ATOM     55  C   UNL A   1      46.389  31.630  27.739  1.00  0.00     0.029 A 
ATOM     56  C   UNL A   1      45.108  31.434  28.231  1.00  0.00     0.049 A 
ATOM     57  H   UNL A   1      43.895  29.711  28.129  1.00  0.00     0.167 HD
ATOM     58  C   UNL A   1      43.022  32.095  29.400  1.00  0.00     0.074 A 
ATOM     59  C   UNL A   1      42.201  33.041  30.129  1.00  0.00     0.031 C 
ATOM     60  C   UNL A   1      44.270  32.361  28.946  1.00  0.00     0.037 A 
BRANCH  47  61
ATOM     61  C   UNL A   1      46.973  27.622  26.048  1.00  0.00     0.064 A 
ATOM     62  C   UNL A   1      47.138  27.677  24.655  1.00  0.00     0.173 A 
ATOM     63  C   UNL A   1      47.998  27.040  26.808  1.00  0.00     0.173 A 
ATOM     64  F   UNL A   1      46.177  28.208  23.883  1.00  0.00    -0.203 F 
ATOM     65  C   UNL A   1      48.269  27.141  24.046  1.00  0.00     0.198 A 
ATOM     66  C   UNL A   1      49.141  26.531  26.198  1.00  0.00     0.198 A 
ATOM     67  F   UNL A   1      47.891  26.965  28.143  1.00  0.00    -0.203 F 
ATOM     68  F   UNL A   1      48.378  27.156  22.711  1.00  0.00    -0.200 F 
ATOM     69  C   UNL A   1      49.271  26.573  24.817  1.00  0.00     0.200 A 
ATOM     70  F   UNL A   1      50.114  25.990  26.944  1.00  0.00    -0.200 F 
ATOM     71  F   UNL A   1      50.359  26.058  24.229  1.00  0.00    -0.200 F 
ENDBRANCH  47  61
BRANCH  48  72
ATOM     72  C   UNL A   1      38.745  30.710  30.787  1.00  0.00     0.064 A 
ATOM     73  C   UNL A   1      37.662  31.278  30.100  1.00  0.00     0.173 A 
ATOM     74  C   UNL A   1      38.640  30.581  32.179  1.00  0.00     0.173 A 
ATOM     75  F   UNL A   1      37.726  31.440  28.769  1.00  0.00    -0.203 F 
ATOM     76  C   UNL A   1      36.527  31.713  30.779  1.00  0.00     0.198 A 
ATOM     77  C   UNL A   1      37.495  30.997  32.855  1.00  0.00     0.198 A 
ATOM     78  F   UNL A   1      39.646  30.038  32.880  1.00  0.00    -0.203 F 
ATOM     79  F   UNL A   1      35.522  32.286  30.102  1.00  0.00    -0.200 F 
ATOM     80  C   UNL A   1      36.442  31.568  32.155  1.00  0.00     0.200 A 
ATOM     81  F   UNL A   1      37.411  30.843  34.184  1.00  0.00    -0.200 F 
ATOM     82  F   UNL A   1      35.348  31.983  32.808  1.00  0.00    -0.200 F 
ENDBRANCH  48  72
BRANCH  60  83
ATOM     83  C   UNL A   1      44.814  33.735  29.195  1.00  0.00     0.064 A 
ATOM     84  C   UNL A   1      44.584  34.787  28.298  1.00  0.00     0.173 A 
ATOM     85  C   UNL A   1      45.531  34.011  30.369  1.00  0.00     0.173 A 
ATOM     86  F   UNL A   1      43.918  34.567  27.156  1.00  0.00    -0.203 F 
ATOM     87  C   UNL A   1      45.068  36.066  28.560  1.00  0.00     0.198 A 
ATOM     88  C   UNL A   1      45.992  35.296  30.640  1.00  0.00     0.198 A 
ATOM     89  F   UNL A   1      45.771  33.037  31.260  1.00  0.00    -0.203 F 
ATOM     90  F   UNL A   1      44.867  37.051  27.673  1.00  0.00    -0.200 F 
ATOM     91  C   UNL A   1      45.763  36.321  29.733  1.00  0.00     0.200 A 
ATOM     92  F   UNL A   1      46.655  35.543  31.777  1.00  0.00    -0.200 F 
ATOM     93  F   UNL A   1      46.221  37.555  29.987  1.00  0.00    -0.200 F 
ENDBRANCH  60  83
ENDBRANCH  34  35
ENDBRANCH  26  29
ENDBRANCH  24  25
ENDBRANCH  23  24
ENDBRANCH   1  23
TORSDOF 17
ENDMDL
MODEL 2
REMARK VINA RESULT:     -11.4      5.038     10.329
REMARK SMILES CCCC[C@@H](C(=O)NCCCCNC(=O)c1ccc(-c2c3nc(c(-c4c(F)c(F)c(F)c(F)c4F)c4ccc([nH]4)c(-c4c(F)c(F)c(F)c(F)c4F)c4nc(c(-c5c(F)c(F)c(F)c(F)c5F)c5ccc2[nH]5)C=C4)C=C3)cc1)[C@H](O)c1ccc(Br)cc1F
REMARK SMILES IDX 10 1 9 2 8 3 6 4 7 5 5 7 4 8 3 9 2 10 1 11 79 12 81 13 82 14
REMARK SMILES IDX 87 15 83 16 86 17 88 18 84 19 85 20 80 21 11 23 12 24 13 25
REMARK SMILES IDX 14 26 15 28 16 29 17 30 78 31 18 32 77 33 19 34 20 35 21 36
REMARK SMILES IDX 71 37 22 38 76 39 70 40 72 41 23 42 75 43 69 44 68 45 24 47
REMARK SMILES IDX 56 48 36 49 55 50 37 51 40 52 54 53 73 54 38 55 39 56 53 58
REMARK SMILES IDX 74 59 41 60 25 61 26 62 34 63 27 64 28 65 32 66 35 67 29 68
REMARK SMILES IDX 30 69 33 70 31 71 57 72 58 73 66 74 59 75 60 76 64 77 67 78
REMARK SMILES IDX 61 79 62 80 65 81 63 82 42 83 43 84 51 85 44 86 45 87 49 88
REMARK SMILES IDX 52 89 46 90 47 91 50 92 48 93
REMARK H PARENT 8 6 80 22 13 27 72 46 40 57
REMARK Flexibility Score: inf
ROOT
ATOM      1  C   UNL A   1      31.922  30.523  26.590  1.00  0.00     0.023 C 
ENDROOT
BRANCH   1   2
ATOM      2  C   UNL A   1      31.697  29.852  25.236  1.00  0.00     0.116 C 
BRANCH   2   3
ATOM      3  N   UNL A   1      32.946  29.645  24.539  1.00  0.00    -0.356 N 
ATOM      4  C   UNL A   1      33.493  28.509  24.026  1.00  0.00     0.226 C 
ATOM      5  O   UNL A   1      34.468  28.674  23.289  1.00  0.00    -0.275 OA
ATOM      6  H   UNL A   1      33.489  30.458  24.416  1.00  0.00     0.163 HD
BRANCH   4   7
ATOM      7  C   UNL A   1      32.878  27.126  24.292  1.00  0.00     0.112 C 
BRANCH   7   8
ATOM      8  C   UNL A   1      32.886  26.620  25.759  1.00  0.00     0.016 C 
BRANCH   8   9
ATOM      9  C   UNL A   1      31.645  25.907  26.312  1.00  0.00     0.001 C 
BRANCH   9  10
ATOM     10  C   UNL A   1      31.799  24.459  26.774  1.00  0.00    -0.003 C 
ATOM     11  C   UNL A   1      30.570  23.614  26.496  1.00  0.00     0.004 C 
ENDBRANCH   9  10
ENDBRANCH   8   9
ENDBRANCH   7   8
BRANCH   7  12
ATOM     12  C   UNL A   1      33.539  26.095  23.325  1.00  0.00     0.160 C 
BRANCH  12  13
ATOM     13  C   UNL A   1      33.252  24.597  23.360  1.00  0.00     0.017 A 
ATOM     14  C   UNL A   1      34.292  23.741  23.783  1.00  0.00     0.010 A 
ATOM     15  C   UNL A   1      32.019  23.996  23.079  1.00  0.00     0.130 A 
ATOM     16  C   UNL A   1      34.110  22.358  23.885  1.00  0.00     0.016 A 
ATOM     17  C   UNL A   1      31.824  22.618  23.180  1.00  0.00     0.055 A 
ATOM     18  F   UNL A   1      30.958  24.716  22.700  1.00  0.00    -0.207 F 
ATOM     19  C   UNL A   1      32.873  21.803  23.581  1.00  0.00     0.020 A 
ATOM     20  Br  UNL A   1      32.612  19.938  23.723  1.00  0.00    -0.051 Br
ENDBRANCH  12  13
BRANCH  12  21
ATOM     21  O   UNL A   1      33.269  26.579  21.988  1.00  0.00    -0.387 OA
ATOM     22  H   UNL A   1      33.900  26.183  21.367  1.00  0.00     0.211 HD
ENDBRANCH  12  21
ENDBRANCH   7  12
ENDBRANCH   4   7
ENDBRANCH   2   3
ENDBRANCH   1   2
BRANCH   1  23
ATOM     23  C   UNL A   1      31.727  32.033  26.601  1.00  0.00     0.023 C 
BRANCH  23  24
ATOM     24  C   UNL A   1      32.767  32.808  27.396  1.00  0.00     0.116 C 
BRANCH  24  25
ATOM     25  N   UNL A   1      32.381  34.178  27.707  1.00  0.00    -0.352 N 
ATOM     26  C   UNL A   1      32.956  35.030  28.625  1.00  0.00     0.251 C 
ATOM     27  H   UNL A   1      31.618  34.539  27.200  1.00  0.00     0.163 HD
ATOM     28  O   UNL A   1      32.493  36.142  28.836  1.00  0.00    -0.269 OA
BRANCH  26  29
ATOM     29  C   UNL A   1      34.117  34.544  29.395  1.00  0.00     0.039 A 
ATOM     30  C   UNL A   1      33.899  33.934  30.632  1.00  0.00     0.014 A 
ATOM     31  C   UNL A   1      35.397  34.590  28.837  1.00  0.00     0.014 A 
ATOM     32  C   UNL A   1      34.956  33.286  31.270  1.00  0.00     0.010 A 
ATOM     33  C   UNL A   1      36.426  33.874  29.431  1.00  0.00     0.010 A 
ATOM     34  C   UNL A   1      36.214  33.209  30.650  1.00  0.00    -0.014 A 
BRANCH  34  35
ATOM     35  C   UNL A   1      37.326  32.432  31.248  1.00  0.00     0.031 A 
ATOM     36  C   UNL A   1      37.823  32.779  32.621  1.00  0.00     0.074 A 
ATOM     37  C   UNL A   1      37.946  31.484  30.520  1.00  0.00     0.049 A 
ATOM     38  N   UNL A   1      38.845  32.295  33.280  1.00  0.00    -0.248 NA
ATOM     39  C   UNL A   1      37.097  33.841  33.335  1.00  0.00     0.031 C 
ATOM     40  C   UNL A   1      37.602  31.105  29.148  1.00  0.00     0.029 A 
ATOM     41  N   UNL A   1      39.011  30.675  30.830  1.00  0.00    -0.354 N 
ATOM     42  C   UNL A   1      38.902  33.015  34.465  1.00  0.00     0.074 A 
ATOM     43  C   UNL A   1      37.844  33.999  34.416  1.00  0.00     0.031 C 
ATOM     44  C   UNL A   1      38.422  30.122  28.744  1.00  0.00     0.029 A 
ATOM     45  C   UNL A   1      39.368  29.823  29.814  1.00  0.00     0.049 A 
ATOM     46  H   UNL A   1      39.473  30.702  31.698  1.00  0.00     0.167 HD
ATOM     47  C   UNL A   1      39.745  32.851  35.511  1.00  0.00     0.037 A 
ATOM     48  C   UNL A   1      40.351  28.903  29.755  1.00  0.00     0.037 A 
ATOM     49  C   UNL A   1      40.762  31.837  35.576  1.00  0.00     0.049 A 
ATOM     50  C   UNL A   1      41.241  28.704  30.951  1.00  0.00     0.074 A 
ATOM     51  C   UNL A   1      41.612  31.533  36.624  1.00  0.00     0.029 A 
ATOM     52  N   UNL A   1      41.058  30.954  34.549  1.00  0.00    -0.354 N 
ATOM     53  N   UNL A   1      41.240  29.340  32.098  1.00  0.00    -0.248 NA
ATOM     54  C   UNL A   1      42.264  27.654  30.849  1.00  0.00     0.031 C 
ATOM     55  C   UNL A   1      42.444  30.482  36.221  1.00  0.00     0.029 A 
ATOM     56  C   UNL A   1      42.086  30.110  34.934  1.00  0.00     0.049 A 
ATOM     57  H   UNL A   1      40.604  30.929  33.676  1.00  0.00     0.167 HD
ATOM     58  C   UNL A   1      42.239  28.755  32.860  1.00  0.00     0.074 A 
ATOM     59  C   UNL A   1      42.821  27.703  32.051  1.00  0.00     0.031 C 
ATOM     60  C   UNL A   1      42.641  29.061  34.118  1.00  0.00     0.037 A 
BRANCH  47  61
ATOM     61  C   UNL A   1      39.591  33.787  36.672  1.00  0.00     0.064 A 
ATOM     62  C   UNL A   1      40.216  35.044  36.690  1.00  0.00     0.173 A 
ATOM     63  C   UNL A   1      38.800  33.431  37.774  1.00  0.00     0.173 A 
ATOM     64  F   UNL A   1      40.996  35.424  35.667  1.00  0.00    -0.203 F 
ATOM     65  C   UNL A   1      40.082  35.894  37.784  1.00  0.00     0.198 A 
ATOM     66  C   UNL A   1      38.645  34.296  38.853  1.00  0.00     0.198 A 
ATOM     67  F   UNL A   1      38.178  32.243  37.805  1.00  0.00    -0.203 F 
ATOM     68  F   UNL A   1      40.734  37.065  37.802  1.00  0.00    -0.200 F 
ATOM     69  C   UNL A   1      39.294  35.523  38.862  1.00  0.00     0.200 A 
ATOM     70  F   UNL A   1      37.875  33.940  39.891  1.00  0.00    -0.200 F 
ATOM     71  F   UNL A   1      39.166  36.343  39.913  1.00  0.00    -0.200 F 
ENDBRANCH  47  61
BRANCH  48  72
ATOM     72  C   UNL A   1      40.514  28.072  28.537  1.00  0.00     0.064 A 
ATOM     73  C   UNL A   1      41.301  28.519  27.466  1.00  0.00     0.173 A 
ATOM     74  C   UNL A   1      39.899  26.818  28.416  1.00  0.00     0.173 A 
ATOM     75  F   UNL A   1      41.893  29.722  27.529  1.00  0.00    -0.203 F 
ATOM     76  C   UNL A   1      41.456  27.751  26.315  1.00  0.00     0.198 A 
ATOM     77  C   UNL A   1      40.072  26.040  27.273  1.00  0.00     0.198 A 
ATOM     78  F   UNL A   1      39.141  26.343  29.416  1.00  0.00    -0.203 F 
ATOM     79  F   UNL A   1      42.185  28.218  25.293  1.00  0.00    -0.200 F 
ATOM     80  C   UNL A   1      40.845  26.509  26.222  1.00  0.00     0.200 A 
ATOM     81  F   UNL A   1      39.490  24.835  27.191  1.00  0.00    -0.200 F 
ATOM     82  F   UNL A   1      40.998  25.768  25.116  1.00  0.00    -0.200 F 
ENDBRANCH  48  72
BRANCH  60  83
ATOM     83  C   UNL A   1      43.740  28.231  34.709  1.00  0.00     0.064 A 
ATOM     84  C   UNL A   1      45.083  28.618  34.612  1.00  0.00     0.173 A 
ATOM     85  C   UNL A   1      43.438  27.060  35.420  1.00  0.00     0.173 A 
ATOM     86  F   UNL A   1      45.420  29.721  33.928  1.00  0.00    -0.203 F 
ATOM     87  C   UNL A   1      46.089  27.853  35.194  1.00  0.00     0.198 A 
ATOM     88  C   UNL A   1      44.444  26.310  36.022  1.00  0.00     0.198 A 
ATOM     89  F   UNL A   1      42.166  26.652  35.543  1.00  0.00    -0.203 F 
ATOM     90  F   UNL A   1      47.371  28.221  35.061  1.00  0.00    -0.200 F 
ATOM     91  C   UNL A   1      45.769  26.705  35.905  1.00  0.00     0.200 A 
ATOM     92  F   UNL A   1      44.132  25.207  36.716  1.00  0.00    -0.200 F 
ATOM     93  F   UNL A   1      46.739  25.974  36.472  1.00  0.00    -0.200 F 
ENDBRANCH  60  83
ENDBRANCH  34  35
ENDBRANCH  26  29
ENDBRANCH  24  25
ENDBRANCH  23  24
ENDBRANCH   1  23
TORSDOF 17
ENDMDL
MODEL 3
REMARK VINA RESULT:     -11.3      5.146      8.652
REMARK SMILES CCCC[C@@H](C(=O)NCCCCNC(=O)c1ccc(-c2c3nc(c(-c4c(F)c(F)c(F)c(F)c4F)c4ccc([nH]4)c(-c4c(F)c(F)c(F)c(F)c4F)c4nc(c(-c5c(F)c(F)c(F)c(F)c5F)c5ccc2[nH]5)C=C4)C=C3)cc1)[C@H](O)c1ccc(Br)cc1F
REMARK SMILES IDX 10 1 9 2 8 3 6 4 7 5 5 7 4 8 3 9 2 10 1 11 79 12 81 13 82 14
REMARK SMILES IDX 87 15 83 16 86 17 88 18 84 19 85 20 80 21 11 23 12 24 13 25
REMARK SMILES IDX 14 26 15 28 16 29 17 30 78 31 18 32 77 33 19 34 20 35 21 36
REMARK SMILES IDX 71 37 22 38 76 39 70 40 72 41 23 42 75 43 69 44 68 45 24 47
REMARK SMILES IDX 56 48 36 49 55 50 37 51 40 52 54 53 73 54 38 55 39 56 53 58
REMARK SMILES IDX 74 59 41 60 25 61 26 62 34 63 27 64 28 65 32 66 35 67 29 68
REMARK SMILES IDX 30 69 33 70 31 71 57 72 58 73 66 74 59 75 60 76 64 77 67 78
REMARK SMILES IDX 61 79 62 80 65 81 63 82 42 83 43 84 51 85 44 86 45 87 49 88
REMARK SMILES IDX 52 89 46 90 47 91 50 92 48 93
REMARK H PARENT 8 6 80 22 13 27 72 46 40 57
REMARK Flexibility Score: inf
ROOT
ATOM      1  C   UNL A   1      32.525  30.318  26.426  1.00  0.00     0.023 C 
ENDROOT
BRANCH   1   2
ATOM      2  C   UNL A   1      32.027  29.838  25.064  1.00  0.00     0.116 C 
BRANCH   2   3
ATOM      3  N   UNL A   1      33.127  29.592  24.160  1.00  0.00    -0.356 N 
ATOM      4  C   UNL A   1      33.615  28.423  23.662  1.00  0.00     0.226 C 
ATOM      5  O   UNL A   1      34.422  28.535  22.736  1.00  0.00    -0.275 OA
ATOM      6  H   UNL A   1      33.599  30.401  23.856  1.00  0.00     0.163 HD
BRANCH   4   7
ATOM      7  C   UNL A   1      33.125  27.060  24.175  1.00  0.00     0.112 C 
BRANCH   7   8
ATOM      8  C   UNL A   1      33.404  26.724  25.664  1.00  0.00     0.016 C 
BRANCH   8   9
ATOM      9  C   UNL A   1      32.226  26.400  26.592  1.00  0.00     0.001 C 
BRANCH   9  10
ATOM     10  C   UNL A   1      31.135  25.470  26.065  1.00  0.00    -0.003 C 
ATOM     11  C   UNL A   1      31.302  24.036  26.530  1.00  0.00     0.004 C 
ENDBRANCH   9  10
ENDBRANCH   8   9
ENDBRANCH   7   8
BRANCH   7  12
ATOM     12  C   UNL A   1      33.666  25.948  23.224  1.00  0.00     0.160 C 
BRANCH  12  13
ATOM     13  C   UNL A   1      33.466  24.455  23.465  1.00  0.00     0.017 A 
ATOM     14  C   UNL A   1      32.312  23.853  22.917  1.00  0.00     0.010 A 
ATOM     15  C   UNL A   1      34.365  23.606  24.121  1.00  0.00     0.130 A 
ATOM     16  C   UNL A   1      32.063  22.483  23.051  1.00  0.00     0.016 A 
ATOM     17  C   UNL A   1      34.130  22.238  24.258  1.00  0.00     0.055 A 
ATOM     18  F   UNL A   1      35.504  24.066  24.649  1.00  0.00    -0.207 F 
ATOM     19  C   UNL A   1      32.976  21.681  23.725  1.00  0.00     0.020 A 
ATOM     20  Br  UNL A   1      32.656  19.829  23.906  1.00  0.00    -0.051 Br
ENDBRANCH  12  13
BRANCH  12  21
ATOM     21  O   UNL A   1      33.152  26.269  21.909  1.00  0.00    -0.387 OA
ATOM     22  H   UNL A   1      32.219  26.011  21.855  1.00  0.00     0.211 HD
ENDBRANCH  12  21
ENDBRANCH   7  12
ENDBRANCH   4   7
ENDBRANCH   2   3
ENDBRANCH   1   2
BRANCH   1  23
ATOM     23  C   UNL A   1      31.973  31.663  26.878  1.00  0.00     0.023 C 
BRANCH  23  24
ATOM     24  C   UNL A   1      32.996  32.602  27.497  1.00  0.00     0.116 C 
BRANCH  24  25
ATOM     25  N   UNL A   1      32.510  33.958  27.712  1.00  0.00    -0.352 N 
ATOM     26  C   UNL A   1      33.004  34.905  28.582  1.00  0.00     0.251 C 
ATOM     27  H   UNL A   1      31.734  34.231  27.170  1.00  0.00     0.163 HD
ATOM     28  O   UNL A   1      32.460  35.992  28.713  1.00  0.00    -0.269 OA
BRANCH  26  29
ATOM     29  C   UNL A   1      34.180  34.553  29.401  1.00  0.00     0.039 A 
ATOM     30  C   UNL A   1      33.980  34.059  30.691  1.00  0.00     0.014 A 
ATOM     31  C   UNL A   1      35.461  34.604  28.845  1.00  0.00     0.014 A 
ATOM     32  C   UNL A   1      35.061  33.528  31.394  1.00  0.00     0.010 A 
ATOM     33  C   UNL A   1      36.517  34.000  29.511  1.00  0.00     0.010 A 
ATOM     34  C   UNL A   1      36.327  33.449  30.790  1.00  0.00    -0.014 A 
BRANCH  34  35
ATOM     35  C   UNL A   1      37.468  32.789  31.466  1.00  0.00     0.031 A 
ATOM     36  C   UNL A   1      38.167  31.641  30.797  1.00  0.00     0.074 A 
ATOM     37  C   UNL A   1      37.811  33.159  32.714  1.00  0.00     0.049 A 
ATOM     38  N   UNL A   1      39.114  30.864  31.260  1.00  0.00    -0.248 NA
ATOM     39  C   UNL A   1      37.714  31.293  29.441  1.00  0.00     0.031 C 
ATOM     40  C   UNL A   1      37.160  34.212  33.497  1.00  0.00     0.029 A 
ATOM     41  N   UNL A   1      38.785  32.676  33.553  1.00  0.00    -0.354 N 
ATOM     42  C   UNL A   1      39.343  29.922  30.267  1.00  0.00     0.074 A 
ATOM     43  C   UNL A   1      38.406  30.192  29.199  1.00  0.00     0.031 C 
ATOM     44  C   UNL A   1      37.769  34.313  34.690  1.00  0.00     0.029 A 
ATOM     45  C   UNL A   1      38.829  33.313  34.769  1.00  0.00     0.049 A 
ATOM     46  H   UNL A   1      39.394  31.944  33.306  1.00  0.00     0.167 HD
ATOM     47  C   UNL A   1      40.270  28.935  30.239  1.00  0.00     0.037 A 
ATOM     48  C   UNL A   1      39.636  33.111  35.829  1.00  0.00     0.037 A 
ATOM     49  C   UNL A   1      41.233  28.703  31.281  1.00  0.00     0.049 A 
ATOM     50  C   UNL A   1      40.692  32.043  35.751  1.00  0.00     0.074 A 
ATOM     51  C   UNL A   1      42.267  27.785  31.312  1.00  0.00     0.029 A 
ATOM     52  N   UNL A   1      41.284  29.406  32.475  1.00  0.00    -0.354 N 
ATOM     53  N   UNL A   1      40.950  31.204  34.778  1.00  0.00    -0.248 NA
ATOM     54  C   UNL A   1      41.575  31.900  36.917  1.00  0.00     0.031 C 
ATOM     55  C   UNL A   1      42.928  27.914  32.539  1.00  0.00     0.029 A 
ATOM     56  C   UNL A   1      42.326  28.935  33.256  1.00  0.00     0.049 A 
ATOM     57  H   UNL A   1      40.671  30.133  32.730  1.00  0.00     0.167 HD
ATOM     58  C   UNL A   1      42.036  30.451  35.199  1.00  0.00     0.074 A 
ATOM     59  C   UNL A   1      42.398  30.940  36.515  1.00  0.00     0.031 C 
ATOM     60  C   UNL A   1      42.676  29.445  34.556  1.00  0.00     0.037 A 
BRANCH  47  61
ATOM     61  C   UNL A   1      40.288  28.043  29.034  1.00  0.00     0.064 A 
ATOM     62  C   UNL A   1      39.569  26.838  29.002  1.00  0.00     0.173 A 
ATOM     63  C   UNL A   1      41.021  28.400  27.894  1.00  0.00     0.173 A 
ATOM     64  F   UNL A   1      38.865  26.444  30.075  1.00  0.00    -0.203 F 
ATOM     65  C   UNL A   1      39.612  26.008  27.886  1.00  0.00     0.198 A 
ATOM     66  C   UNL A   1      41.038  27.581  26.768  1.00  0.00     0.198 A 
ATOM     67  F   UNL A   1      41.723  29.543  27.871  1.00  0.00    -0.203 F 
ATOM     68  F   UNL A   1      38.963  24.835  27.901  1.00  0.00    -0.200 F 
ATOM     69  C   UNL A   1      40.342  26.382  26.769  1.00  0.00     0.200 A 
ATOM     70  F   UNL A   1      41.737  27.948  25.684  1.00  0.00    -0.200 F 
ATOM     71  F   UNL A   1      40.381  25.581  25.695  1.00  0.00    -0.200 F 
ENDBRANCH  47  61
BRANCH  48  72
ATOM     72  C   UNL A   1      39.503  33.967  37.034  1.00  0.00     0.064 A 
ATOM     73  C   UNL A   1      40.130  35.220  37.093  1.00  0.00     0.173 A 
ATOM     74  C   UNL A   1      38.748  33.561  38.142  1.00  0.00     0.173 A 
ATOM     75  F   UNL A   1      40.880  35.642  36.063  1.00  0.00    -0.203 F 
ATOM     76  C   UNL A   1      40.019  36.028  38.221  1.00  0.00     0.198 A 
ATOM     77  C   UNL A   1      38.619  34.380  39.263  1.00  0.00     0.198 A 
ATOM     78  F   UNL A   1      38.124  32.374  38.131  1.00  0.00    -0.203 F 
ATOM     79  F   UNL A   1      40.657  37.206  38.265  1.00  0.00    -0.200 F 
ATOM     80  C   UNL A   1      39.259  35.610  39.303  1.00  0.00     0.200 A 
ATOM     81  F   UNL A   1      37.874  33.978  40.301  1.00  0.00    -0.200 F 
ATOM     82  F   UNL A   1      39.148  36.390  40.387  1.00  0.00    -0.200 F 
ENDBRANCH  48  72
BRANCH  60  83
ATOM     83  C   UNL A   1      43.852  28.826  35.250  1.00  0.00     0.064 A 
ATOM     84  C   UNL A   1      45.144  29.347  35.105  1.00  0.00     0.173 A 
ATOM     85  C   UNL A   1      43.672  27.728  36.105  1.00  0.00     0.173 A 
ATOM     86  F   UNL A   1      45.366  30.384  34.285  1.00  0.00    -0.203 F 
ATOM     87  C   UNL A   1      46.221  28.780  35.782  1.00  0.00     0.198 A 
ATOM     88  C   UNL A   1      44.747  27.180  36.799  1.00  0.00     0.198 A 
ATOM     89  F   UNL A   1      42.452  27.199  36.279  1.00  0.00    -0.203 F 
ATOM     90  F   UNL A   1      47.455  29.271  35.603  1.00  0.00    -0.200 F 
ATOM     91  C   UNL A   1      46.020  27.704  36.633  1.00  0.00     0.200 A 
ATOM     92  F   UNL A   1      44.549  26.147  37.629  1.00  0.00    -0.200 F 
ATOM     93  F   UNL A   1      47.057  27.165  37.290  1.00  0.00    -0.200 F 
ENDBRANCH  60  83
ENDBRANCH  34  35
ENDBRANCH  26  29
ENDBRANCH  24  25
ENDBRANCH  23  24
ENDBRANCH   1  23
TORSDOF 17
ENDMDL
