MODEL 1
REMARK VINA RESULT:     -12.5      0.000      0.000
REMARK SMILES COc1ccc([C@@H](CC(=O)NCCCCNC(=O)c2ccc(-c3c4nc(c(-c5c(F)c(F)c(F)c(F)c5F)c5ccc([nH]5)c(-c5c(F)c(F)c(F)c(F)c5F)c5nc(c(-c6c(F)c(F)c(F)c(F)c6F)c6ccc3[nH]6)C=C5)C=C4)cc2)N2C(=O)[C@H]3CC=CC[C@H]3C2=O)cc1OC
REMARK SMILES IDX 13 1 12 2 11 3 9 4 10 5 8 7 7 8 6 9 3 10 4 11 94 12 5 13
REMARK SMILES IDX 93 14 2 15 1 16 95 17 96 18 82 19 83 20 91 21 84 22 85 23
REMARK SMILES IDX 90 24 92 25 86 26 89 27 87 28 88 29 14 30 15 31 16 32 17 33
REMARK SMILES IDX 18 35 19 36 20 37 81 38 21 39 80 40 22 41 23 42 24 43 74 44
REMARK SMILES IDX 25 45 79 46 73 47 75 48 26 49 78 50 72 51 71 52 27 54 59 55
REMARK SMILES IDX 39 56 58 57 40 58 43 59 57 60 76 61 41 62 42 63 56 65 77 66
REMARK SMILES IDX 44 67 28 68 29 69 37 70 30 71 31 72 35 73 38 74 32 75 33 76
REMARK SMILES IDX 36 77 34 78 60 79 61 80 69 81 62 82 63 83 67 84 70 85 64 86
REMARK SMILES IDX 65 87 68 88 66 89 45 90 46 91 54 92 47 93 48 94 52 95 55 96
REMARK SMILES IDX 49 97 50 98 53 99 51 100
REMARK H PARENT 11 6 16 34 75 53 43 64
REMARK Flexibility Score: inf
ROOT
ATOM      1  C   UNL A   1      39.101  23.247  26.333  1.00  0.00     0.023 C 
ENDROOT
BRANCH   1   2
ATOM      2  C   UNL A   1      37.629  23.606  26.217  1.00  0.00     0.116 C 
BRANCH   2   3
ATOM      3  N   UNL A   1      37.293  23.727  24.815  1.00  0.00    -0.356 N 
ATOM      4  C   UNL A   1      36.647  22.812  24.032  1.00  0.00     0.222 C 
ATOM      5  O   UNL A   1      36.862  22.883  22.823  1.00  0.00    -0.275 OA
ATOM      6  H   UNL A   1      37.559  24.566  24.375  1.00  0.00     0.163 HD
BRANCH   4   7
ATOM      7  C   UNL A   1      35.651  21.825  24.638  1.00  0.00     0.130 C 
BRANCH   7   8
ATOM      8  C   UNL A   1      34.200  21.798  24.064  1.00  0.00     0.133 C 
BRANCH   8   9
ATOM      9  C   UNL A   1      33.424  23.040  24.549  1.00  0.00    -0.020 A 
ATOM     10  C   UNL A   1      32.171  25.506  25.241  1.00  0.00     0.160 A 
ATOM     11  C   UNL A   1      32.918  24.796  26.183  1.00  0.00     0.051 A 
ATOM     12  C   UNL A   1      31.962  24.931  23.977  1.00  0.00     0.161 A 
ATOM     13  C   UNL A   1      33.530  23.576  25.842  1.00  0.00     0.010 A 
ATOM     14  C   UNL A   1      32.595  23.723  23.641  1.00  0.00     0.056 A 
BRANCH  10  15
ATOM     15  O   UNL A   1      31.712  26.778  25.437  1.00  0.00    -0.493 OA
ATOM     16  C   UNL A   1      31.827  27.361  26.726  1.00  0.00     0.278 C 
ENDBRANCH  10  15
BRANCH  12  17
ATOM     17  O   UNL A   1      31.224  25.468  22.951  1.00  0.00    -0.493 OA
ATOM     18  C   UNL A   1      31.962  26.088  21.900  1.00  0.00     0.278 C 
ENDBRANCH  12  17
ENDBRANCH   8   9
BRANCH   8  19
ATOM     19  N   UNL A   1      33.489  20.520  24.214  1.00  0.00    -0.274 N 
ATOM     20  C   UNL A   1      32.547  20.073  23.333  1.00  0.00     0.234 C 
ATOM     21  C   UNL A   1      33.194  19.946  25.414  1.00  0.00     0.234 C 
ATOM     22  O   UNL A   1      32.026  20.712  22.429  1.00  0.00    -0.274 OA
ATOM     23  C   UNL A   1      32.091  18.692  23.746  1.00  0.00     0.095 C 
ATOM     24  C   UNL A   1      32.626  18.573  25.174  1.00  0.00     0.095 C 
ATOM     25  O   UNL A   1      33.323  20.432  26.529  1.00  0.00    -0.274 OA
ATOM     26  C   UNL A   1      32.588  17.650  22.747  1.00  0.00     0.041 C 
ATOM     27  C   UNL A   1      33.733  17.542  25.426  1.00  0.00     0.041 C 
ATOM     28  C   UNL A   1      34.004  17.220  22.984  1.00  0.00    -0.030 C 
ATOM     29  C   UNL A   1      34.532  17.178  24.212  1.00  0.00    -0.030 C 
ENDBRANCH   8  19
ENDBRANCH   7   8
ENDBRANCH   4   7
ENDBRANCH   2   3
ENDBRANCH   1   2
BRANCH   1  30
ATOM     30  C   UNL A   1      39.434  21.817  26.705  1.00  0.00     0.023 C 
BRANCH  30  31
ATOM     31  C   UNL A   1      39.397  20.862  25.531  1.00  0.00     0.116 C 
BRANCH  31  32
ATOM     32  N   UNL A   1      40.161  19.634  25.733  1.00  0.00    -0.352 N 
ATOM     33  C   UNL A   1      41.469  19.477  26.133  1.00  0.00     0.251 C 
ATOM     34  H   UNL A   1      39.671  18.799  25.558  1.00  0.00     0.163 HD
ATOM     35  O   UNL A   1      41.977  18.362  26.195  1.00  0.00    -0.269 OA
BRANCH  33  36
ATOM     36  C   UNL A   1      42.285  20.677  26.407  1.00  0.00     0.039 A 
ATOM     37  C   UNL A   1      42.694  21.473  25.335  1.00  0.00     0.014 A 
ATOM     38  C   UNL A   1      42.543  21.074  27.718  1.00  0.00     0.014 A 
ATOM     39  C   UNL A   1      43.258  22.723  25.586  1.00  0.00     0.010 A 
ATOM     40  C   UNL A   1      42.968  22.369  27.962  1.00  0.00     0.010 A 
ATOM     41  C   UNL A   1      43.340  23.207  26.901  1.00  0.00    -0.014 A 
BRANCH  41  42
ATOM     42  C   UNL A   1      43.823  24.577  27.206  1.00  0.00     0.031 A 
ATOM     43  C   UNL A   1      42.853  25.607  27.712  1.00  0.00     0.074 A 
ATOM     44  C   UNL A   1      45.093  24.923  26.922  1.00  0.00     0.049 A 
ATOM     45  N   UNL A   1      43.024  26.891  27.895  1.00  0.00    -0.248 NA
ATOM     46  C   UNL A   1      41.483  25.141  27.988  1.00  0.00     0.031 C 
ATOM     47  C   UNL A   1      46.107  24.041  26.338  1.00  0.00     0.029 A 
ATOM     48  N   UNL A   1      45.745  26.122  27.067  1.00  0.00    -0.354 N 
ATOM     49  C   UNL A   1      41.777  27.388  28.252  1.00  0.00     0.074 A 
ATOM     50  C   UNL A   1      40.847  26.283  28.191  1.00  0.00     0.031 C 
ATOM     51  C   UNL A   1      47.257  24.719  26.201  1.00  0.00     0.029 A 
ATOM     52  C   UNL A   1      47.054  26.093  26.652  1.00  0.00     0.049 A 
ATOM     53  H   UNL A   1      45.314  26.928  27.433  1.00  0.00     0.167 HD
ATOM     54  C   UNL A   1      41.444  28.643  28.630  1.00  0.00     0.037 A 
ATOM     55  C   UNL A   1      47.983  27.066  26.636  1.00  0.00     0.037 A 
ATOM     56  C   UNL A   1      42.392  29.715  28.763  1.00  0.00     0.049 A 
ATOM     57  C   UNL A   1      47.618  28.431  27.151  1.00  0.00     0.074 A 
ATOM     58  C   UNL A   1      42.189  30.994  29.247  1.00  0.00     0.029 A 
ATOM     59  N   UNL A   1      43.733  29.624  28.417  1.00  0.00    -0.354 N 
ATOM     60  N   UNL A   1      46.457  28.870  27.570  1.00  0.00    -0.248 NA
ATOM     61  C   UNL A   1      48.692  29.431  27.201  1.00  0.00     0.031 C 
ATOM     62  C   UNL A   1      43.401  31.688  29.164  1.00  0.00     0.029 A 
ATOM     63  C   UNL A   1      44.368  30.828  28.665  1.00  0.00     0.049 A 
ATOM     64  H   UNL A   1      44.168  28.821  28.049  1.00  0.00     0.167 HD
ATOM     65  C   UNL A   1      46.661  30.190  27.949  1.00  0.00     0.074 A 
ATOM     66  C   UNL A   1      48.064  30.474  27.726  1.00  0.00     0.031 C 
ATOM     67  C   UNL A   1      45.767  31.086  28.435  1.00  0.00     0.037 A 
BRANCH  54  68
ATOM     68  C   UNL A   1      39.998  28.907  28.939  1.00  0.00     0.064 A 
ATOM     69  C   UNL A   1      39.473  28.733  30.229  1.00  0.00     0.173 A 
ATOM     70  C   UNL A   1      39.119  29.318  27.925  1.00  0.00     0.173 A 
ATOM     71  F   UNL A   1      40.267  28.326  31.232  1.00  0.00    -0.203 F 
ATOM     72  C   UNL A   1      38.115  28.908  30.482  1.00  0.00     0.198 A 
ATOM     73  C   UNL A   1      37.768  29.528  28.190  1.00  0.00     0.198 A 
ATOM     74  F   UNL A   1      39.568  29.504  26.675  1.00  0.00    -0.203 F 
ATOM     75  F   UNL A   1      37.626  28.658  31.704  1.00  0.00    -0.200 F 
ATOM     76  C   UNL A   1      37.265  29.309  29.463  1.00  0.00     0.200 A 
ATOM     77  F   UNL A   1      36.950  29.927  27.206  1.00  0.00    -0.200 F 
ATOM     78  F   UNL A   1      35.957  29.469  29.705  1.00  0.00    -0.200 F 
ENDBRANCH  54  68
BRANCH  55  79
ATOM     79  C   UNL A   1      49.355  26.762  26.155  1.00  0.00     0.064 A 
ATOM     80  C   UNL A   1      49.728  27.034  24.832  1.00  0.00     0.173 A 
ATOM     81  C   UNL A   1      50.329  26.231  27.013  1.00  0.00     0.173 A 
ATOM     82  F   UNL A   1      48.827  27.528  23.971  1.00  0.00    -0.203 F 
ATOM     83  C   UNL A   1      51.023  26.779  24.382  1.00  0.00     0.198 A 
ATOM     84  C   UNL A   1      51.629  25.998  26.569  1.00  0.00     0.198 A 
ATOM     85  F   UNL A   1      50.023  25.964  28.291  1.00  0.00    -0.203 F 
ATOM     86  F   UNL A   1      51.346  27.022  23.105  1.00  0.00    -0.200 F 
ATOM     87  C   UNL A   1      51.974  26.267  25.252  1.00  0.00     0.200 A 
ATOM     88  F   UNL A   1      52.549  25.519  27.417  1.00  0.00    -0.200 F 
ATOM     89  F   UNL A   1      53.221  26.034  24.823  1.00  0.00    -0.200 F 
ENDBRANCH  55  79
BRANCH  67  90
ATOM     90  C   UNL A   1      46.283  32.453  28.774  1.00  0.00     0.064 A 
ATOM     91  C   UNL A   1      46.273  33.493  27.833  1.00  0.00     0.173 A 
ATOM     92  C   UNL A   1      46.741  32.738  30.068  1.00  0.00     0.173 A 
ATOM     93  F   UNL A   1      45.857  33.264  26.579  1.00  0.00    -0.203 F 
ATOM     94  C   UNL A   1      46.721  34.766  28.173  1.00  0.00     0.198 A 
ATOM     95  C   UNL A   1      47.163  34.018  30.411  1.00  0.00     0.198 A 
ATOM     96  F   UNL A   1      46.764  31.776  31.005  1.00  0.00    -0.203 F 
ATOM     97  F   UNL A   1      46.738  35.736  27.249  1.00  0.00    -0.200 F 
ATOM     98  C   UNL A   1      47.158  35.029  29.463  1.00  0.00     0.200 A 
ATOM     99  F   UNL A   1      47.574  34.274  31.662  1.00  0.00    -0.200 F 
ATOM    100  F   UNL A   1      47.579  36.258  29.791  1.00  0.00    -0.200 F 
ENDBRANCH  67  90
ENDBRANCH  41  42
ENDBRANCH  33  36
ENDBRANCH  31  32
ENDBRANCH  30  31
ENDBRANCH   1  30
TORSDOF 16
ENDMDL
MODEL 2
REMARK VINA RESULT:     -12.4      5.408      9.927
REMARK SMILES COc1ccc([C@@H](CC(=O)NCCCCNC(=O)c2ccc(-c3c4nc(c(-c5c(F)c(F)c(F)c(F)c5F)c5ccc([nH]5)c(-c5c(F)c(F)c(F)c(F)c5F)c5nc(c(-c6c(F)c(F)c(F)c(F)c6F)c6ccc3[nH]6)C=C5)C=C4)cc2)N2C(=O)[C@H]3CC=CC[C@H]3C2=O)cc1OC
REMARK SMILES IDX 13 1 12 2 11 3 9 4 10 5 8 7 7 8 6 9 3 10 4 11 94 12 5 13
REMARK SMILES IDX 93 14 2 15 1 16 95 17 96 18 82 19 83 20 91 21 84 22 85 23
REMARK SMILES IDX 90 24 92 25 86 26 89 27 87 28 88 29 14 30 15 31 16 32 17 33
REMARK SMILES IDX 18 35 19 36 20 37 81 38 21 39 80 40 22 41 23 42 24 43 74 44
REMARK SMILES IDX 25 45 79 46 73 47 75 48 26 49 78 50 72 51 71 52 27 54 59 55
REMARK SMILES IDX 39 56 58 57 40 58 43 59 57 60 76 61 41 62 42 63 56 65 77 66
REMARK SMILES IDX 44 67 28 68 29 69 37 70 30 71 31 72 35 73 38 74 32 75 33 76
REMARK SMILES IDX 36 77 34 78 60 79 61 80 69 81 62 82 63 83 67 84 70 85 64 86
REMARK SMILES IDX 65 87 68 88 66 89 45 90 46 91 54 92 47 93 48 94 52 95 55 96
REMARK SMILES IDX 49 97 50 98 53 99 51 100
REMARK H PARENT 11 6 16 34 75 53 43 64
REMARK Flexibility Score: inf
ROOT
ATOM      1  C   UNL A   1      31.808  30.561  26.741  1.00  0.00     0.023 C 
ENDROOT
BRANCH   1   2
ATOM      2  C   UNL A   1      33.215  30.023  26.540  1.00  0.00     0.116 C 
BRANCH   2   3
ATOM      3  N   UNL A   1      33.263  29.317  25.278  1.00  0.00    -0.356 N 
ATOM      4  C   UNL A   1      33.780  28.075  25.038  1.00  0.00     0.222 C 
ATOM      5  O   UNL A   1      34.145  27.851  23.884  1.00  0.00    -0.275 OA
ATOM      6  H   UNL A   1      32.880  29.786  24.502  1.00  0.00     0.163 HD
BRANCH   4   7
ATOM      7  C   UNL A   1      33.810  27.013  26.136  1.00  0.00     0.130 C 
BRANCH   7   8
ATOM      8  C   UNL A   1      33.088  25.656  25.865  1.00  0.00     0.133 C 
BRANCH   8   9
ATOM      9  C   UNL A   1      34.133  24.541  25.657  1.00  0.00    -0.020 A 
ATOM     10  C   UNL A   1      36.060  22.441  25.592  1.00  0.00     0.160 A 
ATOM     11  C   UNL A   1      36.403  23.737  25.201  1.00  0.00     0.051 A 
ATOM     12  C   UNL A   1      34.722  22.169  25.919  1.00  0.00     0.161 A 
ATOM     13  C   UNL A   1      35.450  24.770  25.228  1.00  0.00     0.010 A 
ATOM     14  C   UNL A   1      33.783  23.213  25.962  1.00  0.00     0.056 A 
BRANCH  10  15
ATOM     15  O   UNL A   1      36.968  21.436  25.776  1.00  0.00    -0.493 OA
ATOM     16  C   UNL A   1      38.352  21.747  25.755  1.00  0.00     0.278 C 
ENDBRANCH  10  15
BRANCH  12  17
ATOM     17  O   UNL A   1      34.203  20.951  26.283  1.00  0.00    -0.493 OA
ATOM     18  C   UNL A   1      33.815  20.087  25.218  1.00  0.00     0.278 C 
ENDBRANCH  12  17
ENDBRANCH   8   9
BRANCH   8  19
ATOM     19  N   UNL A   1      32.018  25.705  24.859  1.00  0.00    -0.274 N 
ATOM     20  C   UNL A   1      30.691  25.599  25.162  1.00  0.00     0.234 C 
ATOM     21  C   UNL A   1      32.153  25.262  23.577  1.00  0.00     0.234 C 
ATOM     22  O   UNL A   1      30.208  25.270  26.238  1.00  0.00    -0.274 OA
ATOM     23  C   UNL A   1      29.873  25.778  23.903  1.00  0.00     0.095 C 
ATOM     24  C   UNL A   1      30.919  25.631  22.798  1.00  0.00     0.095 C 
ATOM     25  O   UNL A   1      33.088  24.638  23.095  1.00  0.00    -0.274 OA
ATOM     26  C   UNL A   1      29.116  27.103  23.949  1.00  0.00     0.041 C 
ATOM     27  C   UNL A   1      31.234  26.876  21.958  1.00  0.00     0.041 C 
ATOM     28  C   UNL A   1      29.947  28.281  23.541  1.00  0.00    -0.030 C 
ATOM     29  C   UNL A   1      30.924  28.176  22.634  1.00  0.00    -0.030 C 
ENDBRANCH   8  19
ENDBRANCH   7   8
ENDBRANCH   4   7
ENDBRANCH   2   3
ENDBRANCH   1   2
BRANCH   1  30
ATOM     30  C   UNL A   1      31.626  32.062  26.656  1.00  0.00     0.023 C 
BRANCH  30  31
ATOM     31  C   UNL A   1      32.733  32.845  27.330  1.00  0.00     0.116 C 
BRANCH  31  32
ATOM     32  N   UNL A   1      32.369  34.215  27.684  1.00  0.00    -0.352 N 
ATOM     33  C   UNL A   1      32.950  35.061  28.601  1.00  0.00     0.251 C 
ATOM     34  H   UNL A   1      31.599  34.586  27.197  1.00  0.00     0.163 HD
ATOM     35  O   UNL A   1      32.477  36.171  28.818  1.00  0.00    -0.269 OA
BRANCH  33  36
ATOM     36  C   UNL A   1      34.108  34.584  29.385  1.00  0.00     0.039 A 
ATOM     37  C   UNL A   1      33.878  33.959  30.612  1.00  0.00     0.014 A 
ATOM     38  C   UNL A   1      35.397  34.652  28.858  1.00  0.00     0.014 A 
ATOM     39  C   UNL A   1      34.927  33.299  31.252  1.00  0.00     0.010 A 
ATOM     40  C   UNL A   1      36.399  33.877  29.420  1.00  0.00     0.010 A 
ATOM     41  C   UNL A   1      36.180  33.199  30.628  1.00  0.00    -0.014 A 
BRANCH  41  42
ATOM     42  C   UNL A   1      37.290  32.408  31.215  1.00  0.00     0.031 A 
ATOM     43  C   UNL A   1      37.795  32.750  32.588  1.00  0.00     0.074 A 
ATOM     44  C   UNL A   1      37.914  31.470  30.477  1.00  0.00     0.049 A 
ATOM     45  N   UNL A   1      38.844  32.296  33.225  1.00  0.00    -0.248 NA
ATOM     46  C   UNL A   1      37.057  33.793  33.320  1.00  0.00     0.031 C 
ATOM     47  C   UNL A   1      37.581  31.111  29.097  1.00  0.00     0.029 A 
ATOM     48  N   UNL A   1      38.978  30.658  30.780  1.00  0.00    -0.354 N 
ATOM     49  C   UNL A   1      38.918  33.035  34.399  1.00  0.00     0.074 A 
ATOM     50  C   UNL A   1      37.853  34.012  34.353  1.00  0.00     0.031 C 
ATOM     51  C   UNL A   1      38.403  30.134  28.683  1.00  0.00     0.029 A 
ATOM     52  C   UNL A   1      39.346  29.823  29.754  1.00  0.00     0.049 A 
ATOM     53  H   UNL A   1      39.436  30.674  31.652  1.00  0.00     0.167 HD
ATOM     54  C   UNL A   1      39.773  32.890  35.437  1.00  0.00     0.037 A 
ATOM     55  C   UNL A   1      40.333  28.911  29.685  1.00  0.00     0.037 A 
ATOM     56  C   UNL A   1      40.778  31.865  35.506  1.00  0.00     0.049 A 
ATOM     57  C   UNL A   1      41.213  28.699  30.886  1.00  0.00     0.074 A 
ATOM     58  C   UNL A   1      41.622  31.550  36.555  1.00  0.00     0.029 A 
ATOM     59  N   UNL A   1      41.063  30.975  34.479  1.00  0.00    -0.354 N 
ATOM     60  N   UNL A   1      41.221  29.343  32.027  1.00  0.00    -0.248 NA
ATOM     61  C   UNL A   1      42.214  27.628  30.794  1.00  0.00     0.031 C 
ATOM     62  C   UNL A   1      42.442  30.491  36.151  1.00  0.00     0.029 A 
ATOM     63  C   UNL A   1      42.081  30.120  34.865  1.00  0.00     0.049 A 
ATOM     64  H   UNL A   1      40.610  30.956  33.606  1.00  0.00     0.167 HD
ATOM     65  C   UNL A   1      42.211  28.748  32.796  1.00  0.00     0.074 A 
ATOM     66  C   UNL A   1      42.771  27.678  31.996  1.00  0.00     0.031 C 
ATOM     67  C   UNL A   1      42.621  29.061  34.050  1.00  0.00     0.037 A 
BRANCH  54  68
ATOM     68  C   UNL A   1      39.639  33.857  36.578  1.00  0.00     0.064 A 
ATOM     69  C   UNL A   1      40.301  35.095  36.582  1.00  0.00     0.173 A 
ATOM     70  C   UNL A   1      38.856  33.531  37.695  1.00  0.00     0.173 A 
ATOM     71  F   UNL A   1      41.076  35.449  35.544  1.00  0.00    -0.203 F 
ATOM     72  C   UNL A   1      40.228  35.946  37.682  1.00  0.00     0.198 A 
ATOM     73  C   UNL A   1      38.755  34.402  38.778  1.00  0.00     0.198 A 
ATOM     74  F   UNL A   1      38.198  32.364  37.744  1.00  0.00    -0.203 F 
ATOM     75  F   UNL A   1      40.933  37.085  37.692  1.00  0.00    -0.200 F 
ATOM     76  C   UNL A   1      39.452  35.600  38.776  1.00  0.00     0.200 A 
ATOM     77  F   UNL A   1      37.995  34.071  39.831  1.00  0.00    -0.200 F 
ATOM     78  F   UNL A   1      39.388  36.416  39.837  1.00  0.00    -0.200 F 
ENDBRANCH  54  68
BRANCH  55  79
ATOM     79  C   UNL A   1      40.504  28.107  28.449  1.00  0.00     0.064 A 
ATOM     80  C   UNL A   1      41.317  28.563  27.402  1.00  0.00     0.173 A 
ATOM     81  C   UNL A   1      39.892  26.853  28.302  1.00  0.00     0.173 A 
ATOM     82  F   UNL A   1      41.910  29.762  27.490  1.00  0.00    -0.203 F 
ATOM     83  C   UNL A   1      41.505  27.799  26.251  1.00  0.00     0.198 A 
ATOM     84  C   UNL A   1      40.100  26.080  27.161  1.00  0.00     0.198 A 
ATOM     85  F   UNL A   1      39.114  26.368  29.281  1.00  0.00    -0.203 F 
ATOM     86  F   UNL A   1      42.265  28.272  25.254  1.00  0.00    -0.200 F 
ATOM     87  C   UNL A   1      40.901  26.556  26.134  1.00  0.00     0.200 A 
ATOM     88  F   UNL A   1      39.528  24.873  27.059  1.00  0.00    -0.200 F 
ATOM     89  F   UNL A   1      41.093  25.817  25.034  1.00  0.00    -0.200 F 
ENDBRANCH  55  79
BRANCH  67  90
ATOM     90  C   UNL A   1      43.718  28.226  34.641  1.00  0.00     0.064 A 
ATOM     91  C   UNL A   1      45.062  28.619  34.561  1.00  0.00     0.173 A 
ATOM     92  C   UNL A   1      43.415  27.048  35.339  1.00  0.00     0.173 A 
ATOM     93  F   UNL A   1      45.400  29.730  33.891  1.00  0.00    -0.203 F 
ATOM     94  C   UNL A   1      46.065  27.853  35.145  1.00  0.00     0.198 A 
ATOM     95  C   UNL A   1      44.419  26.298  35.945  1.00  0.00     0.198 A 
ATOM     96  F   UNL A   1      42.143  26.634  35.448  1.00  0.00    -0.203 F 
ATOM     97  F   UNL A   1      47.346  28.226  35.025  1.00  0.00    -0.200 F 
ATOM     98  C   UNL A   1      45.742  26.697  35.842  1.00  0.00     0.200 A 
ATOM     99  F   UNL A   1      44.104  25.189  36.629  1.00  0.00    -0.200 F 
ATOM    100  F   UNL A   1      46.709  25.966  36.413  1.00  0.00    -0.200 F 
ENDBRANCH  67  90
ENDBRANCH  41  42
ENDBRANCH  33  36
ENDBRANCH  31  32
ENDBRANCH  30  31
ENDBRANCH   1  30
TORSDOF 16
ENDMDL
MODEL 3
REMARK VINA RESULT:     -12.4      5.655     10.231
REMARK SMILES COc1ccc([C@@H](CC(=O)NCCCCNC(=O)c2ccc(-c3c4nc(c(-c5c(F)c(F)c(F)c(F)c5F)c5ccc([nH]5)c(-c5c(F)c(F)c(F)c(F)c5F)c5nc(c(-c6c(F)c(F)c(F)c(F)c6F)c6ccc3[nH]6)C=C5)C=C4)cc2)N2C(=O)[C@H]3CC=CC[C@H]3C2=O)cc1OC
REMARK SMILES IDX 13 1 12 2 11 3 9 4 10 5 8 7 7 8 6 9 3 10 4 11 94 12 5 13
REMARK SMILES IDX 93 14 2 15 1 16 95 17 96 18 82 19 83 20 91 21 84 22 85 23
REMARK SMILES IDX 90 24 92 25 86 26 89 27 87 28 88 29 14 30 15 31 16 32 17 33
REMARK SMILES IDX 18 35 19 36 20 37 81 38 21 39 80 40 22 41 23 42 24 43 74 44
REMARK SMILES IDX 25 45 79 46 73 47 75 48 26 49 78 50 72 51 71 52 27 54 59 55
REMARK SMILES IDX 39 56 58 57 40 58 43 59 57 60 76 61 41 62 42 63 56 65 77 66
REMARK SMILES IDX 44 67 28 68 29 69 37 70 30 71 31 72 35 73 38 74 32 75 33 76
REMARK SMILES IDX 36 77 34 78 60 79 61 80 69 81 62 82 63 83 67 84 70 85 64 86
REMARK SMILES IDX 65 87 68 88 66 89 45 90 46 91 54 92 47 93 48 94 52 95 55 96
REMARK SMILES IDX 49 97 50 98 53 99 51 100
REMARK H PARENT 11 6 16 34 75 53 43 64
REMARK Flexibility Score: inf
ROOT
ATOM      1  C   UNL A   1      34.447  30.933  28.048  1.00  0.00     0.023 C 
ENDROOT
BRANCH   1   2
ATOM      2  C   UNL A   1      34.499  29.685  27.183  1.00  0.00     0.116 C 
BRANCH   2   3
ATOM      3  N   UNL A   1      33.476  28.767  27.635  1.00  0.00    -0.356 N 
ATOM      4  C   UNL A   1      32.236  28.571  27.095  1.00  0.00     0.222 C 
ATOM      5  O   UNL A   1      31.377  28.125  27.854  1.00  0.00    -0.275 OA
ATOM      6  H   UNL A   1      33.699  28.220  28.422  1.00  0.00     0.163 HD
BRANCH   4   7
ATOM      7  C   UNL A   1      31.980  28.816  25.608  1.00  0.00     0.130 C 
BRANCH   7   8
ATOM      8  C   UNL A   1      31.018  27.843  24.858  1.00  0.00     0.133 C 
BRANCH   8   9
ATOM      9  C   UNL A   1      31.789  26.578  24.426  1.00  0.00    -0.020 A 
ATOM     10  C   UNL A   1      33.215  24.158  23.939  1.00  0.00     0.160 A 
ATOM     11  C   UNL A   1      33.808  25.398  23.693  1.00  0.00     0.051 A 
ATOM     12  C   UNL A   1      31.866  24.123  24.331  1.00  0.00     0.161 A 
ATOM     13  C   UNL A   1      33.101  26.590  23.928  1.00  0.00     0.010 A 
ATOM     14  C   UNL A   1      31.177  25.321  24.582  1.00  0.00     0.056 A 
BRANCH  10  15
ATOM     15  O   UNL A   1      33.893  22.972  23.920  1.00  0.00    -0.493 OA
ATOM     16  C   UNL A   1      35.312  22.990  23.966  1.00  0.00     0.278 C 
ENDBRANCH  10  15
BRANCH  12  17
ATOM     17  O   UNL A   1      31.117  22.998  24.574  1.00  0.00    -0.493 OA
ATOM     18  C   UNL A   1      30.905  22.665  25.943  1.00  0.00     0.278 C 
ENDBRANCH  12  17
ENDBRANCH   8   9
BRANCH   8  19
ATOM     19  N   UNL A   1      30.194  28.461  23.809  1.00  0.00    -0.274 N 
ATOM     20  C   UNL A   1      28.975  27.980  23.427  1.00  0.00     0.234 C 
ATOM     21  C   UNL A   1      30.700  29.123  22.731  1.00  0.00     0.234 C 
ATOM     22  O   UNL A   1      28.480  26.905  23.739  1.00  0.00    -0.274 OA
ATOM     23  C   UNL A   1      28.374  28.905  22.394  1.00  0.00     0.095 C 
ATOM     24  C   UNL A   1      29.567  29.765  21.975  1.00  0.00     0.095 C 
ATOM     25  O   UNL A   1      31.867  29.193  22.374  1.00  0.00    -0.274 OA
ATOM     26  C   UNL A   1      27.176  29.648  22.982  1.00  0.00     0.041 C 
ATOM     27  C   UNL A   1      29.524  31.253  22.344  1.00  0.00     0.041 C 
ATOM     28  C   UNL A   1      27.556  30.849  23.793  1.00  0.00    -0.030 C 
ATOM     29  C   UNL A   1      28.637  31.582  23.505  1.00  0.00    -0.030 C 
ENDBRANCH   8  19
ENDBRANCH   7   8
ENDBRANCH   4   7
ENDBRANCH   2   3
ENDBRANCH   1   2
BRANCH   1  30
ATOM     30  C   UNL A   1      33.187  31.771  27.973  1.00  0.00     0.023 C 
BRANCH  30  31
ATOM     31  C   UNL A   1      33.332  33.005  27.108  1.00  0.00     0.116 C 
BRANCH  31  32
ATOM     32  N   UNL A   1      32.747  34.213  27.684  1.00  0.00    -0.352 N 
ATOM     33  C   UNL A   1      33.130  34.920  28.802  1.00  0.00     0.251 C 
ATOM     34  H   UNL A   1      31.967  34.574  27.204  1.00  0.00     0.163 HD
ATOM     35  O   UNL A   1      32.484  35.890  29.183  1.00  0.00    -0.269 OA
BRANCH  33  36
ATOM     36  C   UNL A   1      34.285  34.445  29.590  1.00  0.00     0.039 A 
ATOM     37  C   UNL A   1      34.050  33.741  30.773  1.00  0.00     0.014 A 
ATOM     38  C   UNL A   1      35.584  34.594  29.105  1.00  0.00     0.014 A 
ATOM     39  C   UNL A   1      35.108  33.088  31.404  1.00  0.00     0.010 A 
ATOM     40  C   UNL A   1      36.602  33.829  29.650  1.00  0.00     0.010 A 
ATOM     41  C   UNL A   1      36.380  33.074  30.810  1.00  0.00    -0.014 A 
BRANCH  41  42
ATOM     42  C   UNL A   1      37.506  32.295  31.383  1.00  0.00     0.031 A 
ATOM     43  C   UNL A   1      38.016  32.633  32.756  1.00  0.00     0.074 A 
ATOM     44  C   UNL A   1      38.140  31.374  30.632  1.00  0.00     0.049 A 
ATOM     45  N   UNL A   1      39.076  32.191  33.381  1.00  0.00    -0.248 NA
ATOM     46  C   UNL A   1      37.267  33.659  33.501  1.00  0.00     0.031 C 
ATOM     47  C   UNL A   1      37.802  31.022  29.251  1.00  0.00     0.029 A 
ATOM     48  N   UNL A   1      39.219  30.577  30.921  1.00  0.00    -0.354 N 
ATOM     49  C   UNL A   1      39.147  32.920  34.560  1.00  0.00     0.074 A 
ATOM     50  C   UNL A   1      38.067  33.881  34.531  1.00  0.00     0.031 C 
ATOM     51  C   UNL A   1      38.637  30.062  28.823  1.00  0.00     0.029 A 
ATOM     52  C   UNL A   1      39.592  29.756  29.884  1.00  0.00     0.049 A 
ATOM     53  H   UNL A   1      39.683  30.592  31.790  1.00  0.00     0.167 HD
ATOM     54  C   UNL A   1      40.012  32.780  35.591  1.00  0.00     0.037 A 
ATOM     55  C   UNL A   1      40.593  28.860  29.801  1.00  0.00     0.037 A 
ATOM     56  C   UNL A   1      41.032  31.770  35.645  1.00  0.00     0.049 A 
ATOM     57  C   UNL A   1      41.485  28.651  30.994  1.00  0.00     0.074 A 
ATOM     58  C   UNL A   1      41.889  31.460  36.685  1.00  0.00     0.029 A 
ATOM     59  N   UNL A   1      41.325  30.894  34.608  1.00  0.00    -0.354 N 
ATOM     60  N   UNL A   1      41.490  29.286  32.141  1.00  0.00    -0.248 NA
ATOM     61  C   UNL A   1      42.501  27.597  30.886  1.00  0.00     0.031 C 
ATOM     62  C   UNL A   1      42.723  30.417  36.266  1.00  0.00     0.029 A 
ATOM     63  C   UNL A   1      42.358  30.051  34.979  1.00  0.00     0.049 A 
ATOM     64  H   UNL A   1      40.865  30.876  33.738  1.00  0.00     0.167 HD
ATOM     65  C   UNL A   1      42.495  28.700  32.897  1.00  0.00     0.074 A 
ATOM     66  C   UNL A   1      43.066  27.645  32.085  1.00  0.00     0.031 C 
ATOM     67  C   UNL A   1      42.909  29.008  34.151  1.00  0.00     0.037 A 
BRANCH  54  68
ATOM     68  C   UNL A   1      39.871  33.734  36.742  1.00  0.00     0.064 A 
ATOM     69  C   UNL A   1      39.051  33.448  37.845  1.00  0.00     0.173 A 
ATOM     70  C   UNL A   1      40.547  34.964  36.731  1.00  0.00     0.173 A 
ATOM     71  F   UNL A   1      38.370  32.293  37.899  1.00  0.00    -0.203 F 
ATOM     72  C   UNL A   1      38.872  34.377  38.868  1.00  0.00     0.198 A 
ATOM     73  C   UNL A   1      40.394  35.874  37.774  1.00  0.00     0.198 A 
ATOM     74  F   UNL A   1      41.347  35.288  35.705  1.00  0.00    -0.203 F 
ATOM     75  F   UNL A   1      38.022  34.111  39.869  1.00  0.00    -0.200 F 
ATOM     76  C   UNL A   1      39.546  35.587  38.833  1.00  0.00     0.200 A 
ATOM     77  F   UNL A   1      41.056  37.040  37.744  1.00  0.00    -0.200 F 
ATOM     78  F   UNL A   1      39.367  36.483  39.812  1.00  0.00    -0.200 F 
ENDBRANCH  54  68
BRANCH  55  79
ATOM     79  C   UNL A   1      40.768  28.070  28.557  1.00  0.00     0.064 A 
ATOM     80  C   UNL A   1      40.116  26.840  28.390  1.00  0.00     0.173 A 
ATOM     81  C   UNL A   1      41.556  28.540  27.496  1.00  0.00     0.173 A 
ATOM     82  F   UNL A   1      39.364  26.342  29.382  1.00  0.00    -0.203 F 
ATOM     83  C   UNL A   1      40.253  26.107  27.212  1.00  0.00     0.198 A 
ATOM     84  C   UNL A   1      41.674  27.817  26.311  1.00  0.00     0.198 A 
ATOM     85  F   UNL A   1      42.191  29.717  27.604  1.00  0.00    -0.203 F 
ATOM     86  F   UNL A   1      39.641  24.921  27.090  1.00  0.00    -0.200 F 
ATOM     87  C   UNL A   1      41.026  26.598  26.172  1.00  0.00     0.200 A 
ATOM     88  F   UNL A   1      42.408  28.304  25.302  1.00  0.00    -0.200 F 
ATOM     89  F   UNL A   1      41.146  25.900  25.035  1.00  0.00    -0.200 F 
ENDBRANCH  55  79
BRANCH  67  90
ATOM     90  C   UNL A   1      44.023  28.185  34.727  1.00  0.00     0.064 A 
ATOM     91  C   UNL A   1      43.771  26.979  35.396  1.00  0.00     0.173 A 
ATOM     92  C   UNL A   1      45.358  28.582  34.561  1.00  0.00     0.173 A 
ATOM     93  F   UNL A   1      42.510  26.567  35.591  1.00  0.00    -0.203 F 
ATOM     94  C   UNL A   1      44.817  26.208  35.894  1.00  0.00     0.198 A 
ATOM     95  C   UNL A   1      46.402  27.795  35.037  1.00  0.00     0.198 A 
ATOM     96  F   UNL A   1      45.649  29.726  33.922  1.00  0.00    -0.203 F 
ATOM     97  F   UNL A   1      44.553  25.078  36.563  1.00  0.00    -0.200 F 
ATOM     98  C   UNL A   1      46.131  26.613  35.708  1.00  0.00     0.200 A 
ATOM     99  F   UNL A   1      47.672  28.181  34.845  1.00  0.00    -0.200 F 
ATOM    100  F   UNL A   1      47.137  25.863  36.179  1.00  0.00    -0.200 F 
ENDBRANCH  67  90
ENDBRANCH  41  42
ENDBRANCH  33  36
ENDBRANCH  31  32
ENDBRANCH  30  31
ENDBRANCH   1  30
TORSDOF 16
ENDMDL
