MODEL 1
REMARK VINA RESULT:     -14.6      0.000      0.000
REMARK SMILES CC1(C)O[C@@H]2C[C@@H]3[C@H]4CCC5=CC(=O)C=C[C@@]5(C)[C@]4(F)[C@H](O)C[C@]3(C)[C@]2(C(=O)NCCCCNC(=O)c2ccc(-c3c4nc(c(-c5c(F)c(F)c(F)c(F)c5F)c5ccc([nH]5)c(-c5c(F)c(F)c(F)c(F)c5F)c5nc(c(-c6c(F)c(F)c(F)c(F)c6F)c6ccc3[nH]6)C=C5)C=C4)cc2)O1
REMARK SMILES IDX 32 1 31 2 30 3 29 4 27 5 28 6 26 8 1 9 2 10 4 11 100 12 3 13
REMARK SMILES IDX 5 14 6 15 24 16 7 17 23 18 25 19 8 20 21 21 9 22 19 23 10 24
REMARK SMILES IDX 17 25 20 26 11 27 16 28 18 29 12 30 15 31 13 32 14 33 22 34
REMARK SMILES IDX 33 36 34 37 35 38 36 40 37 41 38 42 99 43 39 44 98 45 40 46
REMARK SMILES IDX 41 47 42 48 92 49 43 50 97 51 91 52 93 53 44 54 96 55 90 56
REMARK SMILES IDX 89 57 45 59 77 60 57 61 76 62 58 63 61 64 75 65 94 66 59 67
REMARK SMILES IDX 60 68 74 70 95 71 62 72 46 73 47 74 55 75 48 76 49 77 53 78
REMARK SMILES IDX 56 79 50 80 51 81 54 82 52 83 78 84 79 85 87 86 80 87 81 88
REMARK SMILES IDX 85 89 88 90 82 91 83 92 86 93 84 94 63 95 64 96 72 97 65 98
REMARK SMILES IDX 66 99 70 100 73 101 67 102 68 103 71 104 69 105
REMARK H PARENT 29 7 22 35 34 39 93 58 61 69
REMARK Flexibility Score: inf
ROOT
ATOM      1  C   UNL A   1      35.987  21.606  24.630  1.00  0.00     0.023 C 
ENDROOT
BRANCH   1   2
ATOM      2  C   UNL A   1      35.115  20.409  24.984  1.00  0.00     0.023 C 
BRANCH   2   3
ATOM      3  C   UNL A   1      33.639  20.743  25.166  1.00  0.00     0.116 C 
BRANCH   3   4
ATOM      4  N   UNL A   1      33.078  21.260  23.949  1.00  0.00    -0.353 N 
ATOM      5  C   UNL A   1      32.446  22.414  23.674  1.00  0.00     0.255 C 
ATOM      6  O   UNL A   1      31.729  22.373  22.662  1.00  0.00    -0.272 OA
ATOM      7  H   UNL A   1      33.173  20.658  23.175  1.00  0.00     0.163 HD
BRANCH   5   8
ATOM      8  C   UNL A   1      32.591  23.730  24.452  1.00  0.00     0.181 C 
ATOM      9  C   UNL A   1      30.445  22.552  26.532  1.00  0.00     0.075 C 
ATOM     10  C   UNL A   1      31.039  23.907  26.191  1.00  0.00     0.164 C 
ATOM     11  O   UNL A   1      32.317  23.996  26.834  1.00  0.00    -0.344 OA
ATOM     12  O   UNL A   1      31.190  24.031  24.769  1.00  0.00    -0.331 OA
ATOM     13  C   UNL A   1      30.088  24.990  26.709  1.00  0.00     0.075 C 
ATOM     14  C   UNL A   1      33.329  23.993  25.813  1.00  0.00     0.164 C 
ATOM     15  C   UNL A   1      33.955  25.459  25.738  1.00  0.00     0.040 C 
ATOM     16  C   UNL A   1      33.209  24.864  23.523  1.00  0.00     0.014 C 
ATOM     17  C   UNL A   1      33.149  26.017  24.569  1.00  0.00     0.008 C 
ATOM     18  C   UNL A   1      32.596  25.282  22.170  1.00  0.00     0.046 C 
ATOM     19  C   UNL A   1      34.651  24.383  23.138  1.00  0.00     0.015 C 
ATOM     20  C   UNL A   1      32.202  27.227  24.408  1.00  0.00     0.035 C 
ATOM     21  C   UNL A   1      31.418  26.244  22.203  1.00  0.00     0.154 C 
ATOM     22  C   UNL A   1      32.559  28.434  25.263  1.00  0.00     0.012 C 
ATOM     23  C   UNL A   1      31.727  27.561  22.997  1.00  0.00     0.152 C 
ATOM     24  C   UNL A   1      31.273  29.218  25.515  1.00  0.00     0.032 C 
ATOM     25  C   UNL A   1      30.496  28.579  23.085  1.00  0.00     0.044 C 
ATOM     26  F   UNL A   1      32.779  28.185  22.374  1.00  0.00    -0.239 F 
ATOM     27  C   UNL A   1      30.582  29.607  24.235  1.00  0.00    -0.053 C 
ATOM     28  C   UNL A   1      30.327  29.346  21.777  1.00  0.00    -0.009 C 
ATOM     29  C   UNL A   1      29.141  27.831  23.319  1.00  0.00     0.024 C 
ATOM     30  C   UNL A   1      29.927  30.781  24.152  1.00  0.00     0.052 C 
ATOM     31  C   UNL A   1      29.498  30.398  21.692  1.00  0.00     0.048 C 
ATOM     32  C   UNL A   1      29.138  31.120  22.937  1.00  0.00     0.178 C 
ATOM     33  O   UNL A   1      28.316  32.026  22.942  1.00  0.00    -0.290 OA
BRANCH  21  34
ATOM     34  O   UNL A   1      30.282  25.511  22.651  1.00  0.00    -0.390 OA
ATOM     35  H   UNL A   1      30.358  25.349  23.605  1.00  0.00     0.211 HD
ENDBRANCH  21  34
ENDBRANCH   5   8
ENDBRANCH   3   4
ENDBRANCH   2   3
ENDBRANCH   1   2
BRANCH   1  36
ATOM     36  C   UNL A   1      37.015  21.951  25.690  1.00  0.00     0.116 C 
BRANCH  36  37
ATOM     37  N   UNL A   1      38.048  20.930  25.816  1.00  0.00    -0.352 N 
ATOM     38  C   UNL A   1      39.350  21.080  26.207  1.00  0.00     0.251 C 
ATOM     39  H   UNL A   1      37.772  20.012  25.590  1.00  0.00     0.163 HD
ATOM     40  O   UNL A   1      40.146  20.148  26.125  1.00  0.00    -0.269 OA
BRANCH  38  41
ATOM     41  C   UNL A   1      39.781  22.397  26.694  1.00  0.00     0.039 A 
ATOM     42  C   UNL A   1      40.795  22.463  27.648  1.00  0.00     0.014 A 
ATOM     43  C   UNL A   1      39.243  23.556  26.128  1.00  0.00     0.014 A 
ATOM     44  C   UNL A   1      41.315  23.707  27.997  1.00  0.00     0.010 A 
ATOM     45  C   UNL A   1      39.825  24.783  26.408  1.00  0.00     0.010 A 
ATOM     46  C   UNL A   1      40.860  24.870  27.351  1.00  0.00    -0.014 A 
BRANCH  46  47
ATOM     47  C   UNL A   1      41.447  26.194  27.659  1.00  0.00     0.031 A 
ATOM     48  C   UNL A   1      42.843  26.510  27.208  1.00  0.00     0.074 A 
ATOM     49  C   UNL A   1      40.747  27.078  28.395  1.00  0.00     0.049 A 
ATOM     50  N   UNL A   1      43.560  27.584  27.425  1.00  0.00    -0.248 NA
ATOM     51  C   UNL A   1      43.542  25.470  26.435  1.00  0.00     0.031 C 
ATOM     52  C   UNL A   1      39.403  26.857  28.933  1.00  0.00     0.029 A 
ATOM     53  N   UNL A   1      41.074  28.340  28.823  1.00  0.00    -0.354 N 
ATOM     54  C   UNL A   1      44.788  27.341  26.828  1.00  0.00     0.074 A 
ATOM     55  C   UNL A   1      44.748  25.997  26.297  1.00  0.00     0.031 C 
ATOM     56  C   UNL A   1      39.009  27.956  29.595  1.00  0.00     0.029 A 
ATOM     57  C   UNL A   1      40.086  28.941  29.563  1.00  0.00     0.049 A 
ATOM     58  H   UNL A   1      41.934  28.772  28.620  1.00  0.00     0.167 HD
ATOM     59  C   UNL A   1      45.846  28.178  26.709  1.00  0.00     0.037 A 
ATOM     60  C   UNL A   1      40.058  30.151  30.154  1.00  0.00     0.037 A 
ATOM     61  C   UNL A   1      45.870  29.522  27.221  1.00  0.00     0.049 A 
ATOM     62  C   UNL A   1      41.253  31.056  30.016  1.00  0.00     0.074 A 
ATOM     63  C   UNL A   1      46.867  30.472  27.102  1.00  0.00     0.029 A 
ATOM     64  N   UNL A   1      44.844  30.104  27.953  1.00  0.00    -0.354 N 
ATOM     65  N   UNL A   1      42.382  30.847  29.384  1.00  0.00    -0.248 NA
ATOM     66  C   UNL A   1      41.164  32.370  30.668  1.00  0.00     0.031 C 
ATOM     67  C   UNL A   1      46.470  31.611  27.810  1.00  0.00     0.029 A 
ATOM     68  C   UNL A   1      45.199  31.393  28.317  1.00  0.00     0.049 A 
ATOM     69  H   UNL A   1      43.993  29.666  28.181  1.00  0.00     0.167 HD
ATOM     70  C   UNL A   1      43.125  32.011  29.534  1.00  0.00     0.074 A 
ATOM     71  C   UNL A   1      42.310  32.928  30.304  1.00  0.00     0.031 C 
ATOM     72  C   UNL A   1      44.369  32.296  29.076  1.00  0.00     0.037 A 
BRANCH  59  73
ATOM     73  C   UNL A   1      47.062  27.662  25.995  1.00  0.00     0.064 A 
ATOM     74  C   UNL A   1      47.169  27.703  24.596  1.00  0.00     0.173 A 
ATOM     75  C   UNL A   1      48.147  27.146  26.720  1.00  0.00     0.173 A 
ATOM     76  F   UNL A   1      46.154  28.172  23.854  1.00  0.00    -0.203 F 
ATOM     77  C   UNL A   1      48.303  27.219  23.948  1.00  0.00     0.198 A 
ATOM     78  C   UNL A   1      49.293  26.695  26.070  1.00  0.00     0.198 A 
ATOM     79  F   UNL A   1      48.099  27.085  28.059  1.00  0.00    -0.203 F 
ATOM     80  F   UNL A   1      48.359  27.218  22.609  1.00  0.00    -0.200 F 
ATOM     81  C   UNL A   1      49.367  26.724  24.686  1.00  0.00     0.200 A 
ATOM     82  F   UNL A   1      50.327  26.229  26.786  1.00  0.00    -0.200 F 
ATOM     83  F   UNL A   1      50.461  26.266  24.062  1.00  0.00    -0.200 F 
ENDBRANCH  59  73
BRANCH  60  84
ATOM     84  C   UNL A   1      38.852  30.585  30.908  1.00  0.00     0.064 A 
ATOM     85  C   UNL A   1      37.757  31.158  30.245  1.00  0.00     0.173 A 
ATOM     86  C   UNL A   1      38.771  30.445  32.300  1.00  0.00     0.173 A 
ATOM     87  F   UNL A   1      37.795  31.329  28.915  1.00  0.00    -0.203 F 
ATOM     88  C   UNL A   1      36.639  31.597  30.950  1.00  0.00     0.198 A 
ATOM     89  C   UNL A   1      37.639  30.856  33.000  1.00  0.00     0.198 A 
ATOM     90  F   UNL A   1      39.788  29.896  32.982  1.00  0.00    -0.203 F 
ATOM     91  F   UNL A   1      35.628  32.187  30.297  1.00  0.00    -0.200 F 
ATOM     92  C   UNL A   1      36.578  31.442  32.327  1.00  0.00     0.200 A 
ATOM     93  F   UNL A   1      37.578  30.689  34.329  1.00  0.00    -0.200 F 
ATOM     94  F   UNL A   1      35.501  31.861  33.004  1.00  0.00    -0.200 F 
ENDBRANCH  60  84
BRANCH  72  95
ATOM     95  C   UNL A   1      44.911  33.667  29.358  1.00  0.00     0.064 A 
ATOM     96  C   UNL A   1      45.692  33.934  30.491  1.00  0.00     0.173 A 
ATOM     97  C   UNL A   1      44.678  34.718  28.457  1.00  0.00     0.173 A 
ATOM     98  F   UNL A   1      45.931  32.968  31.391  1.00  0.00    -0.203 F 
ATOM     99  C   UNL A   1      46.197  35.210  30.727  1.00  0.00     0.198 A 
ATOM    100  C   UNL A   1      45.214  35.983  28.678  1.00  0.00     0.198 A 
ATOM    101  F   UNL A   1      43.944  34.514  27.353  1.00  0.00    -0.203 F 
ATOM    102  F   UNL A   1      46.898  35.455  31.842  1.00  0.00    -0.200 F 
ATOM    103  C   UNL A   1      45.966  36.230  29.816  1.00  0.00     0.200 A 
ATOM    104  F   UNL A   1      45.003  36.963  27.788  1.00  0.00    -0.200 F 
ATOM    105  F   UNL A   1      46.462  37.455  30.040  1.00  0.00    -0.200 F 
ENDBRANCH  72  95
ENDBRANCH  46  47
ENDBRANCH  38  41
ENDBRANCH  36  37
ENDBRANCH   1  36
TORSDOF 12
ENDMDL
MODEL 2
REMARK VINA RESULT:     -14.6      4.534     10.132
REMARK SMILES CC1(C)O[C@@H]2C[C@@H]3[C@H]4CCC5=CC(=O)C=C[C@@]5(C)[C@]4(F)[C@H](O)C[C@]3(C)[C@]2(C(=O)NCCCCNC(=O)c2ccc(-c3c4nc(c(-c5c(F)c(F)c(F)c(F)c5F)c5ccc([nH]5)c(-c5c(F)c(F)c(F)c(F)c5F)c5nc(c(-c6c(F)c(F)c(F)c(F)c6F)c6ccc3[nH]6)C=C5)C=C4)cc2)O1
REMARK SMILES IDX 32 1 31 2 30 3 29 4 27 5 28 6 26 8 1 9 2 10 4 11 100 12 3 13
REMARK SMILES IDX 5 14 6 15 24 16 7 17 23 18 25 19 8 20 21 21 9 22 19 23 10 24
REMARK SMILES IDX 17 25 20 26 11 27 16 28 18 29 12 30 15 31 13 32 14 33 22 34
REMARK SMILES IDX 33 36 34 37 35 38 36 40 37 41 38 42 99 43 39 44 98 45 40 46
REMARK SMILES IDX 41 47 42 48 92 49 43 50 97 51 91 52 93 53 44 54 96 55 90 56
REMARK SMILES IDX 89 57 45 59 77 60 57 61 76 62 58 63 61 64 75 65 94 66 59 67
REMARK SMILES IDX 60 68 74 70 95 71 62 72 46 73 47 74 55 75 48 76 49 77 53 78
REMARK SMILES IDX 56 79 50 80 51 81 54 82 52 83 78 84 79 85 87 86 80 87 81 88
REMARK SMILES IDX 85 89 88 90 82 91 83 92 86 93 84 94 63 95 64 96 72 97 65 98
REMARK SMILES IDX 66 99 70 100 73 101 67 102 68 103 71 104 69 105
REMARK H PARENT 29 7 22 35 34 39 93 58 61 69
REMARK Flexibility Score: inf
ROOT
ATOM      1  C   UNL A   1      31.427  32.084  26.851  1.00  0.00     0.023 C 
ENDROOT
BRANCH   1   2
ATOM      2  C   UNL A   1      31.696  30.674  26.344  1.00  0.00     0.023 C 
BRANCH   2   3
ATOM      3  C   UNL A   1      31.328  30.455  24.881  1.00  0.00     0.116 C 
BRANCH   3   4
ATOM      4  N   UNL A   1      30.473  29.310  24.734  1.00  0.00    -0.353 N 
ATOM      5  C   UNL A   1      30.744  28.016  24.492  1.00  0.00     0.255 C 
ATOM      6  O   UNL A   1      29.794  27.379  24.013  1.00  0.00    -0.272 OA
ATOM      7  H   UNL A   1      29.513  29.511  24.828  1.00  0.00     0.163 HD
BRANCH   5   8
ATOM      8  C   UNL A   1      32.062  27.295  24.809  1.00  0.00     0.181 C 
ATOM      9  C   UNL A   1      33.052  28.153  21.877  1.00  0.00     0.075 C 
ATOM     10  C   UNL A   1      33.468  27.161  22.948  1.00  0.00     0.164 C 
ATOM     11  O   UNL A   1      34.233  27.874  23.928  1.00  0.00    -0.344 OA
ATOM     12  O   UNL A   1      32.305  26.577  23.552  1.00  0.00    -0.331 OA
ATOM     13  C   UNL A   1      34.312  26.067  22.285  1.00  0.00     0.075 C 
ATOM     14  C   UNL A   1      33.466  27.913  25.145  1.00  0.00     0.164 C 
ATOM     15  C   UNL A   1      34.172  26.944  26.199  1.00  0.00     0.040 C 
ATOM     16  C   UNL A   1      31.865  26.269  26.009  1.00  0.00     0.014 C 
ATOM     17  C   UNL A   1      33.314  25.698  26.008  1.00  0.00     0.008 C 
ATOM     18  C   UNL A   1      30.803  25.147  26.002  1.00  0.00     0.046 C 
ATOM     19  C   UNL A   1      31.482  27.126  27.265  1.00  0.00     0.015 C 
ATOM     20  C   UNL A   1      33.625  24.242  25.595  1.00  0.00     0.035 C 
ATOM     21  C   UNL A   1      31.138  23.873  25.243  1.00  0.00     0.154 C 
ATOM     22  C   UNL A   1      34.986  23.729  26.044  1.00  0.00     0.012 C 
ATOM     23  C   UNL A   1      32.492  23.226  25.703  1.00  0.00     0.152 C 
ATOM     24  C   UNL A   1      35.415  22.638  25.065  1.00  0.00     0.032 C 
ATOM     25  C   UNL A   1      32.895  21.903  24.898  1.00  0.00     0.044 C 
ATOM     26  F   UNL A   1      32.374  22.919  27.036  1.00  0.00    -0.239 F 
ATOM     27  C   UNL A   1      34.394  21.536  24.957  1.00  0.00    -0.053 C 
ATOM     28  C   UNL A   1      32.094  20.701  25.388  1.00  0.00    -0.009 C 
ATOM     29  C   UNL A   1      32.577  22.034  23.371  1.00  0.00     0.024 C 
ATOM     30  C   UNL A   1      34.794  20.263  24.771  1.00  0.00     0.052 C 
ATOM     31  C   UNL A   1      32.413  19.454  25.007  1.00  0.00     0.048 C 
ATOM     32  C   UNL A   1      33.795  19.186  24.539  1.00  0.00     0.178 C 
ATOM     33  O   UNL A   1      34.124  18.096  24.091  1.00  0.00    -0.290 OA
BRANCH  21  34
ATOM     34  O   UNL A   1      31.041  24.166  23.853  1.00  0.00    -0.390 OA
ATOM     35  H   UNL A   1      30.121  24.376  23.631  1.00  0.00     0.211 HD
ENDBRANCH  21  34
ENDBRANCH   5   8
ENDBRANCH   3   4
ENDBRANCH   2   3
ENDBRANCH   1   2
BRANCH   1  36
ATOM     36  C   UNL A   1      32.672  32.817  27.316  1.00  0.00     0.116 C 
BRANCH  36  37
ATOM     37  N   UNL A   1      32.408  34.216  27.630  1.00  0.00    -0.352 N 
ATOM     38  C   UNL A   1      33.006  35.003  28.576  1.00  0.00     0.251 C 
ATOM     39  H   UNL A   1      31.708  34.651  27.091  1.00  0.00     0.163 HD
ATOM     40  O   UNL A   1      32.577  36.126  28.826  1.00  0.00    -0.269 OA
BRANCH  38  41
ATOM     41  C   UNL A   1      34.154  34.454  29.311  1.00  0.00     0.039 A 
ATOM     42  C   UNL A   1      33.920  33.707  30.463  1.00  0.00     0.014 A 
ATOM     43  C   UNL A   1      35.444  34.604  28.794  1.00  0.00     0.014 A 
ATOM     44  C   UNL A   1      34.988  33.054  31.074  1.00  0.00     0.010 A 
ATOM     45  C   UNL A   1      36.487  33.879  29.350  1.00  0.00     0.010 A 
ATOM     46  C   UNL A   1      36.270  33.105  30.500  1.00  0.00    -0.014 A 
BRANCH  46  47
ATOM     47  C   UNL A   1      37.404  32.363  31.096  1.00  0.00     0.031 A 
ATOM     48  C   UNL A   1      37.898  32.735  32.464  1.00  0.00     0.074 A 
ATOM     49  C   UNL A   1      38.021  31.404  30.380  1.00  0.00     0.049 A 
ATOM     50  N   UNL A   1      38.910  32.250  33.138  1.00  0.00    -0.248 NA
ATOM     51  C   UNL A   1      37.179  33.816  33.157  1.00  0.00     0.031 C 
ATOM     52  C   UNL A   1      37.661  30.996  29.021  1.00  0.00     0.029 A 
ATOM     53  N   UNL A   1      39.088  30.602  30.697  1.00  0.00    -0.354 N 
ATOM     54  C   UNL A   1      38.953  32.974  34.321  1.00  0.00     0.074 A 
ATOM     55  C   UNL A   1      37.911  33.973  34.248  1.00  0.00     0.031 C 
ATOM     56  C   UNL A   1      38.474  30.002  28.631  1.00  0.00     0.029 A 
ATOM     57  C   UNL A   1      39.436  29.731  29.694  1.00  0.00     0.049 A 
ATOM     58  H   UNL A   1      39.559  30.647  31.560  1.00  0.00     0.167 HD
ATOM     59  C   UNL A   1      39.771  32.800  35.384  1.00  0.00     0.037 A 
ATOM     60  C   UNL A   1      40.427  28.820  29.641  1.00  0.00     0.037 A 
ATOM     61  C   UNL A   1      40.792  31.789  35.457  1.00  0.00     0.049 A 
ATOM     62  C   UNL A   1      41.331  28.656  30.834  1.00  0.00     0.074 A 
ATOM     63  C   UNL A   1      41.635  31.488  36.511  1.00  0.00     0.029 A 
ATOM     64  N   UNL A   1      41.107  30.913  34.427  1.00  0.00    -0.354 N 
ATOM     65  N   UNL A   1      41.315  29.293  31.979  1.00  0.00    -0.248 NA
ATOM     66  C   UNL A   1      42.385  27.638  30.728  1.00  0.00     0.031 C 
ATOM     67  C   UNL A   1      42.499  30.468  36.101  1.00  0.00     0.029 A 
ATOM     68  C   UNL A   1      42.153  30.090  34.813  1.00  0.00     0.049 A 
ATOM     69  H   UNL A   1      40.656  30.881  33.553  1.00  0.00     0.167 HD
ATOM     70  C   UNL A   1      42.333  28.734  32.741  1.00  0.00     0.074 A 
ATOM     71  C   UNL A   1      42.935  27.695  31.932  1.00  0.00     0.031 C 
ATOM     72  C   UNL A   1      42.733  29.052  33.997  1.00  0.00     0.037 A 
BRANCH  59  73
ATOM     73  C   UNL A   1      39.594  33.723  36.556  1.00  0.00     0.064 A 
ATOM     74  C   UNL A   1      38.804  33.369  37.660  1.00  0.00     0.173 A 
ATOM     75  C   UNL A   1      40.245  34.965  36.587  1.00  0.00     0.173 A 
ATOM     76  F   UNL A   1      38.147  32.199  37.674  1.00  0.00    -0.203 F 
ATOM     77  C   UNL A   1      38.647  34.237  38.739  1.00  0.00     0.198 A 
ATOM     78  C   UNL A   1      40.114  35.815  37.682  1.00  0.00     0.198 A 
ATOM     79  F   UNL A   1      41.014  35.353  35.559  1.00  0.00    -0.203 F 
ATOM     80  F   UNL A   1      37.843  33.899  39.756  1.00  0.00    -0.200 F 
ATOM     81  C   UNL A   1      39.309  35.454  38.753  1.00  0.00     0.200 A 
ATOM     82  F   UNL A   1      40.765  36.987  37.701  1.00  0.00    -0.200 F 
ATOM     83  F   UNL A   1      39.164  36.285  39.794  1.00  0.00    -0.200 F 
ENDBRANCH  59  73
BRANCH  60  84
ATOM     84  C   UNL A   1      40.600  27.978  28.428  1.00  0.00     0.064 A 
ATOM     85  C   UNL A   1      41.377  28.422  27.348  1.00  0.00     0.173 A 
ATOM     86  C   UNL A   1      39.989  26.722  28.317  1.00  0.00     0.173 A 
ATOM     87  F   UNL A   1      41.968  29.625  27.399  1.00  0.00    -0.203 F 
ATOM     88  C   UNL A   1      41.515  27.652  26.195  1.00  0.00     0.198 A 
ATOM     89  C   UNL A   1      40.153  25.939  27.176  1.00  0.00     0.198 A 
ATOM     90  F   UNL A   1      39.241  26.247  29.324  1.00  0.00    -0.203 F 
ATOM     91  F   UNL A   1      42.223  28.123  25.159  1.00  0.00    -0.200 F 
ATOM     92  C   UNL A   1      40.907  26.408  26.112  1.00  0.00     0.200 A 
ATOM     93  F   UNL A   1      39.577  24.730  27.107  1.00  0.00    -0.200 F 
ATOM     94  F   UNL A   1      41.043  25.667  25.005  1.00  0.00    -0.200 F 
ENDBRANCH  60  84
BRANCH  72  95
ATOM     95  C   UNL A   1      43.848  28.242  34.591  1.00  0.00     0.064 A 
ATOM     96  C   UNL A   1      43.607  27.037  35.267  1.00  0.00     0.173 A 
ATOM     97  C   UNL A   1      45.180  28.658  34.445  1.00  0.00     0.173 A 
ATOM     98  F   UNL A   1      42.350  26.602  35.446  1.00  0.00    -0.203 F 
ATOM     99  C   UNL A   1      44.656  26.293  35.798  1.00  0.00     0.198 A 
ATOM    100  C   UNL A   1      46.229  27.894  34.947  1.00  0.00     0.198 A 
ATOM    101  F   UNL A   1      45.466  29.799  33.800  1.00  0.00    -0.203 F 
ATOM    102  F   UNL A   1      44.399  25.170  36.484  1.00  0.00    -0.200 F 
ATOM    103  C   UNL A   1      45.966  26.716  35.630  1.00  0.00     0.200 A 
ATOM    104  F   UNL A   1      47.495  28.297  34.768  1.00  0.00    -0.200 F 
ATOM    105  F   UNL A   1      46.976  25.992  36.133  1.00  0.00    -0.200 F 
ENDBRANCH  72  95
ENDBRANCH  46  47
ENDBRANCH  38  41
ENDBRANCH  36  37
ENDBRANCH   1  36
TORSDOF 12
ENDMDL
MODEL 3
REMARK VINA RESULT:     -14.6      4.151      9.806
REMARK SMILES CC1(C)O[C@@H]2C[C@@H]3[C@H]4CCC5=CC(=O)C=C[C@@]5(C)[C@]4(F)[C@H](O)C[C@]3(C)[C@]2(C(=O)NCCCCNC(=O)c2ccc(-c3c4nc(c(-c5c(F)c(F)c(F)c(F)c5F)c5ccc([nH]5)c(-c5c(F)c(F)c(F)c(F)c5F)c5nc(c(-c6c(F)c(F)c(F)c(F)c6F)c6ccc3[nH]6)C=C5)C=C4)cc2)O1
REMARK SMILES IDX 32 1 31 2 30 3 29 4 27 5 28 6 26 8 1 9 2 10 4 11 100 12 3 13
REMARK SMILES IDX 5 14 6 15 24 16 7 17 23 18 25 19 8 20 21 21 9 22 19 23 10 24
REMARK SMILES IDX 17 25 20 26 11 27 16 28 18 29 12 30 15 31 13 32 14 33 22 34
REMARK SMILES IDX 33 36 34 37 35 38 36 40 37 41 38 42 99 43 39 44 98 45 40 46
REMARK SMILES IDX 41 47 42 48 92 49 43 50 97 51 91 52 93 53 44 54 96 55 90 56
REMARK SMILES IDX 89 57 45 59 77 60 57 61 76 62 58 63 61 64 75 65 94 66 59 67
REMARK SMILES IDX 60 68 74 70 95 71 62 72 46 73 47 74 55 75 48 76 49 77 53 78
REMARK SMILES IDX 56 79 50 80 51 81 54 82 52 83 78 84 79 85 87 86 80 87 81 88
REMARK SMILES IDX 85 89 88 90 82 91 83 92 86 93 84 94 63 95 64 96 72 97 65 98
REMARK SMILES IDX 66 99 70 100 73 101 67 102 68 103 71 104 69 105
REMARK H PARENT 29 7 22 35 34 39 93 58 61 69
REMARK Flexibility Score: inf
ROOT
ATOM      1  C   UNL A   1      32.572  29.542  25.345  1.00  0.00     0.023 C 
ENDROOT
BRANCH   1   2
ATOM      2  C   UNL A   1      31.217  29.668  24.664  1.00  0.00     0.023 C 
BRANCH   2   3
ATOM      3  C   UNL A   1      31.014  28.710  23.494  1.00  0.00     0.116 C 
BRANCH   3   4
ATOM      4  N   UNL A   1      30.233  27.573  23.893  1.00  0.00    -0.353 N 
ATOM      5  C   UNL A   1      30.519  26.260  23.935  1.00  0.00     0.255 C 
ATOM      6  O   UNL A   1      29.523  25.522  23.919  1.00  0.00    -0.272 OA
ATOM      7  H   UNL A   1      29.320  27.796  24.189  1.00  0.00     0.163 HD
BRANCH   5   8
ATOM      8  C   UNL A   1      31.921  25.646  24.057  1.00  0.00     0.181 C 
ATOM      9  C   UNL A   1      32.148  25.923  20.865  1.00  0.00     0.075 C 
ATOM     10  C   UNL A   1      32.867  25.174  21.973  1.00  0.00     0.164 C 
ATOM     11  O   UNL A   1      33.785  26.085  22.589  1.00  0.00    -0.344 OA
ATOM     12  O   UNL A   1      31.917  24.697  22.937  1.00  0.00    -0.331 OA
ATOM     13  C   UNL A   1      33.608  23.989  21.346  1.00  0.00     0.075 C 
ATOM     14  C   UNL A   1      33.319  26.349  23.924  1.00  0.00     0.164 C 
ATOM     15  C   UNL A   1      34.314  25.626  24.942  1.00  0.00     0.040 C 
ATOM     16  C   UNL A   1      32.077  24.876  25.441  1.00  0.00     0.014 C 
ATOM     17  C   UNL A   1      33.522  24.348  25.201  1.00  0.00     0.008 C 
ATOM     18  C   UNL A   1      31.122  23.752  25.900  1.00  0.00     0.046 C 
ATOM     19  C   UNL A   1      31.935  25.958  26.567  1.00  0.00     0.015 C 
ATOM     20  C   UNL A   1      33.829  22.846  25.007  1.00  0.00     0.035 C 
ATOM     21  C   UNL A   1      31.360  22.360  25.337  1.00  0.00     0.154 C 
ATOM     22  C   UNL A   1      35.288  22.463  25.206  1.00  0.00     0.012 C 
ATOM     23  C   UNL A   1      32.824  21.847  25.573  1.00  0.00     0.152 C 
ATOM     24  C   UNL A   1      35.554  21.209  24.376  1.00  0.00     0.032 C 
ATOM     25  C   UNL A   1      33.120  20.400  24.959  1.00  0.00     0.044 C 
ATOM     26  F   UNL A   1      33.038  21.810  26.928  1.00  0.00    -0.239 F 
ATOM     27  C   UNL A   1      34.614  20.085  24.725  1.00  0.00    -0.053 C 
ATOM     28  C   UNL A   1      32.538  19.302  25.844  1.00  0.00    -0.009 C 
ATOM     29  C   UNL A   1      32.450  20.217  23.556  1.00  0.00     0.024 C 
ATOM     30  C   UNL A   1      35.046  18.809  24.692  1.00  0.00     0.052 C 
ATOM     31  C   UNL A   1      32.845  18.012  25.640  1.00  0.00     0.048 C 
ATOM     32  C   UNL A   1      34.097  17.686  24.914  1.00  0.00     0.178 C 
ATOM     33  O   UNL A   1      34.388  16.536  24.613  1.00  0.00    -0.290 OA
BRANCH  21  34
ATOM     34  O   UNL A   1      30.925  22.367  23.981  1.00  0.00    -0.390 OA
ATOM     35  H   UNL A   1      30.337  23.126  23.834  1.00  0.00     0.211 HD
ENDBRANCH  21  34
ENDBRANCH   5   8
ENDBRANCH   3   4
ENDBRANCH   2   3
ENDBRANCH   1   2
BRANCH   1  36
ATOM     36  C   UNL A   1      32.582  30.023  26.784  1.00  0.00     0.116 C 
BRANCH  36  37
ATOM     37  N   UNL A   1      32.544  31.477  26.884  1.00  0.00    -0.352 N 
ATOM     38  C   UNL A   1      33.452  32.313  27.474  1.00  0.00     0.251 C 
ATOM     39  H   UNL A   1      31.762  31.915  26.475  1.00  0.00     0.163 HD
ATOM     40  O   UNL A   1      33.213  33.510  27.609  1.00  0.00    -0.269 OA
BRANCH  38  41
ATOM     41  C   UNL A   1      34.706  31.734  27.973  1.00  0.00     0.039 A 
ATOM     42  C   UNL A   1      35.818  32.562  28.122  1.00  0.00     0.014 A 
ATOM     43  C   UNL A   1      34.739  30.398  28.383  1.00  0.00     0.014 A 
ATOM     44  C   UNL A   1      36.958  32.058  28.741  1.00  0.00     0.010 A 
ATOM     45  C   UNL A   1      35.841  29.927  29.080  1.00  0.00     0.010 A 
ATOM     46  C   UNL A   1      36.963  30.750  29.257  1.00  0.00    -0.014 A 
BRANCH  46  47
ATOM     47  C   UNL A   1      38.142  30.218  29.979  1.00  0.00     0.031 A 
ATOM     48  C   UNL A   1      38.418  30.666  31.384  1.00  0.00     0.074 A 
ATOM     49  C   UNL A   1      38.990  29.385  29.345  1.00  0.00     0.049 A 
ATOM     50  N   UNL A   1      39.424  30.366  32.166  1.00  0.00    -0.248 NA
ATOM     51  C   UNL A   1      37.451  31.601  31.984  1.00  0.00     0.031 C 
ATOM     52  C   UNL A   1      38.850  28.925  27.962  1.00  0.00     0.029 A 
ATOM     53  N   UNL A   1      40.142  28.783  29.781  1.00  0.00    -0.354 N 
ATOM     54  C   UNL A   1      39.215  31.082  33.336  1.00  0.00     0.074 A 
ATOM     55  C   UNL A   1      38.027  31.881  33.142  1.00  0.00     0.031 C 
ATOM     56  C   UNL A   1      39.862  28.091  27.673  1.00  0.00     0.029 A 
ATOM     57  C   UNL A   1      40.741  27.991  28.834  1.00  0.00     0.049 A 
ATOM     58  H   UNL A   1      40.505  28.908  30.688  1.00  0.00     0.167 HD
ATOM     59  C   UNL A   1      39.936  31.052  34.481  1.00  0.00     0.037 A 
ATOM     60  C   UNL A   1      41.876  27.270  28.896  1.00  0.00     0.037 A 
ATOM     61  C   UNL A   1      41.106  30.237  34.673  1.00  0.00     0.049 A 
ATOM     62  C   UNL A   1      42.666  27.264  30.178  1.00  0.00     0.074 A 
ATOM     63  C   UNL A   1      41.875  30.087  35.813  1.00  0.00     0.029 A 
ATOM     64  N   UNL A   1      41.676  29.433  33.695  1.00  0.00    -0.354 N 
ATOM     65  N   UNL A   1      42.419  27.884  31.306  1.00  0.00    -0.248 NA
ATOM     66  C   UNL A   1      43.888  26.448  30.196  1.00  0.00     0.031 C 
ATOM     67  C   UNL A   1      42.943  29.236  35.509  1.00  0.00     0.029 A 
ATOM     68  C   UNL A   1      42.804  28.807  34.199  1.00  0.00     0.049 A 
ATOM     69  H   UNL A   1      41.331  29.326  32.780  1.00  0.00     0.167 HD
ATOM     70  C   UNL A   1      43.435  27.512  32.177  1.00  0.00     0.074 A 
ATOM     71  C   UNL A   1      44.291  26.598  31.450  1.00  0.00     0.031 C 
ATOM     72  C   UNL A   1      43.640  27.892  33.462  1.00  0.00     0.037 A 
BRANCH  59  73
ATOM     73  C   UNL A   1      39.478  31.925  35.613  1.00  0.00     0.064 A 
ATOM     74  C   UNL A   1      38.536  31.480  36.553  1.00  0.00     0.173 A 
ATOM     75  C   UNL A   1      40.009  33.213  35.778  1.00  0.00     0.173 A 
ATOM     76  F   UNL A   1      37.985  30.262  36.433  1.00  0.00    -0.203 F 
ATOM     77  C   UNL A   1      38.119  32.302  37.597  1.00  0.00     0.198 A 
ATOM     78  C   UNL A   1      39.616  34.019  36.843  1.00  0.00     0.198 A 
ATOM     79  F   UNL A   1      40.914  33.689  34.910  1.00  0.00    -0.203 F 
ATOM     80  F   UNL A   1      37.177  31.875  38.449  1.00  0.00    -0.200 F 
ATOM     81  C   UNL A   1      38.666  33.567  37.746  1.00  0.00     0.200 A 
ATOM     82  F   UNL A   1      40.156  35.237  36.994  1.00  0.00    -0.200 F 
ATOM     83  F   UNL A   1      38.271  34.354  38.757  1.00  0.00    -0.200 F 
ENDBRANCH  59  73
BRANCH  60  84
ATOM     84  C   UNL A   1      42.320  26.476  27.720  1.00  0.00     0.064 A 
ATOM     85  C   UNL A   1      41.798  25.197  27.475  1.00  0.00     0.173 A 
ATOM     86  C   UNL A   1      43.279  26.970  26.825  1.00  0.00     0.173 A 
ATOM     87  F   UNL A   1      40.891  24.674  28.313  1.00  0.00    -0.203 F 
ATOM     88  C   UNL A   1      42.235  24.436  26.394  1.00  0.00     0.198 A 
ATOM     89  C   UNL A   1      43.693  26.220  25.726  1.00  0.00     0.198 A 
ATOM     90  F   UNL A   1      43.806  28.190  27.009  1.00  0.00    -0.203 F 
ATOM     91  F   UNL A   1      41.755  23.198  26.212  1.00  0.00    -0.200 F 
ATOM     92  C   UNL A   1      43.179  24.949  25.517  1.00  0.00     0.200 A 
ATOM     93  F   UNL A   1      44.592  26.727  24.871  1.00  0.00    -0.200 F 
ATOM     94  F   UNL A   1      43.597  24.218  24.475  1.00  0.00    -0.200 F 
ENDBRANCH  60  84
BRANCH  72  95
ATOM     95  C   UNL A   1      44.812  27.289  34.180  1.00  0.00     0.064 A 
ATOM     96  C   UNL A   1      46.062  27.924  34.218  1.00  0.00     0.173 A 
ATOM     97  C   UNL A   1      44.670  26.078  34.876  1.00  0.00     0.173 A 
ATOM     98  F   UNL A   1      46.255  29.076  33.557  1.00  0.00    -0.203 F 
ATOM     99  C   UNL A   1      47.133  27.355  34.902  1.00  0.00     0.198 A 
ATOM    100  C   UNL A   1      45.732  25.531  35.588  1.00  0.00     0.198 A 
ATOM    101  F   UNL A   1      43.493  25.434  34.879  1.00  0.00    -0.203 F 
ATOM    102  F   UNL A   1      48.332  27.954  34.882  1.00  0.00    -0.200 F 
ATOM    103  C   UNL A   1      46.965  26.165  35.594  1.00  0.00     0.200 A 
ATOM    104  F   UNL A   1      45.562  24.389  36.269  1.00  0.00    -0.200 F 
ATOM    105  F   UNL A   1      47.994  25.625  36.260  1.00  0.00    -0.200 F 
ENDBRANCH  72  95
ENDBRANCH  46  47
ENDBRANCH  38  41
ENDBRANCH  36  37
ENDBRANCH   1  36
TORSDOF 12
ENDMDL
