MODEL 1
REMARK VINA RESULT:     -11.5      0.000      0.000
REMARK SMILES O=C(NCCCCNC(=O)c1cc(-c2ccc(Cl)cc2)nc2c3c(C4CC4)cc(C(F)(F)F)nc3nn12)c1ccc(-c2c3nc(c(-c4c(F)c(F)c(F)c(F)c4F)c4ccc([nH]4)c(-c4c(F)c(F)c(F)c(F)c4F)c4nc(c(-c5c(F)c(F)c(F)c(F)c5F)c5ccc2[nH]5)C=C4)C=C3)cc1
REMARK SMILES IDX 5 1 4 2 3 3 1 4 2 5 38 7 39 8 100 9 40 10 99 11 41 12 42 13
REMARK SMILES IDX 43 14 93 15 44 16 98 17 92 18 94 19 45 20 97 21 91 22 90 23
REMARK SMILES IDX 46 25 78 26 58 27 77 28 59 29 62 30 76 31 95 32 60 33 61 34
REMARK SMILES IDX 75 36 96 37 63 38 47 39 48 40 56 41 49 42 50 43 54 44 57 45
REMARK SMILES IDX 51 46 52 47 55 48 53 49 79 50 80 51 88 52 81 53 82 54 86 55
REMARK SMILES IDX 89 56 83 57 84 58 87 59 85 60 64 61 65 62 73 63 66 64 67 65
REMARK SMILES IDX 71 66 74 67 68 68 69 69 72 70 70 71 6 72 7 73 8 74 9 75
REMARK SMILES IDX 10 77 11 78 12 79 37 80 13 81 22 82 36 83 21 84 23 85 35 86
REMARK SMILES IDX 24 87 34 88 28 89 29 90 14 91 15 92 20 93 16 94 19 95 17 96
REMARK SMILES IDX 18 97 25 98 26 99 27 100 30 101 31 102 32 103 33 104
REMARK H PARENT 3 6 94 24 62 35 8 76
REMARK Flexibility Score: inf
ROOT
ATOM      1  C   UNL A   1      48.573  28.097  29.428  1.00  0.00     0.023 C 
ENDROOT
BRANCH   1   2
ATOM      2  C   UNL A   1      48.415  29.598  29.658  1.00  0.00     0.116 C 
BRANCH   2   3
ATOM      3  N   UNL A   1      48.865  30.386  28.520  1.00  0.00    -0.352 N 
ATOM      4  O   UNL A   1      48.562  31.764  26.733  1.00  0.00    -0.269 OA
ATOM      5  C   UNL A   1      48.105  31.209  27.719  1.00  0.00     0.251 C 
ATOM      6  H   UNL A   1      49.822  30.324  28.298  1.00  0.00     0.163 HD
BRANCH   5   7
ATOM      7  C   UNL A   1      46.688  31.364  28.081  1.00  0.00     0.039 A 
ATOM      8  C   UNL A   1      46.357  31.975  29.296  1.00  0.00     0.014 A 
ATOM      9  C   UNL A   1      45.726  30.727  27.297  1.00  0.00     0.014 A 
ATOM     10  C   UNL A   1      45.065  31.841  29.789  1.00  0.00     0.010 A 
ATOM     11  C   UNL A   1      44.429  30.617  27.783  1.00  0.00     0.010 A 
ATOM     12  C   UNL A   1      44.107  31.140  29.045  1.00  0.00    -0.014 A 
BRANCH  12  13
ATOM     13  C   UNL A   1      42.766  30.968  29.618  1.00  0.00     0.031 A 
ATOM     14  C   UNL A   1      42.608  29.835  30.566  1.00  0.00     0.074 A 
ATOM     15  C   UNL A   1      41.887  31.988  29.703  1.00  0.00     0.049 A 
ATOM     16  N   UNL A   1      42.933  29.929  31.821  1.00  0.00    -0.248 NA
ATOM     17  C   UNL A   1      42.277  28.483  30.129  1.00  0.00     0.031 C 
ATOM     18  C   UNL A   1      42.238  33.409  29.617  1.00  0.00     0.029 A 
ATOM     19  N   UNL A   1      40.568  31.986  30.086  1.00  0.00    -0.354 N 
ATOM     20  C   UNL A   1      42.935  28.650  32.330  1.00  0.00     0.074 A 
ATOM     21  C   UNL A   1      42.482  27.787  31.258  1.00  0.00     0.031 C 
ATOM     22  C   UNL A   1      41.217  34.136  30.117  1.00  0.00     0.029 A 
ATOM     23  C   UNL A   1      40.092  33.253  30.403  1.00  0.00     0.049 A 
ATOM     24  H   UNL A   1      40.016  31.172  30.131  1.00  0.00     0.167 HD
ATOM     25  C   UNL A   1      43.345  28.360  33.590  1.00  0.00     0.037 A 
ATOM     26  C   UNL A   1      39.120  33.538  31.309  1.00  0.00     0.037 A 
ATOM     27  C   UNL A   1      43.804  29.464  34.377  1.00  0.00     0.049 A 
ATOM     28  C   UNL A   1      39.686  32.959  32.581  1.00  0.00     0.074 A 
ATOM     29  C   UNL A   1      45.011  30.087  34.611  1.00  0.00     0.029 A 
ATOM     30  N   UNL A   1      42.875  30.235  35.035  1.00  0.00    -0.354 N 
ATOM     31  N   UNL A   1      40.563  33.536  33.359  1.00  0.00    -0.248 NA
ATOM     32  C   UNL A   1      39.486  31.532  32.840  1.00  0.00     0.031 C 
ATOM     33  C   UNL A   1      44.686  31.421  35.009  1.00  0.00     0.029 A 
ATOM     34  C   UNL A   1      43.299  31.537  34.926  1.00  0.00     0.049 A 
ATOM     35  H   UNL A   1      42.065  29.916  35.494  1.00  0.00     0.167 HD
ATOM     36  C   UNL A   1      41.207  32.492  34.026  1.00  0.00     0.074 A 
ATOM     37  C   UNL A   1      40.475  31.290  33.688  1.00  0.00     0.031 C 
ATOM     38  C   UNL A   1      42.403  32.637  34.664  1.00  0.00     0.037 A 
BRANCH  25  39
ATOM     39  C   UNL A   1      43.265  27.020  34.184  1.00  0.00     0.064 A 
ATOM     40  C   UNL A   1      44.260  26.087  33.870  1.00  0.00     0.173 A 
ATOM     41  C   UNL A   1      42.149  26.593  34.908  1.00  0.00     0.173 A 
ATOM     42  F   UNL A   1      45.336  26.469  33.161  1.00  0.00    -0.203 F 
ATOM     43  C   UNL A   1      44.129  24.755  34.241  1.00  0.00     0.198 A 
ATOM     44  C   UNL A   1      42.020  25.258  35.281  1.00  0.00     0.198 A 
ATOM     45  F   UNL A   1      41.172  27.458  35.217  1.00  0.00    -0.203 F 
ATOM     46  F   UNL A   1      45.078  23.873  33.898  1.00  0.00    -0.200 F 
ATOM     47  C   UNL A   1      43.005  24.339  34.938  1.00  0.00     0.200 A 
ATOM     48  F   UNL A   1      40.934  24.852  35.950  1.00  0.00    -0.200 F 
ATOM     49  F   UNL A   1      42.864  23.048  35.269  1.00  0.00    -0.200 F 
ENDBRANCH  25  39
BRANCH  26  50
ATOM     50  C   UNL A   1      37.719  33.266  30.845  1.00  0.00     0.064 A 
ATOM     51  C   UNL A   1      37.431  33.300  29.463  1.00  0.00     0.173 A 
ATOM     52  C   UNL A   1      36.632  32.990  31.688  1.00  0.00     0.173 A 
ATOM     53  F   UNL A   1      38.375  33.670  28.583  1.00  0.00    -0.203 F 
ATOM     54  C   UNL A   1      36.176  32.956  28.958  1.00  0.00     0.198 A 
ATOM     55  C   UNL A   1      35.383  32.620  31.183  1.00  0.00     0.198 A 
ATOM     56  F   UNL A   1      36.756  33.059  33.021  1.00  0.00    -0.203 F 
ATOM     57  F   UNL A   1      35.961  32.970  27.635  1.00  0.00    -0.200 F 
ATOM     58  C   UNL A   1      35.160  32.587  29.818  1.00  0.00     0.200 A 
ATOM     59  F   UNL A   1      34.401  32.277  32.028  1.00  0.00    -0.200 F 
ATOM     60  F   UNL A   1      33.967  32.211  29.337  1.00  0.00    -0.200 F 
ENDBRANCH  26  50
BRANCH  38  61
ATOM     61  C   UNL A   1      42.879  34.038  34.814  1.00  0.00     0.064 A 
ATOM     62  C   UNL A   1      43.597  34.649  33.778  1.00  0.00     0.173 A 
ATOM     63  C   UNL A   1      42.603  34.794  35.964  1.00  0.00     0.173 A 
ATOM     64  F   UNL A   1      43.877  33.968  32.655  1.00  0.00    -0.203 F 
ATOM     65  C   UNL A   1      44.004  35.976  33.880  1.00  0.00     0.198 A 
ATOM     66  C   UNL A   1      42.996  36.125  36.053  1.00  0.00     0.198 A 
ATOM     67  F   UNL A   1      41.931  34.255  36.994  1.00  0.00    -0.203 F 
ATOM     68  F   UNL A   1      44.680  36.547  32.873  1.00  0.00    -0.200 F 
ATOM     69  C   UNL A   1      43.694  36.715  35.011  1.00  0.00     0.200 A 
ATOM     70  F   UNL A   1      42.682  36.844  37.141  1.00  0.00    -0.200 F 
ATOM     71  F   UNL A   1      44.058  38.004  35.094  1.00  0.00    -0.200 F 
ENDBRANCH  38  61
ENDBRANCH  12  13
ENDBRANCH   5   7
ENDBRANCH   2   3
ENDBRANCH   1   2
BRANCH   1  72
ATOM     72  C   UNL A   1      48.589  27.688  27.956  1.00  0.00     0.023 C 
BRANCH  72  73
ATOM     73  C   UNL A   1      47.226  27.316  27.379  1.00  0.00     0.116 C 
BRANCH  73  74
ATOM     74  N   UNL A   1      47.058  27.723  25.990  1.00  0.00    -0.351 N 
ATOM     75  C   UNL A   1      45.986  27.518  25.170  1.00  0.00     0.270 C 
ATOM     76  H   UNL A   1      47.815  28.210  25.592  1.00  0.00     0.163 HD
ATOM     77  O   UNL A   1      45.998  27.927  24.013  1.00  0.00    -0.268 OA
BRANCH  75  78
ATOM     78  C   UNL A   1      44.887  26.678  25.671  1.00  0.00     0.134 A 
ATOM     79  C   UNL A   1      43.763  27.333  25.983  1.00  0.00     0.063 A 
ATOM     80  N   UNL A   1      44.955  25.292  25.738  1.00  0.00    -0.207 N 
ATOM     81  C   UNL A   1      42.623  26.467  26.393  1.00  0.00     0.075 A 
ATOM     82  C   UNL A   1      43.803  24.543  26.051  1.00  0.00     0.166 A 
ATOM     83  N   UNL A   1      46.025  24.508  25.464  1.00  0.00    -0.145 NA
ATOM     84  N   UNL A   1      42.635  25.165  26.431  1.00  0.00    -0.228 NA
ATOM     85  C   UNL A   1      44.159  23.230  25.801  1.00  0.00     0.069 A 
ATOM     86  C   UNL A   1      45.541  23.276  25.454  1.00  0.00     0.184 A 
ATOM     87  C   UNL A   1      43.350  22.084  25.833  1.00  0.00    -0.028 A 
ATOM     88  N   UNL A   1      46.251  22.177  25.116  1.00  0.00    -0.222 NA
ATOM     89  C   UNL A   1      44.123  20.959  25.464  1.00  0.00     0.038 A 
ATOM     90  C   UNL A   1      45.508  21.028  25.132  1.00  0.00     0.147 A 
BRANCH  81  91
ATOM     91  C   UNL A   1      41.425  27.234  26.793  1.00  0.00     0.000 A 
ATOM     92  C   UNL A   1      40.443  26.604  27.561  1.00  0.00     0.012 A 
ATOM     93  C   UNL A   1      41.342  28.603  26.506  1.00  0.00     0.012 A 
ATOM     94  C   UNL A   1      39.387  27.359  28.076  1.00  0.00     0.021 A 
ATOM     95  C   UNL A   1      40.279  29.351  27.017  1.00  0.00     0.021 A 
ATOM     96  C   UNL A   1      39.313  28.728  27.808  1.00  0.00     0.041 A 
ATOM     97  Cl  UNL A   1      38.031  29.661  28.475  1.00  0.00    -0.084 Cl
ENDBRANCH  81  91
BRANCH  87  98
ATOM     98  C   UNL A   1      41.897  22.111  26.180  1.00  0.00     0.020 C 
ATOM     99  C   UNL A   1      41.191  20.935  26.817  1.00  0.00     0.009 C 
ATOM    100  C   UNL A   1      41.497  22.152  27.636  1.00  0.00     0.009 C 
ENDBRANCH  87  98
BRANCH  90 101
ATOM    101  C   UNL A   1      46.227  19.741  24.731  1.00  0.00     0.433 C 
ATOM    102  F   UNL A   1      46.410  18.890  25.782  1.00  0.00    -0.165 F 
ATOM    103  F   UNL A   1      45.562  19.029  23.777  1.00  0.00    -0.165 F 
ATOM    104  F   UNL A   1      47.475  19.955  24.217  1.00  0.00    -0.165 F 
ENDBRANCH  90 101
ENDBRANCH  75  78
ENDBRANCH  73  74
ENDBRANCH  72  73
ENDBRANCH   1  72
TORSDOF 14
ENDMDL
MODEL 2
REMARK VINA RESULT:     -11.5      4.393     11.763
REMARK SMILES O=C(NCCCCNC(=O)c1cc(-c2ccc(Cl)cc2)nc2c3c(C4CC4)cc(C(F)(F)F)nc3nn12)c1ccc(-c2c3nc(c(-c4c(F)c(F)c(F)c(F)c4F)c4ccc([nH]4)c(-c4c(F)c(F)c(F)c(F)c4F)c4nc(c(-c5c(F)c(F)c(F)c(F)c5F)c5ccc2[nH]5)C=C4)C=C3)cc1
REMARK SMILES IDX 5 1 4 2 3 3 1 4 2 5 38 7 39 8 100 9 40 10 99 11 41 12 42 13
REMARK SMILES IDX 43 14 93 15 44 16 98 17 92 18 94 19 45 20 97 21 91 22 90 23
REMARK SMILES IDX 46 25 78 26 58 27 77 28 59 29 62 30 76 31 95 32 60 33 61 34
REMARK SMILES IDX 75 36 96 37 63 38 47 39 48 40 56 41 49 42 50 43 54 44 57 45
REMARK SMILES IDX 51 46 52 47 55 48 53 49 79 50 80 51 88 52 81 53 82 54 86 55
REMARK SMILES IDX 89 56 83 57 84 58 87 59 85 60 64 61 65 62 73 63 66 64 67 65
REMARK SMILES IDX 71 66 74 67 68 68 69 69 72 70 70 71 6 72 7 73 8 74 9 75
REMARK SMILES IDX 10 77 11 78 12 79 37 80 13 81 22 82 36 83 21 84 23 85 35 86
REMARK SMILES IDX 24 87 34 88 28 89 29 90 14 91 15 92 20 93 16 94 19 95 17 96
REMARK SMILES IDX 18 97 25 98 26 99 27 100 30 101 31 102 32 103 33 104
REMARK H PARENT 3 6 94 24 62 35 8 76
REMARK Flexibility Score: inf
ROOT
ATOM      1  C   UNL A   1      35.789  34.286  31.904  1.00  0.00     0.023 C 
ENDROOT
BRANCH   1   2
ATOM      2  C   UNL A   1      34.757  33.399  31.212  1.00  0.00     0.116 C 
BRANCH   2   3
ATOM      3  N   UNL A   1      34.612  33.712  29.798  1.00  0.00    -0.352 N 
ATOM      4  O   UNL A   1      35.239  33.649  27.610  1.00  0.00    -0.269 OA
ATOM      5  C   UNL A   1      35.391  33.261  28.756  1.00  0.00     0.251 C 
ATOM      6  H   UNL A   1      33.872  34.315  29.560  1.00  0.00     0.163 HD
BRANCH   5   7
ATOM      7  C   UNL A   1      36.458  32.304  29.092  1.00  0.00     0.039 A 
ATOM      8  C   UNL A   1      36.112  31.034  29.565  1.00  0.00     0.014 A 
ATOM      9  C   UNL A   1      37.777  32.757  29.110  1.00  0.00     0.014 A 
ATOM     10  C   UNL A   1      37.085  30.254  30.177  1.00  0.00     0.010 A 
ATOM     11  C   UNL A   1      38.752  31.962  29.702  1.00  0.00     0.010 A 
ATOM     12  C   UNL A   1      38.399  30.727  30.269  1.00  0.00    -0.014 A 
BRANCH  12  13
ATOM     13  C   UNL A   1      39.392  29.904  30.971  1.00  0.00     0.031 A 
ATOM     14  C   UNL A   1      39.520  28.502  30.498  1.00  0.00     0.074 A 
ATOM     15  C   UNL A   1      40.441  30.447  31.623  1.00  0.00     0.049 A 
ATOM     16  N   UNL A   1      40.247  28.179  29.470  1.00  0.00    -0.248 NA
ATOM     17  C   UNL A   1      38.689  27.418  31.012  1.00  0.00     0.031 C 
ATOM     18  C   UNL A   1      40.945  31.809  31.416  1.00  0.00     0.029 A 
ATOM     19  N   UNL A   1      41.384  29.855  32.426  1.00  0.00    -0.354 N 
ATOM     20  C   UNL A   1      39.919  26.883  29.140  1.00  0.00     0.074 A 
ATOM     21  C   UNL A   1      38.980  26.435  30.146  1.00  0.00     0.031 C 
ATOM     22  C   UNL A   1      42.194  31.887  31.921  1.00  0.00     0.029 A 
ATOM     23  C   UNL A   1      42.509  30.647  32.621  1.00  0.00     0.049 A 
ATOM     24  H   UNL A   1      41.275  28.960  32.823  1.00  0.00     0.167 HD
ATOM     25  C   UNL A   1      40.404  26.260  28.037  1.00  0.00     0.037 A 
ATOM     26  C   UNL A   1      43.775  30.200  32.831  1.00  0.00     0.037 A 
ATOM     27  C   UNL A   1      41.275  27.032  27.205  1.00  0.00     0.049 A 
ATOM     28  C   UNL A   1      44.035  29.377  31.595  1.00  0.00     0.074 A 
ATOM     29  C   UNL A   1      41.132  27.866  26.116  1.00  0.00     0.029 A 
ATOM     30  N   UNL A   1      42.606  27.114  27.539  1.00  0.00    -0.354 N 
ATOM     31  N   UNL A   1      44.407  29.842  30.432  1.00  0.00    -0.248 NA
ATOM     32  C   UNL A   1      43.567  27.989  31.576  1.00  0.00     0.031 C 
ATOM     33  C   UNL A   1      42.269  28.733  26.143  1.00  0.00     0.029 A 
ATOM     34  C   UNL A   1      42.995  28.406  27.288  1.00  0.00     0.049 A 
ATOM     35  H   UNL A   1      43.170  26.387  27.891  1.00  0.00     0.167 HD
ATOM     36  C   UNL A   1      43.975  28.894  29.502  1.00  0.00     0.074 A 
ATOM     37  C   UNL A   1      43.498  27.766  30.272  1.00  0.00     0.031 C 
ATOM     38  C   UNL A   1      43.860  29.154  28.169  1.00  0.00     0.037 A 
BRANCH  25  39
ATOM     39  C   UNL A   1      40.145  24.851  27.719  1.00  0.00     0.064 A 
ATOM     40  C   UNL A   1      41.122  23.900  28.043  1.00  0.00     0.173 A 
ATOM     41  C   UNL A   1      39.047  24.450  26.956  1.00  0.00     0.173 A 
ATOM     42  F   UNL A   1      42.197  24.264  28.763  1.00  0.00    -0.203 F 
ATOM     43  C   UNL A   1      41.019  22.592  27.589  1.00  0.00     0.198 A 
ATOM     44  C   UNL A   1      38.944  23.137  26.504  1.00  0.00     0.198 A 
ATOM     45  F   UNL A   1      38.099  25.336  26.618  1.00  0.00    -0.203 F 
ATOM     46  F   UNL A   1      41.983  21.708  27.883  1.00  0.00    -0.200 F 
ATOM     47  C   UNL A   1      39.935  22.213  26.812  1.00  0.00     0.200 A 
ATOM     48  F   UNL A   1      37.901  22.769  25.749  1.00  0.00    -0.200 F 
ATOM     49  F   UNL A   1      39.851  20.958  26.349  1.00  0.00    -0.200 F 
ENDBRANCH  25  39
BRANCH  26  50
ATOM     50  C   UNL A   1      44.048  29.694  34.218  1.00  0.00     0.064 A 
ATOM     51  C   UNL A   1      45.078  30.288  34.979  1.00  0.00     0.173 A 
ATOM     52  C   UNL A   1      43.361  28.640  34.838  1.00  0.00     0.173 A 
ATOM     53  F   UNL A   1      45.870  31.225  34.433  1.00  0.00    -0.203 F 
ATOM     54  C   UNL A   1      45.315  29.937  36.309  1.00  0.00     0.198 A 
ATOM     55  C   UNL A   1      43.580  28.305  36.177  1.00  0.00     0.198 A 
ATOM     56  F   UNL A   1      42.454  27.917  34.168  1.00  0.00    -0.203 F 
ATOM     57  F   UNL A   1      46.282  30.554  37.001  1.00  0.00    -0.200 F 
ATOM     58  C   UNL A   1      44.545  28.965  36.916  1.00  0.00     0.200 A 
ATOM     59  F   UNL A   1      42.835  27.350  36.752  1.00  0.00    -0.200 F 
ATOM     60  F   UNL A   1      44.736  28.656  38.206  1.00  0.00    -0.200 F 
ENDBRANCH  26  50
BRANCH  38  61
ATOM     61  C   UNL A   1      44.449  30.444  27.718  1.00  0.00     0.064 A 
ATOM     62  C   UNL A   1      43.770  31.645  27.958  1.00  0.00     0.173 A 
ATOM     63  C   UNL A   1      45.695  30.504  27.076  1.00  0.00     0.173 A 
ATOM     64  F   UNL A   1      42.579  31.638  28.577  1.00  0.00    -0.203 F 
ATOM     65  C   UNL A   1      44.330  32.865  27.591  1.00  0.00     0.198 A 
ATOM     66  C   UNL A   1      46.258  31.727  26.727  1.00  0.00     0.198 A 
ATOM     67  F   UNL A   1      46.383  29.382  26.807  1.00  0.00    -0.203 F 
ATOM     68  F   UNL A   1      43.671  34.005  27.840  1.00  0.00    -0.200 F 
ATOM     69  C   UNL A   1      45.577  32.906  26.986  1.00  0.00     0.200 A 
ATOM     70  F   UNL A   1      47.472  31.766  26.157  1.00  0.00    -0.200 F 
ATOM     71  F   UNL A   1      46.130  34.084  26.663  1.00  0.00    -0.200 F 
ENDBRANCH  38  61
ENDBRANCH  12  13
ENDBRANCH   5   7
ENDBRANCH   2   3
ENDBRANCH   1   2
BRANCH   1  72
ATOM     72  C   UNL A   1      36.918  33.517  32.587  1.00  0.00     0.023 C 
BRANCH  72  73
ATOM     73  C   UNL A   1      36.475  32.612  33.734  1.00  0.00     0.116 C 
BRANCH  73  74
ATOM     74  N   UNL A   1      37.044  31.273  33.662  1.00  0.00    -0.351 N 
ATOM     75  C   UNL A   1      38.078  30.751  34.385  1.00  0.00     0.270 C 
ATOM     76  H   UNL A   1      36.628  30.665  33.009  1.00  0.00     0.163 HD
ATOM     77  O   UNL A   1      38.442  29.592  34.206  1.00  0.00    -0.268 OA
BRANCH  75  78
ATOM     78  C   UNL A   1      38.821  31.655  35.274  1.00  0.00     0.134 A 
ATOM     79  C   UNL A   1      39.823  32.329  34.698  1.00  0.00     0.063 A 
ATOM     80  N   UNL A   1      38.472  31.881  36.600  1.00  0.00    -0.207 N 
ATOM     81  C   UNL A   1      40.507  33.317  35.579  1.00  0.00     0.075 A 
ATOM     82  C   UNL A   1      39.113  32.897  37.336  1.00  0.00     0.166 A 
ATOM     83  N   UNL A   1      37.494  31.265  37.307  1.00  0.00    -0.145 NA
ATOM     84  N   UNL A   1      40.184  33.585  36.811  1.00  0.00    -0.228 NA
ATOM     85  C   UNL A   1      38.376  33.004  38.503  1.00  0.00     0.069 A 
ATOM     86  C   UNL A   1      37.403  31.965  38.427  1.00  0.00     0.184 A 
ATOM     87  C   UNL A   1      38.508  33.944  39.536  1.00  0.00    -0.028 A 
ATOM     88  N   UNL A   1      36.471  31.760  39.385  1.00  0.00    -0.222 NA
ATOM     89  C   UNL A   1      37.512  33.704  40.511  1.00  0.00     0.038 A 
ATOM     90  C   UNL A   1      36.555  32.651  40.420  1.00  0.00     0.147 A 
BRANCH  81  91
ATOM     91  C   UNL A   1      41.648  33.988  34.922  1.00  0.00     0.000 A 
ATOM     92  C   UNL A   1      42.945  33.567  35.223  1.00  0.00     0.012 A 
ATOM     93  C   UNL A   1      41.419  34.944  33.924  1.00  0.00     0.012 A 
ATOM     94  C   UNL A   1      44.020  34.083  34.495  1.00  0.00     0.021 A 
ATOM     95  C   UNL A   1      42.498  35.463  33.206  1.00  0.00     0.021 A 
ATOM     96  C   UNL A   1      43.791  35.022  33.487  1.00  0.00     0.041 A 
ATOM     97  Cl  UNL A   1      45.114  35.627  32.568  1.00  0.00    -0.084 Cl
ENDBRANCH  81  91
BRANCH  87  98
ATOM     98  C   UNL A   1      39.537  35.027  39.538  1.00  0.00     0.020 C 
ATOM     99  C   UNL A   1      39.304  36.371  38.885  1.00  0.00     0.009 C 
ATOM    100  C   UNL A   1      39.295  36.258  40.380  1.00  0.00     0.009 C 
ENDBRANCH  87  98
BRANCH  90 101
ATOM    101  C   UNL A   1      35.517  32.510  41.531  1.00  0.00     0.433 C 
ATOM    102  F   UNL A   1      34.377  33.217  41.280  1.00  0.00    -0.165 F 
ATOM    103  F   UNL A   1      35.125  31.221  41.740  1.00  0.00    -0.165 F 
ATOM    104  F   UNL A   1      35.958  32.955  42.745  1.00  0.00    -0.165 F 
ENDBRANCH  90 101
ENDBRANCH  75  78
ENDBRANCH  73  74
ENDBRANCH  72  73
ENDBRANCH   1  72
TORSDOF 14
ENDMDL
MODEL 3
REMARK VINA RESULT:     -11.4      0.785      2.074
REMARK SMILES O=C(NCCCCNC(=O)c1cc(-c2ccc(Cl)cc2)nc2c3c(C4CC4)cc(C(F)(F)F)nc3nn12)c1ccc(-c2c3nc(c(-c4c(F)c(F)c(F)c(F)c4F)c4ccc([nH]4)c(-c4c(F)c(F)c(F)c(F)c4F)c4nc(c(-c5c(F)c(F)c(F)c(F)c5F)c5ccc2[nH]5)C=C4)C=C3)cc1
REMARK SMILES IDX 5 1 4 2 3 3 1 4 2 5 38 7 39 8 100 9 40 10 99 11 41 12 42 13
REMARK SMILES IDX 43 14 93 15 44 16 98 17 92 18 94 19 45 20 97 21 91 22 90 23
REMARK SMILES IDX 46 25 78 26 58 27 77 28 59 29 62 30 76 31 95 32 60 33 61 34
REMARK SMILES IDX 75 36 96 37 63 38 47 39 48 40 56 41 49 42 50 43 54 44 57 45
REMARK SMILES IDX 51 46 52 47 55 48 53 49 79 50 80 51 88 52 81 53 82 54 86 55
REMARK SMILES IDX 89 56 83 57 84 58 87 59 85 60 64 61 65 62 73 63 66 64 67 65
REMARK SMILES IDX 71 66 74 67 68 68 69 69 72 70 70 71 6 72 7 73 8 74 9 75
REMARK SMILES IDX 10 77 11 78 12 79 37 80 13 81 22 82 36 83 21 84 23 85 35 86
REMARK SMILES IDX 24 87 34 88 28 89 29 90 14 91 15 92 20 93 16 94 19 95 17 96
REMARK SMILES IDX 18 97 25 98 26 99 27 100 30 101 31 102 32 103 33 104
REMARK H PARENT 3 6 94 24 62 35 8 76
REMARK Flexibility Score: inf
ROOT
ATOM      1  C   UNL A   1      48.428  28.937  28.973  1.00  0.00     0.023 C 
ENDROOT
BRANCH   1   2
ATOM      2  C   UNL A   1      48.565  30.096  29.958  1.00  0.00     0.116 C 
BRANCH   2   3
ATOM      3  N   UNL A   1      49.087  31.301  29.330  1.00  0.00    -0.352 N 
ATOM      4  O   UNL A   1      48.898  33.320  28.296  1.00  0.00    -0.269 OA
ATOM      5  C   UNL A   1      48.373  32.392  28.887  1.00  0.00     0.251 C 
ATOM      6  H   UNL A   1      50.063  31.340  29.209  1.00  0.00     0.163 HD
BRANCH   5   7
ATOM      7  C   UNL A   1      46.921  32.376  29.125  1.00  0.00     0.039 A 
ATOM      8  C   UNL A   1      46.439  32.588  30.421  1.00  0.00     0.014 A 
ATOM      9  C   UNL A   1      46.082  31.959  28.092  1.00  0.00     0.014 A 
ATOM     10  C   UNL A   1      45.120  32.262  30.713  1.00  0.00     0.010 A 
ATOM     11  C   UNL A   1      44.757  31.657  28.383  1.00  0.00     0.010 A 
ATOM     12  C   UNL A   1      44.286  31.773  29.700  1.00  0.00    -0.014 A 
BRANCH  12  13
ATOM     13  C   UNL A   1      42.913  31.385  30.052  1.00  0.00     0.031 A 
ATOM     14  C   UNL A   1      42.769  30.086  30.758  1.00  0.00     0.074 A 
ATOM     15  C   UNL A   1      41.927  32.293  30.196  1.00  0.00     0.049 A 
ATOM     16  N   UNL A   1      42.936  29.971  32.042  1.00  0.00    -0.248 NA
ATOM     17  C   UNL A   1      42.637  28.816  30.053  1.00  0.00     0.031 C 
ATOM     18  C   UNL A   1      42.133  33.730  30.406  1.00  0.00     0.029 A 
ATOM     19  N   UNL A   1      40.580  32.110  30.394  1.00  0.00    -0.354 N 
ATOM     20  C   UNL A   1      43.016  28.625  32.316  1.00  0.00     0.074 A 
ATOM     21  C   UNL A   1      42.784  27.942  31.060  1.00  0.00     0.031 C 
ATOM     22  C   UNL A   1      40.989  34.263  30.885  1.00  0.00     0.029 A 
ATOM     23  C   UNL A   1      39.939  33.251  30.861  1.00  0.00     0.049 A 
ATOM     24  H   UNL A   1      40.117  31.258  30.224  1.00  0.00     0.167 HD
ATOM     25  C   UNL A   1      43.307  28.141  33.549  1.00  0.00     0.037 A 
ATOM     26  C   UNL A   1      38.844  33.280  31.667  1.00  0.00     0.037 A 
ATOM     27  C   UNL A   1      43.551  29.114  34.570  1.00  0.00     0.049 A 
ATOM     28  C   UNL A   1      39.319  32.524  32.881  1.00  0.00     0.074 A 
ATOM     29  C   UNL A   1      44.651  29.781  35.068  1.00  0.00     0.029 A 
ATOM     30  N   UNL A   1      42.477  29.668  35.224  1.00  0.00    -0.354 N 
ATOM     31  N   UNL A   1      40.034  33.018  33.857  1.00  0.00    -0.248 NA
ATOM     32  C   UNL A   1      39.243  31.061  32.860  1.00  0.00     0.031 C 
ATOM     33  C   UNL A   1      44.141  30.986  35.645  1.00  0.00     0.029 A 
ATOM     34  C   UNL A   1      42.768  30.998  35.400  1.00  0.00     0.049 A 
ATOM     35  H   UNL A   1      41.658  29.202  35.509  1.00  0.00     0.167 HD
ATOM     36  C   UNL A   1      40.705  31.925  34.411  1.00  0.00     0.074 A 
ATOM     37  C   UNL A   1      40.149  30.750  33.776  1.00  0.00     0.031 C 
ATOM     38  C   UNL A   1      41.797  32.049  35.218  1.00  0.00     0.037 A 
BRANCH  25  39
ATOM     39  C   UNL A   1      43.301  26.712  33.885  1.00  0.00     0.064 A 
ATOM     40  C   UNL A   1      42.212  26.196  34.599  1.00  0.00     0.173 A 
ATOM     41  C   UNL A   1      44.412  25.893  33.673  1.00  0.00     0.173 A 
ATOM     42  F   UNL A   1      41.137  26.968  34.830  1.00  0.00    -0.203 F 
ATOM     43  C   UNL A   1      42.246  24.906  35.113  1.00  0.00     0.198 A 
ATOM     44  C   UNL A   1      44.444  24.600  34.187  1.00  0.00     0.198 A 
ATOM     45  F   UNL A   1      45.477  26.359  33.003  1.00  0.00    -0.203 F 
ATOM     46  F   UNL A   1      41.205  24.446  35.821  1.00  0.00    -0.200 F 
ATOM     47  C   UNL A   1      43.365  24.112  34.915  1.00  0.00     0.200 A 
ATOM     48  F   UNL A   1      45.525  23.832  34.002  1.00  0.00    -0.200 F 
ATOM     49  F   UNL A   1      43.409  22.879  35.437  1.00  0.00    -0.200 F 
ENDBRANCH  25  39
BRANCH  26  50
ATOM     50  C   UNL A   1      37.543  32.983  30.981  1.00  0.00     0.064 A 
ATOM     51  C   UNL A   1      36.384  32.773  31.760  1.00  0.00     0.173 A 
ATOM     52  C   UNL A   1      37.372  32.875  29.592  1.00  0.00     0.173 A 
ATOM     53  F   UNL A   1      36.466  32.739  33.100  1.00  0.00    -0.203 F 
ATOM     54  C   UNL A   1      35.125  32.596  31.185  1.00  0.00     0.198 A 
ATOM     55  C   UNL A   1      36.109  32.724  29.015  1.00  0.00     0.198 A 
ATOM     56  F   UNL A   1      38.422  32.926  28.761  1.00  0.00    -0.203 F 
ATOM     57  F   UNL A   1      34.049  32.435  31.967  1.00  0.00    -0.200 F 
ATOM     58  C   UNL A   1      34.984  32.601  29.810  1.00  0.00     0.200 A 
ATOM     59  F   UNL A   1      35.987  32.717  27.680  1.00  0.00    -0.200 F 
ATOM     60  F   UNL A   1      33.772  32.479  29.252  1.00  0.00    -0.200 F 
ENDBRANCH  26  50
BRANCH  38  61
ATOM     61  C   UNL A   1      42.100  33.433  35.672  1.00  0.00     0.064 A 
ATOM     62  C   UNL A   1      41.629  33.881  36.913  1.00  0.00     0.173 A 
ATOM     63  C   UNL A   1      42.879  34.309  34.903  1.00  0.00     0.173 A 
ATOM     64  F   UNL A   1      40.886  33.074  37.687  1.00  0.00    -0.203 F 
ATOM     65  C   UNL A   1      41.947  35.154  37.377  1.00  0.00     0.198 A 
ATOM     66  C   UNL A   1      43.210  35.574  35.379  1.00  0.00     0.198 A 
ATOM     67  F   UNL A   1      43.345  33.937  33.699  1.00  0.00    -0.203 F 
ATOM     68  F   UNL A   1      41.497  35.561  38.572  1.00  0.00    -0.200 F 
ATOM     69  C   UNL A   1      42.746  35.994  36.616  1.00  0.00     0.200 A 
ATOM     70  F   UNL A   1      43.996  36.379  34.650  1.00  0.00    -0.200 F 
ATOM     71  F   UNL A   1      43.079  37.208  37.079  1.00  0.00    -0.200 F 
ENDBRANCH  38  61
ENDBRANCH  12  13
ENDBRANCH   5   7
ENDBRANCH   2   3
ENDBRANCH   1   2
BRANCH   1  72
ATOM     72  C   UNL A   1      47.052  28.273  28.975  1.00  0.00     0.023 C 
BRANCH  72  73
ATOM     73  C   UNL A   1      46.878  27.158  27.947  1.00  0.00     0.116 C 
BRANCH  73  74
ATOM     74  N   UNL A   1      46.722  27.650  26.585  1.00  0.00    -0.351 N 
ATOM     75  C   UNL A   1      45.670  27.469  25.733  1.00  0.00     0.270 C 
ATOM     76  H   UNL A   1      47.471  28.182  26.233  1.00  0.00     0.163 HD
ATOM     77  O   UNL A   1      45.690  27.952  24.605  1.00  0.00    -0.268 OA
BRANCH  75  78
ATOM     78  C   UNL A   1      44.587  26.569  26.158  1.00  0.00     0.134 A 
ATOM     79  C   UNL A   1      43.439  27.171  26.489  1.00  0.00     0.063 A 
ATOM     80  N   UNL A   1      44.693  25.183  26.138  1.00  0.00    -0.207 N 
ATOM     81  C   UNL A   1      42.318  26.249  26.821  1.00  0.00     0.075 A 
ATOM     82  C   UNL A   1      43.558  24.385  26.380  1.00  0.00     0.166 A 
ATOM     83  N   UNL A   1      45.791  24.449  25.836  1.00  0.00    -0.145 NA
ATOM     84  N   UNL A   1      42.366  24.949  26.776  1.00  0.00    -0.228 NA
ATOM     85  C   UNL A   1      43.956  23.100  26.054  1.00  0.00     0.069 A 
ATOM     86  C   UNL A   1      45.342  23.207  25.738  1.00  0.00     0.184 A 
ATOM     87  C   UNL A   1      43.180  21.933  25.998  1.00  0.00    -0.028 A 
ATOM     88  N   UNL A   1      46.090  22.152  25.344  1.00  0.00    -0.222 NA
ATOM     89  C   UNL A   1      43.992  20.856  25.573  1.00  0.00     0.038 A 
ATOM     90  C   UNL A   1      45.380  20.984  25.273  1.00  0.00     0.147 A 
BRANCH  81  91
ATOM     91  C   UNL A   1      41.091  26.956  27.246  1.00  0.00     0.000 A 
ATOM     92  C   UNL A   1      40.298  26.392  28.247  1.00  0.00     0.012 A 
ATOM     93  C   UNL A   1      40.804  28.228  26.735  1.00  0.00     0.012 A 
ATOM     94  C   UNL A   1      39.227  27.124  28.766  1.00  0.00     0.021 A 
ATOM     95  C   UNL A   1      39.726  28.951  27.251  1.00  0.00     0.021 A 
ATOM     96  C   UNL A   1      38.950  28.400  28.272  1.00  0.00     0.041 A 
ATOM     97  Cl  UNL A   1      37.653  29.312  28.939  1.00  0.00    -0.084 Cl
ENDBRANCH  81  91
BRANCH  87  98
ATOM     98  C   UNL A   1      41.720  21.898  26.317  1.00  0.00     0.020 C 
ATOM     99  C   UNL A   1      40.995  20.616  26.662  1.00  0.00     0.009 C 
ATOM    100  C   UNL A   1      41.294  21.616  27.739  1.00  0.00     0.009 C 
ENDBRANCH  87  98
BRANCH  90 101
ATOM    101  C   UNL A   1      46.142  19.746  24.804  1.00  0.00     0.433 C 
ATOM    102  F   UNL A   1      47.299  20.057  24.151  1.00  0.00    -0.165 F 
ATOM    103  F   UNL A   1      46.495  18.914  25.825  1.00  0.00    -0.165 F 
ATOM    104  F   UNL A   1      45.432  18.969  23.933  1.00  0.00    -0.165 F 
ENDBRANCH  90 101
ENDBRANCH  75  78
ENDBRANCH  73  74
ENDBRANCH  72  73
ENDBRANCH   1  72
TORSDOF 14
ENDMDL
