MODEL 1
REMARK VINA RESULT:     -11.5      0.000      0.000
REMARK SMILES O=CN1CCC[C@@H](C(=O)NCCCCNC(=O)c2ccc(-c3c4nc(c(-c5c(F)c(F)c(F)c(F)c5F)c5ccc([nH]5)c(-c5c(F)c(F)c(F)c(F)c5F)c5nc(c(-c6c(F)c(F)c(F)c(F)c6F)c6ccc3[nH]6)C=C5)C=C4)cc2)C1
REMARK SMILES IDX 13 1 12 2 11 3 10 4 8 5 9 6 7 8 3 9 4 10 81 11 5 12 6 13
REMARK SMILES IDX 2 14 1 15 14 16 15 17 16 18 17 20 18 21 19 22 80 23 20 24
REMARK SMILES IDX 79 25 21 26 22 27 23 28 73 29 24 30 78 31 72 32 74 33 25 34
REMARK SMILES IDX 77 35 71 36 70 37 26 39 58 40 38 41 57 42 39 43 42 44 56 45
REMARK SMILES IDX 75 46 40 47 41 48 55 50 76 51 43 52 27 53 28 54 36 55 29 56
REMARK SMILES IDX 30 57 34 58 37 59 31 60 32 61 35 62 33 63 59 64 60 65 68 66
REMARK SMILES IDX 61 67 62 68 66 69 69 70 63 71 64 72 67 73 65 74 44 75 45 76
REMARK SMILES IDX 53 77 46 78 47 79 51 80 54 81 48 82 49 83 52 84 50 85
REMARK H PARENT 10 7 15 19 74 38 42 49
REMARK Flexibility Score: inf
ROOT
ATOM      1  C   UNL A   1      31.538  31.997  26.558  1.00  0.00     0.023 C 
ENDROOT
BRANCH   1   2
ATOM      2  C   UNL A   1      31.714  30.498  26.303  1.00  0.00     0.023 C 
BRANCH   2   3
ATOM      3  C   UNL A   1      33.155  29.993  26.350  1.00  0.00     0.116 C 
BRANCH   3   4
ATOM      4  N   UNL A   1      33.623  29.544  25.053  1.00  0.00    -0.356 N 
ATOM      5  C   UNL A   1      33.582  28.287  24.528  1.00  0.00     0.224 C 
ATOM      6  O   UNL A   1      34.033  28.111  23.396  1.00  0.00    -0.275 OA
ATOM      7  H   UNL A   1      34.021  30.236  24.478  1.00  0.00     0.163 HD
BRANCH   5   8
ATOM      8  C   UNL A   1      33.015  27.149  25.354  1.00  0.00     0.098 C 
ATOM      9  N   UNL A   1      31.166  25.549  25.438  1.00  0.00    -0.344 N 
ATOM     10  C   UNL A   1      32.032  24.381  25.480  1.00  0.00     0.119 C 
ATOM     11  C   UNL A   1      31.685  26.717  24.738  1.00  0.00     0.132 C 
ATOM     12  C   UNL A   1      33.392  24.747  26.073  1.00  0.00     0.022 C 
ATOM     13  C   UNL A   1      34.004  25.971  25.382  1.00  0.00     0.017 C 
BRANCH   9  14
ATOM     14  C   UNL A   1      29.933  25.577  26.048  1.00  0.00     0.339 C 
ATOM     15  O   UNL A   1      29.526  24.771  26.876  1.00  0.00    -0.279 OA
ENDBRANCH   9  14
ENDBRANCH   5   8
ENDBRANCH   3   4
ENDBRANCH   2   3
ENDBRANCH   1   2
BRANCH   1  16
ATOM     16  C   UNL A   1      32.660  32.656  27.354  1.00  0.00     0.116 C 
BRANCH  16  17
ATOM     17  N   UNL A   1      32.401  34.063  27.625  1.00  0.00    -0.352 N 
ATOM     18  C   UNL A   1      32.989  34.897  28.545  1.00  0.00     0.251 C 
ATOM     19  H   UNL A   1      31.703  34.477  27.067  1.00  0.00     0.163 HD
ATOM     20  O   UNL A   1      32.526  36.015  28.750  1.00  0.00    -0.269 OA
BRANCH  18  21
ATOM     21  C   UNL A   1      34.164  34.436  29.318  1.00  0.00     0.039 A 
ATOM     22  C   UNL A   1      33.964  33.852  30.571  1.00  0.00     0.014 A 
ATOM     23  C   UNL A   1      35.457  34.567  28.805  1.00  0.00     0.014 A 
ATOM     24  C   UNL A   1      35.051  33.325  31.273  1.00  0.00     0.010 A 
ATOM     25  C   UNL A   1      36.528  33.974  29.467  1.00  0.00     0.010 A 
ATOM     26  C   UNL A   1      36.336  33.341  30.706  1.00  0.00    -0.014 A 
BRANCH  26  27
ATOM     27  C   UNL A   1      37.489  32.688  31.380  1.00  0.00     0.031 A 
ATOM     28  C   UNL A   1      38.192  31.529  30.729  1.00  0.00     0.074 A 
ATOM     29  C   UNL A   1      37.854  33.088  32.615  1.00  0.00     0.049 A 
ATOM     30  N   UNL A   1      39.150  30.770  31.199  1.00  0.00    -0.248 NA
ATOM     31  C   UNL A   1      37.737  31.156  29.381  1.00  0.00     0.031 C 
ATOM     32  C   UNL A   1      37.228  34.172  33.372  1.00  0.00     0.029 A 
ATOM     33  N   UNL A   1      38.832  32.618  33.458  1.00  0.00    -0.354 N 
ATOM     34  C   UNL A   1      39.401  29.825  30.213  1.00  0.00     0.074 A 
ATOM     35  C   UNL A   1      38.460  30.072  29.142  1.00  0.00     0.031 C 
ATOM     36  C   UNL A   1      37.846  34.296  34.558  1.00  0.00     0.029 A 
ATOM     37  C   UNL A   1      38.881  33.272  34.664  1.00  0.00     0.049 A 
ATOM     38  H   UNL A   1      39.440  31.881  33.219  1.00  0.00     0.167 HD
ATOM     39  C   UNL A   1      40.346  28.855  30.192  1.00  0.00     0.037 A 
ATOM     40  C   UNL A   1      39.661  33.061  35.742  1.00  0.00     0.037 A 
ATOM     41  C   UNL A   1      41.294  28.624  31.252  1.00  0.00     0.049 A 
ATOM     42  C   UNL A   1      40.686  31.959  35.704  1.00  0.00     0.074 A 
ATOM     43  C   UNL A   1      42.325  27.703  31.301  1.00  0.00     0.029 A 
ATOM     44  N   UNL A   1      41.318  29.315  32.455  1.00  0.00    -0.354 N 
ATOM     45  N   UNL A   1      40.961  31.117  34.738  1.00  0.00    -0.248 NA
ATOM     46  C   UNL A   1      41.511  31.780  36.908  1.00  0.00     0.031 C 
ATOM     47  C   UNL A   1      42.939  27.800  32.553  1.00  0.00     0.029 A 
ATOM     48  C   UNL A   1      42.332  28.822  33.262  1.00  0.00     0.049 A 
ATOM     49  H   UNL A   1      40.708  30.048  32.699  1.00  0.00     0.167 HD
ATOM     50  C   UNL A   1      42.010  30.332  35.202  1.00  0.00     0.074 A 
ATOM     51  C   UNL A   1      42.330  30.807  36.531  1.00  0.00     0.031 C 
ATOM     52  C   UNL A   1      42.649  29.311  34.580  1.00  0.00     0.037 A 
BRANCH  39  53
ATOM     53  C   UNL A   1      40.403  27.964  28.984  1.00  0.00     0.064 A 
ATOM     54  C   UNL A   1      39.659  26.776  28.909  1.00  0.00     0.173 A 
ATOM     55  C   UNL A   1      41.180  28.321  27.871  1.00  0.00     0.173 A 
ATOM     56  F   UNL A   1      38.906  26.383  29.947  1.00  0.00    -0.203 F 
ATOM     57  C   UNL A   1      39.715  25.965  27.779  1.00  0.00     0.198 A 
ATOM     58  C   UNL A   1      41.208  27.523  26.730  1.00  0.00     0.198 A 
ATOM     59  F   UNL A   1      41.906  29.449  27.886  1.00  0.00    -0.203 F 
ATOM     60  F   UNL A   1      39.037  24.809  27.752  1.00  0.00    -0.200 F 
ATOM     61  C   UNL A   1      40.482  26.342  26.687  1.00  0.00     0.200 A 
ATOM     62  F   UNL A   1      41.937  27.899  25.670  1.00  0.00    -0.200 F 
ATOM     63  F   UNL A   1      40.528  25.565  25.597  1.00  0.00    -0.200 F 
ENDBRANCH  39  53
BRANCH  40  64
ATOM     64  C   UNL A   1      39.515  33.921  36.947  1.00  0.00     0.064 A 
ATOM     65  C   UNL A   1      40.142  35.173  37.019  1.00  0.00     0.173 A 
ATOM     66  C   UNL A   1      38.758  33.507  38.054  1.00  0.00     0.173 A 
ATOM     67  F   UNL A   1      40.894  35.605  35.995  1.00  0.00    -0.203 F 
ATOM     68  C   UNL A   1      40.038  35.968  38.159  1.00  0.00     0.198 A 
ATOM     69  C   UNL A   1      38.629  34.317  39.181  1.00  0.00     0.198 A 
ATOM     70  F   UNL A   1      38.134  32.321  38.035  1.00  0.00    -0.203 F 
ATOM     71  F   UNL A   1      40.691  37.136  38.220  1.00  0.00    -0.200 F 
ATOM     72  C   UNL A   1      39.277  35.541  39.237  1.00  0.00     0.200 A 
ATOM     73  F   UNL A   1      37.880  33.908  40.213  1.00  0.00    -0.200 F 
ATOM     74  F   UNL A   1      39.174  36.307  40.332  1.00  0.00    -0.200 F 
ENDBRANCH  40  64
BRANCH  52  75
ATOM     75  C   UNL A   1      43.790  28.663  35.309  1.00  0.00     0.064 A 
ATOM     76  C   UNL A   1      43.596  27.567  36.163  1.00  0.00     0.173 A 
ATOM     77  C   UNL A   1      45.104  29.116  35.111  1.00  0.00     0.173 A 
ATOM     78  F   UNL A   1      42.359  27.106  36.399  1.00  0.00    -0.203 F 
ATOM     79  C   UNL A   1      44.672  26.964  36.809  1.00  0.00     0.198 A 
ATOM     80  C   UNL A   1      46.180  28.489  35.732  1.00  0.00     0.198 A 
ATOM     81  F   UNL A   1      45.347  30.156  34.300  1.00  0.00    -0.203 F 
ATOM     82  F   UNL A   1      44.458  25.949  37.658  1.00  0.00    -0.200 F 
ATOM     83  C   UNL A   1      45.964  27.419  36.587  1.00  0.00     0.200 A 
ATOM     84  F   UNL A   1      47.429  28.920  35.503  1.00  0.00    -0.200 F 
ATOM     85  F   UNL A   1      46.998  26.829  37.200  1.00  0.00    -0.200 F 
ENDBRANCH  52  75
ENDBRANCH  26  27
ENDBRANCH  18  21
ENDBRANCH  16  17
ENDBRANCH   1  16
TORSDOF 12
ENDMDL
MODEL 2
REMARK VINA RESULT:     -11.3      0.905      2.280
REMARK SMILES O=CN1CCC[C@@H](C(=O)NCCCCNC(=O)c2ccc(-c3c4nc(c(-c5c(F)c(F)c(F)c(F)c5F)c5ccc([nH]5)c(-c5c(F)c(F)c(F)c(F)c5F)c5nc(c(-c6c(F)c(F)c(F)c(F)c6F)c6ccc3[nH]6)C=C5)C=C4)cc2)C1
REMARK SMILES IDX 13 1 12 2 11 3 10 4 8 5 9 6 7 8 3 9 4 10 81 11 5 12 6 13
REMARK SMILES IDX 2 14 1 15 14 16 15 17 16 18 17 20 18 21 19 22 80 23 20 24
REMARK SMILES IDX 79 25 21 26 22 27 23 28 73 29 24 30 78 31 72 32 74 33 25 34
REMARK SMILES IDX 77 35 71 36 70 37 26 39 58 40 38 41 57 42 39 43 42 44 56 45
REMARK SMILES IDX 75 46 40 47 41 48 55 50 76 51 43 52 27 53 28 54 36 55 29 56
REMARK SMILES IDX 30 57 34 58 37 59 31 60 32 61 35 62 33 63 59 64 60 65 68 66
REMARK SMILES IDX 61 67 62 68 66 69 69 70 63 71 64 72 67 73 65 74 44 75 45 76
REMARK SMILES IDX 53 77 46 78 47 79 51 80 54 81 48 82 49 83 52 84 50 85
REMARK H PARENT 10 7 15 19 74 38 42 49
REMARK Flexibility Score: inf
ROOT
ATOM      1  C   UNL A   1      31.413  32.012  26.778  1.00  0.00     0.023 C 
ENDROOT
BRANCH   1   2
ATOM      2  C   UNL A   1      31.697  30.725  26.001  1.00  0.00     0.023 C 
BRANCH   2   3
ATOM      3  C   UNL A   1      32.533  29.684  26.745  1.00  0.00     0.116 C 
BRANCH   3   4
ATOM      4  N   UNL A   1      31.750  28.527  27.132  1.00  0.00    -0.356 N 
ATOM      5  C   UNL A   1      31.312  27.502  26.349  1.00  0.00     0.224 C 
ATOM      6  O   UNL A   1      30.656  26.603  26.875  1.00  0.00    -0.275 OA
ATOM      7  H   UNL A   1      31.503  28.475  28.083  1.00  0.00     0.163 HD
BRANCH   5   8
ATOM      8  C   UNL A   1      31.617  27.512  24.864  1.00  0.00     0.098 C 
ATOM      9  N   UNL A   1      32.175  26.041  22.989  1.00  0.00    -0.344 N 
ATOM     10  C   UNL A   1      31.050  26.469  22.174  1.00  0.00     0.119 C 
ATOM     11  C   UNL A   1      31.987  26.092  24.434  1.00  0.00     0.132 C 
ATOM     12  C   UNL A   1      30.615  27.881  22.563  1.00  0.00     0.022 C 
ATOM     13  C   UNL A   1      30.395  28.012  24.075  1.00  0.00     0.017 C 
BRANCH   9  14
ATOM     14  C   UNL A   1      33.372  25.636  22.444  1.00  0.00     0.339 C 
ATOM     15  O   UNL A   1      33.656  25.652  21.253  1.00  0.00    -0.279 OA
ENDBRANCH   9  14
ENDBRANCH   5   8
ENDBRANCH   3   4
ENDBRANCH   2   3
ENDBRANCH   1   2
BRANCH   1  16
ATOM     16  C   UNL A   1      32.644  32.726  27.326  1.00  0.00     0.116 C 
BRANCH  16  17
ATOM     17  N   UNL A   1      32.390  34.127  27.630  1.00  0.00    -0.352 N 
ATOM     18  C   UNL A   1      32.985  34.938  28.565  1.00  0.00     0.251 C 
ATOM     19  H   UNL A   1      31.689  34.554  27.086  1.00  0.00     0.163 HD
ATOM     20  O   UNL A   1      32.525  36.053  28.798  1.00  0.00    -0.269 OA
BRANCH  18  21
ATOM     21  C   UNL A   1      34.164  34.459  29.320  1.00  0.00     0.039 A 
ATOM     22  C   UNL A   1      33.972  33.858  30.566  1.00  0.00     0.014 A 
ATOM     23  C   UNL A   1      35.453  34.589  28.797  1.00  0.00     0.014 A 
ATOM     24  C   UNL A   1      35.062  33.313  31.250  1.00  0.00     0.010 A 
ATOM     25  C   UNL A   1      36.526  33.979  29.440  1.00  0.00     0.010 A 
ATOM     26  C   UNL A   1      36.341  33.329  30.671  1.00  0.00    -0.014 A 
BRANCH  26  27
ATOM     27  C   UNL A   1      37.497  32.659  31.325  1.00  0.00     0.031 A 
ATOM     28  C   UNL A   1      38.187  31.506  30.649  1.00  0.00     0.074 A 
ATOM     29  C   UNL A   1      37.874  33.036  32.562  1.00  0.00     0.049 A 
ATOM     30  N   UNL A   1      39.145  30.735  31.098  1.00  0.00    -0.248 NA
ATOM     31  C   UNL A   1      37.719  31.158  29.299  1.00  0.00     0.031 C 
ATOM     32  C   UNL A   1      37.260  34.111  33.343  1.00  0.00     0.029 A 
ATOM     33  N   UNL A   1      38.856  32.547  33.390  1.00  0.00    -0.354 N 
ATOM     34  C   UNL A   1      39.382  29.805  30.095  1.00  0.00     0.074 A 
ATOM     35  C   UNL A   1      38.433  30.074  29.036  1.00  0.00     0.031 C 
ATOM     36  C   UNL A   1      37.889  34.212  34.525  1.00  0.00     0.029 A 
ATOM     37  C   UNL A   1      38.919  33.181  34.606  1.00  0.00     0.049 A 
ATOM     38  H   UNL A   1      39.458  31.810  33.134  1.00  0.00     0.167 HD
ATOM     39  C   UNL A   1      40.321  28.830  30.050  1.00  0.00     0.037 A 
ATOM     40  C   UNL A   1      39.706  32.948  35.674  1.00  0.00     0.037 A 
ATOM     41  C   UNL A   1      41.276  28.575  31.098  1.00  0.00     0.049 A 
ATOM     42  C   UNL A   1      40.725  31.841  35.609  1.00  0.00     0.074 A 
ATOM     43  C   UNL A   1      42.303  27.649  31.123  1.00  0.00     0.029 A 
ATOM     44  N   UNL A   1      41.315  29.247  32.311  1.00  0.00    -0.354 N 
ATOM     45  N   UNL A   1      40.987  31.013  34.627  1.00  0.00    -0.248 NA
ATOM     46  C   UNL A   1      41.559  31.637  36.802  1.00  0.00     0.031 C 
ATOM     47  C   UNL A   1      42.928  27.721  32.371  1.00  0.00     0.029 A 
ATOM     48  C   UNL A   1      42.332  28.735  33.102  1.00  0.00     0.049 A 
ATOM     49  H   UNL A   1      40.711  29.979  32.572  1.00  0.00     0.167 HD
ATOM     50  C   UNL A   1      42.035  30.215  35.069  1.00  0.00     0.074 A 
ATOM     51  C   UNL A   1      42.369  30.666  36.403  1.00  0.00     0.031 C 
ATOM     52  C   UNL A   1      42.663  29.201  34.425  1.00  0.00     0.037 A 
BRANCH  39  53
ATOM     53  C   UNL A   1      40.363  27.958  28.827  1.00  0.00     0.064 A 
ATOM     54  C   UNL A   1      41.127  28.303  27.702  1.00  0.00     0.173 A 
ATOM     55  C   UNL A   1      39.663  26.742  28.795  1.00  0.00     0.173 A 
ATOM     56  F   UNL A   1      41.809  29.459  27.677  1.00  0.00    -0.203 F 
ATOM     57  C   UNL A   1      41.163  27.480  26.579  1.00  0.00     0.198 A 
ATOM     58  C   UNL A   1      39.728  25.905  27.683  1.00  0.00     0.198 A 
ATOM     59  F   UNL A   1      38.923  26.358  29.846  1.00  0.00    -0.203 F 
ATOM     60  F   UNL A   1      41.858  27.858  25.497  1.00  0.00    -0.200 F 
ATOM     61  C   UNL A   1      40.471  26.279  26.573  1.00  0.00     0.200 A 
ATOM     62  F   UNL A   1      39.072  24.737  27.686  1.00  0.00    -0.200 F 
ATOM     63  F   UNL A   1      40.515  25.484  25.496  1.00  0.00    -0.200 F 
ENDBRANCH  39  53
BRANCH  40  64
ATOM     64  C   UNL A   1      39.576  33.789  36.894  1.00  0.00     0.064 A 
ATOM     65  C   UNL A   1      38.706  33.424  37.931  1.00  0.00     0.173 A 
ATOM     66  C   UNL A   1      40.307  34.977  37.045  1.00  0.00     0.173 A 
ATOM     67  F   UNL A   1      37.969  32.307  37.825  1.00  0.00    -0.203 F 
ATOM     68  C   UNL A   1      38.553  34.225  39.060  1.00  0.00     0.198 A 
ATOM     69  C   UNL A   1      40.177  35.762  38.189  1.00  0.00     0.198 A 
ATOM     70  F   UNL A   1      41.157  35.369  36.085  1.00  0.00    -0.203 F 
ATOM     71  F   UNL A   1      37.676  33.878  40.011  1.00  0.00    -0.200 F 
ATOM     72  C   UNL A   1      39.294  35.391  39.191  1.00  0.00     0.200 A 
ATOM     73  F   UNL A   1      40.906  36.878  38.319  1.00  0.00    -0.200 F 
ATOM     74  F   UNL A   1      39.149  36.160  40.279  1.00  0.00    -0.200 F 
ENDBRANCH  40  64
BRANCH  52  75
ATOM     75  C   UNL A   1      43.807  28.534  35.134  1.00  0.00     0.064 A 
ATOM     76  C   UNL A   1      43.616  27.412  35.954  1.00  0.00     0.173 A 
ATOM     77  C   UNL A   1      45.119  28.997  34.950  1.00  0.00     0.173 A 
ATOM     78  F   UNL A   1      42.381  26.939  36.176  1.00  0.00    -0.203 F 
ATOM     79  C   UNL A   1      44.695  26.793  36.581  1.00  0.00     0.198 A 
ATOM     80  C   UNL A   1      46.198  28.355  35.551  1.00  0.00     0.198 A 
ATOM     81  F   UNL A   1      45.358  30.062  34.171  1.00  0.00    -0.203 F 
ATOM     82  F   UNL A   1      44.484  25.752  37.398  1.00  0.00    -0.200 F 
ATOM     83  C   UNL A   1      45.984  27.259  36.372  1.00  0.00     0.200 A 
ATOM     84  F   UNL A   1      47.445  28.797  35.335  1.00  0.00    -0.200 F 
ATOM     85  F   UNL A   1      47.021  26.654  36.967  1.00  0.00    -0.200 F 
ENDBRANCH  52  75
ENDBRANCH  26  27
ENDBRANCH  18  21
ENDBRANCH  16  17
ENDBRANCH   1  16
TORSDOF 12
ENDMDL
MODEL 3
REMARK VINA RESULT:     -11.3      6.081     11.457
REMARK SMILES O=CN1CCC[C@@H](C(=O)NCCCCNC(=O)c2ccc(-c3c4nc(c(-c5c(F)c(F)c(F)c(F)c5F)c5ccc([nH]5)c(-c5c(F)c(F)c(F)c(F)c5F)c5nc(c(-c6c(F)c(F)c(F)c(F)c6F)c6ccc3[nH]6)C=C5)C=C4)cc2)C1
REMARK SMILES IDX 13 1 12 2 11 3 10 4 8 5 9 6 7 8 3 9 4 10 81 11 5 12 6 13
REMARK SMILES IDX 2 14 1 15 14 16 15 17 16 18 17 20 18 21 19 22 80 23 20 24
REMARK SMILES IDX 79 25 21 26 22 27 23 28 73 29 24 30 78 31 72 32 74 33 25 34
REMARK SMILES IDX 77 35 71 36 70 37 26 39 58 40 38 41 57 42 39 43 42 44 56 45
REMARK SMILES IDX 75 46 40 47 41 48 55 50 76 51 43 52 27 53 28 54 36 55 29 56
REMARK SMILES IDX 30 57 34 58 37 59 31 60 32 61 35 62 33 63 59 64 60 65 68 66
REMARK SMILES IDX 61 67 62 68 66 69 69 70 63 71 64 72 67 73 65 74 44 75 45 76
REMARK SMILES IDX 53 77 46 78 47 79 51 80 54 81 48 82 49 83 52 84 50 85
REMARK H PARENT 10 7 15 19 74 38 42 49
REMARK Flexibility Score: inf
ROOT
ATOM      1  C   UNL A   1      38.097  19.921  24.933  1.00  0.00     0.023 C 
ENDROOT
BRANCH   1   2
ATOM      2  C   UNL A   1      37.206  21.120  24.601  1.00  0.00     0.023 C 
BRANCH   2   3
ATOM      3  C   UNL A   1      37.348  22.318  25.539  1.00  0.00     0.116 C 
BRANCH   3   4
ATOM      4  N   UNL A   1      36.279  22.379  26.517  1.00  0.00    -0.356 N 
ATOM      5  C   UNL A   1      35.065  22.986  26.406  1.00  0.00     0.224 C 
ATOM      6  O   UNL A   1      34.289  22.920  27.360  1.00  0.00    -0.275 OA
ATOM      7  H   UNL A   1      36.454  21.923  27.372  1.00  0.00     0.163 HD
BRANCH   5   8
ATOM      8  C   UNL A   1      34.719  23.741  25.138  1.00  0.00     0.098 C 
ATOM      9  N   UNL A   1      33.117  23.793  23.289  1.00  0.00    -0.344 N 
ATOM     10  C   UNL A   1      32.714  25.170  23.530  1.00  0.00     0.119 C 
ATOM     11  C   UNL A   1      33.552  23.031  24.453  1.00  0.00     0.132 C 
ATOM     12  C   UNL A   1      33.834  25.938  24.231  1.00  0.00     0.022 C 
ATOM     13  C   UNL A   1      34.343  25.195  25.472  1.00  0.00     0.017 C 
BRANCH   9  14
ATOM     14  C   UNL A   1      33.123  23.234  22.032  1.00  0.00     0.339 C 
ATOM     15  O   UNL A   1      33.486  23.792  21.003  1.00  0.00    -0.279 OA
ENDBRANCH   9  14
ENDBRANCH   5   8
ENDBRANCH   3   4
ENDBRANCH   2   3
ENDBRANCH   1   2
BRANCH   1  16
ATOM     16  C   UNL A   1      39.245  20.211  25.892  1.00  0.00     0.116 C 
BRANCH  16  17
ATOM     17  N   UNL A   1      40.232  19.141  25.924  1.00  0.00    -0.352 N 
ATOM     18  C   UNL A   1      41.594  19.215  26.083  1.00  0.00     0.251 C 
ATOM     19  H   UNL A   1      39.870  18.232  25.815  1.00  0.00     0.163 HD
ATOM     20  O   UNL A   1      42.291  18.217  25.915  1.00  0.00    -0.269 OA
BRANCH  18  21
ATOM     21  C   UNL A   1      42.232  20.505  26.426  1.00  0.00     0.039 A 
ATOM     22  C   UNL A   1      42.763  21.292  25.402  1.00  0.00     0.014 A 
ATOM     23  C   UNL A   1      42.294  20.945  27.751  1.00  0.00     0.014 A 
ATOM     24  C   UNL A   1      43.282  22.556  25.695  1.00  0.00     0.010 A 
ATOM     25  C   UNL A   1      42.739  22.234  28.032  1.00  0.00     0.010 A 
ATOM     26  C   UNL A   1      43.232  23.056  27.007  1.00  0.00    -0.014 A 
BRANCH  26  27
ATOM     27  C   UNL A   1      43.675  24.439  27.326  1.00  0.00     0.031 A 
ATOM     28  C   UNL A   1      42.682  25.461  27.805  1.00  0.00     0.074 A 
ATOM     29  C   UNL A   1      44.956  24.797  27.110  1.00  0.00     0.049 A 
ATOM     30  N   UNL A   1      42.853  26.737  28.042  1.00  0.00    -0.248 NA
ATOM     31  C   UNL A   1      41.305  24.991  28.021  1.00  0.00     0.031 C 
ATOM     32  C   UNL A   1      46.008  23.912  26.608  1.00  0.00     0.029 A 
ATOM     33  N   UNL A   1      45.589  26.005  27.269  1.00  0.00    -0.354 N 
ATOM     34  C   UNL A   1      41.609  27.223  28.419  1.00  0.00     0.074 A 
ATOM     35  C   UNL A   1      40.679  26.118  28.328  1.00  0.00     0.031 C 
ATOM     36  C   UNL A   1      47.157  24.601  26.518  1.00  0.00     0.029 A 
ATOM     37  C   UNL A   1      46.915  25.986  26.910  1.00  0.00     0.049 A 
ATOM     38  H   UNL A   1      45.135  26.811  27.608  1.00  0.00     0.167 HD
ATOM     39  C   UNL A   1      41.275  28.471  28.826  1.00  0.00     0.037 A 
ATOM     40  C   UNL A   1      47.829  26.974  26.883  1.00  0.00     0.037 A 
ATOM     41  C   UNL A   1      42.206  29.565  28.933  1.00  0.00     0.049 A 
ATOM     42  C   UNL A   1      47.427  28.359  27.316  1.00  0.00     0.074 A 
ATOM     43  C   UNL A   1      41.978  30.850  29.389  1.00  0.00     0.029 A 
ATOM     44  N   UNL A   1      43.544  29.501  28.570  1.00  0.00    -0.354 N 
ATOM     45  N   UNL A   1      46.262  28.790  27.737  1.00  0.00    -0.248 NA
ATOM     46  C   UNL A   1      48.468  29.396  27.271  1.00  0.00     0.031 C 
ATOM     47  C   UNL A   1      43.162  31.581  29.251  1.00  0.00     0.029 A 
ATOM     48  C   UNL A   1      44.146  30.735  28.767  1.00  0.00     0.049 A 
ATOM     49  H   UNL A   1      43.999  28.700  28.224  1.00  0.00     0.167 HD
ATOM     50  C   UNL A   1      46.438  30.135  28.038  1.00  0.00     0.074 A 
ATOM     51  C   UNL A   1      47.825  30.446  27.763  1.00  0.00     0.031 C 
ATOM     52  C   UNL A   1      45.531  31.030  28.501  1.00  0.00     0.037 A 
BRANCH  39  53
ATOM     53  C   UNL A   1      39.839  28.726  29.185  1.00  0.00     0.064 A 
ATOM     54  C   UNL A   1      39.357  28.520  30.487  1.00  0.00     0.173 A 
ATOM     55  C   UNL A   1      38.941  29.221  28.226  1.00  0.00     0.173 A 
ATOM     56  F   UNL A   1      40.170  28.040  31.441  1.00  0.00    -0.203 F 
ATOM     57  C   UNL A   1      38.025  28.770  30.808  1.00  0.00     0.198 A 
ATOM     58  C   UNL A   1      37.618  29.502  28.559  1.00  0.00     0.198 A 
ATOM     59  F   UNL A   1      39.350  29.444  26.968  1.00  0.00    -0.203 F 
ATOM     60  F   UNL A   1      37.577  28.516  32.045  1.00  0.00    -0.200 F 
ATOM     61  C   UNL A   1      37.159  29.268  29.847  1.00  0.00     0.200 A 
ATOM     62  F   UNL A   1      36.788  29.999  27.633  1.00  0.00    -0.200 F 
ATOM     63  F   UNL A   1      35.881  29.517  30.159  1.00  0.00    -0.200 F 
ENDBRANCH  39  53
BRANCH  40  64
ATOM     64  C   UNL A   1      49.222  26.691  26.445  1.00  0.00     0.064 A 
ATOM     65  C   UNL A   1      50.185  26.236  27.357  1.00  0.00     0.173 A 
ATOM     66  C   UNL A   1      49.622  26.878  25.114  1.00  0.00     0.173 A 
ATOM     67  F   UNL A   1      49.857  26.061  28.646  1.00  0.00    -0.203 F 
ATOM     68  C   UNL A   1      51.500  26.002  26.960  1.00  0.00     0.198 A 
ATOM     69  C   UNL A   1      50.930  26.613  24.711  1.00  0.00     0.198 A 
ATOM     70  F   UNL A   1      48.739  27.306  24.200  1.00  0.00    -0.203 F 
ATOM     71  F   UNL A   1      52.412  25.619  27.863  1.00  0.00    -0.200 F 
ATOM     72  C   UNL A   1      51.870  26.186  25.636  1.00  0.00     0.200 A 
ATOM     73  F   UNL A   1      51.279  26.776  23.428  1.00  0.00    -0.200 F 
ATOM     74  F   UNL A   1      53.134  25.957  25.254  1.00  0.00    -0.200 F 
ENDBRANCH  40  64
BRANCH  52  75
ATOM     75  C   UNL A   1      46.015  32.423  28.785  1.00  0.00     0.064 A 
ATOM     76  C   UNL A   1      46.539  32.784  30.034  1.00  0.00     0.173 A 
ATOM     77  C   UNL A   1      45.996  33.397  27.774  1.00  0.00     0.173 A 
ATOM     78  F   UNL A   1      46.566  31.895  31.038  1.00  0.00    -0.203 F 
ATOM     79  C   UNL A   1      47.007  34.075  30.268  1.00  0.00     0.198 A 
ATOM     80  C   UNL A   1      46.494  34.676  28.002  1.00  0.00     0.198 A 
ATOM     81  F   UNL A   1      45.510  33.103  26.559  1.00  0.00    -0.203 F 
ATOM     82  F   UNL A   1      47.460  34.411  31.483  1.00  0.00    -0.200 F 
ATOM     83  C   UNL A   1      46.992  35.017  29.250  1.00  0.00     0.200 A 
ATOM     84  F   UNL A   1      46.494  35.581  27.012  1.00  0.00    -0.200 F 
ATOM     85  F   UNL A   1      47.453  36.255  29.474  1.00  0.00    -0.200 F 
ENDBRANCH  52  75
ENDBRANCH  26  27
ENDBRANCH  18  21
ENDBRANCH  16  17
ENDBRANCH   1  16
TORSDOF 12
ENDMDL
