MODEL 1
REMARK VINA RESULT:     -11.9      0.000      0.000
REMARK SMILES O=C(CN(CC(F)(F)F)S(=O)(=O)c1cccc(F)c1)NCCCCNC(=O)c1ccc(-c2c3nc(c(-c4c(F)c(F)c(F)c(F)c4F)c4ccc([nH]4)c(-c4c(F)c(F)c(F)c(F)c4F)c4nc(c(-c5c(F)c(F)c(F)c(F)c5F)c5ccc2[nH]5)C=C4)C=C3)cc1
REMARK SMILES IDX 22 1 21 2 20 3 1 4 2 5 3 7 4 8 5 9 6 10 7 11 8 12 9 13 10 14
REMARK SMILES IDX 11 15 12 16 13 17 14 18 19 19 15 20 17 21 16 22 18 23 23 24
REMARK SMILES IDX 24 25 25 26 26 27 27 29 28 30 29 31 90 32 30 33 89 34 31 35
REMARK SMILES IDX 32 36 33 37 83 38 34 39 88 40 82 41 84 42 35 43 87 44 81 45
REMARK SMILES IDX 80 46 36 48 68 49 48 50 67 51 49 52 52 53 66 54 85 55 50 56
REMARK SMILES IDX 51 57 65 59 86 60 53 61 37 62 38 63 46 64 39 65 40 66 44 67
REMARK SMILES IDX 47 68 41 69 42 70 45 71 43 72 69 73 70 74 78 75 71 76 72 77
REMARK SMILES IDX 76 78 79 79 73 80 74 81 77 82 75 83 54 84 55 85 63 86 56 87
REMARK SMILES IDX 57 88 61 89 64 90 58 91 59 92 62 93 60 94
REMARK H PARENT 20 6 25 28 84 47 52 58
REMARK Flexibility Score: inf
ROOT
ATOM      1  C   UNL A   1      31.571  30.707  26.077  1.00  0.00     0.023 C 
ENDROOT
BRANCH   1   2
ATOM      2  C   UNL A   1      32.636  29.942  26.863  1.00  0.00     0.116 C 
BRANCH   2   3
ATOM      3  N   UNL A   1      32.723  28.544  26.491  1.00  0.00    -0.355 N 
ATOM      4  O   UNL A   1      31.036  27.880  27.894  1.00  0.00    -0.274 OA
ATOM      5  C   UNL A   1      31.840  27.618  27.002  1.00  0.00     0.235 C 
ATOM      6  H   UNL A   1      33.423  28.253  25.863  1.00  0.00     0.163 HD
BRANCH   5   7
ATOM      7  C   UNL A   1      32.023  26.196  26.502  1.00  0.00     0.202 C 
BRANCH   7   8
ATOM      8  N   UNL A   1      31.987  25.922  25.010  1.00  0.00    -0.179 NA
BRANCH   8   9
ATOM      9  C   UNL A   1      32.982  24.796  24.708  1.00  0.00     0.218 C 
BRANCH   9  10
ATOM     10  C   UNL A   1      33.915  24.922  23.484  1.00  0.00     0.402 C 
ATOM     11  F   UNL A   1      35.153  24.453  23.720  1.00  0.00    -0.170 F 
ATOM     12  F   UNL A   1      33.410  24.173  22.469  1.00  0.00    -0.170 F 
ATOM     13  F   UNL A   1      34.001  26.187  23.029  1.00  0.00    -0.170 F 
ENDBRANCH   9  10
ENDBRANCH   8   9
BRANCH   8  14
ATOM     14  S   UNL A   1      30.366  25.709  24.451  1.00  0.00     0.243 S 
ATOM     15  O   UNL A   1      30.370  24.638  23.481  1.00  0.00    -0.207 OA
ATOM     16  O   UNL A   1      29.545  25.627  25.636  1.00  0.00    -0.207 OA
BRANCH  14  17
ATOM     17  C   UNL A   1      29.861  27.205  23.611  1.00  0.00     0.085 A 
ATOM     18  C   UNL A   1      30.858  28.095  23.175  1.00  0.00     0.022 A 
ATOM     19  C   UNL A   1      28.523  27.582  23.501  1.00  0.00     0.061 A 
ATOM     20  C   UNL A   1      30.513  29.332  22.616  1.00  0.00     0.004 A 
ATOM     21  C   UNL A   1      28.193  28.801  22.913  1.00  0.00     0.124 A 
ATOM     22  C   UNL A   1      29.173  29.680  22.474  1.00  0.00     0.039 A 
ATOM     23  F   UNL A   1      26.903  29.136  22.787  1.00  0.00    -0.207 F 
ENDBRANCH  14  17
ENDBRANCH   8  14
ENDBRANCH   7   8
ENDBRANCH   5   7
ENDBRANCH   2   3
ENDBRANCH   1   2
BRANCH   1  24
ATOM     24  C   UNL A   1      31.371  32.163  26.501  1.00  0.00     0.023 C 
BRANCH  24  25
ATOM     25  C   UNL A   1      32.536  32.803  27.251  1.00  0.00     0.116 C 
BRANCH  25  26
ATOM     26  N   UNL A   1      32.294  34.187  27.625  1.00  0.00    -0.352 N 
ATOM     27  C   UNL A   1      32.945  34.971  28.548  1.00  0.00     0.251 C 
ATOM     28  H   UNL A   1      31.555  34.627  27.148  1.00  0.00     0.163 HD
ATOM     29  O   UNL A   1      32.527  36.097  28.800  1.00  0.00    -0.269 OA
BRANCH  27  30
ATOM     30  C   UNL A   1      34.130  34.454  29.271  1.00  0.00     0.039 A 
ATOM     31  C   UNL A   1      33.940  33.840  30.513  1.00  0.00     0.014 A 
ATOM     32  C   UNL A   1      35.419  34.576  28.745  1.00  0.00     0.014 A 
ATOM     33  C   UNL A   1      35.027  33.283  31.190  1.00  0.00     0.010 A 
ATOM     34  C   UNL A   1      36.494  33.967  29.391  1.00  0.00     0.010 A 
ATOM     35  C   UNL A   1      36.308  33.306  30.615  1.00  0.00    -0.014 A 
BRANCH  35  36
ATOM     36  C   UNL A   1      37.458  32.629  31.268  1.00  0.00     0.031 A 
ATOM     37  C   UNL A   1      38.169  31.500  30.578  1.00  0.00     0.074 A 
ATOM     38  C   UNL A   1      37.822  32.991  32.514  1.00  0.00     0.049 A 
ATOM     39  N   UNL A   1      39.130  30.731  31.026  1.00  0.00    -0.248 NA
ATOM     40  C   UNL A   1      37.730  31.178  29.211  1.00  0.00     0.031 C 
ATOM     41  C   UNL A   1      37.191  34.048  33.305  1.00  0.00     0.029 A 
ATOM     42  N   UNL A   1      38.807  32.502  33.337  1.00  0.00    -0.354 N 
ATOM     43  C   UNL A   1      39.400  29.830  30.006  1.00  0.00     0.074 A 
ATOM     44  C   UNL A   1      38.475  30.118  28.930  1.00  0.00     0.031 C 
ATOM     45  C   UNL A   1      37.816  34.143  34.489  1.00  0.00     0.029 A 
ATOM     46  C   UNL A   1      38.866  33.131  34.557  1.00  0.00     0.049 A 
ATOM     47  H   UNL A   1      39.412  31.770  33.079  1.00  0.00     0.167 HD
ATOM     48  C   UNL A   1      40.348  28.864  29.963  1.00  0.00     0.037 A 
ATOM     49  C   UNL A   1      39.671  32.912  35.616  1.00  0.00     0.037 A 
ATOM     50  C   UNL A   1      41.289  28.598  31.019  1.00  0.00     0.049 A 
ATOM     51  C   UNL A   1      40.713  31.831  35.543  1.00  0.00     0.074 A 
ATOM     52  C   UNL A   1      42.315  27.669  31.044  1.00  0.00     0.029 A 
ATOM     53  N   UNL A   1      41.323  29.265  32.235  1.00  0.00    -0.354 N 
ATOM     54  N   UNL A   1      40.979  31.008  34.560  1.00  0.00    -0.248 NA
ATOM     55  C   UNL A   1      41.565  31.648  36.727  1.00  0.00     0.031 C 
ATOM     56  C   UNL A   1      42.949  27.750  32.287  1.00  0.00     0.029 A 
ATOM     57  C   UNL A   1      42.345  28.757  33.021  1.00  0.00     0.049 A 
ATOM     58  H   UNL A   1      40.713  29.991  32.498  1.00  0.00     0.167 HD
ATOM     59  C   UNL A   1      42.040  30.225  34.995  1.00  0.00     0.074 A 
ATOM     60  C   UNL A   1      42.377  30.677  36.328  1.00  0.00     0.031 C 
ATOM     61  C   UNL A   1      42.674  29.221  34.345  1.00  0.00     0.037 A 
BRANCH  48  62
ATOM     62  C   UNL A   1      40.433  28.024  28.724  1.00  0.00     0.064 A 
ATOM     63  C   UNL A   1      39.776  26.786  28.655  1.00  0.00     0.173 A 
ATOM     64  C   UNL A   1      41.226  28.410  27.633  1.00  0.00     0.173 A 
ATOM     65  F   UNL A   1      39.011  26.369  29.675  1.00  0.00    -0.203 F 
ATOM     66  C   UNL A   1      39.919  25.961  27.543  1.00  0.00     0.198 A 
ATOM     67  C   UNL A   1      41.346  27.594  26.512  1.00  0.00     0.198 A 
ATOM     68  F   UNL A   1      41.866  29.589  27.648  1.00  0.00    -0.203 F 
ATOM     69  F   UNL A   1      39.305  24.770  27.509  1.00  0.00    -0.200 F 
ATOM     70  C   UNL A   1      40.701  26.367  26.471  1.00  0.00     0.200 A 
ATOM     71  F   UNL A   1      42.084  27.997  25.469  1.00  0.00    -0.200 F 
ATOM     72  F   UNL A   1      40.831  25.575  25.397  1.00  0.00    -0.200 F 
ENDBRANCH  48  62
BRANCH  49  73
ATOM     73  C   UNL A   1      39.535  33.761  36.827  1.00  0.00     0.064 A 
ATOM     74  C   UNL A   1      38.731  33.371  37.908  1.00  0.00     0.173 A 
ATOM     75  C   UNL A   1      40.190  34.997  36.912  1.00  0.00     0.173 A 
ATOM     76  F   UNL A   1      38.079  32.198  37.870  1.00  0.00    -0.203 F 
ATOM     77  C   UNL A   1      38.576  34.193  39.021  1.00  0.00     0.198 A 
ATOM     78  C   UNL A   1      40.053  35.807  38.036  1.00  0.00     0.198 A 
ATOM     79  F   UNL A   1      40.987  35.402  35.912  1.00  0.00    -0.203 F 
ATOM     80  F   UNL A   1      37.778  33.810  40.028  1.00  0.00    -0.200 F 
ATOM     81  C   UNL A   1      39.239  35.409  39.087  1.00  0.00     0.200 A 
ATOM     82  F   UNL A   1      40.714  36.971  38.106  1.00  0.00    -0.200 F 
ATOM     83  F   UNL A   1      39.099  36.194  40.162  1.00  0.00    -0.200 F 
ENDBRANCH  49  73
BRANCH  61  84
ATOM     84  C   UNL A   1      43.814  28.546  35.047  1.00  0.00     0.064 A 
ATOM     85  C   UNL A   1      43.581  27.442  35.882  1.00  0.00     0.173 A 
ATOM     86  C   UNL A   1      45.122  29.041  34.959  1.00  0.00     0.173 A 
ATOM     87  F   UNL A   1      42.345  26.937  36.004  1.00  0.00    -0.203 F 
ATOM     88  C   UNL A   1      44.616  26.869  36.616  1.00  0.00     0.198 A 
ATOM     89  C   UNL A   1      46.159  28.451  35.676  1.00  0.00     0.198 A 
ATOM     90  F   UNL A   1      45.395  30.087  34.164  1.00  0.00    -0.203 F 
ATOM     91  F   UNL A   1      44.365  25.836  37.431  1.00  0.00    -0.200 F 
ATOM     92  C   UNL A   1      45.904  27.373  36.510  1.00  0.00     0.200 A 
ATOM     93  F   UNL A   1      47.407  28.925  35.558  1.00  0.00    -0.200 F 
ATOM     94  F   UNL A   1      46.901  26.817  37.212  1.00  0.00    -0.200 F 
ENDBRANCH  61  84
ENDBRANCH  35  36
ENDBRANCH  27  30
ENDBRANCH  25  26
ENDBRANCH  24  25
ENDBRANCH   1  24
TORSDOF 16
ENDMDL
MODEL 2
REMARK VINA RESULT:     -11.8      0.440      7.446
REMARK SMILES O=C(CN(CC(F)(F)F)S(=O)(=O)c1cccc(F)c1)NCCCCNC(=O)c1ccc(-c2c3nc(c(-c4c(F)c(F)c(F)c(F)c4F)c4ccc([nH]4)c(-c4c(F)c(F)c(F)c(F)c4F)c4nc(c(-c5c(F)c(F)c(F)c(F)c5F)c5ccc2[nH]5)C=C4)C=C3)cc1
REMARK SMILES IDX 22 1 21 2 20 3 1 4 2 5 3 7 4 8 5 9 6 10 7 11 8 12 9 13 10 14
REMARK SMILES IDX 11 15 12 16 13 17 14 18 19 19 15 20 17 21 16 22 18 23 23 24
REMARK SMILES IDX 24 25 25 26 26 27 27 29 28 30 29 31 90 32 30 33 89 34 31 35
REMARK SMILES IDX 32 36 33 37 83 38 34 39 88 40 82 41 84 42 35 43 87 44 81 45
REMARK SMILES IDX 80 46 36 48 68 49 48 50 67 51 49 52 52 53 66 54 85 55 50 56
REMARK SMILES IDX 51 57 65 59 86 60 53 61 37 62 38 63 46 64 39 65 40 66 44 67
REMARK SMILES IDX 47 68 41 69 42 70 45 71 43 72 69 73 70 74 78 75 71 76 72 77
REMARK SMILES IDX 76 78 79 79 73 80 74 81 77 82 75 83 54 84 55 85 63 86 56 87
REMARK SMILES IDX 57 88 61 89 64 90 58 91 59 92 62 93 60 94
REMARK H PARENT 20 6 25 28 84 47 52 58
REMARK Flexibility Score: inf
ROOT
ATOM      1  C   UNL A   1      31.435  30.805  25.936  1.00  0.00     0.023 C 
ENDROOT
BRANCH   1   2
ATOM      2  C   UNL A   1      32.506  29.988  26.659  1.00  0.00     0.116 C 
BRANCH   2   3
ATOM      3  N   UNL A   1      32.492  28.585  26.296  1.00  0.00    -0.355 N 
ATOM      4  O   UNL A   1      31.141  27.961  28.039  1.00  0.00    -0.274 OA
ATOM      5  C   UNL A   1      31.729  27.677  26.998  1.00  0.00     0.235 C 
ATOM      6  H   UNL A   1      33.036  28.277  25.535  1.00  0.00     0.163 HD
BRANCH   5   7
ATOM      7  C   UNL A   1      31.782  26.248  26.489  1.00  0.00     0.202 C 
BRANCH   7   8
ATOM      8  N   UNL A   1      31.808  25.991  24.994  1.00  0.00    -0.179 NA
BRANCH   8   9
ATOM      9  C   UNL A   1      32.794  24.850  24.722  1.00  0.00     0.218 C 
BRANCH   9  10
ATOM     10  C   UNL A   1      34.262  25.185  24.380  1.00  0.00     0.402 C 
ATOM     11  F   UNL A   1      35.082  25.086  25.441  1.00  0.00    -0.170 F 
ATOM     12  F   UNL A   1      34.714  24.290  23.464  1.00  0.00    -0.170 F 
ATOM     13  F   UNL A   1      34.397  26.408  23.830  1.00  0.00    -0.170 F 
ENDBRANCH   9  10
ENDBRANCH   8   9
BRANCH   8  14
ATOM     14  S   UNL A   1      30.210  25.817  24.359  1.00  0.00     0.243 S 
ATOM     15  O   UNL A   1      30.228  24.729  23.408  1.00  0.00    -0.207 OA
ATOM     16  O   UNL A   1      29.331  25.781  25.504  1.00  0.00    -0.207 OA
BRANCH  14  17
ATOM     17  C   UNL A   1      29.792  27.313  23.472  1.00  0.00     0.085 A 
ATOM     18  C   UNL A   1      30.833  28.058  22.891  1.00  0.00     0.022 A 
ATOM     19  C   UNL A   1      28.498  27.832  23.455  1.00  0.00     0.061 A 
ATOM     20  C   UNL A   1      30.572  29.293  22.286  1.00  0.00     0.004 A 
ATOM     21  C   UNL A   1      28.247  29.046  22.821  1.00  0.00     0.124 A 
ATOM     22  C   UNL A   1      29.270  29.783  22.241  1.00  0.00     0.039 A 
ATOM     23  F   UNL A   1      26.995  29.518  22.787  1.00  0.00    -0.207 F 
ENDBRANCH  14  17
ENDBRANCH   8  14
ENDBRANCH   7   8
ENDBRANCH   5   7
ENDBRANCH   2   3
ENDBRANCH   1   2
BRANCH   1  24
ATOM     24  C   UNL A   1      31.275  32.245  26.427  1.00  0.00     0.023 C 
BRANCH  24  25
ATOM     25  C   UNL A   1      32.452  32.813  27.216  1.00  0.00     0.116 C 
BRANCH  25  26
ATOM     26  N   UNL A   1      32.269  34.200  27.612  1.00  0.00    -0.352 N 
ATOM     27  C   UNL A   1      32.958  34.944  28.540  1.00  0.00     0.251 C 
ATOM     28  H   UNL A   1      31.545  34.676  27.146  1.00  0.00     0.163 HD
ATOM     29  O   UNL A   1      32.588  36.082  28.811  1.00  0.00    -0.269 OA
BRANCH  27  30
ATOM     30  C   UNL A   1      34.126  34.369  29.246  1.00  0.00     0.039 A 
ATOM     31  C   UNL A   1      33.909  33.675  30.441  1.00  0.00     0.014 A 
ATOM     32  C   UNL A   1      35.425  34.515  28.752  1.00  0.00     0.014 A 
ATOM     33  C   UNL A   1      34.981  33.064  31.097  1.00  0.00     0.010 A 
ATOM     34  C   UNL A   1      36.484  33.854  29.373  1.00  0.00     0.010 A 
ATOM     35  C   UNL A   1      36.271  33.115  30.547  1.00  0.00    -0.014 A 
BRANCH  35  36
ATOM     36  C   UNL A   1      37.404  32.385  31.172  1.00  0.00     0.031 A 
ATOM     37  C   UNL A   1      37.891  32.763  32.541  1.00  0.00     0.074 A 
ATOM     38  C   UNL A   1      38.037  31.418  30.477  1.00  0.00     0.049 A 
ATOM     39  N   UNL A   1      38.920  32.304  33.209  1.00  0.00    -0.248 NA
ATOM     40  C   UNL A   1      37.137  33.810  33.247  1.00  0.00     0.031 C 
ATOM     41  C   UNL A   1      37.683  30.980  29.126  1.00  0.00     0.029 A 
ATOM     42  N   UNL A   1      39.116  30.637  30.808  1.00  0.00    -0.354 N 
ATOM     43  C   UNL A   1      38.943  33.012  34.402  1.00  0.00     0.074 A 
ATOM     44  C   UNL A   1      37.852  33.962  34.353  1.00  0.00     0.031 C 
ATOM     45  C   UNL A   1      38.515  29.995  28.752  1.00  0.00     0.029 A 
ATOM     46  C   UNL A   1      39.483  29.757  29.819  1.00  0.00     0.049 A 
ATOM     47  H   UNL A   1      39.584  30.701  31.672  1.00  0.00     0.167 HD
ATOM     48  C   UNL A   1      39.786  32.868  35.453  1.00  0.00     0.037 A 
ATOM     49  C   UNL A   1      40.491  28.864  29.772  1.00  0.00     0.037 A 
ATOM     50  C   UNL A   1      40.851  31.902  35.516  1.00  0.00     0.049 A 
ATOM     51  C   UNL A   1      41.414  28.727  30.950  1.00  0.00     0.074 A 
ATOM     52  C   UNL A   1      41.726  31.653  36.561  1.00  0.00     0.029 A 
ATOM     53  N   UNL A   1      41.182  31.022  34.498  1.00  0.00    -0.354 N 
ATOM     54  N   UNL A   1      41.405  29.380  32.086  1.00  0.00    -0.248 NA
ATOM     55  C   UNL A   1      42.488  27.729  30.841  1.00  0.00     0.031 C 
ATOM     56  C   UNL A   1      42.608  30.646  36.161  1.00  0.00     0.029 A 
ATOM     57  C   UNL A   1      42.258  30.239  34.884  1.00  0.00     0.049 A 
ATOM     58  H   UNL A   1      40.722  30.962  33.630  1.00  0.00     0.167 HD
ATOM     59  C   UNL A   1      42.453  28.861  32.833  1.00  0.00     0.074 A 
ATOM     60  C   UNL A   1      43.073  27.830  32.028  1.00  0.00     0.031 C 
ATOM     61  C   UNL A   1      42.862  29.211  34.076  1.00  0.00     0.037 A 
BRANCH  48  62
ATOM     62  C   UNL A   1      39.585  33.766  36.636  1.00  0.00     0.064 A 
ATOM     63  C   UNL A   1      40.239  35.005  36.710  1.00  0.00     0.173 A 
ATOM     64  C   UNL A   1      38.806  33.367  37.732  1.00  0.00     0.173 A 
ATOM     65  F   UNL A   1      41.001  35.429  35.692  1.00  0.00    -0.203 F 
ATOM     66  C   UNL A   1      40.127  35.807  37.843  1.00  0.00     0.198 A 
ATOM     67  C   UNL A   1      38.675  34.182  38.853  1.00  0.00     0.198 A 
ATOM     68  F   UNL A   1      38.153  32.195  37.704  1.00  0.00    -0.203 F 
ATOM     69  F   UNL A   1      40.782  36.975  37.904  1.00  0.00    -0.200 F 
ATOM     70  C   UNL A   1      39.342  35.397  38.911  1.00  0.00     0.200 A 
ATOM     71  F   UNL A   1      37.900  33.794  39.874  1.00  0.00    -0.200 F 
ATOM     72  F   UNL A   1      39.229  36.173  39.998  1.00  0.00    -0.200 F 
ENDBRANCH  48  62
BRANCH  49  73
ATOM     73  C   UNL A   1      40.657  28.010  28.568  1.00  0.00     0.064 A 
ATOM     74  C   UNL A   1      41.428  28.429  27.474  1.00  0.00     0.173 A 
ATOM     75  C   UNL A   1      40.021  26.764  28.482  1.00  0.00     0.173 A 
ATOM     76  F   UNL A   1      42.052  29.616  27.508  1.00  0.00    -0.203 F 
ATOM     77  C   UNL A   1      41.543  27.639  26.333  1.00  0.00     0.198 A 
ATOM     78  C   UNL A   1      40.157  25.965  27.349  1.00  0.00     0.198 A 
ATOM     79  F   UNL A   1      39.292  26.312  29.512  1.00  0.00    -0.203 F 
ATOM     80  F   UNL A   1      42.262  28.076  25.289  1.00  0.00    -0.200 F 
ATOM     81  C   UNL A   1      40.911  26.407  26.271  1.00  0.00     0.200 A 
ATOM     82  F   UNL A   1      39.563  24.765  27.303  1.00  0.00    -0.200 F 
ATOM     83  F   UNL A   1      41.031  25.643  25.178  1.00  0.00    -0.200 F 
ENDBRANCH  49  73
BRANCH  61  84
ATOM     84  C   UNL A   1      44.024  28.467  34.661  1.00  0.00     0.064 A 
ATOM     85  C   UNL A   1      45.336  28.922  34.457  1.00  0.00     0.173 A 
ATOM     86  C   UNL A   1      43.845  27.262  35.355  1.00  0.00     0.173 A 
ATOM     87  F   UNL A   1      45.558  30.066  33.793  1.00  0.00    -0.203 F 
ATOM     88  C   UNL A   1      46.427  28.187  34.912  1.00  0.00     0.198 A 
ATOM     89  C   UNL A   1      44.938  26.542  35.830  1.00  0.00     0.198 A 
ATOM     90  F   UNL A   1      42.609  26.793  35.585  1.00  0.00    -0.203 F 
ATOM     91  F   UNL A   1      47.672  28.624  34.678  1.00  0.00    -0.200 F 
ATOM     92  C   UNL A   1      46.226  26.999  35.600  1.00  0.00     0.200 A 
ATOM     93  F   UNL A   1      44.743  25.404  36.511  1.00  0.00    -0.200 F 
ATOM     94  F   UNL A   1      47.277  26.295  36.042  1.00  0.00    -0.200 F 
ENDBRANCH  61  84
ENDBRANCH  35  36
ENDBRANCH  27  30
ENDBRANCH  25  26
ENDBRANCH  24  25
ENDBRANCH   1  24
TORSDOF 16
ENDMDL
MODEL 3
REMARK VINA RESULT:     -11.8      1.302      3.010
REMARK SMILES O=C(CN(CC(F)(F)F)S(=O)(=O)c1cccc(F)c1)NCCCCNC(=O)c1ccc(-c2c3nc(c(-c4c(F)c(F)c(F)c(F)c4F)c4ccc([nH]4)c(-c4c(F)c(F)c(F)c(F)c4F)c4nc(c(-c5c(F)c(F)c(F)c(F)c5F)c5ccc2[nH]5)C=C4)C=C3)cc1
REMARK SMILES IDX 22 1 21 2 20 3 1 4 2 5 3 7 4 8 5 9 6 10 7 11 8 12 9 13 10 14
REMARK SMILES IDX 11 15 12 16 13 17 14 18 19 19 15 20 17 21 16 22 18 23 23 24
REMARK SMILES IDX 24 25 25 26 26 27 27 29 28 30 29 31 90 32 30 33 89 34 31 35
REMARK SMILES IDX 32 36 33 37 83 38 34 39 88 40 82 41 84 42 35 43 87 44 81 45
REMARK SMILES IDX 80 46 36 48 68 49 48 50 67 51 49 52 52 53 66 54 85 55 50 56
REMARK SMILES IDX 51 57 65 59 86 60 53 61 37 62 38 63 46 64 39 65 40 66 44 67
REMARK SMILES IDX 47 68 41 69 42 70 45 71 43 72 69 73 70 74 78 75 71 76 72 77
REMARK SMILES IDX 76 78 79 79 73 80 74 81 77 82 75 83 54 84 55 85 63 86 56 87
REMARK SMILES IDX 57 88 61 89 64 90 58 91 59 92 62 93 60 94
REMARK H PARENT 20 6 25 28 84 47 52 58
REMARK Flexibility Score: inf
ROOT
ATOM      1  C   UNL A   1      31.748  30.563  26.598  1.00  0.00     0.023 C 
ENDROOT
BRANCH   1   2
ATOM      2  C   UNL A   1      33.179  30.194  26.208  1.00  0.00     0.116 C 
BRANCH   2   3
ATOM      3  N   UNL A   1      33.248  29.348  25.033  1.00  0.00    -0.355 N 
ATOM      4  O   UNL A   1      33.797  27.456  26.203  1.00  0.00    -0.274 OA
ATOM      5  C   UNL A   1      33.488  27.996  25.143  1.00  0.00     0.235 C 
ATOM      6  H   UNL A   1      33.121  29.748  24.141  1.00  0.00     0.163 HD
BRANCH   5   7
ATOM      7  C   UNL A   1      33.501  27.226  23.836  1.00  0.00     0.202 C 
BRANCH   7   8
ATOM      8  N   UNL A   1      32.351  26.290  23.513  1.00  0.00    -0.179 NA
BRANCH   8   9
ATOM      9  C   UNL A   1      31.384  27.025  22.579  1.00  0.00     0.218 C 
BRANCH   9  10
ATOM     10  C   UNL A   1      30.088  27.633  23.159  1.00  0.00     0.402 C 
ATOM     11  F   UNL A   1      30.302  28.365  24.266  1.00  0.00    -0.170 F 
ATOM     12  F   UNL A   1      29.551  28.478  22.240  1.00  0.00    -0.170 F 
ATOM     13  F   UNL A   1      29.154  26.698  23.420  1.00  0.00    -0.170 F 
ENDBRANCH   9  10
ENDBRANCH   8   9
BRANCH   8  14
ATOM     14  S   UNL A   1      32.925  24.746  22.992  1.00  0.00     0.243 S 
ATOM     15  O   UNL A   1      31.808  23.830  23.005  1.00  0.00    -0.207 OA
ATOM     16  O   UNL A   1      33.665  24.989  21.775  1.00  0.00    -0.207 OA
BRANCH  14  17
ATOM     17  C   UNL A   1      34.125  24.162  24.182  1.00  0.00     0.085 A 
ATOM     18  C   UNL A   1      35.412  23.826  23.724  1.00  0.00     0.022 A 
ATOM     19  C   UNL A   1      33.790  23.898  25.510  1.00  0.00     0.061 A 
ATOM     20  C   UNL A   1      36.350  23.257  24.592  1.00  0.00     0.004 A 
ATOM     21  C   UNL A   1      34.744  23.362  26.371  1.00  0.00     0.124 A 
ATOM     22  C   UNL A   1      36.018  23.035  25.926  1.00  0.00     0.039 A 
ATOM     23  F   UNL A   1      34.417  23.142  27.650  1.00  0.00    -0.207 F 
ENDBRANCH  14  17
ENDBRANCH   8  14
ENDBRANCH   7   8
ENDBRANCH   5   7
ENDBRANCH   2   3
ENDBRANCH   1   2
BRANCH   1  24
ATOM     24  C   UNL A   1      31.496  32.058  26.803  1.00  0.00     0.023 C 
BRANCH  24  25
ATOM     25  C   UNL A   1      32.724  32.898  27.143  1.00  0.00     0.116 C 
BRANCH  25  26
ATOM     26  N   UNL A   1      32.399  34.240  27.600  1.00  0.00    -0.352 N 
ATOM     27  C   UNL A   1      32.983  34.992  28.592  1.00  0.00     0.251 C 
ATOM     28  H   UNL A   1      31.652  34.674  27.129  1.00  0.00     0.163 HD
ATOM     29  O   UNL A   1      32.499  36.076  28.904  1.00  0.00    -0.269 OA
BRANCH  27  30
ATOM     30  C   UNL A   1      34.172  34.488  29.316  1.00  0.00     0.039 A 
ATOM     31  C   UNL A   1      33.986  33.866  30.556  1.00  0.00     0.014 A 
ATOM     32  C   UNL A   1      35.461  34.630  28.796  1.00  0.00     0.014 A 
ATOM     33  C   UNL A   1      35.078  33.320  31.234  1.00  0.00     0.010 A 
ATOM     34  C   UNL A   1      36.542  34.032  29.442  1.00  0.00     0.010 A 
ATOM     35  C   UNL A   1      36.360  33.364  30.663  1.00  0.00    -0.014 A 
BRANCH  35  36
ATOM     36  C   UNL A   1      37.517  32.699  31.317  1.00  0.00     0.031 A 
ATOM     37  C   UNL A   1      38.223  31.559  30.641  1.00  0.00     0.074 A 
ATOM     38  C   UNL A   1      37.894  33.084  32.552  1.00  0.00     0.049 A 
ATOM     39  N   UNL A   1      39.188  30.798  31.094  1.00  0.00    -0.248 NA
ATOM     40  C   UNL A   1      37.771  31.211  29.285  1.00  0.00     0.031 C 
ATOM     41  C   UNL A   1      37.269  34.155  33.330  1.00  0.00     0.029 A 
ATOM     42  N   UNL A   1      38.886  32.611  33.375  1.00  0.00    -0.354 N 
ATOM     43  C   UNL A   1      39.449  29.878  30.088  1.00  0.00     0.074 A 
ATOM     44  C   UNL A   1      38.513  30.146  29.016  1.00  0.00     0.031 C 
ATOM     45  C   UNL A   1      37.906  34.272  34.507  1.00  0.00     0.029 A 
ATOM     46  C   UNL A   1      38.957  33.262  34.582  1.00  0.00     0.049 A 
ATOM     47  H   UNL A   1      39.490  31.875  33.124  1.00  0.00     0.167 HD
ATOM     48  C   UNL A   1      40.398  28.913  30.053  1.00  0.00     0.037 A 
ATOM     49  C   UNL A   1      39.772  33.063  35.637  1.00  0.00     0.037 A 
ATOM     50  C   UNL A   1      41.349  28.666  31.104  1.00  0.00     0.049 A 
ATOM     51  C   UNL A   1      40.814  31.982  35.574  1.00  0.00     0.074 A 
ATOM     52  C   UNL A   1      42.376  27.739  31.136  1.00  0.00     0.029 A 
ATOM     53  N   UNL A   1      41.394  29.356  32.307  1.00  0.00    -0.354 N 
ATOM     54  N   UNL A   1      41.072  31.140  34.603  1.00  0.00    -0.248 NA
ATOM     55  C   UNL A   1      41.678  31.820  36.753  1.00  0.00     0.031 C 
ATOM     56  C   UNL A   1      43.022  27.843  32.371  1.00  0.00     0.029 A 
ATOM     57  C   UNL A   1      42.424  28.862  33.092  1.00  0.00     0.049 A 
ATOM     58  H   UNL A   1      40.786  30.086  32.564  1.00  0.00     0.167 HD
ATOM     59  C   UNL A   1      42.137  30.366  35.042  1.00  0.00     0.074 A 
ATOM     60  C   UNL A   1      42.487  30.843  36.363  1.00  0.00     0.031 C 
ATOM     61  C   UNL A   1      42.766  29.351  34.404  1.00  0.00     0.037 A 
BRANCH  48  62
ATOM     62  C   UNL A   1      40.470  28.050  28.829  1.00  0.00     0.064 A 
ATOM     63  C   UNL A   1      39.790  26.825  28.778  1.00  0.00     0.173 A 
ATOM     64  C   UNL A   1      41.275  28.402  27.735  1.00  0.00     0.173 A 
ATOM     65  F   UNL A   1      39.013  26.440  29.801  1.00  0.00    -0.203 F 
ATOM     66  C   UNL A   1      39.922  25.978  27.680  1.00  0.00     0.198 A 
ATOM     67  C   UNL A   1      41.384  27.565  26.628  1.00  0.00     0.198 A 
ATOM     68  F   UNL A   1      41.938  29.569  27.732  1.00  0.00    -0.203 F 
ATOM     69  F   UNL A   1      39.285  24.799  27.664  1.00  0.00    -0.200 F 
ATOM     70  C   UNL A   1      40.715  26.351  26.605  1.00  0.00     0.200 A 
ATOM     71  F   UNL A   1      42.134  27.936  25.581  1.00  0.00    -0.200 F 
ATOM     72  F   UNL A   1      40.834  25.538  25.546  1.00  0.00    -0.200 F 
ENDBRANCH  48  62
BRANCH  49  73
ATOM     73  C   UNL A   1      39.647  33.934  36.834  1.00  0.00     0.064 A 
ATOM     74  C   UNL A   1      40.323  35.160  36.921  1.00  0.00     0.173 A 
ATOM     75  C   UNL A   1      38.864  33.539  37.927  1.00  0.00     0.173 A 
ATOM     76  F   UNL A   1      41.088  35.578  35.901  1.00  0.00    -0.203 F 
ATOM     77  C   UNL A   1      40.233  35.949  38.064  1.00  0.00     0.198 A 
ATOM     78  C   UNL A   1      38.757  34.342  39.061  1.00  0.00     0.198 A 
ATOM     79  F   UNL A   1      38.182  32.386  37.880  1.00  0.00    -0.203 F 
ATOM     80  F   UNL A   1      40.912  37.103  38.134  1.00  0.00    -0.200 F 
ATOM     81  C   UNL A   1      39.447  35.543  39.132  1.00  0.00     0.200 A 
ATOM     82  F   UNL A   1      37.979  33.955  40.081  1.00  0.00    -0.200 F 
ATOM     83  F   UNL A   1      39.352  36.308  40.227  1.00  0.00    -0.200 F 
ENDBRANCH  49  73
BRANCH  61  84
ATOM     84  C   UNL A   1      43.913  28.690  35.108  1.00  0.00     0.064 A 
ATOM     85  C   UNL A   1      43.683  27.644  36.015  1.00  0.00     0.173 A 
ATOM     86  C   UNL A   1      45.229  29.145  34.946  1.00  0.00     0.173 A 
ATOM     87  F   UNL A   1      42.440  27.179  36.208  1.00  0.00    -0.203 F 
ATOM     88  C   UNL A   1      44.729  27.088  36.747  1.00  0.00     0.198 A 
ATOM     89  C   UNL A   1      46.276  28.571  35.663  1.00  0.00     0.198 A 
ATOM     90  F   UNL A   1      45.499  30.135  34.081  1.00  0.00    -0.203 F 
ATOM     91  F   UNL A   1      44.482  26.112  37.631  1.00  0.00    -0.200 F 
ATOM     92  C   UNL A   1      46.024  27.552  36.568  1.00  0.00     0.200 A 
ATOM     93  F   UNL A   1      47.530  29.005  35.476  1.00  0.00    -0.200 F 
ATOM     94  F   UNL A   1      47.031  27.013  37.269  1.00  0.00    -0.200 F 
ENDBRANCH  61  84
ENDBRANCH  35  36
ENDBRANCH  27  30
ENDBRANCH  25  26
ENDBRANCH  24  25
ENDBRANCH   1  24
TORSDOF 16
ENDMDL
