MODEL 1
REMARK VINA RESULT:     -12.2      0.000      0.000
REMARK SMILES COc1ccc(-c2nc(SCC(=O)NCCCCNC(=O)c3ccc(-c4c5nc(c(-c6c(F)c(F)c(F)c(F)c6F)c6ccc([nH]6)c(-c6c(F)c(F)c(F)c(F)c6F)c6nc(c(-c7c(F)c(F)c(F)c(F)c7F)c7ccc4[nH]7)C=C6)C=C5)cc3)cc(-c3ccncc3)n2)cc1
REMARK SMILES IDX 15 1 14 2 12 3 13 4 11 6 10 7 9 8 7 9 8 10 93 11 86 12 85 13
REMARK SMILES IDX 6 14 3 15 4 16 95 17 5 18 94 19 2 20 1 21 87 22 88 23 92 24
REMARK SMILES IDX 89 25 91 26 90 27 16 28 17 29 18 30 19 31 20 32 21 34 22 35
REMARK SMILES IDX 23 36 84 37 24 38 83 39 25 40 26 41 27 42 77 43 28 44 82 45
REMARK SMILES IDX 76 46 78 47 29 48 81 49 75 50 74 51 30 53 62 54 42 55 61 56
REMARK SMILES IDX 43 57 46 58 60 59 79 60 44 61 45 62 59 64 80 65 47 66 31 67
REMARK SMILES IDX 32 68 40 69 33 70 34 71 38 72 41 73 35 74 36 75 39 76 37 77
REMARK SMILES IDX 63 78 64 79 72 80 65 81 66 82 70 83 73 84 67 85 68 86 71 87
REMARK SMILES IDX 69 88 48 89 49 90 57 91 50 92 51 93 55 94 58 95 52 96 53 97
REMARK SMILES IDX 56 98 54 99
REMARK H PARENT 14 5 19 33 78 52 46 63
REMARK Flexibility Score: inf
ROOT
ATOM      1  C   UNL A   1      32.503  25.331  26.141  1.00  0.00     0.116 C 
ENDROOT
BRANCH   1   2
ATOM      2  N   UNL A   1      31.315  25.583  25.352  1.00  0.00    -0.355 N 
ATOM      3  C   UNL A   1      30.782  24.849  24.339  1.00  0.00     0.230 C 
ATOM      4  O   UNL A   1      29.812  25.323  23.740  1.00  0.00    -0.274 OA
ATOM      5  H   UNL A   1      30.822  26.403  25.582  1.00  0.00     0.163 HD
BRANCH   3   6
ATOM      6  C   UNL A   1      31.309  23.466  24.001  1.00  0.00     0.176 C 
BRANCH   6   7
ATOM      7  S   UNL A   1      32.774  23.445  22.922  1.00  0.00    -0.096 SA
BRANCH   7   8
ATOM      8  C   UNL A   1      33.991  22.494  23.801  1.00  0.00     0.101 A 
ATOM      9  C   UNL A   1      34.505  20.415  24.636  1.00  0.00     0.161 A 
ATOM     10  N   UNL A   1      33.652  21.203  23.959  1.00  0.00    -0.222 NA
ATOM     11  N   UNL A   1      35.659  20.827  25.185  1.00  0.00    -0.228 NA
ATOM     12  C   UNL A   1      35.979  22.120  24.990  1.00  0.00     0.076 A 
ATOM     13  C   UNL A   1      35.181  22.988  24.272  1.00  0.00     0.064 A 
BRANCH   9  14
ATOM     14  C   UNL A   1      34.155  18.994  24.748  1.00  0.00     0.019 A 
ATOM     15  C   UNL A   1      33.461  16.263  24.987  1.00  0.00     0.118 A 
ATOM     16  C   UNL A   1      32.517  17.253  25.251  1.00  0.00     0.047 A 
ATOM     17  C   UNL A   1      34.743  16.626  24.580  1.00  0.00     0.047 A 
ATOM     18  C   UNL A   1      32.865  18.603  25.152  1.00  0.00     0.016 A 
ATOM     19  C   UNL A   1      35.082  17.981  24.454  1.00  0.00     0.016 A 
BRANCH  15  20
ATOM     20  O   UNL A   1      33.013  14.974  25.093  1.00  0.00    -0.497 OA
ATOM     21  C   UNL A   1      31.867  14.807  25.921  1.00  0.00     0.278 C 
ENDBRANCH  15  20
ENDBRANCH   9  14
BRANCH  12  22
ATOM     22  C   UNL A   1      37.245  22.582  25.563  1.00  0.00     0.003 A 
ATOM     23  C   UNL A   1      38.331  21.709  25.705  1.00  0.00     0.030 A 
ATOM     24  C   UNL A   1      37.380  23.886  26.048  1.00  0.00     0.030 A 
ATOM     25  C   UNL A   1      39.480  22.166  26.327  1.00  0.00     0.111 A 
ATOM     26  C   UNL A   1      38.565  24.247  26.665  1.00  0.00     0.111 A 
ATOM     27  N   UNL A   1      39.617  23.415  26.818  1.00  0.00    -0.265 NA
ENDBRANCH  12  22
ENDBRANCH   7   8
ENDBRANCH   6   7
ENDBRANCH   3   6
ENDBRANCH   1   2
BRANCH   1  28
ATOM     28  C   UNL A   1      33.673  26.194  25.665  1.00  0.00     0.023 C 
BRANCH  28  29
ATOM     29  C   UNL A   1      33.264  27.477  24.932  1.00  0.00     0.023 C 
BRANCH  29  30
ATOM     30  C   UNL A   1      34.082  28.716  25.282  1.00  0.00     0.116 C 
BRANCH  30  31
ATOM     31  N   UNL A   1      33.255  29.856  25.645  1.00  0.00    -0.352 N 
ATOM     32  C   UNL A   1      33.379  30.719  26.706  1.00  0.00     0.251 C 
ATOM     33  H   UNL A   1      32.498  30.035  25.042  1.00  0.00     0.163 HD
ATOM     34  O   UNL A   1      32.502  31.548  26.931  1.00  0.00    -0.269 OA
BRANCH  32  35
ATOM     35  C   UNL A   1      34.552  30.627  27.601  1.00  0.00     0.039 A 
ATOM     36  C   UNL A   1      34.748  29.453  28.332  1.00  0.00     0.014 A 
ATOM     37  C   UNL A   1      35.456  31.686  27.716  1.00  0.00     0.014 A 
ATOM     38  C   UNL A   1      35.889  29.315  29.125  1.00  0.00     0.010 A 
ATOM     39  C   UNL A   1      36.630  31.516  28.447  1.00  0.00     0.010 A 
ATOM     40  C   UNL A   1      36.860  30.329  29.159  1.00  0.00    -0.014 A 
BRANCH  40  41
ATOM     41  C   UNL A   1      38.123  30.159  29.924  1.00  0.00     0.031 A 
ATOM     42  C   UNL A   1      39.252  29.347  29.351  1.00  0.00     0.074 A 
ATOM     43  C   UNL A   1      38.232  30.685  31.159  1.00  0.00     0.049 A 
ATOM     44  N   UNL A   1      40.399  29.022  29.894  1.00  0.00    -0.248 NA
ATOM     45  C   UNL A   1      39.058  28.807  27.996  1.00  0.00     0.031 C 
ATOM     46  C   UNL A   1      37.191  31.453  31.845  1.00  0.00     0.029 A 
ATOM     47  N   UNL A   1      39.263  30.643  32.065  1.00  0.00    -0.354 N 
ATOM     48  C   UNL A   1      41.057  28.243  28.953  1.00  0.00     0.074 A 
ATOM     49  C   UNL A   1      40.158  28.088  27.830  1.00  0.00     0.031 C 
ATOM     50  C   UNL A   1      37.641  31.823  33.055  1.00  0.00     0.029 A 
ATOM     51  C   UNL A   1      38.983  31.283  33.249  1.00  0.00     0.049 A 
ATOM     52  H   UNL A   1      40.122  30.198  31.883  1.00  0.00     0.167 HD
ATOM     53  C   UNL A   1      42.308  27.726  29.007  1.00  0.00     0.037 A 
ATOM     54  C   UNL A   1      39.719  31.407  34.369  1.00  0.00     0.037 A 
ATOM     55  C   UNL A   1      43.204  27.891  30.122  1.00  0.00     0.049 A 
ATOM     56  C   UNL A   1      41.098  30.802  34.413  1.00  0.00     0.074 A 
ATOM     57  C   UNL A   1      44.504  27.435  30.258  1.00  0.00     0.029 A 
ATOM     58  N   UNL A   1      42.892  28.562  31.295  1.00  0.00    -0.354 N 
ATOM     59  N   UNL A   1      41.732  30.118  33.492  1.00  0.00    -0.248 NA
ATOM     60  C   UNL A   1      41.867  30.994  35.651  1.00  0.00     0.031 C 
ATOM     61  C   UNL A   1      44.961  27.786  31.531  1.00  0.00     0.029 A 
ATOM     62  C   UNL A   1      43.969  28.515  32.167  1.00  0.00     0.049 A 
ATOM     63  H   UNL A   1      42.033  29.005  31.481  1.00  0.00     0.167 HD
ATOM     64  C   UNL A   1      42.981  29.826  34.024  1.00  0.00     0.074 A 
ATOM     65  C   UNL A   1      43.022  30.423  35.342  1.00  0.00     0.031 C 
ATOM     66  C   UNL A   1      44.001  29.124  33.472  1.00  0.00     0.037 A 
BRANCH  53  67
ATOM     67  C   UNL A   1      42.789  26.943  27.820  1.00  0.00     0.064 A 
ATOM     68  C   UNL A   1      43.509  27.554  26.781  1.00  0.00     0.173 A 
ATOM     69  C   UNL A   1      42.573  25.559  27.740  1.00  0.00     0.173 A 
ATOM     70  F   UNL A   1      43.733  28.877  26.802  1.00  0.00    -0.203 F 
ATOM     71  C   UNL A   1      43.969  26.815  25.694  1.00  0.00     0.198 A 
ATOM     72  C   UNL A   1      43.065  24.816  26.669  1.00  0.00     0.198 A 
ATOM     73  F   UNL A   1      41.898  24.922  28.708  1.00  0.00    -0.203 F 
ATOM     74  F   UNL A   1      44.611  27.430  24.692  1.00  0.00    -0.200 F 
ATOM     75  C   UNL A   1      43.755  25.445  25.644  1.00  0.00     0.200 A 
ATOM     76  F   UNL A   1      42.870  23.491  26.628  1.00  0.00    -0.200 F 
ATOM     77  F   UNL A   1      44.209  24.733  24.603  1.00  0.00    -0.200 F 
ENDBRANCH  53  67
BRANCH  54  78
ATOM     78  C   UNL A   1      39.172  32.136  35.545  1.00  0.00     0.064 A 
ATOM     79  C   UNL A   1      39.422  33.504  35.731  1.00  0.00     0.173 A 
ATOM     80  C   UNL A   1      38.408  31.477  36.519  1.00  0.00     0.173 A 
ATOM     81  F   UNL A   1      40.164  34.176  34.838  1.00  0.00    -0.203 F 
ATOM     82  C   UNL A   1      38.957  34.175  36.860  1.00  0.00     0.198 A 
ATOM     83  C   UNL A   1      37.914  32.157  37.630  1.00  0.00     0.198 A 
ATOM     84  F   UNL A   1      38.133  30.170  36.388  1.00  0.00    -0.203 F 
ATOM     85  F   UNL A   1      39.262  35.466  37.042  1.00  0.00    -0.200 F 
ATOM     86  C   UNL A   1      38.199  33.502  37.806  1.00  0.00     0.200 A 
ATOM     87  F   UNL A   1      37.167  31.507  38.534  1.00  0.00    -0.200 F 
ATOM     88  F   UNL A   1      37.752  34.147  38.892  1.00  0.00    -0.200 F 
ENDBRANCH  54  78
BRANCH  66  89
ATOM     89  C   UNL A   1      45.266  28.998  34.273  1.00  0.00     0.064 A 
ATOM     90  C   UNL A   1      46.260  29.988  34.247  1.00  0.00     0.173 A 
ATOM     91  C   UNL A   1      45.467  27.889  35.109  1.00  0.00     0.173 A 
ATOM     92  F   UNL A   1      46.123  31.061  33.453  1.00  0.00    -0.203 F 
ATOM     93  C   UNL A   1      47.421  29.857  35.004  1.00  0.00     0.198 A 
ATOM     94  C   UNL A   1      46.613  27.779  35.891  1.00  0.00     0.198 A 
ATOM     95  F   UNL A   1      44.544  26.917  35.179  1.00  0.00    -0.203 F 
ATOM     96  F   UNL A   1      48.380  30.788  34.921  1.00  0.00    -0.200 F 
ATOM     97  C   UNL A   1      47.593  28.757  35.832  1.00  0.00     0.200 A 
ATOM     98  F   UNL A   1      46.770  26.724  36.703  1.00  0.00    -0.200 F 
ATOM     99  F   UNL A   1      48.707  28.637  36.566  1.00  0.00    -0.200 F 
ENDBRANCH  66  89
ENDBRANCH  40  41
ENDBRANCH  32  35
ENDBRANCH  30  31
ENDBRANCH  29  30
ENDBRANCH  28  29
ENDBRANCH   1  28
TORSDOF 16
ENDMDL
MODEL 2
REMARK VINA RESULT:     -11.9      3.284      9.236
REMARK SMILES COc1ccc(-c2nc(SCC(=O)NCCCCNC(=O)c3ccc(-c4c5nc(c(-c6c(F)c(F)c(F)c(F)c6F)c6ccc([nH]6)c(-c6c(F)c(F)c(F)c(F)c6F)c6nc(c(-c7c(F)c(F)c(F)c(F)c7F)c7ccc4[nH]7)C=C6)C=C5)cc3)cc(-c3ccncc3)n2)cc1
REMARK SMILES IDX 15 1 14 2 12 3 13 4 11 6 10 7 9 8 7 9 8 10 93 11 86 12 85 13
REMARK SMILES IDX 6 14 3 15 4 16 95 17 5 18 94 19 2 20 1 21 87 22 88 23 92 24
REMARK SMILES IDX 89 25 91 26 90 27 16 28 17 29 18 30 19 31 20 32 21 34 22 35
REMARK SMILES IDX 23 36 84 37 24 38 83 39 25 40 26 41 27 42 77 43 28 44 82 45
REMARK SMILES IDX 76 46 78 47 29 48 81 49 75 50 74 51 30 53 62 54 42 55 61 56
REMARK SMILES IDX 43 57 46 58 60 59 79 60 44 61 45 62 59 64 80 65 47 66 31 67
REMARK SMILES IDX 32 68 40 69 33 70 34 71 38 72 41 73 35 74 36 75 39 76 37 77
REMARK SMILES IDX 63 78 64 79 72 80 65 81 66 82 70 83 73 84 67 85 68 86 71 87
REMARK SMILES IDX 69 88 48 89 49 90 57 91 50 92 51 93 55 94 58 95 52 96 53 97
REMARK SMILES IDX 56 98 54 99
REMARK H PARENT 14 5 19 33 78 52 46 63
REMARK Flexibility Score: inf
ROOT
ATOM      1  C   UNL A   1      35.376  33.156  27.998  1.00  0.00     0.116 C 
ENDROOT
BRANCH   1   2
ATOM      2  N   UNL A   1      35.860  31.791  28.031  1.00  0.00    -0.355 N 
ATOM      3  C   UNL A   1      35.240  30.647  27.637  1.00  0.00     0.230 C 
ATOM      4  O   UNL A   1      35.818  29.579  27.861  1.00  0.00    -0.274 OA
ATOM      5  H   UNL A   1      36.771  31.675  28.388  1.00  0.00     0.163 HD
BRANCH   3   6
ATOM      6  C   UNL A   1      33.922  30.679  26.884  1.00  0.00     0.176 C 
BRANCH   6   7
ATOM      7  S   UNL A   1      32.766  29.339  27.303  1.00  0.00    -0.096 SA
BRANCH   7   8
ATOM      8  C   UNL A   1      31.920  28.957  25.787  1.00  0.00     0.101 A 
ATOM      9  C   UNL A   1      31.623  27.369  24.152  1.00  0.00     0.161 A 
ATOM     10  N   UNL A   1      32.201  27.732  25.310  1.00  0.00    -0.222 NA
ATOM     11  N   UNL A   1      30.804  28.148  23.426  1.00  0.00    -0.228 NA
ATOM     12  C   UNL A   1      30.527  29.360  23.942  1.00  0.00     0.076 A 
ATOM     13  C   UNL A   1      31.044  29.796  25.146  1.00  0.00     0.064 A 
BRANCH   9  14
ATOM     14  C   UNL A   1      31.887  26.007  23.674  1.00  0.00     0.019 A 
ATOM     15  C   UNL A   1      32.397  23.372  22.781  1.00  0.00     0.118 A 
ATOM     16  C   UNL A   1      31.632  23.591  23.925  1.00  0.00     0.047 A 
ATOM     17  C   UNL A   1      32.889  24.461  22.064  1.00  0.00     0.047 A 
ATOM     18  C   UNL A   1      31.396  24.892  24.377  1.00  0.00     0.016 A 
ATOM     19  C   UNL A   1      32.627  25.767  22.505  1.00  0.00     0.016 A 
BRANCH  15  20
ATOM     20  O   UNL A   1      32.552  22.063  22.412  1.00  0.00    -0.497 OA
ATOM     21  C   UNL A   1      32.413  21.125  23.473  1.00  0.00     0.278 C 
ENDBRANCH  15  20
ENDBRANCH   9  14
BRANCH  12  22
ATOM     22  C   UNL A   1      29.620  30.214  23.175  1.00  0.00     0.003 A 
ATOM     23  C   UNL A   1      29.503  30.073  21.786  1.00  0.00     0.030 A 
ATOM     24  C   UNL A   1      28.900  31.239  23.796  1.00  0.00     0.030 A 
ATOM     25  C   UNL A   1      28.695  30.956  21.089  1.00  0.00     0.111 A 
ATOM     26  C   UNL A   1      28.128  32.079  23.012  1.00  0.00     0.111 A 
ATOM     27  N   UNL A   1      28.012  31.962  21.672  1.00  0.00    -0.265 NA
ENDBRANCH  12  22
ENDBRANCH   7   8
ENDBRANCH   6   7
ENDBRANCH   3   6
ENDBRANCH   1   2
BRANCH   1  28
ATOM     28  C   UNL A   1      34.363  33.406  29.116  1.00  0.00     0.023 C 
BRANCH  28  29
ATOM     29  C   UNL A   1      33.281  34.438  28.779  1.00  0.00     0.023 C 
BRANCH  29  30
ATOM     30  C   UNL A   1      33.488  35.822  29.385  1.00  0.00     0.116 C 
BRANCH  30  31
ATOM     31  N   UNL A   1      32.554  36.115  30.461  1.00  0.00    -0.352 N 
ATOM     32  C   UNL A   1      32.615  35.762  31.786  1.00  0.00     0.251 C 
ATOM     33  H   UNL A   1      31.765  36.643  30.200  1.00  0.00     0.163 HD
ATOM     34  O   UNL A   1      31.660  35.984  32.526  1.00  0.00    -0.269 OA
BRANCH  32  35
ATOM     35  C   UNL A   1      33.815  35.083  32.317  1.00  0.00     0.039 A 
ATOM     36  C   UNL A   1      33.680  33.800  32.852  1.00  0.00     0.014 A 
ATOM     37  C   UNL A   1      35.068  35.702  32.285  1.00  0.00     0.014 A 
ATOM     38  C   UNL A   1      34.811  33.109  33.290  1.00  0.00     0.010 A 
ATOM     39  C   UNL A   1      36.204  34.982  32.651  1.00  0.00     0.010 A 
ATOM     40  C   UNL A   1      36.088  33.679  33.156  1.00  0.00    -0.014 A 
BRANCH  40  41
ATOM     41  C   UNL A   1      37.311  32.920  33.531  1.00  0.00     0.031 A 
ATOM     42  C   UNL A   1      38.033  33.232  34.812  1.00  0.00     0.074 A 
ATOM     43  C   UNL A   1      37.804  31.991  32.688  1.00  0.00     0.049 A 
ATOM     44  N   UNL A   1      39.153  32.735  35.275  1.00  0.00    -0.248 NA
ATOM     45  C   UNL A   1      37.430  34.257  35.679  1.00  0.00     0.031 C 
ATOM     46  C   UNL A   1      37.223  31.630  31.395  1.00  0.00     0.029 A 
ATOM     47  N   UNL A   1      38.916  31.191  32.787  1.00  0.00    -0.354 N 
ATOM     48  C   UNL A   1      39.387  33.385  36.479  1.00  0.00     0.074 A 
ATOM     49  C   UNL A   1      38.330  34.359  36.646  1.00  0.00     0.031 C 
ATOM     50  C   UNL A   1      37.972  30.670  30.828  1.00  0.00     0.029 A 
ATOM     51  C   UNL A   1      39.109  30.379  31.695  1.00  0.00     0.049 A 
ATOM     52  H   UNL A   1      39.517  31.198  33.567  1.00  0.00     0.167 HD
ATOM     53  C   UNL A   1      40.378  33.171  37.377  1.00  0.00     0.037 A 
ATOM     54  C   UNL A   1      40.099  29.509  31.418  1.00  0.00     0.037 A 
ATOM     55  C   UNL A   1      41.423  32.195  37.213  1.00  0.00     0.049 A 
ATOM     56  C   UNL A   1      41.202  29.309  32.423  1.00  0.00     0.074 A 
ATOM     57  C   UNL A   1      42.453  31.879  38.083  1.00  0.00     0.029 A 
ATOM     58  N   UNL A   1      41.574  31.377  36.103  1.00  0.00    -0.354 N 
ATOM     59  N   UNL A   1      41.379  29.887  33.586  1.00  0.00    -0.248 NA
ATOM     60  C   UNL A   1      42.240  28.326  32.080  1.00  0.00     0.031 C 
ATOM     61  C   UNL A   1      43.255  30.907  37.478  1.00  0.00     0.029 A 
ATOM     62  C   UNL A   1      42.691  30.571  36.258  1.00  0.00     0.049 A 
ATOM     63  H   UNL A   1      40.977  31.371  35.321  1.00  0.00     0.167 HD
ATOM     64  C   UNL A   1      42.526  29.319  34.125  1.00  0.00     0.074 A 
ATOM     65  C   UNL A   1      42.992  28.336  33.170  1.00  0.00     0.031 C 
ATOM     66  C   UNL A   1      43.138  29.589  35.304  1.00  0.00     0.037 A 
BRANCH  53  67
ATOM     67  C   UNL A   1      40.373  34.002  38.629  1.00  0.00     0.064 A 
ATOM     68  C   UNL A   1      39.686  33.587  39.780  1.00  0.00     0.173 A 
ATOM     69  C   UNL A   1      41.102  35.199  38.697  1.00  0.00     0.173 A 
ATOM     70  F   UNL A   1      38.964  32.456  39.766  1.00  0.00    -0.203 F 
ATOM     71  C   UNL A   1      39.705  34.354  40.943  1.00  0.00     0.198 A 
ATOM     72  C   UNL A   1      41.147  35.946  39.871  1.00  0.00     0.198 A 
ATOM     73  F   UNL A   1      41.783  35.638  37.628  1.00  0.00    -0.203 F 
ATOM     74  F   UNL A   1      39.002  33.962  42.014  1.00  0.00    -0.200 F 
ATOM     75  C   UNL A   1      40.443  35.527  40.990  1.00  0.00     0.200 A 
ATOM     76  F   UNL A   1      41.872  37.072  39.921  1.00  0.00    -0.200 F 
ATOM     77  F   UNL A   1      40.471  36.258  42.114  1.00  0.00    -0.200 F 
ENDBRANCH  53  67
BRANCH  54  78
ATOM     78  C   UNL A   1      40.095  28.758  30.133  1.00  0.00     0.064 A 
ATOM     79  C   UNL A   1      40.681  29.295  28.977  1.00  0.00     0.173 A 
ATOM     80  C   UNL A   1      39.485  27.500  30.028  1.00  0.00     0.173 A 
ATOM     81  F   UNL A   1      41.260  30.504  29.020  1.00  0.00    -0.203 F 
ATOM     82  C   UNL A   1      40.628  28.617  27.761  1.00  0.00     0.198 A 
ATOM     83  C   UNL A   1      39.463  26.807  28.820  1.00  0.00     0.198 A 
ATOM     84  F   UNL A   1      38.914  26.937  31.105  1.00  0.00    -0.203 F 
ATOM     85  F   UNL A   1      41.143  29.180  26.660  1.00  0.00    -0.200 F 
ATOM     86  C   UNL A   1      40.024  27.371  27.685  1.00  0.00     0.200 A 
ATOM     87  F   UNL A   1      38.893  25.596  28.754  1.00  0.00    -0.200 F 
ATOM     88  F   UNL A   1      39.973  26.720  26.515  1.00  0.00    -0.200 F 
ENDBRANCH  54  78
BRANCH  66  89
ATOM     89  C   UNL A   1      44.357  28.781  35.649  1.00  0.00     0.064 A 
ATOM     90  C   UNL A   1      44.269  27.576  36.363  1.00  0.00     0.173 A 
ATOM     91  C   UNL A   1      45.628  29.200  35.225  1.00  0.00     0.173 A 
ATOM     92  F   UNL A   1      43.080  27.138  36.804  1.00  0.00    -0.203 F 
ATOM     93  C   UNL A   1      45.410  26.838  36.665  1.00  0.00     0.198 A 
ATOM     94  C   UNL A   1      46.762  28.441  35.500  1.00  0.00     0.198 A 
ATOM     95  F   UNL A   1      45.768  30.340  34.532  1.00  0.00    -0.203 F 
ATOM     96  F   UNL A   1      45.306  25.718  37.394  1.00  0.00    -0.200 F 
ATOM     97  C   UNL A   1      46.654  27.265  36.226  1.00  0.00     0.200 A 
ATOM     98  F   UNL A   1      47.961  28.848  35.060  1.00  0.00    -0.200 F 
ATOM     99  F   UNL A   1      47.750  26.549  36.510  1.00  0.00    -0.200 F 
ENDBRANCH  66  89
ENDBRANCH  40  41
ENDBRANCH  32  35
ENDBRANCH  30  31
ENDBRANCH  29  30
ENDBRANCH  28  29
ENDBRANCH   1  28
TORSDOF 16
ENDMDL
MODEL 3
REMARK VINA RESULT:     -11.9      0.561      7.261
REMARK SMILES COc1ccc(-c2nc(SCC(=O)NCCCCNC(=O)c3ccc(-c4c5nc(c(-c6c(F)c(F)c(F)c(F)c6F)c6ccc([nH]6)c(-c6c(F)c(F)c(F)c(F)c6F)c6nc(c(-c7c(F)c(F)c(F)c(F)c7F)c7ccc4[nH]7)C=C6)C=C5)cc3)cc(-c3ccncc3)n2)cc1
REMARK SMILES IDX 15 1 14 2 12 3 13 4 11 6 10 7 9 8 7 9 8 10 93 11 86 12 85 13
REMARK SMILES IDX 6 14 3 15 4 16 95 17 5 18 94 19 2 20 1 21 87 22 88 23 92 24
REMARK SMILES IDX 89 25 91 26 90 27 16 28 17 29 18 30 19 31 20 32 21 34 22 35
REMARK SMILES IDX 23 36 84 37 24 38 83 39 25 40 26 41 27 42 77 43 28 44 82 45
REMARK SMILES IDX 76 46 78 47 29 48 81 49 75 50 74 51 30 53 62 54 42 55 61 56
REMARK SMILES IDX 43 57 46 58 60 59 79 60 44 61 45 62 59 64 80 65 47 66 31 67
REMARK SMILES IDX 32 68 40 69 33 70 34 71 38 72 41 73 35 74 36 75 39 76 37 77
REMARK SMILES IDX 63 78 64 79 72 80 65 81 66 82 70 83 73 84 67 85 68 86 71 87
REMARK SMILES IDX 69 88 48 89 49 90 57 91 50 92 51 93 55 94 58 95 52 96 53 97
REMARK SMILES IDX 56 98 54 99
REMARK H PARENT 14 5 19 33 78 52 46 63
REMARK Flexibility Score: inf
ROOT
ATOM      1  C   UNL A   1      31.139  26.316  26.216  1.00  0.00     0.116 C 
ENDROOT
BRANCH   1   2
ATOM      2  N   UNL A   1      30.403  25.979  25.015  1.00  0.00    -0.355 N 
ATOM      3  C   UNL A   1      30.596  24.952  24.146  1.00  0.00     0.230 C 
ATOM      4  O   UNL A   1      29.900  24.930  23.126  1.00  0.00    -0.274 OA
ATOM      5  H   UNL A   1      29.653  26.579  24.798  1.00  0.00     0.163 HD
BRANCH   3   6
ATOM      6  C   UNL A   1      31.576  23.833  24.447  1.00  0.00     0.176 C 
BRANCH   6   7
ATOM      7  S   UNL A   1      32.891  23.610  23.210  1.00  0.00    -0.096 SA
BRANCH   7   8
ATOM      8  C   UNL A   1      34.110  22.584  23.998  1.00  0.00     0.101 A 
ATOM      9  C   UNL A   1      34.589  20.454  24.718  1.00  0.00     0.161 A 
ATOM     10  N   UNL A   1      33.736  21.297  24.110  1.00  0.00    -0.222 NA
ATOM     11  N   UNL A   1      35.775  20.807  25.241  1.00  0.00    -0.228 NA
ATOM     12  C   UNL A   1      36.127  22.098  25.093  1.00  0.00     0.076 A 
ATOM     13  C   UNL A   1      35.330  23.021  24.446  1.00  0.00     0.064 A 
BRANCH   9  14
ATOM     14  C   UNL A   1      34.200  19.041  24.778  1.00  0.00     0.019 A 
ATOM     15  C   UNL A   1      33.432  16.322  24.919  1.00  0.00     0.118 A 
ATOM     16  C   UNL A   1      32.528  17.327  25.260  1.00  0.00     0.047 A 
ATOM     17  C   UNL A   1      34.709  16.667  24.483  1.00  0.00     0.047 A 
ATOM     18  C   UNL A   1      32.914  18.669  25.209  1.00  0.00     0.016 A 
ATOM     19  C   UNL A   1      35.085  18.016  24.406  1.00  0.00     0.016 A 
BRANCH  15  20
ATOM     20  O   UNL A   1      32.949  15.043  24.984  1.00  0.00    -0.497 OA
ATOM     21  C   UNL A   1      32.147  14.766  26.127  1.00  0.00     0.278 C 
ENDBRANCH  15  20
ENDBRANCH   9  14
BRANCH  12  22
ATOM     22  C   UNL A   1      37.426  22.497  25.638  1.00  0.00     0.003 A 
ATOM     23  C   UNL A   1      38.472  21.571  25.751  1.00  0.00     0.030 A 
ATOM     24  C   UNL A   1      37.635  23.790  26.125  1.00  0.00     0.030 A 
ATOM     25  C   UNL A   1      39.656  21.970  26.348  1.00  0.00     0.111 A 
ATOM     26  C   UNL A   1      38.850  24.090  26.716  1.00  0.00     0.111 A 
ATOM     27  N   UNL A   1      39.864  23.208  26.841  1.00  0.00    -0.265 NA
ENDBRANCH  12  22
ENDBRANCH   7   8
ENDBRANCH   6   7
ENDBRANCH   3   6
ENDBRANCH   1   2
BRANCH   1  28
ATOM     28  C   UNL A   1      31.844  27.665  26.068  1.00  0.00     0.023 C 
BRANCH  28  29
ATOM     29  C   UNL A   1      33.125  27.629  25.227  1.00  0.00     0.023 C 
BRANCH  29  30
ATOM     30  C   UNL A   1      34.008  28.868  25.330  1.00  0.00     0.116 C 
BRANCH  30  31
ATOM     31  N   UNL A   1      33.275  30.053  25.747  1.00  0.00    -0.352 N 
ATOM     32  C   UNL A   1      33.493  30.878  26.822  1.00  0.00     0.251 C 
ATOM     33  H   UNL A   1      32.513  30.299  25.174  1.00  0.00     0.163 HD
ATOM     34  O   UNL A   1      32.684  31.760  27.095  1.00  0.00    -0.269 OA
BRANCH  32  35
ATOM     35  C   UNL A   1      34.685  30.684  27.674  1.00  0.00     0.039 A 
ATOM     36  C   UNL A   1      34.763  29.537  28.468  1.00  0.00     0.014 A 
ATOM     37  C   UNL A   1      35.723  31.620  27.689  1.00  0.00     0.014 A 
ATOM     38  C   UNL A   1      35.913  29.295  29.223  1.00  0.00     0.010 A 
ATOM     39  C   UNL A   1      36.898  31.339  28.382  1.00  0.00     0.010 A 
ATOM     40  C   UNL A   1      37.006  30.173  29.155  1.00  0.00    -0.014 A 
BRANCH  40  41
ATOM     41  C   UNL A   1      38.272  29.882  29.879  1.00  0.00     0.031 A 
ATOM     42  C   UNL A   1      38.530  30.492  31.229  1.00  0.00     0.074 A 
ATOM     43  C   UNL A   1      39.214  29.116  29.295  1.00  0.00     0.049 A 
ATOM     44  N   UNL A   1      39.600  30.419  31.981  1.00  0.00    -0.248 NA
ATOM     45  C   UNL A   1      37.453  31.315  31.801  1.00  0.00     0.031 C 
ATOM     46  C   UNL A   1      39.103  28.504  27.969  1.00  0.00     0.029 A 
ATOM     47  N   UNL A   1      40.457  28.731  29.734  1.00  0.00    -0.354 N 
ATOM     48  C   UNL A   1      39.325  31.183  33.106  1.00  0.00     0.074 A 
ATOM     49  C   UNL A   1      38.015  31.765  32.912  1.00  0.00     0.031 C 
ATOM     50  C   UNL A   1      40.222  27.810  27.710  1.00  0.00     0.029 A 
ATOM     51  C   UNL A   1      41.147  27.961  28.829  1.00  0.00     0.049 A 
ATOM     52  H   UNL A   1      40.819  28.983  30.614  1.00  0.00     0.167 HD
ATOM     53  C   UNL A   1      40.084  31.362  34.214  1.00  0.00     0.037 A 
ATOM     54  C   UNL A   1      42.391  27.449  28.888  1.00  0.00     0.037 A 
ATOM     55  C   UNL A   1      41.384  30.773  34.409  1.00  0.00     0.049 A 
ATOM     56  C   UNL A   1      43.224  27.683  30.121  1.00  0.00     0.074 A 
ATOM     57  C   UNL A   1      42.217  30.866  35.511  1.00  0.00     0.029 A 
ATOM     58  N   UNL A   1      42.042  29.983  33.478  1.00  0.00    -0.354 N 
ATOM     59  N   UNL A   1      42.927  28.358  31.204  1.00  0.00    -0.248 NA
ATOM     60  C   UNL A   1      44.562  27.075  30.142  1.00  0.00     0.031 C 
ATOM     61  C   UNL A   1      43.398  30.175  35.228  1.00  0.00     0.029 A 
ATOM     62  C   UNL A   1      43.278  29.598  33.974  1.00  0.00     0.049 A 
ATOM     63  H   UNL A   1      41.684  29.733  32.596  1.00  0.00     0.167 HD
ATOM     64  C   UNL A   1      44.025  28.231  32.045  1.00  0.00     0.074 A 
ATOM     65  C   UNL A   1      44.986  27.398  31.354  1.00  0.00     0.031 C 
ATOM     66  C   UNL A   1      44.221  28.759  33.279  1.00  0.00     0.037 A 
BRANCH  53  67
ATOM     67  C   UNL A   1      39.523  32.220  35.311  1.00  0.00     0.064 A 
ATOM     68  C   UNL A   1      38.713  31.681  36.322  1.00  0.00     0.173 A 
ATOM     69  C   UNL A   1      39.836  33.586  35.382  1.00  0.00     0.173 A 
ATOM     70  F   UNL A   1      38.373  30.383  36.295  1.00  0.00    -0.203 F 
ATOM     71  C   UNL A   1      38.214  32.482  37.347  1.00  0.00     0.198 A 
ATOM     72  C   UNL A   1      39.365  34.377  36.427  1.00  0.00     0.198 A 
ATOM     73  F   UNL A   1      40.613  34.152  34.447  1.00  0.00    -0.203 F 
ATOM     74  F   UNL A   1      37.403  31.953  38.273  1.00  0.00    -0.200 F 
ATOM     75  C   UNL A   1      38.548  33.826  37.404  1.00  0.00     0.200 A 
ATOM     76  F   UNL A   1      39.700  35.673  36.490  1.00  0.00    -0.200 F 
ATOM     77  F   UNL A   1      38.078  34.593  38.397  1.00  0.00    -0.200 F 
ENDBRANCH  53  67
BRANCH  54  78
ATOM     78  C   UNL A   1      42.928  26.660  27.746  1.00  0.00     0.064 A 
ATOM     79  C   UNL A   1      42.732  25.273  27.667  1.00  0.00     0.173 A 
ATOM     80  C   UNL A   1      43.668  27.271  26.723  1.00  0.00     0.173 A 
ATOM     81  F   UNL A   1      42.048  24.637  28.630  1.00  0.00    -0.203 F 
ATOM     82  C   UNL A   1      43.282  24.525  26.628  1.00  0.00     0.198 A 
ATOM     83  C   UNL A   1      44.188  26.528  25.666  1.00  0.00     0.198 A 
ATOM     84  F   UNL A   1      43.880  28.595  26.746  1.00  0.00    -0.203 F 
ATOM     85  F   UNL A   1      43.130  23.195  26.610  1.00  0.00    -0.200 F 
ATOM     86  C   UNL A   1      44.005  25.154  25.625  1.00  0.00     0.200 A 
ATOM     87  F   UNL A   1      44.872  27.141  24.691  1.00  0.00    -0.200 F 
ATOM     88  F   UNL A   1      44.534  24.435  24.627  1.00  0.00    -0.200 F 
ENDBRANCH  54  78
BRANCH  66  89
ATOM     89  C   UNL A   1      45.505  28.418  33.980  1.00  0.00     0.064 A 
ATOM     90  C   UNL A   1      45.619  27.290  34.806  1.00  0.00     0.173 A 
ATOM     91  C   UNL A   1      46.647  29.212  33.792  1.00  0.00     0.173 A 
ATOM     92  F   UNL A   1      44.554  26.507  35.031  1.00  0.00    -0.203 F 
ATOM     93  C   UNL A   1      46.821  26.986  35.440  1.00  0.00     0.198 A 
ATOM     94  C   UNL A   1      47.856  28.885  34.400  1.00  0.00     0.198 A 
ATOM     95  F   UNL A   1      46.594  30.298  33.006  1.00  0.00    -0.203 F 
ATOM     96  F   UNL A   1      46.892  25.934  36.267  1.00  0.00    -0.200 F 
ATOM     97  C   UNL A   1      47.940  27.778  35.230  1.00  0.00     0.200 A 
ATOM     98  F   UNL A   1      48.940  29.642  34.182  1.00  0.00    -0.200 F 
ATOM     99  F   UNL A   1      49.098  27.479  35.834  1.00  0.00    -0.200 F 
ENDBRANCH  66  89
ENDBRANCH  40  41
ENDBRANCH  32  35
ENDBRANCH  30  31
ENDBRANCH  29  30
ENDBRANCH  28  29
ENDBRANCH   1  28
TORSDOF 16
ENDMDL
