MODEL 1
REMARK VINA RESULT:     -13.0      0.000      0.000
REMARK SMILES CCOc1ccc(-c2nc(C(=O)NCCCCNC(=O)c3ccc(-c4c5nc(c(-c6c(F)c(F)c(F)c(F)c6F)c6ccc([nH]6)c(-c6c(F)c(F)c(F)c(F)c6F)c6nc(c(-c7c(F)c(F)c(F)c(F)c7F)c7ccc4[nH]7)C=C6)C=C5)cc3)cc(=O)[nH]2)cc1
REMARK SMILES IDX 15 1 14 2 13 3 11 4 12 5 10 7 8 8 9 9 87 10 85 11 84 13
REMARK SMILES IDX 86 14 7 15 4 16 5 17 89 18 6 19 88 20 3 21 2 22 1 23 16 24
REMARK SMILES IDX 17 25 18 26 19 27 20 29 21 30 22 31 83 32 23 33 82 34 24 35
REMARK SMILES IDX 25 36 26 37 76 38 27 39 81 40 75 41 77 42 28 43 80 44 74 45
REMARK SMILES IDX 73 46 29 48 61 49 41 50 60 51 42 52 45 53 59 54 78 55 43 56
REMARK SMILES IDX 44 57 58 59 79 60 46 61 30 62 31 63 39 64 32 65 33 66 37 67
REMARK SMILES IDX 40 68 34 69 35 70 38 71 36 72 62 73 63 74 71 75 64 76 65 77
REMARK SMILES IDX 69 78 72 79 66 80 67 81 70 82 68 83 47 84 48 85 56 86 49 87
REMARK SMILES IDX 50 88 54 89 57 90 51 91 52 92 55 93 53 94
REMARK H PARENT 13 6 87 12 18 28 77 47 45 58
REMARK Flexibility Score: inf
ROOT
ATOM      1  C   UNL A   1      36.228  23.189  23.661  1.00  0.00     0.023 C 
ENDROOT
BRANCH   1   2
ATOM      2  C   UNL A   1      34.814  23.203  24.225  1.00  0.00     0.116 C 
BRANCH   2   3
ATOM      3  N   UNL A   1      34.012  22.059  23.837  1.00  0.00    -0.351 N 
ATOM      4  C   UNL A   1      32.682  21.768  23.963  1.00  0.00     0.270 C 
ATOM      5  O   UNL A   1      32.314  20.681  23.510  1.00  0.00    -0.268 OA
ATOM      6  H   UNL A   1      34.530  21.349  23.392  1.00  0.00     0.163 HD
BRANCH   4   7
ATOM      7  C   UNL A   1      31.691  22.681  24.664  1.00  0.00     0.136 A 
ATOM      8  C   UNL A   1      30.490  24.636  24.554  1.00  0.00     0.141 A 
ATOM      9  N   UNL A   1      31.238  23.774  23.941  1.00  0.00    -0.225 NA
ATOM     10  N   UNL A   1      30.005  24.429  25.817  1.00  0.00    -0.306 N 
ATOM     11  C   UNL A   1      30.376  23.359  26.561  1.00  0.00     0.251 A 
ATOM     12  H   UNL A   1      29.369  25.079  26.197  1.00  0.00     0.171 HD
ATOM     13  C   UNL A   1      31.414  22.516  25.964  1.00  0.00     0.105 A 
ATOM     14  O   UNL A   1      29.896  23.099  27.653  1.00  0.00    -0.269 OA
BRANCH   8  15
ATOM     15  C   UNL A   1      30.124  25.929  23.935  1.00  0.00     0.018 A 
ATOM     16  C   UNL A   1      29.432  28.312  22.675  1.00  0.00     0.119 A 
ATOM     17  C   UNL A   1      30.723  27.814  22.534  1.00  0.00     0.047 A 
ATOM     18  C   UNL A   1      28.472  27.599  23.395  1.00  0.00     0.047 A 
ATOM     19  C   UNL A   1      31.073  26.622  23.167  1.00  0.00     0.016 A 
ATOM     20  C   UNL A   1      28.817  26.407  24.032  1.00  0.00     0.016 A 
BRANCH  16  21
ATOM     21  O   UNL A   1      29.097  29.443  21.985  1.00  0.00    -0.494 OA
BRANCH  21  22
ATOM     22  C   UNL A   1      27.881  30.037  22.458  1.00  0.00     0.226 C 
ATOM     23  C   UNL A   1      28.161  31.233  23.353  1.00  0.00     0.049 C 
ENDBRANCH  21  22
ENDBRANCH  16  21
ENDBRANCH   8  15
ENDBRANCH   4   7
ENDBRANCH   2   3
ENDBRANCH   1   2
BRANCH   1  24
ATOM     24  C   UNL A   1      37.051  21.936  23.933  1.00  0.00     0.023 C 
BRANCH  24  25
ATOM     25  C   UNL A   1      37.366  21.649  25.397  1.00  0.00     0.116 C 
BRANCH  25  26
ATOM     26  N   UNL A   1      38.434  20.674  25.590  1.00  0.00    -0.352 N 
ATOM     27  C   UNL A   1      39.666  20.831  26.182  1.00  0.00     0.251 C 
ATOM     28  H   UNL A   1      38.245  19.771  25.248  1.00  0.00     0.163 HD
ATOM     29  O   UNL A   1      40.481  19.914  26.181  1.00  0.00    -0.269 OA
BRANCH  27  30
ATOM     30  C   UNL A   1      40.023  22.135  26.774  1.00  0.00     0.039 A 
ATOM     31  C   UNL A   1      40.949  22.171  27.820  1.00  0.00     0.014 A 
ATOM     32  C   UNL A   1      39.511  23.320  26.241  1.00  0.00     0.014 A 
ATOM     33  C   UNL A   1      41.453  23.399  28.249  1.00  0.00     0.010 A 
ATOM     34  C   UNL A   1      40.073  24.537  26.614  1.00  0.00     0.010 A 
ATOM     35  C   UNL A   1      41.072  24.584  27.601  1.00  0.00    -0.014 A 
BRANCH  35  36
ATOM     36  C   UNL A   1      41.750  25.875  27.886  1.00  0.00     0.031 A 
ATOM     37  C   UNL A   1      41.020  26.971  28.609  1.00  0.00     0.074 A 
ATOM     38  C   UNL A   1      42.991  26.089  27.403  1.00  0.00     0.049 A 
ATOM     39  N   UNL A   1      41.405  28.198  28.853  1.00  0.00    -0.248 NA
ATOM     40  C   UNL A   1      39.670  26.656  29.104  1.00  0.00     0.031 C 
ATOM     41  C   UNL A   1      43.785  25.118  26.644  1.00  0.00     0.029 A 
ATOM     42  N   UNL A   1      43.798  27.200  27.459  1.00  0.00    -0.354 N 
ATOM     43  C   UNL A   1      40.342  28.805  29.508  1.00  0.00     0.074 A 
ATOM     44  C   UNL A   1      39.281  27.825  29.594  1.00  0.00     0.031 C 
ATOM     45  C   UNL A   1      44.966  25.668  26.322  1.00  0.00     0.029 A 
ATOM     46  C   UNL A   1      44.996  27.046  26.800  1.00  0.00     0.049 A 
ATOM     47  H   UNL A   1      43.543  28.028  27.925  1.00  0.00     0.167 HD
ATOM     48  C   UNL A   1      40.268  30.061  30.004  1.00  0.00     0.037 A 
ATOM     49  C   UNL A   1      45.996  27.924  26.585  1.00  0.00     0.037 A 
ATOM     50  C   UNL A   1      41.341  31.019  29.946  1.00  0.00     0.049 A 
ATOM     51  C   UNL A   1      45.864  29.325  27.122  1.00  0.00     0.074 A 
ATOM     52  C   UNL A   1      41.397  32.280  30.510  1.00  0.00     0.029 A 
ATOM     53  N   UNL A   1      42.538  30.827  29.273  1.00  0.00    -0.354 N 
ATOM     54  N   UNL A   1      44.898  29.852  27.835  1.00  0.00    -0.248 NA
ATOM     55  C   UNL A   1      46.959  30.258  26.820  1.00  0.00     0.031 C 
ATOM     56  C   UNL A   1      42.598  32.880  30.120  1.00  0.00     0.029 A 
ATOM     57  C   UNL A   1      43.317  31.969  29.365  1.00  0.00     0.049 A 
ATOM     58  H   UNL A   1      42.795  30.002  28.800  1.00  0.00     0.167 HD
ATOM     59  C   UNL A   1      45.279  31.163  28.085  1.00  0.00     0.074 A 
ATOM     60  C   UNL A   1      46.577  31.347  27.472  1.00  0.00     0.031 C 
ATOM     61  C   UNL A   1      44.611  32.133  28.757  1.00  0.00     0.037 A 
BRANCH  48  62
ATOM     62  C   UNL A   1      38.989  30.493  30.658  1.00  0.00     0.064 A 
ATOM     63  C   UNL A   1      38.811  30.425  32.046  1.00  0.00     0.173 A 
ATOM     64  C   UNL A   1      37.965  31.071  29.891  1.00  0.00     0.173 A 
ATOM     65  F   UNL A   1      39.756  29.874  32.823  1.00  0.00    -0.203 F 
ATOM     66  C   UNL A   1      37.650  30.911  32.644  1.00  0.00     0.198 A 
ATOM     67  C   UNL A   1      36.820  31.583  30.494  1.00  0.00     0.198 A 
ATOM     68  F   UNL A   1      38.090  31.165  28.558  1.00  0.00    -0.203 F 
ATOM     69  F   UNL A   1      37.489  30.813  33.970  1.00  0.00    -0.200 F 
ATOM     70  C   UNL A   1      36.663  31.501  31.868  1.00  0.00     0.200 A 
ATOM     71  F   UNL A   1      35.875  32.166  29.744  1.00  0.00    -0.200 F 
ATOM     72  F   UNL A   1      35.557  31.990  32.447  1.00  0.00    -0.200 F 
ENDBRANCH  48  62
BRANCH  49  73
ATOM     73  C   UNL A   1      47.204  27.526  25.813  1.00  0.00     0.064 A 
ATOM     74  C   UNL A   1      48.351  27.047  26.465  1.00  0.00     0.173 A 
ATOM     75  C   UNL A   1      47.262  27.666  24.418  1.00  0.00     0.173 A 
ATOM     76  F   UNL A   1      48.355  26.915  27.799  1.00  0.00    -0.203 F 
ATOM     77  C   UNL A   1      49.517  26.763  25.758  1.00  0.00     0.198 A 
ATOM     78  C   UNL A   1      48.418  27.346  23.709  1.00  0.00     0.198 A 
ATOM     79  F   UNL A   1      46.196  28.117  23.742  1.00  0.00    -0.203 F 
ATOM     80  F   UNL A   1      50.619  26.376  26.416  1.00  0.00    -0.200 F 
ATOM     81  C   UNL A   1      49.549  26.909  24.379  1.00  0.00     0.200 A 
ATOM     82  F   UNL A   1      48.440  27.475  22.374  1.00  0.00    -0.200 F 
ATOM     83  F   UNL A   1      50.674  26.644  23.701  1.00  0.00    -0.200 F 
ENDBRANCH  49  73
BRANCH  61  84
ATOM     84  C   UNL A   1      45.276  33.472  28.883  1.00  0.00     0.064 A 
ATOM     85  C   UNL A   1      46.179  33.748  29.921  1.00  0.00     0.173 A 
ATOM     86  C   UNL A   1      45.056  34.471  27.922  1.00  0.00     0.173 A 
ATOM     87  F   UNL A   1      46.410  32.833  30.874  1.00  0.00    -0.203 F 
ATOM     88  C   UNL A   1      46.822  34.979  30.001  1.00  0.00     0.198 A 
ATOM     89  C   UNL A   1      45.727  35.688  27.986  1.00  0.00     0.198 A 
ATOM     90  F   UNL A   1      44.206  34.256  26.905  1.00  0.00    -0.203 F 
ATOM     91  F   UNL A   1      47.648  35.236  31.025  1.00  0.00    -0.200 F 
ATOM     92  C   UNL A   1      46.605  35.944  29.029  1.00  0.00     0.200 A 
ATOM     93  F   UNL A   1      45.528  36.612  27.036  1.00  0.00    -0.200 F 
ATOM     94  F   UNL A   1      47.239  37.123  29.098  1.00  0.00    -0.200 F 
ENDBRANCH  61  84
ENDBRANCH  35  36
ENDBRANCH  27  30
ENDBRANCH  25  26
ENDBRANCH  24  25
ENDBRANCH   1  24
TORSDOF 14
ENDMDL
MODEL 2
REMARK VINA RESULT:     -12.9      4.908     10.790
REMARK SMILES CCOc1ccc(-c2nc(C(=O)NCCCCNC(=O)c3ccc(-c4c5nc(c(-c6c(F)c(F)c(F)c(F)c6F)c6ccc([nH]6)c(-c6c(F)c(F)c(F)c(F)c6F)c6nc(c(-c7c(F)c(F)c(F)c(F)c7F)c7ccc4[nH]7)C=C6)C=C5)cc3)cc(=O)[nH]2)cc1
REMARK SMILES IDX 15 1 14 2 13 3 11 4 12 5 10 7 8 8 9 9 87 10 85 11 84 13
REMARK SMILES IDX 86 14 7 15 4 16 5 17 89 18 6 19 88 20 3 21 2 22 1 23 16 24
REMARK SMILES IDX 17 25 18 26 19 27 20 29 21 30 22 31 83 32 23 33 82 34 24 35
REMARK SMILES IDX 25 36 26 37 76 38 27 39 81 40 75 41 77 42 28 43 80 44 74 45
REMARK SMILES IDX 73 46 29 48 61 49 41 50 60 51 42 52 45 53 59 54 78 55 43 56
REMARK SMILES IDX 44 57 58 59 79 60 46 61 30 62 31 63 39 64 32 65 33 66 37 67
REMARK SMILES IDX 40 68 34 69 35 70 38 71 36 72 62 73 63 74 71 75 64 76 65 77
REMARK SMILES IDX 69 78 72 79 66 80 67 81 70 82 68 83 47 84 48 85 56 86 49 87
REMARK SMILES IDX 50 88 54 89 57 90 51 91 52 92 55 93 53 94
REMARK H PARENT 13 6 87 12 18 28 77 47 45 58
REMARK Flexibility Score: inf
ROOT
ATOM      1  C   UNL A   1      32.112  29.942  26.902  1.00  0.00     0.023 C 
ENDROOT
BRANCH   1   2
ATOM      2  C   UNL A   1      33.374  29.347  26.293  1.00  0.00     0.116 C 
BRANCH   2   3
ATOM      3  N   UNL A   1      33.490  29.549  24.861  1.00  0.00    -0.351 N 
ATOM      4  C   UNL A   1      33.330  28.716  23.789  1.00  0.00     0.270 C 
ATOM      5  O   UNL A   1      33.502  29.220  22.675  1.00  0.00    -0.268 OA
ATOM      6  H   UNL A   1      33.732  30.470  24.613  1.00  0.00     0.163 HD
BRANCH   4   7
ATOM      7  C   UNL A   1      33.011  27.237  23.919  1.00  0.00     0.136 A 
ATOM      8  C   UNL A   1      33.842  25.135  24.326  1.00  0.00     0.141 A 
ATOM      9  N   UNL A   1      34.049  26.413  24.326  1.00  0.00    -0.225 NA
ATOM     10  N   UNL A   1      32.609  24.585  24.102  1.00  0.00    -0.306 N 
ATOM     11  C   UNL A   1      31.542  25.340  23.742  1.00  0.00     0.251 A 
ATOM     12  H   UNL A   1      32.494  23.612  24.203  1.00  0.00     0.171 HD
ATOM     13  C   UNL A   1      31.835  26.754  23.498  1.00  0.00     0.105 A 
ATOM     14  O   UNL A   1      30.412  24.894  23.621  1.00  0.00    -0.269 OA
BRANCH   8  15
ATOM     15  C   UNL A   1      34.939  24.168  24.547  1.00  0.00     0.018 A 
ATOM     16  C   UNL A   1      37.073  22.419  24.919  1.00  0.00     0.119 A 
ATOM     17  C   UNL A   1      36.558  22.607  23.640  1.00  0.00     0.047 A 
ATOM     18  C   UNL A   1      36.565  23.140  26.001  1.00  0.00     0.047 A 
ATOM     19  C   UNL A   1      35.487  23.480  23.452  1.00  0.00     0.016 A 
ATOM     20  C   UNL A   1      35.492  24.014  25.819  1.00  0.00     0.016 A 
BRANCH  16  21
ATOM     21  O   UNL A   1      38.167  21.614  25.063  1.00  0.00    -0.494 OA
BRANCH  21  22
ATOM     22  C   UNL A   1      39.024  22.035  26.132  1.00  0.00     0.226 C 
ATOM     23  C   UNL A   1      40.270  21.168  26.217  1.00  0.00     0.049 C 
ENDBRANCH  21  22
ENDBRANCH  16  21
ENDBRANCH   8  15
ENDBRANCH   4   7
ENDBRANCH   2   3
ENDBRANCH   1   2
BRANCH   1  24
ATOM     24  C   UNL A   1      31.923  31.444  26.730  1.00  0.00     0.023 C 
BRANCH  24  25
ATOM     25  C   UNL A   1      32.919  32.332  27.468  1.00  0.00     0.116 C 
BRANCH  25  26
ATOM     26  N   UNL A   1      32.469  33.709  27.639  1.00  0.00    -0.352 N 
ATOM     27  C   UNL A   1      32.979  34.704  28.441  1.00  0.00     0.251 C 
ATOM     28  H   UNL A   1      31.686  33.964  27.100  1.00  0.00     0.163 HD
ATOM     29  O   UNL A   1      32.415  35.790  28.523  1.00  0.00    -0.269 OA
BRANCH  27  30
ATOM     30  C   UNL A   1      34.186  34.436  29.247  1.00  0.00     0.039 A 
ATOM     31  C   UNL A   1      34.032  33.969  30.555  1.00  0.00     0.014 A 
ATOM     32  C   UNL A   1      35.458  34.560  28.684  1.00  0.00     0.014 A 
ATOM     33  C   UNL A   1      35.149  33.513  31.257  1.00  0.00     0.010 A 
ATOM     34  C   UNL A   1      36.557  34.031  29.353  1.00  0.00     0.010 A 
ATOM     35  C   UNL A   1      36.407  33.475  30.634  1.00  0.00    -0.014 A 
BRANCH  35  36
ATOM     36  C   UNL A   1      37.565  32.797  31.272  1.00  0.00     0.031 A 
ATOM     37  C   UNL A   1      38.203  31.606  30.614  1.00  0.00     0.074 A 
ATOM     38  C   UNL A   1      37.975  33.200  32.492  1.00  0.00     0.049 A 
ATOM     39  N   UNL A   1      39.147  30.821  31.066  1.00  0.00    -0.248 NA
ATOM     40  C   UNL A   1      37.697  31.233  29.283  1.00  0.00     0.031 C 
ATOM     41  C   UNL A   1      37.404  34.314  33.254  1.00  0.00     0.029 A 
ATOM     42  N   UNL A   1      38.954  32.706  33.320  1.00  0.00    -0.354 N 
ATOM     43  C   UNL A   1      39.333  29.853  30.089  1.00  0.00     0.074 A 
ATOM     44  C   UNL A   1      38.381  30.125  29.034  1.00  0.00     0.031 C 
ATOM     45  C   UNL A   1      38.052  34.429  34.424  1.00  0.00     0.029 A 
ATOM     46  C   UNL A   1      39.046  33.366  34.523  1.00  0.00     0.049 A 
ATOM     47  H   UNL A   1      39.535  31.950  33.075  1.00  0.00     0.167 HD
ATOM     48  C   UNL A   1      40.229  28.840  30.071  1.00  0.00     0.037 A 
ATOM     49  C   UNL A   1      39.826  33.127  35.595  1.00  0.00     0.037 A 
ATOM     50  C   UNL A   1      41.197  28.596  31.108  1.00  0.00     0.049 A 
ATOM     51  C   UNL A   1      40.788  31.967  35.554  1.00  0.00     0.074 A 
ATOM     52  C   UNL A   1      42.213  27.657  31.132  1.00  0.00     0.029 A 
ATOM     53  N   UNL A   1      41.260  29.285  32.309  1.00  0.00    -0.354 N 
ATOM     54  N   UNL A   1      41.030  31.126  34.579  1.00  0.00    -0.248 NA
ATOM     55  C   UNL A   1      41.583  31.720  36.766  1.00  0.00     0.031 C 
ATOM     56  C   UNL A   1      42.846  27.730  32.376  1.00  0.00     0.029 A 
ATOM     57  C   UNL A   1      42.265  28.756  33.103  1.00  0.00     0.049 A 
ATOM     58  H   UNL A   1      40.678  30.039  32.561  1.00  0.00     0.167 HD
ATOM     59  C   UNL A   1      42.016  30.269  35.048  1.00  0.00     0.074 A 
ATOM     60  C   UNL A   1      42.349  30.707  36.387  1.00  0.00     0.031 C 
ATOM     61  C   UNL A   1      42.591  29.209  34.430  1.00  0.00     0.037 A 
BRANCH  48  62
ATOM     62  C   UNL A   1      40.220  27.904  28.899  1.00  0.00     0.064 A 
ATOM     63  C   UNL A   1      40.946  28.176  27.731  1.00  0.00     0.173 A 
ATOM     64  C   UNL A   1      39.552  26.672  28.985  1.00  0.00     0.173 A 
ATOM     65  F   UNL A   1      41.596  29.342  27.596  1.00  0.00    -0.203 F 
ATOM     66  C   UNL A   1      40.996  27.255  26.688  1.00  0.00     0.198 A 
ATOM     67  C   UNL A   1      39.628  25.742  27.953  1.00  0.00     0.198 A 
ATOM     68  F   UNL A   1      38.847  26.361  30.085  1.00  0.00    -0.203 F 
ATOM     69  F   UNL A   1      41.675  27.546  25.571  1.00  0.00    -0.200 F 
ATOM     70  C   UNL A   1      40.347  26.034  26.806  1.00  0.00     0.200 A 
ATOM     71  F   UNL A   1      39.014  24.557  28.075  1.00  0.00    -0.200 F 
ATOM     72  F   UNL A   1      40.416  25.138  25.810  1.00  0.00    -0.200 F 
ENDBRANCH  48  62
BRANCH  49  73
ATOM     73  C   UNL A   1      39.730  33.980  36.811  1.00  0.00     0.064 A 
ATOM     74  C   UNL A   1      38.929  33.598  37.898  1.00  0.00     0.173 A 
ATOM     75  C   UNL A   1      40.390  35.216  36.893  1.00  0.00     0.173 A 
ATOM     76  F   UNL A   1      38.260  32.437  37.859  1.00  0.00    -0.203 F 
ATOM     77  C   UNL A   1      38.759  34.436  38.998  1.00  0.00     0.198 A 
ATOM     78  C   UNL A   1      40.247  36.036  38.011  1.00  0.00     0.198 A 
ATOM     79  F   UNL A   1      41.171  35.631  35.886  1.00  0.00    -0.203 F 
ATOM     80  F   UNL A   1      37.930  34.077  39.989  1.00  0.00    -0.200 F 
ATOM     81  C   UNL A   1      39.421  35.653  39.056  1.00  0.00     0.200 A 
ATOM     82  F   UNL A   1      40.902  37.205  38.069  1.00  0.00    -0.200 F 
ATOM     83  F   UNL A   1      39.251  36.461  40.111  1.00  0.00    -0.200 F 
ENDBRANCH  49  73
BRANCH  61  84
ATOM     84  C   UNL A   1      43.651  28.459  35.182  1.00  0.00     0.064 A 
ATOM     85  C   UNL A   1      45.012  28.762  35.027  1.00  0.00     0.173 A 
ATOM     86  C   UNL A   1      43.301  27.470  36.112  1.00  0.00     0.173 A 
ATOM     87  F   UNL A   1      45.401  29.688  34.137  1.00  0.00    -0.203 F 
ATOM     88  C   UNL A   1      45.983  28.090  35.763  1.00  0.00     0.198 A 
ATOM     89  C   UNL A   1      44.271  26.823  36.871  1.00  0.00     0.198 A 
ATOM     90  F   UNL A   1      42.012  27.146  36.303  1.00  0.00    -0.203 F 
ATOM     91  F   UNL A   1      47.280  28.366  35.569  1.00  0.00    -0.200 F 
ATOM     92  C   UNL A   1      45.612  27.129  36.693  1.00  0.00     0.200 A 
ATOM     93  F   UNL A   1      43.909  25.908  37.781  1.00  0.00    -0.200 F 
ATOM     94  F   UNL A   1      46.547  26.495  37.413  1.00  0.00    -0.200 F 
ENDBRANCH  61  84
ENDBRANCH  35  36
ENDBRANCH  27  30
ENDBRANCH  25  26
ENDBRANCH  24  25
ENDBRANCH   1  24
TORSDOF 14
ENDMDL
MODEL 3
REMARK VINA RESULT:     -12.9      4.460     10.161
REMARK SMILES CCOc1ccc(-c2nc(C(=O)NCCCCNC(=O)c3ccc(-c4c5nc(c(-c6c(F)c(F)c(F)c(F)c6F)c6ccc([nH]6)c(-c6c(F)c(F)c(F)c(F)c6F)c6nc(c(-c7c(F)c(F)c(F)c(F)c7F)c7ccc4[nH]7)C=C6)C=C5)cc3)cc(=O)[nH]2)cc1
REMARK SMILES IDX 15 1 14 2 13 3 11 4 12 5 10 7 8 8 9 9 87 10 85 11 84 13
REMARK SMILES IDX 86 14 7 15 4 16 5 17 89 18 6 19 88 20 3 21 2 22 1 23 16 24
REMARK SMILES IDX 17 25 18 26 19 27 20 29 21 30 22 31 83 32 23 33 82 34 24 35
REMARK SMILES IDX 25 36 26 37 76 38 27 39 81 40 75 41 77 42 28 43 80 44 74 45
REMARK SMILES IDX 73 46 29 48 61 49 41 50 60 51 42 52 45 53 59 54 78 55 43 56
REMARK SMILES IDX 44 57 58 59 79 60 46 61 30 62 31 63 39 64 32 65 33 66 37 67
REMARK SMILES IDX 40 68 34 69 35 70 38 71 36 72 62 73 63 74 71 75 64 76 65 77
REMARK SMILES IDX 69 78 72 79 66 80 67 81 70 82 68 83 47 84 48 85 56 86 49 87
REMARK SMILES IDX 50 88 54 89 57 90 51 91 52 92 55 93 53 94
REMARK H PARENT 13 6 87 12 18 28 77 47 45 58
REMARK Flexibility Score: inf
ROOT
ATOM      1  C   UNL A   1      31.972  28.058  26.880  1.00  0.00     0.023 C 
ENDROOT
BRANCH   1   2
ATOM      2  C   UNL A   1      32.095  27.734  25.398  1.00  0.00     0.116 C 
BRANCH   2   3
ATOM      3  N   UNL A   1      30.842  27.809  24.671  1.00  0.00    -0.351 N 
ATOM      4  C   UNL A   1      30.349  27.127  23.593  1.00  0.00     0.270 C 
ATOM      5  O   UNL A   1      29.215  27.441  23.218  1.00  0.00    -0.268 OA
ATOM      6  H   UNL A   1      30.222  28.486  25.026  1.00  0.00     0.163 HD
BRANCH   4   7
ATOM      7  C   UNL A   1      31.140  26.072  22.838  1.00  0.00     0.136 A 
ATOM      8  C   UNL A   1      31.892  23.903  22.818  1.00  0.00     0.141 A 
ATOM      9  N   UNL A   1      31.128  24.791  23.368  1.00  0.00    -0.225 NA
ATOM     10  N   UNL A   1      32.575  24.132  21.654  1.00  0.00    -0.306 N 
ATOM     11  C   UNL A   1      32.594  25.352  21.063  1.00  0.00     0.251 A 
ATOM     12  H   UNL A   1      33.069  23.389  21.235  1.00  0.00     0.171 HD
ATOM     13  C   UNL A   1      31.935  26.419  21.818  1.00  0.00     0.105 A 
ATOM     14  O   UNL A   1      33.119  25.567  19.982  1.00  0.00    -0.269 OA
BRANCH   8  15
ATOM     15  C   UNL A   1      32.101  22.571  23.427  1.00  0.00     0.018 A 
ATOM     16  C   UNL A   1      32.392  20.064  24.602  1.00  0.00     0.119 A 
ATOM     17  C   UNL A   1      32.289  21.192  25.412  1.00  0.00     0.047 A 
ATOM     18  C   UNL A   1      32.295  20.177  23.214  1.00  0.00     0.047 A 
ATOM     19  C   UNL A   1      32.147  22.448  24.825  1.00  0.00     0.016 A 
ATOM     20  C   UNL A   1      32.154  21.433  22.622  1.00  0.00     0.016 A 
BRANCH  16  21
ATOM     21  O   UNL A   1      32.458  18.841  25.206  1.00  0.00    -0.494 OA
BRANCH  21  22
ATOM     22  C   UNL A   1      32.423  17.760  24.264  1.00  0.00     0.226 C 
ATOM     23  C   UNL A   1      33.801  17.144  24.078  1.00  0.00     0.049 C 
ENDBRANCH  21  22
ENDBRANCH  16  21
ENDBRANCH   8  15
ENDBRANCH   4   7
ENDBRANCH   2   3
ENDBRANCH   1   2
BRANCH   1  24
ATOM     24  C   UNL A   1      31.795  29.528  27.237  1.00  0.00     0.023 C 
BRANCH  24  25
ATOM     25  C   UNL A   1      32.594  30.520  26.399  1.00  0.00     0.116 C 
BRANCH  25  26
ATOM     26  N   UNL A   1      32.478  31.902  26.850  1.00  0.00    -0.352 N 
ATOM     27  C   UNL A   1      33.369  32.667  27.568  1.00  0.00     0.251 C 
ATOM     28  H   UNL A   1      31.639  32.355  26.605  1.00  0.00     0.163 HD
ATOM     29  O   UNL A   1      33.065  33.797  27.937  1.00  0.00    -0.269 OA
BRANCH  27  30
ATOM     30  C   UNL A   1      34.678  32.095  27.939  1.00  0.00     0.039 A 
ATOM     31  C   UNL A   1      35.789  32.939  27.999  1.00  0.00     0.014 A 
ATOM     32  C   UNL A   1      34.786  30.752  28.308  1.00  0.00     0.014 A 
ATOM     33  C   UNL A   1      36.982  32.465  28.546  1.00  0.00     0.010 A 
ATOM     34  C   UNL A   1      35.950  30.305  28.926  1.00  0.00     0.010 A 
ATOM     35  C   UNL A   1      37.048  31.167  29.078  1.00  0.00    -0.014 A 
BRANCH  35  36
ATOM     36  C   UNL A   1      38.227  30.709  29.858  1.00  0.00     0.031 A 
ATOM     37  C   UNL A   1      39.175  29.699  29.277  1.00  0.00     0.074 A 
ATOM     38  C   UNL A   1      38.382  31.134  31.129  1.00  0.00     0.049 A 
ATOM     39  N   UNL A   1      40.193  29.101  29.842  1.00  0.00    -0.248 NA
ATOM     40  C   UNL A   1      38.936  29.288  27.883  1.00  0.00     0.031 C 
ATOM     41  C   UNL A   1      37.500  32.077  31.821  1.00  0.00     0.029 A 
ATOM     42  N   UNL A   1      39.325  30.812  32.076  1.00  0.00    -0.354 N 
ATOM     43  C   UNL A   1      40.700  28.233  28.885  1.00  0.00     0.074 A 
ATOM     44  C   UNL A   1      39.859  28.353  27.714  1.00  0.00     0.031 C 
ATOM     45  C   UNL A   1      37.952  32.271  33.071  1.00  0.00     0.029 A 
ATOM     46  C   UNL A   1      39.121  31.425  33.289  1.00  0.00     0.049 A 
ATOM     47  H   UNL A   1      40.075  30.199  31.902  1.00  0.00     0.167 HD
ATOM     48  C   UNL A   1      41.779  27.422  28.976  1.00  0.00     0.037 A 
ATOM     49  C   UNL A   1      39.786  31.303  34.455  1.00  0.00     0.037 A 
ATOM     50  C   UNL A   1      42.632  27.334  30.132  1.00  0.00     0.049 A 
ATOM     51  C   UNL A   1      40.962  30.363  34.528  1.00  0.00     0.074 A 
ATOM     52  C   UNL A   1      43.806  26.618  30.280  1.00  0.00     0.029 A 
ATOM     53  N   UNL A   1      42.394  27.970  31.340  1.00  0.00    -0.354 N 
ATOM     54  N   UNL A   1      41.497  29.630  33.583  1.00  0.00    -0.248 NA
ATOM     55  C   UNL A   1      41.625  30.229  35.834  1.00  0.00     0.031 C 
ATOM     56  C   UNL A   1      44.242  26.764  31.600  1.00  0.00     0.029 A 
ATOM     57  C   UNL A   1      43.374  27.620  32.256  1.00  0.00     0.049 A 
ATOM     58  H   UNL A   1      41.642  28.580  31.520  1.00  0.00     0.167 HD
ATOM     59  C   UNL A   1      42.567  28.969  34.171  1.00  0.00     0.074 A 
ATOM     60  C   UNL A   1      42.625  29.408  35.549  1.00  0.00     0.031 C 
ATOM     61  C   UNL A   1      43.423  28.073  33.621  1.00  0.00     0.037 A 
BRANCH  48  62
ATOM     62  C   UNL A   1      42.115  26.553  27.799  1.00  0.00     0.064 A 
ATOM     63  C   UNL A   1      43.054  26.947  26.836  1.00  0.00     0.173 A 
ATOM     64  C   UNL A   1      41.559  25.269  27.689  1.00  0.00     0.173 A 
ATOM     65  F   UNL A   1      43.609  28.167  26.891  1.00  0.00    -0.203 F 
ATOM     66  C   UNL A   1      43.418  26.091  25.799  1.00  0.00     0.198 A 
ATOM     67  C   UNL A   1      41.947  24.405  26.669  1.00  0.00     0.198 A 
ATOM     68  F   UNL A   1      40.660  24.842  28.590  1.00  0.00    -0.203 F 
ATOM     69  F   UNL A   1      44.298  26.497  24.874  1.00  0.00    -0.200 F 
ATOM     70  C   UNL A   1      42.873  24.817  25.725  1.00  0.00     0.200 A 
ATOM     71  F   UNL A   1      41.432  23.170  26.608  1.00  0.00    -0.200 F 
ATOM     72  F   UNL A   1      43.242  23.986  24.740  1.00  0.00    -0.200 F 
ENDBRANCH  48  62
BRANCH  49  73
ATOM     73  C   UNL A   1      39.359  32.067  35.659  1.00  0.00     0.064 A 
ATOM     74  C   UNL A   1      39.915  33.321  35.952  1.00  0.00     0.173 A 
ATOM     75  C   UNL A   1      38.431  31.539  36.570  1.00  0.00     0.173 A 
ATOM     76  F   UNL A   1      40.823  33.859  35.124  1.00  0.00    -0.203 F 
ATOM     77  C   UNL A   1      39.590  33.998  37.125  1.00  0.00     0.198 A 
ATOM     78  C   UNL A   1      38.080  32.235  37.725  1.00  0.00     0.198 A 
ATOM     79  F   UNL A   1      37.866  30.345  36.341  1.00  0.00    -0.203 F 
ATOM     80  F   UNL A   1      40.191  35.161  37.414  1.00  0.00    -0.200 F 
ATOM     81  C   UNL A   1      38.670  33.456  38.010  1.00  0.00     0.200 A 
ATOM     82  F   UNL A   1      37.178  31.714  38.570  1.00  0.00    -0.200 F 
ATOM     83  F   UNL A   1      38.365  34.104  39.142  1.00  0.00    -0.200 F 
ENDBRANCH  49  73
BRANCH  61  84
ATOM     84  C   UNL A   1      44.506  27.520  34.500  1.00  0.00     0.064 A 
ATOM     85  C   UNL A   1      44.337  26.318  35.204  1.00  0.00     0.173 A 
ATOM     86  C   UNL A   1      45.748  28.166  34.592  1.00  0.00     0.173 A 
ATOM     87  F   UNL A   1      43.162  25.672  35.163  1.00  0.00    -0.203 F 
ATOM     88  C   UNL A   1      45.366  25.794  35.981  1.00  0.00     0.198 A 
ATOM     89  C   UNL A   1      46.786  27.621  35.343  1.00  0.00     0.198 A 
ATOM     90  F   UNL A   1      45.964  29.315  33.934  1.00  0.00    -0.203 F 
ATOM     91  F   UNL A   1      45.168  24.666  36.678  1.00  0.00    -0.200 F 
ATOM     92  C   UNL A   1      46.592  26.438  36.041  1.00  0.00     0.200 A 
ATOM     93  F   UNL A   1      47.975  28.236  35.385  1.00  0.00    -0.200 F 
ATOM     94  F   UNL A   1      47.587  25.922  36.776  1.00  0.00    -0.200 F 
ENDBRANCH  61  84
ENDBRANCH  35  36
ENDBRANCH  27  30
ENDBRANCH  25  26
ENDBRANCH  24  25
ENDBRANCH   1  24
TORSDOF 14
ENDMDL
