MODEL 1
REMARK VINA RESULT:     -11.1      0.000      0.000
REMARK SMILES CCOC(=O)c1cc(C[NH2+]CC(=O)NCCCCNC(=O)c2ccc(-c3c4nc(c(-c5c(F)c(F)c(F)c(F)c5F)c5ccc([nH]5)c(-c5c(F)c(F)c(F)c(F)c5F)c5nc(c(-c6c(F)c(F)c(F)c(F)c6F)c6ccc3[nH]6)C=C5)C=C4)cc2)c(C)o1
REMARK SMILES IDX 12 1 13 2 14 3 11 5 10 6 9 9 8 10 6 11 7 12 87 13 85 14
REMARK SMILES IDX 86 15 4 16 5 17 3 18 2 19 1 20 15 21 16 22 17 23 18 24 19 25
REMARK SMILES IDX 20 26 21 28 22 29 23 30 84 31 24 32 83 33 25 34 26 35 27 36
REMARK SMILES IDX 77 37 28 38 82 39 76 40 78 41 29 42 81 43 75 44 74 45 30 47
REMARK SMILES IDX 62 48 42 49 61 50 43 51 46 52 60 53 79 54 44 55 45 56 59 58
REMARK SMILES IDX 80 59 47 60 31 61 32 62 40 63 33 64 34 65 38 66 41 67 35 68
REMARK SMILES IDX 36 69 39 70 37 71 63 72 64 73 72 74 65 75 66 76 70 77 73 78
REMARK SMILES IDX 67 79 68 80 71 81 69 82 48 83 49 84 57 85 50 86 51 87 55 88
REMARK SMILES IDX 58 89 52 90 53 91 56 92 54 93
REMARK H PARENT 14 4 10 7 10 8 19 27 78 46 46 57
REMARK Flexibility Score: inf
ROOT
ATOM      1  C   UNL A   1      33.160  26.979  26.173  1.00  0.00     0.275 C 
ATOM      2  O   UNL A   1      34.126  26.370  25.705  1.00  0.00    -0.269 OA
ATOM      3  N   UNL A   1      33.320  28.319  26.418  1.00  0.00    -0.351 N 
ATOM      4  H   UNL A   1      34.172  28.693  26.096  1.00  0.00     0.163 HD
ENDROOT
BRANCH   1   5
ATOM      5  C   UNL A   1      31.843  26.241  26.505  1.00  0.00     0.362 C 
BRANCH   5   6
ATOM      6  N   UNL A   1      30.651  26.808  25.806  1.00  0.00    -0.335 N 
ATOM      7  H   UNL A   1      29.796  26.423  26.210  1.00  0.00     0.347 HD
ATOM      8  H   UNL A   1      30.625  27.821  25.908  1.00  0.00     0.347 HD
BRANCH   6   9
ATOM      9  C   UNL A   1      30.743  26.441  24.410  1.00  0.00     0.301 C 
BRANCH   9  10
ATOM     10  C   UNL A   1      30.449  27.476  23.396  1.00  0.00     0.048 A 
ATOM     11  C   UNL A   1      29.227  29.198  22.628  1.00  0.00     0.212 A 
ATOM     12  C   UNL A   1      29.126  27.901  23.087  1.00  0.00     0.068 A 
ATOM     13  O   UNL A   1      30.542  29.481  22.373  1.00  0.00    -0.454 OA
ATOM     14  C   UNL A   1      31.282  28.432  22.848  1.00  0.00     0.110 A 
ATOM     15  C   UNL A   1      32.748  28.620  22.837  1.00  0.00     0.088 C 
BRANCH  11  16
ATOM     16  C   UNL A   1      28.235  30.251  22.606  1.00  0.00     0.374 C 
ATOM     17  O   UNL A   1      27.155  30.263  23.177  1.00  0.00    -0.242 OA
BRANCH  16  18
ATOM     18  O   UNL A   1      28.617  31.166  21.663  1.00  0.00    -0.460 OA
BRANCH  18  19
ATOM     19  C   UNL A   1      28.115  32.495  21.850  1.00  0.00     0.230 C 
ATOM     20  C   UNL A   1      28.923  33.110  22.984  1.00  0.00     0.049 C 
ENDBRANCH  18  19
ENDBRANCH  16  18
ENDBRANCH  11  16
ENDBRANCH   9  10
ENDBRANCH   6   9
ENDBRANCH   5   6
ENDBRANCH   1   5
BRANCH   3  21
ATOM     21  C   UNL A   1      32.450  29.286  27.073  1.00  0.00     0.116 C 
BRANCH  21  22
ATOM     22  C   UNL A   1      32.074  30.451  26.141  1.00  0.00     0.023 C 
BRANCH  22  23
ATOM     23  C   UNL A   1      31.650  31.731  26.845  1.00  0.00     0.023 C 
BRANCH  23  24
ATOM     24  C   UNL A   1      32.808  32.593  27.310  1.00  0.00     0.116 C 
BRANCH  24  25
ATOM     25  N   UNL A   1      32.424  33.973  27.582  1.00  0.00    -0.352 N 
ATOM     26  C   UNL A   1      32.946  34.856  28.496  1.00  0.00     0.251 C 
ATOM     27  H   UNL A   1      31.686  34.322  27.032  1.00  0.00     0.163 HD
ATOM     28  O   UNL A   1      32.424  35.951  28.671  1.00  0.00    -0.269 OA
BRANCH  26  29
ATOM     29  C   UNL A   1      34.117  34.453  29.300  1.00  0.00     0.039 A 
ATOM     30  C   UNL A   1      33.913  33.868  30.551  1.00  0.00     0.014 A 
ATOM     31  C   UNL A   1      35.407  34.590  28.786  1.00  0.00     0.014 A 
ATOM     32  C   UNL A   1      35.002  33.340  31.247  1.00  0.00     0.010 A 
ATOM     33  C   UNL A   1      36.468  33.964  29.423  1.00  0.00     0.010 A 
ATOM     34  C   UNL A   1      36.279  33.341  30.664  1.00  0.00    -0.014 A 
BRANCH  34  35
ATOM     35  C   UNL A   1      37.443  32.712  31.335  1.00  0.00     0.031 A 
ATOM     36  C   UNL A   1      38.147  31.558  30.674  1.00  0.00     0.074 A 
ATOM     37  C   UNL A   1      37.803  33.112  32.571  1.00  0.00     0.049 A 
ATOM     38  N   UNL A   1      39.105  30.796  31.137  1.00  0.00    -0.248 NA
ATOM     39  C   UNL A   1      37.680  31.179  29.330  1.00  0.00     0.031 C 
ATOM     40  C   UNL A   1      37.148  34.168  33.345  1.00  0.00     0.029 A 
ATOM     41  N   UNL A   1      38.798  32.662  33.401  1.00  0.00    -0.354 N 
ATOM     42  C   UNL A   1      39.324  29.834  30.160  1.00  0.00     0.074 A 
ATOM     43  C   UNL A   1      38.366  30.070  29.105  1.00  0.00     0.031 C 
ATOM     44  C   UNL A   1      37.772  34.299  34.527  1.00  0.00     0.029 A 
ATOM     45  C   UNL A   1      38.846  33.315  34.608  1.00  0.00     0.049 A 
ATOM     46  H   UNL A   1      39.419  31.939  33.155  1.00  0.00     0.167 HD
ATOM     47  C   UNL A   1      40.262  28.859  30.135  1.00  0.00     0.037 A 
ATOM     48  C   UNL A   1      39.663  33.134  35.664  1.00  0.00     0.037 A 
ATOM     49  C   UNL A   1      41.254  28.672  31.158  1.00  0.00     0.049 A 
ATOM     50  C   UNL A   1      40.733  32.078  35.585  1.00  0.00     0.074 A 
ATOM     51  C   UNL A   1      42.313  27.782  31.179  1.00  0.00     0.029 A 
ATOM     52  N   UNL A   1      41.311  29.395  32.340  1.00  0.00    -0.354 N 
ATOM     53  N   UNL A   1      40.990  31.233  34.616  1.00  0.00    -0.248 NA
ATOM     54  C   UNL A   1      41.633  31.958  36.739  1.00  0.00     0.031 C 
ATOM     55  C   UNL A   1      42.987  27.939  32.395  1.00  0.00     0.029 A 
ATOM     56  C   UNL A   1      42.377  28.958  33.108  1.00  0.00     0.049 A 
ATOM     57  H   UNL A   1      40.687  30.113  32.595  1.00  0.00     0.167 HD
ATOM     58  C   UNL A   1      42.094  30.501  35.032  1.00  0.00     0.074 A 
ATOM     59  C   UNL A   1      42.468  31.013  36.334  1.00  0.00     0.031 C 
ATOM     60  C   UNL A   1      42.739  29.493  34.395  1.00  0.00     0.037 A 
BRANCH  47  61
ATOM     61  C   UNL A   1      40.271  27.929  28.956  1.00  0.00     0.064 A 
ATOM     62  C   UNL A   1      41.000  28.219  27.793  1.00  0.00     0.173 A 
ATOM     63  C   UNL A   1      39.571  26.714  29.008  1.00  0.00     0.173 A 
ATOM     64  F   UNL A   1      41.672  29.375  27.688  1.00  0.00    -0.203 F 
ATOM     65  C   UNL A   1      41.006  27.339  26.715  1.00  0.00     0.198 A 
ATOM     66  C   UNL A   1      39.607  25.821  27.939  1.00  0.00     0.198 A 
ATOM     67  F   UNL A   1      38.860  26.387  30.097  1.00  0.00    -0.203 F 
ATOM     68  F   UNL A   1      41.670  27.660  25.595  1.00  0.00    -0.200 F 
ATOM     69  C   UNL A   1      40.318  26.138  26.791  1.00  0.00     0.200 A 
ATOM     70  F   UNL A   1      38.949  24.657  28.019  1.00  0.00    -0.200 F 
ATOM     71  F   UNL A   1      40.334  25.288  25.755  1.00  0.00    -0.200 F 
ENDBRANCH  47  61
BRANCH  48  72
ATOM     72  C   UNL A   1      39.521  33.986  36.873  1.00  0.00     0.064 A 
ATOM     73  C   UNL A   1      40.153  35.235  36.953  1.00  0.00     0.173 A 
ATOM     74  C   UNL A   1      38.762  33.570  37.977  1.00  0.00     0.173 A 
ATOM     75  F   UNL A   1      40.905  35.670  35.930  1.00  0.00    -0.203 F 
ATOM     76  C   UNL A   1      40.055  36.022  38.098  1.00  0.00     0.198 A 
ATOM     77  C   UNL A   1      38.640  34.370  39.111  1.00  0.00     0.198 A 
ATOM     78  F   UNL A   1      38.130  32.387  37.948  1.00  0.00    -0.203 F 
ATOM     79  F   UNL A   1      40.710  37.188  38.166  1.00  0.00    -0.200 F 
ATOM     80  C   UNL A   1      39.295  35.591  39.175  1.00  0.00     0.200 A 
ATOM     81  F   UNL A   1      37.892  33.956  40.143  1.00  0.00    -0.200 F 
ATOM     82  F   UNL A   1      39.199  36.348  40.276  1.00  0.00    -0.200 F 
ENDBRANCH  48  72
BRANCH  60  83
ATOM     83  C   UNL A   1      43.935  28.901  35.080  1.00  0.00     0.064 A 
ATOM     84  C   UNL A   1      43.817  27.803  35.944  1.00  0.00     0.173 A 
ATOM     85  C   UNL A   1      45.218  29.409  34.828  1.00  0.00     0.173 A 
ATOM     86  F   UNL A   1      42.610  27.291  36.226  1.00  0.00    -0.203 F 
ATOM     87  C   UNL A   1      44.942  27.249  36.550  1.00  0.00     0.198 A 
ATOM     88  C   UNL A   1      46.342  28.834  35.412  1.00  0.00     0.198 A 
ATOM     89  F   UNL A   1      45.381  30.454  34.002  1.00  0.00    -0.203 F 
ATOM     90  F   UNL A   1      44.803  26.228  37.406  1.00  0.00    -0.200 F 
ATOM     91  C   UNL A   1      46.203  27.760  36.277  1.00  0.00     0.200 A 
ATOM     92  F   UNL A   1      47.561  29.319  35.137  1.00  0.00    -0.200 F 
ATOM     93  F   UNL A   1      47.285  27.219  36.854  1.00  0.00    -0.200 F 
ENDBRANCH  60  83
ENDBRANCH  34  35
ENDBRANCH  26  29
ENDBRANCH  24  25
ENDBRANCH  23  24
ENDBRANCH  22  23
ENDBRANCH  21  22
ENDBRANCH   3  21
TORSDOF 17
ENDMDL
MODEL 2
REMARK VINA RESULT:     -10.9      0.981      7.493
REMARK SMILES CCOC(=O)c1cc(C[NH2+]CC(=O)NCCCCNC(=O)c2ccc(-c3c4nc(c(-c5c(F)c(F)c(F)c(F)c5F)c5ccc([nH]5)c(-c5c(F)c(F)c(F)c(F)c5F)c5nc(c(-c6c(F)c(F)c(F)c(F)c6F)c6ccc3[nH]6)C=C5)C=C4)cc2)c(C)o1
REMARK SMILES IDX 12 1 13 2 14 3 11 5 10 6 9 9 8 10 6 11 7 12 87 13 85 14
REMARK SMILES IDX 86 15 4 16 5 17 3 18 2 19 1 20 15 21 16 22 17 23 18 24 19 25
REMARK SMILES IDX 20 26 21 28 22 29 23 30 84 31 24 32 83 33 25 34 26 35 27 36
REMARK SMILES IDX 77 37 28 38 82 39 76 40 78 41 29 42 81 43 75 44 74 45 30 47
REMARK SMILES IDX 62 48 42 49 61 50 43 51 46 52 60 53 79 54 44 55 45 56 59 58
REMARK SMILES IDX 80 59 47 60 31 61 32 62 40 63 33 64 34 65 38 66 41 67 35 68
REMARK SMILES IDX 36 69 39 70 37 71 63 72 64 73 72 74 65 75 66 76 70 77 73 78
REMARK SMILES IDX 67 79 68 80 71 81 69 82 48 83 49 84 57 85 50 86 51 87 55 88
REMARK SMILES IDX 58 89 52 90 53 91 56 92 54 93
REMARK H PARENT 14 4 10 7 10 8 19 27 78 46 46 57
REMARK Flexibility Score: inf
ROOT
ATOM      1  C   UNL A   1      33.047  28.351  24.314  1.00  0.00     0.275 C 
ATOM      2  O   UNL A   1      34.174  28.207  23.834  1.00  0.00    -0.269 OA
ATOM      3  N   UNL A   1      32.676  29.619  24.683  1.00  0.00    -0.351 N 
ATOM      4  H   UNL A   1      33.319  30.320  24.429  1.00  0.00     0.163 HD
ENDROOT
BRANCH   1   5
ATOM      5  C   UNL A   1      32.115  27.135  24.527  1.00  0.00     0.362 C 
BRANCH   5   6
ATOM      6  N   UNL A   1      31.926  26.308  23.298  1.00  0.00    -0.335 N 
ATOM      7  H   UNL A   1      32.831  25.986  22.953  1.00  0.00     0.347 HD
ATOM      8  H   UNL A   1      31.352  25.491  23.503  1.00  0.00     0.347 HD
BRANCH   6   9
ATOM      9  C   UNL A   1      31.287  27.138  22.302  1.00  0.00     0.301 C 
BRANCH   9  10
ATOM     10  C   UNL A   1      30.175  28.013  22.731  1.00  0.00     0.048 A 
ATOM     11  C   UNL A   1      28.697  29.662  22.345  1.00  0.00     0.212 A 
ATOM     12  C   UNL A   1      30.043  29.364  22.297  1.00  0.00     0.068 A 
ATOM     13  O   UNL A   1      28.047  28.681  23.044  1.00  0.00    -0.454 OA
ATOM     14  C   UNL A   1      28.949  27.677  23.271  1.00  0.00     0.110 A 
ATOM     15  C   UNL A   1      28.400  26.436  23.856  1.00  0.00     0.088 C 
BRANCH  11  16
ATOM     16  C   UNL A   1      27.946  30.665  21.623  1.00  0.00     0.374 C 
ATOM     17  O   UNL A   1      27.810  30.759  20.412  1.00  0.00    -0.242 OA
BRANCH  16  18
ATOM     18  O   UNL A   1      27.569  31.630  22.516  1.00  0.00    -0.460 OA
BRANCH  18  19
ATOM     19  C   UNL A   1      28.566  32.015  23.471  1.00  0.00     0.230 C 
ATOM     20  C   UNL A   1      29.007  33.423  23.095  1.00  0.00     0.049 C 
ENDBRANCH  18  19
ENDBRANCH  16  18
ENDBRANCH  11  16
ENDBRANCH   9  10
ENDBRANCH   6   9
ENDBRANCH   5   6
ENDBRANCH   1   5
BRANCH   3  21
ATOM     21  C   UNL A   1      31.499  30.109  25.385  1.00  0.00     0.116 C 
BRANCH  21  22
ATOM     22  C   UNL A   1      31.851  30.711  26.757  1.00  0.00     0.023 C 
BRANCH  22  23
ATOM     23  C   UNL A   1      31.588  32.202  26.897  1.00  0.00     0.023 C 
BRANCH  23  24
ATOM     24  C   UNL A   1      32.811  33.013  27.278  1.00  0.00     0.116 C 
BRANCH  24  25
ATOM     25  N   UNL A   1      32.487  34.357  27.740  1.00  0.00    -0.352 N 
ATOM     26  C   UNL A   1      33.047  35.081  28.765  1.00  0.00     0.251 C 
ATOM     27  H   UNL A   1      31.766  34.811  27.247  1.00  0.00     0.163 HD
ATOM     28  O   UNL A   1      32.573  36.163  29.093  1.00  0.00    -0.269 OA
BRANCH  26  29
ATOM     29  C   UNL A   1      34.197  34.520  29.500  1.00  0.00     0.039 A 
ATOM     30  C   UNL A   1      33.971  33.834  30.695  1.00  0.00     0.014 A 
ATOM     31  C   UNL A   1      35.486  34.614  28.972  1.00  0.00     0.014 A 
ATOM     32  C   UNL A   1      35.029  33.165  31.312  1.00  0.00     0.010 A 
ATOM     33  C   UNL A   1      36.508  33.856  29.522  1.00  0.00     0.010 A 
ATOM     34  C   UNL A   1      36.294  33.130  30.703  1.00  0.00    -0.014 A 
BRANCH  34  35
ATOM     35  C   UNL A   1      37.420  32.358  31.284  1.00  0.00     0.031 A 
ATOM     36  C   UNL A   1      37.937  32.714  32.650  1.00  0.00     0.074 A 
ATOM     37  C   UNL A   1      38.034  31.410  30.548  1.00  0.00     0.049 A 
ATOM     38  N   UNL A   1      38.979  32.247  33.289  1.00  0.00    -0.248 NA
ATOM     39  C   UNL A   1      37.215  33.772  33.377  1.00  0.00     0.031 C 
ATOM     40  C   UNL A   1      37.672  31.029  29.181  1.00  0.00     0.029 A 
ATOM     41  N   UNL A   1      39.106  30.607  30.842  1.00  0.00    -0.354 N 
ATOM     42  C   UNL A   1      39.053  32.977  34.469  1.00  0.00     0.074 A 
ATOM     43  C   UNL A   1      37.990  33.955  34.434  1.00  0.00     0.031 C 
ATOM     44  C   UNL A   1      38.492  30.051  28.764  1.00  0.00     0.029 A 
ATOM     45  C   UNL A   1      39.459  29.762  29.818  1.00  0.00     0.049 A 
ATOM     46  H   UNL A   1      39.578  30.633  31.705  1.00  0.00     0.167 HD
ATOM     47  C   UNL A   1      39.916  32.823  35.501  1.00  0.00     0.037 A 
ATOM     48  C   UNL A   1      40.456  28.859  29.739  1.00  0.00     0.037 A 
ATOM     49  C   UNL A   1      40.929  31.805  35.556  1.00  0.00     0.049 A 
ATOM     50  C   UNL A   1      41.365  28.672  30.923  1.00  0.00     0.074 A 
ATOM     51  C   UNL A   1      41.785  31.497  36.598  1.00  0.00     0.029 A 
ATOM     52  N   UNL A   1      41.216  30.925  34.523  1.00  0.00    -0.354 N 
ATOM     53  N   UNL A   1      41.369  29.306  32.071  1.00  0.00    -0.248 NA
ATOM     54  C   UNL A   1      42.401  27.637  30.807  1.00  0.00     0.031 C 
ATOM     55  C   UNL A   1      42.619  30.456  36.180  1.00  0.00     0.029 A 
ATOM     56  C   UNL A   1      42.251  30.085  34.897  1.00  0.00     0.049 A 
ATOM     57  H   UNL A   1      40.753  30.901  33.655  1.00  0.00     0.167 HD
ATOM     58  C   UNL A   1      42.386  28.731  32.821  1.00  0.00     0.074 A 
ATOM     59  C   UNL A   1      42.966  27.686  32.004  1.00  0.00     0.031 C 
ATOM     60  C   UNL A   1      42.804  29.041  34.072  1.00  0.00     0.037 A 
BRANCH  47  61
ATOM     61  C   UNL A   1      39.790  33.767  36.661  1.00  0.00     0.064 A 
ATOM     62  C   UNL A   1      40.477  34.990  36.696  1.00  0.00     0.173 A 
ATOM     63  C   UNL A   1      38.939  33.461  37.734  1.00  0.00     0.173 A 
ATOM     64  F   UNL A   1      41.315  35.322  35.702  1.00  0.00    -0.203 F 
ATOM     65  C   UNL A   1      40.339  35.859  37.774  1.00  0.00     0.198 A 
ATOM     66  C   UNL A   1      38.778  34.348  38.796  1.00  0.00     0.198 A 
ATOM     67  F   UNL A   1      38.257  32.306  37.750  1.00  0.00    -0.203 F 
ATOM     68  F   UNL A   1      41.043  36.998  37.809  1.00  0.00    -0.200 F 
ATOM     69  C   UNL A   1      39.484  35.542  38.819  1.00  0.00     0.200 A 
ATOM     70  F   UNL A   1      37.944  34.045  39.799  1.00  0.00    -0.200 F 
ATOM     71  F   UNL A   1      39.344  36.385  39.852  1.00  0.00    -0.200 F 
ENDBRANCH  47  61
BRANCH  48  72
ATOM     72  C   UNL A   1      40.631  28.046  28.507  1.00  0.00     0.064 A 
ATOM     73  C   UNL A   1      40.009  26.797  28.374  1.00  0.00     0.173 A 
ATOM     74  C   UNL A   1      41.429  28.492  27.443  1.00  0.00     0.173 A 
ATOM     75  F   UNL A   1      39.250  26.318  29.372  1.00  0.00    -0.203 F 
ATOM     76  C   UNL A   1      40.199  26.013  27.238  1.00  0.00     0.198 A 
ATOM     77  C   UNL A   1      41.596  27.721  26.295  1.00  0.00     0.198 A 
ATOM     78  F   UNL A   1      42.039  29.684  27.516  1.00  0.00    -0.203 F 
ATOM     79  F   UNL A   1      39.633  24.802  27.160  1.00  0.00    -0.200 F 
ATOM     80  C   UNL A   1      40.990  26.478  26.197  1.00  0.00     0.200 A 
ATOM     81  F   UNL A   1      42.347  28.180  25.285  1.00  0.00    -0.200 F 
ATOM     82  F   UNL A   1      41.171  25.724  25.104  1.00  0.00    -0.200 F 
ENDBRANCH  48  72
BRANCH  60  83
ATOM     83  C   UNL A   1      43.919  28.220  34.648  1.00  0.00     0.064 A 
ATOM     84  C   UNL A   1      43.672  27.015  35.321  1.00  0.00     0.173 A 
ATOM     85  C   UNL A   1      45.253  28.622  34.481  1.00  0.00     0.173 A 
ATOM     86  F   UNL A   1      42.413  26.598  35.518  1.00  0.00    -0.203 F 
ATOM     87  C   UNL A   1      44.722  26.252  35.825  1.00  0.00     0.198 A 
ATOM     88  C   UNL A   1      46.300  27.842  34.960  1.00  0.00     0.198 A 
ATOM     89  F   UNL A   1      45.540  29.764  33.837  1.00  0.00    -0.203 F 
ATOM     90  F   UNL A   1      44.462  25.126  36.503  1.00  0.00    -0.200 F 
ATOM     91  C   UNL A   1      46.034  26.662  35.638  1.00  0.00     0.200 A 
ATOM     92  F   UNL A   1      47.568  28.231  34.766  1.00  0.00    -0.200 F 
ATOM     93  F   UNL A   1      47.043  25.921  36.116  1.00  0.00    -0.200 F 
ENDBRANCH  60  83
ENDBRANCH  34  35
ENDBRANCH  26  29
ENDBRANCH  24  25
ENDBRANCH  23  24
ENDBRANCH  22  23
ENDBRANCH  21  22
ENDBRANCH   3  21
TORSDOF 17
ENDMDL
MODEL 3
REMARK VINA RESULT:     -10.7      1.940      7.839
REMARK SMILES CCOC(=O)c1cc(C[NH2+]CC(=O)NCCCCNC(=O)c2ccc(-c3c4nc(c(-c5c(F)c(F)c(F)c(F)c5F)c5ccc([nH]5)c(-c5c(F)c(F)c(F)c(F)c5F)c5nc(c(-c6c(F)c(F)c(F)c(F)c6F)c6ccc3[nH]6)C=C5)C=C4)cc2)c(C)o1
REMARK SMILES IDX 12 1 13 2 14 3 11 5 10 6 9 9 8 10 6 11 7 12 87 13 85 14
REMARK SMILES IDX 86 15 4 16 5 17 3 18 2 19 1 20 15 21 16 22 17 23 18 24 19 25
REMARK SMILES IDX 20 26 21 28 22 29 23 30 84 31 24 32 83 33 25 34 26 35 27 36
REMARK SMILES IDX 77 37 28 38 82 39 76 40 78 41 29 42 81 43 75 44 74 45 30 47
REMARK SMILES IDX 62 48 42 49 61 50 43 51 46 52 60 53 79 54 44 55 45 56 59 58
REMARK SMILES IDX 80 59 47 60 31 61 32 62 40 63 33 64 34 65 38 66 41 67 35 68
REMARK SMILES IDX 36 69 39 70 37 71 63 72 64 73 72 74 65 75 66 76 70 77 73 78
REMARK SMILES IDX 67 79 68 80 71 81 69 82 48 83 49 84 57 85 50 86 51 87 55 88
REMARK SMILES IDX 58 89 52 90 53 91 56 92 54 93
REMARK H PARENT 14 4 10 7 10 8 19 27 78 46 46 57
REMARK Flexibility Score: inf
ROOT
ATOM      1  C   UNL A   1      31.279  24.601  26.221  1.00  0.00     0.275 C 
ATOM      2  O   UNL A   1      30.246  23.942  26.358  1.00  0.00    -0.269 OA
ATOM      3  N   UNL A   1      31.352  25.804  26.876  1.00  0.00    -0.351 N 
ATOM      4  H   UNL A   1      30.599  25.980  27.486  1.00  0.00     0.163 HD
ENDROOT
BRANCH   1   5
ATOM      5  C   UNL A   1      32.422  24.101  25.308  1.00  0.00     0.362 C 
BRANCH   5   6
ATOM      6  N   UNL A   1      32.239  24.466  23.871  1.00  0.00    -0.335 N 
ATOM      7  H   UNL A   1      32.553  23.698  23.275  1.00  0.00     0.347 HD
ATOM      8  H   UNL A   1      31.256  24.646  23.670  1.00  0.00     0.347 HD
BRANCH   6   9
ATOM      9  C   UNL A   1      33.033  25.646  23.610  1.00  0.00     0.301 C 
BRANCH   9  10
ATOM     10  C   UNL A   1      32.404  26.761  22.871  1.00  0.00     0.048 A 
ATOM     11  C   UNL A   1      30.675  28.141  22.473  1.00  0.00     0.212 A 
ATOM     12  C   UNL A   1      31.010  26.807  22.582  1.00  0.00     0.068 A 
ATOM     13  O   UNL A   1      31.821  28.884  22.397  1.00  0.00    -0.454 OA
ATOM     14  C   UNL A   1      32.870  28.041  22.646  1.00  0.00     0.110 A 
ATOM     15  C   UNL A   1      34.194  28.683  22.791  1.00  0.00     0.088 C 
BRANCH  11  16
ATOM     16  C   UNL A   1      29.393  28.789  22.645  1.00  0.00     0.374 C 
ATOM     17  O   UNL A   1      28.386  28.317  23.153  1.00  0.00    -0.242 OA
BRANCH  16  18
ATOM     18  O   UNL A   1      29.425  29.968  21.953  1.00  0.00    -0.460 OA
BRANCH  18  19
ATOM     19  C   UNL A   1      28.163  30.426  21.449  1.00  0.00     0.230 C 
ATOM     20  C   UNL A   1      28.232  31.947  21.423  1.00  0.00     0.049 C 
ENDBRANCH  18  19
ENDBRANCH  16  18
ENDBRANCH  11  16
ENDBRANCH   9  10
ENDBRANCH   6   9
ENDBRANCH   5   6
ENDBRANCH   1   5
BRANCH   3  21
ATOM     21  C   UNL A   1      32.346  26.866  26.826  1.00  0.00     0.116 C 
BRANCH  21  22
ATOM     22  C   UNL A   1      31.753  28.233  27.208  1.00  0.00     0.023 C 
BRANCH  22  23
ATOM     23  C   UNL A   1      31.670  29.243  26.073  1.00  0.00     0.023 C 
BRANCH  23  24
ATOM     24  C   UNL A   1      32.885  30.142  25.955  1.00  0.00     0.116 C 
BRANCH  24  25
ATOM     25  N   UNL A   1      32.661  31.482  26.482  1.00  0.00    -0.352 N 
ATOM     26  C   UNL A   1      33.406  32.194  27.391  1.00  0.00     0.251 C 
ATOM     27  H   UNL A   1      31.864  31.944  26.136  1.00  0.00     0.163 HD
ATOM     28  O   UNL A   1      33.008  33.274  27.812  1.00  0.00    -0.269 OA
BRANCH  26  29
ATOM     29  C   UNL A   1      34.670  31.620  27.894  1.00  0.00     0.039 A 
ATOM     30  C   UNL A   1      35.779  32.454  28.054  1.00  0.00     0.014 A 
ATOM     31  C   UNL A   1      34.736  30.277  28.269  1.00  0.00     0.014 A 
ATOM     32  C   UNL A   1      36.926  31.958  28.676  1.00  0.00     0.010 A 
ATOM     33  C   UNL A   1      35.830  29.821  28.988  1.00  0.00     0.010 A 
ATOM     34  C   UNL A   1      36.940  30.652  29.191  1.00  0.00    -0.014 A 
BRANCH  34  35
ATOM     35  C   UNL A   1      38.108  30.120  29.934  1.00  0.00     0.031 A 
ATOM     36  C   UNL A   1      38.353  30.563  31.351  1.00  0.00     0.074 A 
ATOM     37  C   UNL A   1      38.995  29.321  29.307  1.00  0.00     0.049 A 
ATOM     38  N   UNL A   1      39.370  30.311  32.134  1.00  0.00    -0.248 NA
ATOM     39  C   UNL A   1      37.340  31.447  31.953  1.00  0.00     0.031 C 
ATOM     40  C   UNL A   1      38.907  28.885  27.913  1.00  0.00     0.029 A 
ATOM     41  N   UNL A   1      40.157  28.748  29.760  1.00  0.00    -0.354 N 
ATOM     42  C   UNL A   1      39.135  31.031  33.298  1.00  0.00     0.074 A 
ATOM     43  C   UNL A   1      37.911  31.774  33.100  1.00  0.00     0.031 C 
ATOM     44  C   UNL A   1      39.956  28.096  27.630  1.00  0.00     0.029 A 
ATOM     45  C   UNL A   1      40.809  28.000  28.810  1.00  0.00     0.049 A 
ATOM     46  H   UNL A   1      40.492  28.863  30.678  1.00  0.00     0.167 HD
ATOM     47  C   UNL A   1      39.861  31.047  34.440  1.00  0.00     0.037 A 
ATOM     48  C   UNL A   1      41.968  27.318  28.884  1.00  0.00     0.037 A 
ATOM     49  C   UNL A   1      41.041  30.254  34.652  1.00  0.00     0.049 A 
ATOM     50  C   UNL A   1      42.726  27.309  30.184  1.00  0.00     0.074 A 
ATOM     51  C   UNL A   1      41.791  30.118  35.806  1.00  0.00     0.029 A 
ATOM     52  N   UNL A   1      41.638  29.459  33.685  1.00  0.00    -0.354 N 
ATOM     53  N   UNL A   1      42.446  27.922  31.309  1.00  0.00    -0.248 NA
ATOM     54  C   UNL A   1      43.956  26.506  30.231  1.00  0.00     0.031 C 
ATOM     55  C   UNL A   1      42.868  29.270  35.526  1.00  0.00     0.029 A 
ATOM     56  C   UNL A   1      42.760  28.842  34.212  1.00  0.00     0.049 A 
ATOM     57  H   UNL A   1      41.312  29.348  32.763  1.00  0.00     0.167 HD
ATOM     58  C   UNL A   1      43.446  27.559  32.201  1.00  0.00     0.074 A 
ATOM     59  C   UNL A   1      44.331  26.659  31.492  1.00  0.00     0.031 C 
ATOM     60  C   UNL A   1      43.619  27.938  33.491  1.00  0.00     0.037 A 
BRANCH  47  61
ATOM     61  C   UNL A   1      39.391  31.938  35.553  1.00  0.00     0.064 A 
ATOM     62  C   UNL A   1      38.472  31.494  36.515  1.00  0.00     0.173 A 
ATOM     63  C   UNL A   1      39.899  33.239  35.681  1.00  0.00     0.173 A 
ATOM     64  F   UNL A   1      37.945  30.263  36.428  1.00  0.00    -0.203 F 
ATOM     65  C   UNL A   1      38.057  32.329  37.548  1.00  0.00     0.198 A 
ATOM     66  C   UNL A   1      39.506  34.061  36.735  1.00  0.00     0.198 A 
ATOM     67  F   UNL A   1      40.783  33.713  34.790  1.00  0.00    -0.203 F 
ATOM     68  F   UNL A   1      37.140  31.901  38.427  1.00  0.00    -0.200 F 
ATOM     69  C   UNL A   1      38.580  33.608  37.663  1.00  0.00     0.200 A 
ATOM     70  F   UNL A   1      40.021  35.293  36.850  1.00  0.00    -0.200 F 
ATOM     71  F   UNL A   1      38.187  34.408  38.664  1.00  0.00    -0.200 F 
ENDBRANCH  47  61
BRANCH  48  72
ATOM     72  C   UNL A   1      42.470  26.567  27.704  1.00  0.00     0.064 A 
ATOM     73  C   UNL A   1      42.045  25.254  27.452  1.00  0.00     0.173 A 
ATOM     74  C   UNL A   1      43.389  27.136  26.810  1.00  0.00     0.173 A 
ATOM     75  F   UNL A   1      41.181  24.659  28.289  1.00  0.00    -0.203 F 
ATOM     76  C   UNL A   1      42.540  24.531  26.369  1.00  0.00     0.198 A 
ATOM     77  C   UNL A   1      43.861  26.423  25.711  1.00  0.00     0.198 A 
ATOM     78  F   UNL A   1      43.820  28.392  27.001  1.00  0.00    -0.203 F 
ATOM     79  F   UNL A   1      42.156  23.262  26.182  1.00  0.00    -0.200 F 
ATOM     80  C   UNL A   1      43.445  25.118  25.497  1.00  0.00     0.200 A 
ATOM     81  F   UNL A   1      44.723  26.999  24.862  1.00  0.00    -0.200 F 
ATOM     82  F   UNL A   1      43.919  24.423  24.454  1.00  0.00    -0.200 F 
ENDBRANCH  48  72
BRANCH  60  83
ATOM     83  C   UNL A   1      44.787  27.355  34.229  1.00  0.00     0.064 A 
ATOM     84  C   UNL A   1      44.694  26.127  34.898  1.00  0.00     0.173 A 
ATOM     85  C   UNL A   1      46.027  28.012  34.223  1.00  0.00     0.173 A 
ATOM     86  F   UNL A   1      43.526  25.469  34.943  1.00  0.00    -0.203 F 
ATOM     87  C   UNL A   1      45.797  25.587  35.555  1.00  0.00     0.198 A 
ATOM     88  C   UNL A   1      47.134  27.455  34.855  1.00  0.00     0.198 A 
ATOM     89  F   UNL A   1      46.167  29.187  33.589  1.00  0.00    -0.203 F 
ATOM     90  F   UNL A   1      45.675  24.434  36.225  1.00  0.00    -0.200 F 
ATOM     91  C   UNL A   1      47.017  26.247  35.526  1.00  0.00     0.200 A 
ATOM     92  F   UNL A   1      48.315  28.087  34.814  1.00  0.00    -0.200 F 
ATOM     93  F   UNL A   1      48.079  25.722  36.150  1.00  0.00    -0.200 F 
ENDBRANCH  60  83
ENDBRANCH  34  35
ENDBRANCH  26  29
ENDBRANCH  24  25
ENDBRANCH  23  24
ENDBRANCH  22  23
ENDBRANCH  21  22
ENDBRANCH   3  21
TORSDOF 17
ENDMDL
