MODEL 1
REMARK VINA RESULT:     -11.8      0.000      0.000
REMARK SMILES C=CCN(CC(=O)NCCCCNC(=O)c1ccc(-c2c3nc(c(-c4c(F)c(F)c(F)c(F)c4F)c4ccc([nH]4)c(-c4c(F)c(F)c(F)c(F)c4F)c4nc(c(-c5c(F)c(F)c(F)c(F)c5F)c5ccc2[nH]5)C=C4)C=C3)cc1)C(=O)c1cn(C2C[NH2+]C2)nn1
REMARK SMILES IDX 9 1 8 2 6 3 7 4 5 6 4 7 3 8 2 9 1 10 79 11 80 12 81 13 82 14
REMARK SMILES IDX 89 15 83 16 88 17 84 18 85 19 87 20 86 21 10 24 11 25 12 26
REMARK SMILES IDX 13 27 14 28 15 30 16 31 17 32 78 33 18 34 77 35 19 36 20 37
REMARK SMILES IDX 21 38 71 39 22 40 76 41 70 42 72 43 23 44 75 45 69 46 68 47
REMARK SMILES IDX 24 49 56 50 36 51 55 52 37 53 40 54 54 55 73 56 38 57 39 58
REMARK SMILES IDX 53 60 74 61 41 62 25 63 26 64 34 65 27 66 28 67 32 68 35 69
REMARK SMILES IDX 29 70 30 71 33 72 31 73 57 74 58 75 66 76 59 77 60 78 64 79
REMARK SMILES IDX 67 80 61 81 62 82 65 83 63 84 42 85 43 86 51 87 44 88 45 89
REMARK SMILES IDX 49 90 52 91 46 92 47 93 50 94 48 95
REMARK H PARENT 8 5 86 22 86 23 13 29 72 48 40 59
REMARK Flexibility Score: inf
ROOT
ATOM      1  C   UNL A   1      32.332  29.565  27.143  1.00  0.00     0.116 C 
ENDROOT
BRANCH   1   2
ATOM      2  N   UNL A   1      31.486  28.394  27.233  1.00  0.00    -0.355 N 
ATOM      3  C   UNL A   1      31.368  27.332  26.385  1.00  0.00     0.239 C 
ATOM      4  O   UNL A   1      30.828  26.319  26.838  1.00  0.00    -0.273 OA
ATOM      5  H   UNL A   1      30.907  28.359  28.027  1.00  0.00     0.163 HD
BRANCH   3   6
ATOM      6  C   UNL A   1      31.982  27.317  24.971  1.00  0.00     0.220 C 
BRANCH   6   7
ATOM      7  N   UNL A   1      31.193  26.636  23.939  1.00  0.00    -0.324 N 
BRANCH   7   8
ATOM      8  C   UNL A   1      31.794  25.509  23.240  1.00  0.00     0.147 C 
BRANCH   8   9
ATOM      9  C   UNL A   1      32.038  24.379  24.190  1.00  0.00    -0.014 C 
ATOM     10  C   UNL A   1      31.112  23.453  24.480  1.00  0.00     0.006 C 
ENDBRANCH   8   9
ENDBRANCH   7   8
BRANCH   7  11
ATOM     11  C   UNL A   1      29.843  26.925  23.685  1.00  0.00     0.276 C 
ATOM     12  O   UNL A   1      28.936  26.171  24.041  1.00  0.00    -0.267 OA
BRANCH  11  13
ATOM     13  C   UNL A   1      29.536  28.147  22.957  1.00  0.00     0.170 A 
ATOM     14  C   UNL A   1      28.451  28.986  23.113  1.00  0.00     0.145 A 
ATOM     15  N   UNL A   1      30.356  28.656  21.983  1.00  0.00    -0.125 NA
ATOM     16  N   UNL A   1      28.647  29.964  22.176  1.00  0.00    -0.237 N 
ATOM     17  N   UNL A   1      29.804  29.768  21.516  1.00  0.00    -0.066 NA
BRANCH  16  18
ATOM     18  C   UNL A   1      27.793  31.069  21.855  1.00  0.00     0.218 C 
ATOM     19  C   UNL A   1      28.429  32.438  22.191  1.00  0.00     0.294 C 
ATOM     20  C   UNL A   1      27.876  31.573  20.398  1.00  0.00     0.294 C 
ATOM     21  N   UNL A   1      27.900  32.962  20.911  1.00  0.00    -0.342 N 
ATOM     22  H   UNL A   1      28.537  33.584  20.414  1.00  0.00     0.346 HD
ATOM     23  H   UNL A   1      27.066  33.549  20.884  1.00  0.00     0.346 HD
ENDBRANCH  16  18
ENDBRANCH  11  13
ENDBRANCH   7  11
ENDBRANCH   6   7
ENDBRANCH   3   6
ENDBRANCH   1   2
BRANCH   1  24
ATOM     24  C   UNL A   1      31.818  30.625  26.170  1.00  0.00     0.023 C 
BRANCH  24  25
ATOM     25  C   UNL A   1      31.495  31.989  26.778  1.00  0.00     0.023 C 
BRANCH  25  26
ATOM     26  C   UNL A   1      32.680  32.768  27.332  1.00  0.00     0.116 C 
BRANCH  26  27
ATOM     27  N   UNL A   1      32.367  34.144  27.680  1.00  0.00    -0.352 N 
ATOM     28  C   UNL A   1      32.995  34.975  28.578  1.00  0.00     0.251 C 
ATOM     29  H   UNL A   1      31.598  34.536  27.207  1.00  0.00     0.163 HD
ATOM     30  O   UNL A   1      32.548  36.099  28.790  1.00  0.00    -0.269 OA
BRANCH  28  31
ATOM     31  C   UNL A   1      34.180  34.501  29.325  1.00  0.00     0.039 A 
ATOM     32  C   UNL A   1      33.987  33.921  30.583  1.00  0.00     0.014 A 
ATOM     33  C   UNL A   1      35.467  34.611  28.793  1.00  0.00     0.014 A 
ATOM     34  C   UNL A   1      35.074  33.380  31.273  1.00  0.00     0.010 A 
ATOM     35  C   UNL A   1      36.541  34.018  29.452  1.00  0.00     0.010 A 
ATOM     36  C   UNL A   1      36.351  33.392  30.694  1.00  0.00    -0.014 A 
BRANCH  36  37
ATOM     37  C   UNL A   1      37.506  32.742  31.361  1.00  0.00     0.031 A 
ATOM     38  C   UNL A   1      38.223  31.607  30.691  1.00  0.00     0.074 A 
ATOM     39  C   UNL A   1      37.855  33.123  32.604  1.00  0.00     0.049 A 
ATOM     40  N   UNL A   1      39.184  30.847  31.152  1.00  0.00    -0.248 NA
ATOM     41  C   UNL A   1      37.783  31.263  29.330  1.00  0.00     0.031 C 
ATOM     42  C   UNL A   1      37.210  34.185  33.376  1.00  0.00     0.029 A 
ATOM     43  N   UNL A   1      38.833  32.648  33.442  1.00  0.00    -0.354 N 
ATOM     44  C   UNL A   1      39.447  29.923  30.152  1.00  0.00     0.074 A 
ATOM     45  C   UNL A   1      38.521  30.194  29.071  1.00  0.00     0.031 C 
ATOM     46  C   UNL A   1      37.818  34.293  34.568  1.00  0.00     0.029 A 
ATOM     47  C   UNL A   1      38.874  33.288  34.655  1.00  0.00     0.049 A 
ATOM     48  H   UNL A   1      39.445  31.918  33.197  1.00  0.00     0.167 HD
ATOM     49  C   UNL A   1      40.385  28.947  30.129  1.00  0.00     0.037 A 
ATOM     50  C   UNL A   1      39.672  33.084  35.720  1.00  0.00     0.037 A 
ATOM     51  C   UNL A   1      41.328  28.702  31.187  1.00  0.00     0.049 A 
ATOM     52  C   UNL A   1      40.715  32.004  35.664  1.00  0.00     0.074 A 
ATOM     53  C   UNL A   1      42.359  27.779  31.229  1.00  0.00     0.029 A 
ATOM     54  N   UNL A   1      41.355  29.387  32.392  1.00  0.00    -0.354 N 
ATOM     55  N   UNL A   1      40.987  31.168  34.694  1.00  0.00    -0.248 NA
ATOM     56  C   UNL A   1      41.562  31.841  36.855  1.00  0.00     0.031 C 
ATOM     57  C   UNL A   1      42.994  27.889  32.472  1.00  0.00     0.029 A 
ATOM     58  C   UNL A   1      42.377  28.900  33.190  1.00  0.00     0.049 A 
ATOM     59  H   UNL A   1      40.740  30.113  32.643  1.00  0.00     0.167 HD
ATOM     60  C   UNL A   1      42.048  30.395  35.143  1.00  0.00     0.074 A 
ATOM     61  C   UNL A   1      42.376  30.866  36.473  1.00  0.00     0.031 C 
ATOM     62  C   UNL A   1      42.692  29.386  34.509  1.00  0.00     0.037 A 
BRANCH  49  63
ATOM     63  C   UNL A   1      40.435  28.072  28.913  1.00  0.00     0.064 A 
ATOM     64  C   UNL A   1      41.187  28.430  27.783  1.00  0.00     0.173 A 
ATOM     65  C   UNL A   1      39.735  26.858  28.881  1.00  0.00     0.173 A 
ATOM     66  F   UNL A   1      41.860  29.589  27.760  1.00  0.00    -0.203 F 
ATOM     67  C   UNL A   1      41.212  27.615  26.655  1.00  0.00     0.198 A 
ATOM     68  C   UNL A   1      39.783  26.034  27.760  1.00  0.00     0.198 A 
ATOM     69  F   UNL A   1      39.004  26.470  29.937  1.00  0.00    -0.203 F 
ATOM     70  F   UNL A   1      41.897  28.000  25.568  1.00  0.00    -0.200 F 
ATOM     71  C   UNL A   1      40.514  26.417  26.645  1.00  0.00     0.200 A 
ATOM     72  F   UNL A   1      39.113  24.873  27.754  1.00  0.00    -0.200 F 
ATOM     73  F   UNL A   1      40.538  25.636  25.557  1.00  0.00    -0.200 F 
ENDBRANCH  49  63
BRANCH  50  74
ATOM     74  C   UNL A   1      39.534  33.949  36.917  1.00  0.00     0.064 A 
ATOM     75  C   UNL A   1      40.168  35.198  36.970  1.00  0.00     0.173 A 
ATOM     76  C   UNL A   1      38.761  33.557  38.018  1.00  0.00     0.173 A 
ATOM     77  F   UNL A   1      40.934  35.602  35.946  1.00  0.00    -0.203 F 
ATOM     78  C   UNL A   1      40.038  36.022  38.085  1.00  0.00     0.198 A 
ATOM     79  C   UNL A   1      38.617  34.391  39.125  1.00  0.00     0.198 A 
ATOM     80  F   UNL A   1      38.134  32.372  38.011  1.00  0.00    -0.203 F 
ATOM     81  F   UNL A   1      40.677  37.199  38.123  1.00  0.00    -0.200 F 
ATOM     82  C   UNL A   1      39.258  35.620  39.160  1.00  0.00     0.200 A 
ATOM     83  F   UNL A   1      37.855  34.004  40.158  1.00  0.00    -0.200 F 
ATOM     84  F   UNL A   1      39.130  36.415  40.230  1.00  0.00    -0.200 F 
ENDBRANCH  50  74
BRANCH  62  85
ATOM     85  C   UNL A   1      43.835  28.744  35.234  1.00  0.00     0.064 A 
ATOM     86  C   UNL A   1      43.640  27.636  36.070  1.00  0.00     0.173 A 
ATOM     87  C   UNL A   1      45.144  29.216  35.056  1.00  0.00     0.173 A 
ATOM     88  F   UNL A   1      42.405  27.160  36.282  1.00  0.00    -0.203 F 
ATOM     89  C   UNL A   1      44.716  27.034  36.718  1.00  0.00     0.198 A 
ATOM     90  C   UNL A   1      46.218  28.600  35.689  1.00  0.00     0.198 A 
ATOM     91  F   UNL A   1      45.379  30.272  34.262  1.00  0.00    -0.203 F 
ATOM     92  F   UNL A   1      44.504  25.997  37.540  1.00  0.00    -0.200 F 
ATOM     93  C   UNL A   1      46.004  27.512  36.522  1.00  0.00     0.200 A 
ATOM     94  F   UNL A   1      47.463  29.057  35.495  1.00  0.00    -0.200 F 
ATOM     95  F   UNL A   1      47.038  26.927  37.143  1.00  0.00    -0.200 F 
ENDBRANCH  62  85
ENDBRANCH  36  37
ENDBRANCH  28  31
ENDBRANCH  26  27
ENDBRANCH  25  26
ENDBRANCH  24  25
ENDBRANCH   1  24
TORSDOF 17
ENDMDL
MODEL 2
REMARK VINA RESULT:     -11.6      2.020      3.824
REMARK SMILES C=CCN(CC(=O)NCCCCNC(=O)c1ccc(-c2c3nc(c(-c4c(F)c(F)c(F)c(F)c4F)c4ccc([nH]4)c(-c4c(F)c(F)c(F)c(F)c4F)c4nc(c(-c5c(F)c(F)c(F)c(F)c5F)c5ccc2[nH]5)C=C4)C=C3)cc1)C(=O)c1cn(C2C[NH2+]C2)nn1
REMARK SMILES IDX 9 1 8 2 6 3 7 4 5 6 4 7 3 8 2 9 1 10 79 11 80 12 81 13 82 14
REMARK SMILES IDX 89 15 83 16 88 17 84 18 85 19 87 20 86 21 10 24 11 25 12 26
REMARK SMILES IDX 13 27 14 28 15 30 16 31 17 32 78 33 18 34 77 35 19 36 20 37
REMARK SMILES IDX 21 38 71 39 22 40 76 41 70 42 72 43 23 44 75 45 69 46 68 47
REMARK SMILES IDX 24 49 56 50 36 51 55 52 37 53 40 54 54 55 73 56 38 57 39 58
REMARK SMILES IDX 53 60 74 61 41 62 25 63 26 64 34 65 27 66 28 67 32 68 35 69
REMARK SMILES IDX 29 70 30 71 33 72 31 73 57 74 58 75 66 76 59 77 60 78 64 79
REMARK SMILES IDX 67 80 61 81 62 82 65 83 63 84 42 85 43 86 51 87 44 88 45 89
REMARK SMILES IDX 49 90 52 91 46 92 47 93 50 94 48 95
REMARK H PARENT 8 5 86 22 86 23 13 29 72 48 40 59
REMARK Flexibility Score: inf
ROOT
ATOM      1  C   UNL A   1      33.066  29.790  26.310  1.00  0.00     0.116 C 
ENDROOT
BRANCH   1   2
ATOM      2  N   UNL A   1      33.511  29.699  24.936  1.00  0.00    -0.355 N 
ATOM      3  C   UNL A   1      33.610  28.613  24.117  1.00  0.00     0.239 C 
ATOM      4  O   UNL A   1      33.704  28.837  22.907  1.00  0.00    -0.273 OA
ATOM      5  H   UNL A   1      33.786  30.552  24.530  1.00  0.00     0.163 HD
BRANCH   3   6
ATOM      6  C   UNL A   1      33.483  27.164  24.629  1.00  0.00     0.220 C 
BRANCH   6   7
ATOM      7  N   UNL A   1      32.833  26.218  23.715  1.00  0.00    -0.324 N 
BRANCH   7   8
ATOM      8  C   UNL A   1      31.385  26.269  23.580  1.00  0.00     0.147 C 
BRANCH   8   9
ATOM      9  C   UNL A   1      30.740  26.348  24.929  1.00  0.00    -0.014 C 
ATOM     10  C   UNL A   1      30.667  25.305  25.769  1.00  0.00     0.006 C 
ENDBRANCH   8   9
ENDBRANCH   7   8
BRANCH   7  11
ATOM     11  C   UNL A   1      33.545  25.359  22.862  1.00  0.00     0.276 C 
ATOM     12  O   UNL A   1      33.650  25.578  21.655  1.00  0.00    -0.267 OA
BRANCH  11  13
ATOM     13  C   UNL A   1      34.146  24.169  23.446  1.00  0.00     0.170 A 
ATOM     14  C   UNL A   1      33.616  23.323  24.399  1.00  0.00     0.145 A 
ATOM     15  N   UNL A   1      35.380  23.702  23.073  1.00  0.00    -0.125 NA
ATOM     16  N   UNL A   1      34.594  22.386  24.595  1.00  0.00    -0.237 N 
ATOM     17  N   UNL A   1      35.641  22.611  23.780  1.00  0.00    -0.066 NA
BRANCH  16  18
ATOM     18  C   UNL A   1      34.602  21.294  25.524  1.00  0.00     0.218 C 
ATOM     19  C   UNL A   1      33.899  21.634  26.857  1.00  0.00     0.294 C 
ATOM     20  C   UNL A   1      33.452  20.277  25.365  1.00  0.00     0.294 C 
ATOM     21  N   UNL A   1      33.279  20.289  26.836  1.00  0.00    -0.342 N 
ATOM     22  H   UNL A   1      32.307  20.268  27.146  1.00  0.00     0.346 HD
ATOM     23  H   UNL A   1      33.638  19.532  27.417  1.00  0.00     0.346 HD
ENDBRANCH  16  18
ENDBRANCH  11  13
ENDBRANCH   7  11
ENDBRANCH   6   7
ENDBRANCH   3   6
ENDBRANCH   1   2
BRANCH   1  24
ATOM     24  C   UNL A   1      31.667  30.382  26.468  1.00  0.00     0.023 C 
BRANCH  24  25
ATOM     25  C   UNL A   1      31.587  31.908  26.493  1.00  0.00     0.023 C 
BRANCH  25  26
ATOM     26  C   UNL A   1      32.691  32.619  27.262  1.00  0.00     0.116 C 
BRANCH  26  27
ATOM     27  N   UNL A   1      32.368  33.991  27.620  1.00  0.00    -0.352 N 
ATOM     28  C   UNL A   1      32.983  34.817  28.531  1.00  0.00     0.251 C 
ATOM     29  H   UNL A   1      31.602  34.384  27.143  1.00  0.00     0.163 HD
ATOM     30  O   UNL A   1      32.528  35.936  28.749  1.00  0.00    -0.269 OA
BRANCH  28  31
ATOM     31  C   UNL A   1      34.163  34.342  29.285  1.00  0.00     0.039 A 
ATOM     32  C   UNL A   1      33.955  33.662  30.489  1.00  0.00     0.014 A 
ATOM     33  C   UNL A   1      35.461  34.549  28.811  1.00  0.00     0.014 A 
ATOM     34  C   UNL A   1      35.043  33.120  31.178  1.00  0.00     0.010 A 
ATOM     35  C   UNL A   1      36.539  33.958  29.465  1.00  0.00     0.010 A 
ATOM     36  C   UNL A   1      36.337  33.232  30.649  1.00  0.00    -0.014 A 
BRANCH  36  37
ATOM     37  C   UNL A   1      37.498  32.588  31.309  1.00  0.00     0.031 A 
ATOM     38  C   UNL A   1      38.221  31.461  30.632  1.00  0.00     0.074 A 
ATOM     39  C   UNL A   1      37.848  32.965  32.553  1.00  0.00     0.049 A 
ATOM     40  N   UNL A   1      39.189  30.705  31.087  1.00  0.00    -0.248 NA
ATOM     41  C   UNL A   1      37.779  31.120  29.271  1.00  0.00     0.031 C 
ATOM     42  C   UNL A   1      37.199  34.019  33.333  1.00  0.00     0.029 A 
ATOM     43  N   UNL A   1      38.832  32.493  33.386  1.00  0.00    -0.354 N 
ATOM     44  C   UNL A   1      39.454  29.787  30.081  1.00  0.00     0.074 A 
ATOM     45  C   UNL A   1      38.523  30.057  29.004  1.00  0.00     0.031 C 
ATOM     46  C   UNL A   1      37.810  34.126  34.523  1.00  0.00     0.029 A 
ATOM     47  C   UNL A   1      38.873  33.127  34.602  1.00  0.00     0.049 A 
ATOM     48  H   UNL A   1      39.448  31.768  33.136  1.00  0.00     0.167 HD
ATOM     49  C   UNL A   1      40.399  28.818  30.051  1.00  0.00     0.037 A 
ATOM     50  C   UNL A   1      39.675  32.924  35.664  1.00  0.00     0.037 A 
ATOM     51  C   UNL A   1      41.347  28.573  31.105  1.00  0.00     0.049 A 
ATOM     52  C   UNL A   1      40.725  31.850  35.600  1.00  0.00     0.074 A 
ATOM     53  C   UNL A   1      42.384  27.657  31.140  1.00  0.00     0.029 A 
ATOM     54  N   UNL A   1      41.373  29.254  32.313  1.00  0.00    -0.354 N 
ATOM     55  N   UNL A   1      41.000  31.021  34.624  1.00  0.00    -0.248 NA
ATOM     56  C   UNL A   1      41.577  31.687  36.787  1.00  0.00     0.031 C 
ATOM     57  C   UNL A   1      43.022  27.766  32.381  1.00  0.00     0.029 A 
ATOM     58  C   UNL A   1      42.400  28.769  33.106  1.00  0.00     0.049 A 
ATOM     59  H   UNL A   1      40.754  29.974  32.570  1.00  0.00     0.167 HD
ATOM     60  C   UNL A   1      42.067  30.253  35.067  1.00  0.00     0.074 A 
ATOM     61  C   UNL A   1      42.397  30.720  36.398  1.00  0.00     0.031 C 
ATOM     62  C   UNL A   1      42.717  29.251  34.426  1.00  0.00     0.037 A 
BRANCH  49  63
ATOM     63  C   UNL A   1      40.451  27.949  28.831  1.00  0.00     0.064 A 
ATOM     64  C   UNL A   1      39.732  26.746  28.758  1.00  0.00     0.173 A 
ATOM     65  C   UNL A   1      41.215  28.328  27.719  1.00  0.00     0.173 A 
ATOM     66  F   UNL A   1      39.000  26.332  29.803  1.00  0.00    -0.203 F 
ATOM     67  C   UNL A   1      39.801  25.940  27.624  1.00  0.00     0.198 A 
ATOM     68  C   UNL A   1      41.261  27.532  26.577  1.00  0.00     0.198 A 
ATOM     69  F   UNL A   1      41.917  29.471  27.738  1.00  0.00    -0.203 F 
ATOM     70  F   UNL A   1      39.146  24.771  27.595  1.00  0.00    -0.200 F 
ATOM     71  C   UNL A   1      40.561  26.336  26.534  1.00  0.00     0.200 A 
ATOM     72  F   UNL A   1      41.991  27.919  25.521  1.00  0.00    -0.200 F 
ATOM     73  F   UNL A   1      40.628  25.558  25.445  1.00  0.00    -0.200 F 
ENDBRANCH  49  63
BRANCH  50  74
ATOM     74  C   UNL A   1      39.536  33.782  36.866  1.00  0.00     0.064 A 
ATOM     75  C   UNL A   1      40.184  35.022  36.934  1.00  0.00     0.173 A 
ATOM     76  C   UNL A   1      38.745  33.392  37.955  1.00  0.00     0.173 A 
ATOM     77  F   UNL A   1      40.967  35.424  35.921  1.00  0.00    -0.203 F 
ATOM     78  C   UNL A   1      40.053  35.840  38.053  1.00  0.00     0.198 A 
ATOM     79  C   UNL A   1      38.600  34.220  39.067  1.00  0.00     0.198 A 
ATOM     80  F   UNL A   1      38.104  32.215  37.933  1.00  0.00    -0.203 F 
ATOM     81  F   UNL A   1      40.706  37.009  38.106  1.00  0.00    -0.200 F 
ATOM     82  C   UNL A   1      39.256  35.441  39.116  1.00  0.00     0.200 A 
ATOM     83  F   UNL A   1      37.823  33.836  40.088  1.00  0.00    -0.200 F 
ATOM     84  F   UNL A   1      39.126  36.230  40.191  1.00  0.00    -0.200 F 
ENDBRANCH  50  74
BRANCH  62  85
ATOM     85  C   UNL A   1      43.866  28.613  35.144  1.00  0.00     0.064 A 
ATOM     86  C   UNL A   1      43.684  27.487  35.959  1.00  0.00     0.173 A 
ATOM     87  C   UNL A   1      45.168  29.109  34.982  1.00  0.00     0.173 A 
ATOM     88  F   UNL A   1      42.455  26.988  36.156  1.00  0.00    -0.203 F 
ATOM     89  C   UNL A   1      44.766  26.889  36.601  1.00  0.00     0.198 A 
ATOM     90  C   UNL A   1      46.249  28.497  35.608  1.00  0.00     0.198 A 
ATOM     91  F   UNL A   1      45.390  30.183  34.209  1.00  0.00    -0.203 F 
ATOM     92  F   UNL A   1      44.566  25.834  37.403  1.00  0.00    -0.200 F 
ATOM     93  C   UNL A   1      46.047  27.391  36.420  1.00  0.00     0.200 A 
ATOM     94  F   UNL A   1      47.488  28.977  35.429  1.00  0.00    -0.200 F 
ATOM     95  F   UNL A   1      47.087  26.811  37.035  1.00  0.00    -0.200 F 
ENDBRANCH  62  85
ENDBRANCH  36  37
ENDBRANCH  28  31
ENDBRANCH  26  27
ENDBRANCH  25  26
ENDBRANCH  24  25
ENDBRANCH   1  24
TORSDOF 17
ENDMDL
MODEL 3
REMARK VINA RESULT:     -11.5      5.850     11.048
REMARK SMILES C=CCN(CC(=O)NCCCCNC(=O)c1ccc(-c2c3nc(c(-c4c(F)c(F)c(F)c(F)c4F)c4ccc([nH]4)c(-c4c(F)c(F)c(F)c(F)c4F)c4nc(c(-c5c(F)c(F)c(F)c(F)c5F)c5ccc2[nH]5)C=C4)C=C3)cc1)C(=O)c1cn(C2C[NH2+]C2)nn1
REMARK SMILES IDX 9 1 8 2 6 3 7 4 5 6 4 7 3 8 2 9 1 10 79 11 80 12 81 13 82 14
REMARK SMILES IDX 89 15 83 16 88 17 84 18 85 19 87 20 86 21 10 24 11 25 12 26
REMARK SMILES IDX 13 27 14 28 15 30 16 31 17 32 78 33 18 34 77 35 19 36 20 37
REMARK SMILES IDX 21 38 71 39 22 40 76 41 70 42 72 43 23 44 75 45 69 46 68 47
REMARK SMILES IDX 24 49 56 50 36 51 55 52 37 53 40 54 54 55 73 56 38 57 39 58
REMARK SMILES IDX 53 60 74 61 41 62 25 63 26 64 34 65 27 66 28 67 32 68 35 69
REMARK SMILES IDX 29 70 30 71 33 72 31 73 57 74 58 75 66 76 59 77 60 78 64 79
REMARK SMILES IDX 67 80 61 81 62 82 65 83 63 84 42 85 43 86 51 87 44 88 45 89
REMARK SMILES IDX 49 90 52 91 46 92 47 93 50 94 48 95
REMARK H PARENT 8 5 86 22 86 23 13 29 72 48 40 59
REMARK Flexibility Score: inf
ROOT
ATOM      1  C   UNL A   1      35.715  21.028  25.154  1.00  0.00     0.116 C 
ENDROOT
BRANCH   1   2
ATOM      2  N   UNL A   1      35.372  21.545  26.461  1.00  0.00    -0.355 N 
ATOM      3  C   UNL A   1      34.442  22.478  26.817  1.00  0.00     0.239 C 
ATOM      4  O   UNL A   1      34.116  22.509  28.007  1.00  0.00    -0.273 OA
ATOM      5  H   UNL A   1      35.888  21.166  27.208  1.00  0.00     0.163 HD
BRANCH   3   6
ATOM      6  C   UNL A   1      33.721  23.374  25.792  1.00  0.00     0.220 C 
BRANCH   6   7
ATOM      7  N   UNL A   1      32.263  23.220  25.721  1.00  0.00    -0.324 N 
BRANCH   7   8
ATOM      8  C   UNL A   1      31.722  21.926  25.332  1.00  0.00     0.147 C 
BRANCH   8   9
ATOM      9  C   UNL A   1      32.102  21.609  23.919  1.00  0.00    -0.014 C 
ATOM     10  C   UNL A   1      32.533  20.400  23.530  1.00  0.00     0.006 C 
ENDBRANCH   8   9
ENDBRANCH   7   8
BRANCH   7  11
ATOM     11  C   UNL A   1      31.363  24.211  26.141  1.00  0.00     0.276 C 
ATOM     12  O   UNL A   1      30.823  24.177  27.248  1.00  0.00    -0.267 OA
BRANCH  11  13
ATOM     13  C   UNL A   1      31.057  25.288  25.211  1.00  0.00     0.170 A 
ATOM     14  C   UNL A   1      31.450  26.610  25.275  1.00  0.00     0.145 A 
ATOM     15  N   UNL A   1      30.317  25.098  24.073  1.00  0.00    -0.125 NA
ATOM     16  N   UNL A   1      30.880  27.182  24.169  1.00  0.00    -0.237 N 
ATOM     17  N   UNL A   1      30.218  26.262  23.444  1.00  0.00    -0.066 NA
BRANCH  16  18
ATOM     18  C   UNL A   1      30.911  28.556  23.766  1.00  0.00     0.218 C 
ATOM     19  C   UNL A   1      32.062  28.868  22.782  1.00  0.00     0.294 C 
ATOM     20  C   UNL A   1      30.008  28.918  22.568  1.00  0.00     0.294 C 
ATOM     21  N   UNL A   1      31.124  29.709  22.003  1.00  0.00    -0.342 N 
ATOM     22  H   UNL A   1      31.228  29.630  20.992  1.00  0.00     0.346 HD
ATOM     23  H   UNL A   1      31.141  30.727  22.076  1.00  0.00     0.346 HD
ENDBRANCH  16  18
ENDBRANCH  11  13
ENDBRANCH   7  11
ENDBRANCH   6   7
ENDBRANCH   3   6
ENDBRANCH   1   2
BRANCH   1  24
ATOM     24  C   UNL A   1      37.181  21.231  24.775  1.00  0.00     0.023 C 
BRANCH  24  25
ATOM     25  C   UNL A   1      38.102  20.034  25.004  1.00  0.00     0.023 C 
BRANCH  25  26
ATOM     26  C   UNL A   1      39.241  20.250  25.991  1.00  0.00     0.116 C 
BRANCH  26  27
ATOM     27  N   UNL A   1      40.237  19.192  25.980  1.00  0.00    -0.352 N 
ATOM     28  C   UNL A   1      41.597  19.280  26.161  1.00  0.00     0.251 C 
ATOM     29  H   UNL A   1      39.889  18.285  25.821  1.00  0.00     0.163 HD
ATOM     30  O   UNL A   1      42.296  18.276  26.054  1.00  0.00    -0.269 OA
BRANCH  28  31
ATOM     31  C   UNL A   1      42.226  20.590  26.437  1.00  0.00     0.039 A 
ATOM     32  C   UNL A   1      42.426  21.471  25.369  1.00  0.00     0.014 A 
ATOM     33  C   UNL A   1      42.604  20.958  27.730  1.00  0.00     0.014 A 
ATOM     34  C   UNL A   1      42.932  22.750  25.610  1.00  0.00     0.010 A 
ATOM     35  C   UNL A   1      43.051  22.253  27.979  1.00  0.00     0.010 A 
ATOM     36  C   UNL A   1      43.211  23.161  26.922  1.00  0.00    -0.014 A 
BRANCH  36  37
ATOM     37  C   UNL A   1      43.660  24.543  27.217  1.00  0.00     0.031 A 
ATOM     38  C   UNL A   1      42.684  25.559  27.734  1.00  0.00     0.074 A 
ATOM     39  C   UNL A   1      44.928  24.903  26.942  1.00  0.00     0.049 A 
ATOM     40  N   UNL A   1      42.858  26.838  27.955  1.00  0.00    -0.248 NA
ATOM     41  C   UNL A   1      41.323  25.079  28.016  1.00  0.00     0.031 C 
ATOM     42  C   UNL A   1      45.960  24.019  26.399  1.00  0.00     0.029 A 
ATOM     43  N   UNL A   1      45.560  26.115  27.070  1.00  0.00    -0.354 N 
ATOM     44  C   UNL A   1      41.627  27.318  28.377  1.00  0.00     0.074 A 
ATOM     45  C   UNL A   1      40.705  26.201  28.349  1.00  0.00     0.031 C 
ATOM     46  C   UNL A   1      47.100  24.712  26.255  1.00  0.00     0.029 A 
ATOM     47  C   UNL A   1      46.872  26.094  26.666  1.00  0.00     0.049 A 
ATOM     48  H   UNL A   1      45.116  26.921  27.417  1.00  0.00     0.167 HD
ATOM     49  C   UNL A   1      41.299  28.573  28.767  1.00  0.00     0.037 A 
ATOM     50  C   UNL A   1      47.786  27.081  26.627  1.00  0.00     0.037 A 
ATOM     51  C   UNL A   1      42.224  29.673  28.829  1.00  0.00     0.049 A 
ATOM     52  C   UNL A   1      47.401  28.462  27.079  1.00  0.00     0.074 A 
ATOM     53  C   UNL A   1      42.002  30.965  29.273  1.00  0.00     0.029 A 
ATOM     54  N   UNL A   1      43.552  29.608  28.434  1.00  0.00    -0.354 N 
ATOM     55  N   UNL A   1      46.247  28.893  27.523  1.00  0.00    -0.248 NA
ATOM     56  C   UNL A   1      48.448  29.492  27.024  1.00  0.00     0.031 C 
ATOM     57  C   UNL A   1      43.191  31.689  29.123  1.00  0.00     0.029 A 
ATOM     58  C   UNL A   1      44.159  30.840  28.613  1.00  0.00     0.049 A 
ATOM     59  H   UNL A   1      43.998  28.805  28.080  1.00  0.00     0.167 HD
ATOM     60  C   UNL A   1      46.432  30.236  27.822  1.00  0.00     0.074 A 
ATOM     61  C   UNL A   1      47.813  30.547  27.515  1.00  0.00     0.031 C 
ATOM     62  C   UNL A   1      45.536  31.129  28.308  1.00  0.00     0.037 A 
BRANCH  49  63
ATOM     63  C   UNL A   1      39.874  28.817  29.161  1.00  0.00     0.064 A 
ATOM     64  C   UNL A   1      39.437  28.637  30.482  1.00  0.00     0.173 A 
ATOM     65  C   UNL A   1      38.937  29.249  28.211  1.00  0.00     0.173 A 
ATOM     66  F   UNL A   1      40.292  28.210  31.423  1.00  0.00    -0.203 F 
ATOM     67  C   UNL A   1      38.107  28.853  30.830  1.00  0.00     0.198 A 
ATOM     68  C   UNL A   1      37.614  29.488  28.569  1.00  0.00     0.198 A 
ATOM     69  F   UNL A   1      39.306  29.438  26.935  1.00  0.00    -0.203 F 
ATOM     70  F   UNL A   1      37.701  28.628  32.088  1.00  0.00    -0.200 F 
ATOM     71  C   UNL A   1      37.198  29.283  29.876  1.00  0.00     0.200 A 
ATOM     72  F   UNL A   1      36.737  29.909  27.646  1.00  0.00    -0.200 F 
ATOM     73  F   UNL A   1      35.917  29.488  30.212  1.00  0.00    -0.200 F 
ENDBRANCH  49  63
BRANCH  50  74
ATOM     74  C   UNL A   1      49.167  26.786  26.173  1.00  0.00     0.064 A 
ATOM     75  C   UNL A   1      49.526  26.955  24.829  1.00  0.00     0.173 A 
ATOM     76  C   UNL A   1      50.153  26.349  27.068  1.00  0.00     0.173 A 
ATOM     77  F   UNL A   1      48.608  27.352  23.937  1.00  0.00    -0.203 F 
ATOM     78  C   UNL A   1      50.823  26.690  24.394  1.00  0.00     0.198 A 
ATOM     79  C   UNL A   1      51.454  26.102  26.634  1.00  0.00     0.198 A 
ATOM     80  F   UNL A   1      49.855  26.177  28.364  1.00  0.00    -0.203 F 
ATOM     81  F   UNL A   1      51.134  26.832  23.099  1.00  0.00    -0.200 F 
ATOM     82  C   UNL A   1      51.787  26.269  25.298  1.00  0.00     0.200 A 
ATOM     83  F   UNL A   1      52.386  25.704  27.512  1.00  0.00    -0.200 F 
ATOM     84  F   UNL A   1      53.035  26.018  24.880  1.00  0.00    -0.200 F 
ENDBRANCH  50  74
BRANCH  62  85
ATOM     85  C   UNL A   1      46.030  32.520  28.566  1.00  0.00     0.064 A 
ATOM     86  C   UNL A   1      46.601  32.876  29.796  1.00  0.00     0.173 A 
ATOM     87  C   UNL A   1      45.970  33.492  27.557  1.00  0.00     0.173 A 
ATOM     88  F   UNL A   1      46.665  31.984  30.794  1.00  0.00    -0.203 F 
ATOM     89  C   UNL A   1      47.079  34.166  30.012  1.00  0.00     0.198 A 
ATOM     90  C   UNL A   1      46.467  34.774  27.770  1.00  0.00     0.198 A 
ATOM     91  F   UNL A   1      45.435  33.195  26.363  1.00  0.00    -0.203 F 
ATOM     92  F   UNL A   1      47.589  34.497  31.206  1.00  0.00    -0.200 F 
ATOM     93  C   UNL A   1      47.017  35.112  28.998  1.00  0.00     0.200 A 
ATOM     94  F   UNL A   1      46.413  35.686  26.789  1.00  0.00    -0.200 F 
ATOM     95  F   UNL A   1      47.482  36.351  29.207  1.00  0.00    -0.200 F 
ENDBRANCH  62  85
ENDBRANCH  36  37
ENDBRANCH  28  31
ENDBRANCH  26  27
ENDBRANCH  25  26
ENDBRANCH  24  25
ENDBRANCH   1  24
TORSDOF 17
ENDMDL
