MODEL 1
REMARK VINA RESULT:     -14.2      0.000      0.000
REMARK SMILES Cc1ccc(C(=O)N[C@@H]2C=C[C@H](C(=O)NCCCCNC(=O)c3ccc(-c4c5nc(c(-c6c(F)c(F)c(F)c(F)c6F)c6ccc([nH]6)c(-c6c(F)c(F)c(F)c(F)c6F)c6nc(c(-c7c(F)c(F)c(F)c(F)c7F)c7ccc4[nH]7)C=C6)C=C5)cc3)C2)c(F)c1
REMARK SMILES IDX 17 1 16 2 15 3 13 4 14 5 12 7 9 8 10 9 86 10 11 11 8 12 6 13
REMARK SMILES IDX 7 14 5 16 1 17 2 18 3 19 89 20 4 21 87 22 88 23 18 24 19 25
REMARK SMILES IDX 20 26 21 27 22 29 23 30 24 31 85 32 25 33 84 34 26 35 27 36
REMARK SMILES IDX 28 37 78 38 29 39 83 40 77 41 79 42 30 43 82 44 76 45 75 46
REMARK SMILES IDX 31 48 63 49 43 50 62 51 44 52 47 53 61 54 80 55 45 56 46 57
REMARK SMILES IDX 60 59 81 60 48 61 32 62 33 63 41 64 34 65 35 66 39 67 42 68
REMARK SMILES IDX 36 69 37 70 40 71 38 72 64 73 65 74 73 75 66 76 67 77 71 78
REMARK SMILES IDX 74 79 68 80 69 81 72 82 70 83 49 84 50 85 58 86 51 87 52 88
REMARK SMILES IDX 56 89 59 90 53 91 54 92 57 93 55 94
REMARK H PARENT 15 6 8 15 20 28 79 47 47 58
REMARK Flexibility Score: inf
ROOT
ATOM      1  C   UNL A   1      37.165  21.558  24.923  1.00  0.00     0.023 C 
ENDROOT
BRANCH   1   2
ATOM      2  C   UNL A   1      35.870  20.852  25.339  1.00  0.00     0.116 C 
BRANCH   2   3
ATOM      3  N   UNL A   1      35.219  21.451  26.493  1.00  0.00    -0.356 N 
ATOM      4  C   UNL A   1      33.933  21.915  26.622  1.00  0.00     0.227 C 
ATOM      5  O   UNL A   1      33.539  22.226  27.744  1.00  0.00    -0.274 OA
ATOM      6  H   UNL A   1      35.781  21.537  27.297  1.00  0.00     0.163 HD
BRANCH   4   7
ATOM      7  C   UNL A   1      33.076  22.054  25.359  1.00  0.00     0.103 C 
ATOM      8  C   UNL A   1      31.995  24.253  24.966  1.00  0.00     0.106 C 
ATOM      9  C   UNL A   1      31.011  23.184  25.332  1.00  0.00    -0.006 C 
ATOM     10  C   UNL A   1      33.286  23.447  24.756  1.00  0.00     0.047 C 
ATOM     11  C   UNL A   1      31.598  22.007  25.577  1.00  0.00    -0.016 C 
BRANCH   8  12
ATOM     12  N   UNL A   1      31.950  25.249  26.024  1.00  0.00    -0.346 N 
ATOM     13  C   UNL A   1      31.372  26.490  26.122  1.00  0.00     0.254 C 
ATOM     14  O   UNL A   1      31.194  26.983  27.232  1.00  0.00    -0.269 OA
ATOM     15  H   UNL A   1      32.435  24.978  26.836  1.00  0.00     0.164 HD
BRANCH  13  16
ATOM     16  C   UNL A   1      31.054  27.275  24.920  1.00  0.00     0.075 A 
ATOM     17  C   UNL A   1      29.498  29.996  21.983  1.00  0.00     0.044 C 
ATOM     18  C   UNL A   1      30.088  29.001  22.939  1.00  0.00    -0.048 A 
ATOM     19  C   UNL A   1      31.355  29.207  23.504  1.00  0.00     0.004 A 
ATOM     20  C   UNL A   1      29.371  27.850  23.279  1.00  0.00     0.043 A 
ATOM     21  C   UNL A   1      31.852  28.333  24.477  1.00  0.00     0.017 A 
ATOM     22  C   UNL A   1      29.850  27.000  24.271  1.00  0.00     0.136 A 
ATOM     23  F   UNL A   1      29.086  25.958  24.630  1.00  0.00    -0.206 F 
ENDBRANCH  13  16
ENDBRANCH   8  12
ENDBRANCH   4   7
ENDBRANCH   2   3
ENDBRANCH   1   2
BRANCH   1  24
ATOM     24  C   UNL A   1      37.135  23.090  24.841  1.00  0.00     0.023 C 
BRANCH  24  25
ATOM     25  C   UNL A   1      37.662  23.782  26.083  1.00  0.00     0.116 C 
BRANCH  25  26
ATOM     26  N   UNL A   1      38.880  23.172  26.616  1.00  0.00    -0.352 N 
ATOM     27  C   UNL A   1      40.036  23.795  27.050  1.00  0.00     0.251 C 
ATOM     28  H   UNL A   1      38.876  22.189  26.673  1.00  0.00     0.163 HD
ATOM     29  O   UNL A   1      41.078  23.166  27.178  1.00  0.00    -0.269 OA
BRANCH  27  30
ATOM     30  C   UNL A   1      39.993  25.231  27.384  1.00  0.00     0.039 A 
ATOM     31  C   UNL A   1      40.396  26.230  26.484  1.00  0.00     0.014 A 
ATOM     32  C   UNL A   1      39.590  25.568  28.668  1.00  0.00     0.014 A 
ATOM     33  C   UNL A   1      40.365  27.567  26.888  1.00  0.00     0.010 A 
ATOM     34  C   UNL A   1      39.342  26.867  28.986  1.00  0.00     0.010 A 
ATOM     35  C   UNL A   1      39.841  27.862  28.146  1.00  0.00    -0.014 A 
BRANCH  35  36
ATOM     36  C   UNL A   1      39.929  29.137  28.833  1.00  0.00     0.031 A 
ATOM     37  C   UNL A   1      38.823  30.093  28.814  1.00  0.00     0.074 A 
ATOM     38  C   UNL A   1      40.942  29.201  29.726  1.00  0.00     0.049 A 
ATOM     39  N   UNL A   1      38.949  31.340  29.098  1.00  0.00    -0.248 NA
ATOM     40  C   UNL A   1      37.458  29.705  28.485  1.00  0.00     0.031 C 
ATOM     41  C   UNL A   1      41.121  30.063  30.881  1.00  0.00     0.029 A 
ATOM     42  N   UNL A   1      42.115  28.424  29.700  1.00  0.00    -0.354 N 
ATOM     43  C   UNL A   1      37.682  31.825  29.339  1.00  0.00     0.074 A 
ATOM     44  C   UNL A   1      36.789  30.817  28.814  1.00  0.00     0.031 C 
ATOM     45  C   UNL A   1      42.413  30.008  31.258  1.00  0.00     0.029 A 
ATOM     46  C   UNL A   1      43.121  29.221  30.256  1.00  0.00     0.049 A 
ATOM     47  H   UNL A   1      42.207  27.505  29.359  1.00  0.00     0.167 HD
ATOM     48  C   UNL A   1      37.546  32.922  30.144  1.00  0.00     0.037 A 
ATOM     49  C   UNL A   1      44.098  29.689  29.423  1.00  0.00     0.037 A 
ATOM     50  C   UNL A   1      38.863  33.370  30.611  1.00  0.00     0.049 A 
ATOM     51  C   UNL A   1      44.021  31.186  29.290  1.00  0.00     0.074 A 
ATOM     52  C   UNL A   1      39.533  33.156  31.806  1.00  0.00     0.029 A 
ATOM     53  N   UNL A   1      39.824  33.802  29.697  1.00  0.00    -0.354 N 
ATOM     54  N   UNL A   1      42.915  31.875  29.384  1.00  0.00    -0.248 NA
ATOM     55  C   UNL A   1      45.201  32.021  29.119  1.00  0.00     0.031 C 
ATOM     56  C   UNL A   1      40.911  33.399  31.589  1.00  0.00     0.029 A 
ATOM     57  C   UNL A   1      41.084  33.772  30.267  1.00  0.00     0.049 A 
ATOM     58  H   UNL A   1      39.632  34.087  28.774  1.00  0.00     0.167 HD
ATOM     59  C   UNL A   1      43.217  33.210  29.358  1.00  0.00     0.074 A 
ATOM     60  C   UNL A   1      44.658  33.248  29.176  1.00  0.00     0.031 C 
ATOM     61  C   UNL A   1      42.273  34.184  29.532  1.00  0.00     0.037 A 
BRANCH  48  62
ATOM     62  C   UNL A   1      36.242  33.352  30.794  1.00  0.00     0.064 A 
ATOM     63  C   UNL A   1      35.322  34.177  30.104  1.00  0.00     0.173 A 
ATOM     64  C   UNL A   1      35.850  33.015  32.103  1.00  0.00     0.173 A 
ATOM     65  F   UNL A   1      35.485  34.485  28.812  1.00  0.00    -0.203 F 
ATOM     66  C   UNL A   1      34.185  34.715  30.712  1.00  0.00     0.198 A 
ATOM     67  C   UNL A   1      34.733  33.587  32.727  1.00  0.00     0.198 A 
ATOM     68  F   UNL A   1      36.499  32.077  32.803  1.00  0.00    -0.203 F 
ATOM     69  F   UNL A   1      33.364  35.504  30.002  1.00  0.00    -0.200 F 
ATOM     70  C   UNL A   1      33.907  34.448  32.034  1.00  0.00     0.200 A 
ATOM     71  F   UNL A   1      34.460  33.291  34.006  1.00  0.00    -0.200 F 
ATOM     72  F   UNL A   1      32.834  34.990  32.627  1.00  0.00    -0.200 F 
ENDBRANCH  48  62
BRANCH  49  73
ATOM     73  C   UNL A   1      44.414  28.721  28.324  1.00  0.00     0.064 A 
ATOM     74  C   UNL A   1      44.938  27.463  28.693  1.00  0.00     0.173 A 
ATOM     75  C   UNL A   1      43.838  28.823  27.050  1.00  0.00     0.173 A 
ATOM     76  F   UNL A   1      45.496  27.301  29.904  1.00  0.00    -0.203 F 
ATOM     77  C   UNL A   1      44.771  26.336  27.888  1.00  0.00     0.198 A 
ATOM     78  C   UNL A   1      43.690  27.692  26.236  1.00  0.00     0.198 A 
ATOM     79  F   UNL A   1      43.321  29.985  26.629  1.00  0.00    -0.203 F 
ATOM     80  F   UNL A   1      45.168  25.133  28.332  1.00  0.00    -0.200 F 
ATOM     81  C   UNL A   1      44.123  26.447  26.672  1.00  0.00     0.200 A 
ATOM     82  F   UNL A   1      43.055  27.795  25.059  1.00  0.00    -0.200 F 
ATOM     83  F   UNL A   1      43.891  25.352  25.933  1.00  0.00    -0.200 F 
ENDBRANCH  49  73
BRANCH  61  84
ATOM     84  C   UNL A   1      42.454  35.645  29.196  1.00  0.00     0.064 A 
ATOM     85  C   UNL A   1      43.298  36.511  29.912  1.00  0.00     0.173 A 
ATOM     86  C   UNL A   1      41.869  36.203  28.032  1.00  0.00     0.173 A 
ATOM     87  F   UNL A   1      44.049  36.075  30.932  1.00  0.00    -0.203 F 
ATOM     88  C   UNL A   1      43.449  37.855  29.565  1.00  0.00     0.198 A 
ATOM     89  C   UNL A   1      42.082  37.524  27.646  1.00  0.00     0.198 A 
ATOM     90  F   UNL A   1      41.097  35.479  27.209  1.00  0.00    -0.203 F 
ATOM     91  F   UNL A   1      44.208  38.652  30.329  1.00  0.00    -0.200 F 
ATOM     92  C   UNL A   1      42.847  38.360  28.429  1.00  0.00     0.200 A 
ATOM     93  F   UNL A   1      41.553  37.974  26.499  1.00  0.00    -0.200 F 
ATOM     94  F   UNL A   1      43.027  39.639  28.078  1.00  0.00    -0.200 F 
ENDBRANCH  61  84
ENDBRANCH  35  36
ENDBRANCH  27  30
ENDBRANCH  25  26
ENDBRANCH  24  25
ENDBRANCH   1  24
TORSDOF 13
ENDMDL
MODEL 2
REMARK VINA RESULT:     -14.2      0.167      1.138
REMARK SMILES Cc1ccc(C(=O)N[C@@H]2C=C[C@H](C(=O)NCCCCNC(=O)c3ccc(-c4c5nc(c(-c6c(F)c(F)c(F)c(F)c6F)c6ccc([nH]6)c(-c6c(F)c(F)c(F)c(F)c6F)c6nc(c(-c7c(F)c(F)c(F)c(F)c7F)c7ccc4[nH]7)C=C6)C=C5)cc3)C2)c(F)c1
REMARK SMILES IDX 17 1 16 2 15 3 13 4 14 5 12 7 9 8 10 9 86 10 11 11 8 12 6 13
REMARK SMILES IDX 7 14 5 16 1 17 2 18 3 19 89 20 4 21 87 22 88 23 18 24 19 25
REMARK SMILES IDX 20 26 21 27 22 29 23 30 24 31 85 32 25 33 84 34 26 35 27 36
REMARK SMILES IDX 28 37 78 38 29 39 83 40 77 41 79 42 30 43 82 44 76 45 75 46
REMARK SMILES IDX 31 48 63 49 43 50 62 51 44 52 47 53 61 54 80 55 45 56 46 57
REMARK SMILES IDX 60 59 81 60 48 61 32 62 33 63 41 64 34 65 35 66 39 67 42 68
REMARK SMILES IDX 36 69 37 70 40 71 38 72 64 73 65 74 73 75 66 76 67 77 71 78
REMARK SMILES IDX 74 79 68 80 69 81 72 82 70 83 49 84 50 85 58 86 51 87 52 88
REMARK SMILES IDX 56 89 59 90 53 91 54 92 57 93 55 94
REMARK H PARENT 15 6 8 15 20 28 79 47 47 58
REMARK Flexibility Score: inf
ROOT
ATOM      1  C   UNL A   1      37.150  21.604  24.965  1.00  0.00     0.023 C 
ENDROOT
BRANCH   1   2
ATOM      2  C   UNL A   1      35.875  20.860  25.377  1.00  0.00     0.116 C 
BRANCH   2   3
ATOM      3  N   UNL A   1      35.205  21.438  26.530  1.00  0.00    -0.356 N 
ATOM      4  C   UNL A   1      33.907  21.870  26.653  1.00  0.00     0.227 C 
ATOM      5  O   UNL A   1      33.500  22.167  27.775  1.00  0.00    -0.274 OA
ATOM      6  H   UNL A   1      35.760  21.532  27.337  1.00  0.00     0.163 HD
BRANCH   4   7
ATOM      7  C   UNL A   1      33.054  21.997  25.386  1.00  0.00     0.103 C 
ATOM      8  C   UNL A   1      31.950  24.182  24.982  1.00  0.00     0.106 C 
ATOM      9  C   UNL A   1      30.977  23.102  25.347  1.00  0.00    -0.006 C 
ATOM     10  C   UNL A   1      33.251  23.390  24.781  1.00  0.00     0.047 C 
ATOM     11  C   UNL A   1      31.576  21.933  25.597  1.00  0.00    -0.016 C 
BRANCH   8  12
ATOM     12  N   UNL A   1      31.888  25.180  26.037  1.00  0.00    -0.346 N 
ATOM     13  C   UNL A   1      31.310  26.421  26.123  1.00  0.00     0.254 C 
ATOM     14  O   UNL A   1      31.114  26.918  27.229  1.00  0.00    -0.269 OA
ATOM     15  H   UNL A   1      32.359  24.910  26.858  1.00  0.00     0.164 HD
BRANCH  13  16
ATOM     16  C   UNL A   1      31.013  27.205  24.914  1.00  0.00     0.075 A 
ATOM     17  C   UNL A   1      29.538  29.947  21.956  1.00  0.00     0.044 C 
ATOM     18  C   UNL A   1      30.097  28.942  22.920  1.00  0.00    -0.048 A 
ATOM     19  C   UNL A   1      31.375  29.110  23.476  1.00  0.00     0.004 A 
ATOM     20  C   UNL A   1      29.342  27.821  23.276  1.00  0.00     0.043 A 
ATOM     21  C   UNL A   1      31.846  28.229  24.456  1.00  0.00     0.017 A 
ATOM     22  C   UNL A   1      29.796  26.965  24.275  1.00  0.00     0.136 A 
ATOM     23  F   UNL A   1      28.998  25.955  24.649  1.00  0.00    -0.206 F 
ENDBRANCH  13  16
ENDBRANCH   8  12
ENDBRANCH   4   7
ENDBRANCH   2   3
ENDBRANCH   1   2
BRANCH   1  24
ATOM     24  C   UNL A   1      37.066  23.132  24.853  1.00  0.00     0.023 C 
BRANCH  24  25
ATOM     25  C   UNL A   1      37.639  23.869  26.048  1.00  0.00     0.116 C 
BRANCH  25  26
ATOM     26  N   UNL A   1      38.824  23.225  26.614  1.00  0.00    -0.352 N 
ATOM     27  C   UNL A   1      39.987  23.815  27.078  1.00  0.00     0.251 C 
ATOM     28  H   UNL A   1      38.790  22.243  26.673  1.00  0.00     0.163 HD
ATOM     29  O   UNL A   1      41.005  23.157  27.234  1.00  0.00    -0.269 OA
BRANCH  27  30
ATOM     30  C   UNL A   1      39.976  25.252  27.408  1.00  0.00     0.039 A 
ATOM     31  C   UNL A   1      40.403  26.239  26.505  1.00  0.00     0.014 A 
ATOM     32  C   UNL A   1      39.580  25.603  28.690  1.00  0.00     0.014 A 
ATOM     33  C   UNL A   1      40.403  27.578  26.905  1.00  0.00     0.010 A 
ATOM     34  C   UNL A   1      39.362  26.908  29.004  1.00  0.00     0.010 A 
ATOM     35  C   UNL A   1      39.885  27.889  28.162  1.00  0.00    -0.014 A 
BRANCH  35  36
ATOM     36  C   UNL A   1      40.002  29.163  28.845  1.00  0.00     0.031 A 
ATOM     37  C   UNL A   1      38.900  30.123  28.866  1.00  0.00     0.074 A 
ATOM     38  C   UNL A   1      41.046  29.223  29.703  1.00  0.00     0.049 A 
ATOM     39  N   UNL A   1      39.040  31.370  29.145  1.00  0.00    -0.248 NA
ATOM     40  C   UNL A   1      37.523  29.741  28.585  1.00  0.00     0.031 C 
ATOM     41  C   UNL A   1      41.269  30.084  30.851  1.00  0.00     0.029 A 
ATOM     42  N   UNL A   1      42.214  28.441  29.634  1.00  0.00    -0.354 N 
ATOM     43  C   UNL A   1      37.785  31.860  29.431  1.00  0.00     0.074 A 
ATOM     44  C   UNL A   1      36.870  30.855  28.938  1.00  0.00     0.031 C 
ATOM     45  C   UNL A   1      42.574  30.024  31.181  1.00  0.00     0.029 A 
ATOM     46  C   UNL A   1      43.243  29.235  30.155  1.00  0.00     0.049 A 
ATOM     47  H   UNL A   1      42.291  27.522  29.290  1.00  0.00     0.167 HD
ATOM     48  C   UNL A   1      37.682  32.957  30.240  1.00  0.00     0.037 A 
ATOM     49  C   UNL A   1      44.192  29.699  29.288  1.00  0.00     0.037 A 
ATOM     50  C   UNL A   1      39.016  33.400  30.660  1.00  0.00     0.049 A 
ATOM     51  C   UNL A   1      44.116  31.196  29.158  1.00  0.00     0.074 A 
ATOM     52  C   UNL A   1      39.727  33.183  31.831  1.00  0.00     0.029 A 
ATOM     53  N   UNL A   1      39.946  33.828  29.713  1.00  0.00    -0.354 N 
ATOM     54  N   UNL A   1      43.016  31.889  29.291  1.00  0.00    -0.248 NA
ATOM     55  C   UNL A   1      45.292  32.027  28.945  1.00  0.00     0.031 C 
ATOM     56  C   UNL A   1      41.097  33.421  31.566  1.00  0.00     0.029 A 
ATOM     57  C   UNL A   1      41.225  33.793  30.238  1.00  0.00     0.049 A 
ATOM     58  H   UNL A   1      39.722  34.114  28.798  1.00  0.00     0.167 HD
ATOM     59  C   UNL A   1      43.322  33.223  29.254  1.00  0.00     0.074 A 
ATOM     60  C   UNL A   1      44.756  33.256  29.022  1.00  0.00     0.031 C 
ATOM     61  C   UNL A   1      42.389  34.201  29.462  1.00  0.00     0.037 A 
BRANCH  48  62
ATOM     62  C   UNL A   1      36.403  33.392  30.936  1.00  0.00     0.064 A 
ATOM     63  C   UNL A   1      35.417  34.138  30.247  1.00  0.00     0.173 A 
ATOM     64  C   UNL A   1      36.098  33.136  32.286  1.00  0.00     0.173 A 
ATOM     65  F   UNL A   1      35.495  34.359  28.930  1.00  0.00    -0.203 F 
ATOM     66  C   UNL A   1      34.298  34.683  30.884  1.00  0.00     0.198 A 
ATOM     67  C   UNL A   1      35.000  33.717  32.935  1.00  0.00     0.198 A 
ATOM     68  F   UNL A   1      36.819  32.270  33.009  1.00  0.00    -0.203 F 
ATOM     69  F   UNL A   1      33.411  35.395  30.172  1.00  0.00    -0.200 F 
ATOM     70  C   UNL A   1      34.107  34.502  32.236  1.00  0.00     0.200 A 
ATOM     71  F   UNL A   1      34.811  33.503  34.245  1.00  0.00    -0.200 F 
ATOM     72  F   UNL A   1      33.052  35.051  32.852  1.00  0.00    -0.200 F 
ENDBRANCH  48  62
BRANCH  49  73
ATOM     73  C   UNL A   1      44.465  28.730  28.178  1.00  0.00     0.064 A 
ATOM     74  C   UNL A   1      44.994  27.468  28.529  1.00  0.00     0.173 A 
ATOM     75  C   UNL A   1      43.847  28.836  26.924  1.00  0.00     0.173 A 
ATOM     76  F   UNL A   1      45.590  27.303  29.721  1.00  0.00    -0.203 F 
ATOM     77  C   UNL A   1      44.793  26.344  27.730  1.00  0.00     0.198 A 
ATOM     78  C   UNL A   1      43.665  27.708  26.116  1.00  0.00     0.198 A 
ATOM     79  F   UNL A   1      43.323  30.002  26.522  1.00  0.00    -0.203 F 
ATOM     80  F   UNL A   1      45.197  25.138  28.159  1.00  0.00    -0.200 F 
ATOM     81  C   UNL A   1      44.105  26.459  26.535  1.00  0.00     0.200 A 
ATOM     82  F   UNL A   1      42.992  27.815  24.960  1.00  0.00    -0.200 F 
ATOM     83  F   UNL A   1      43.842  25.367  25.805  1.00  0.00    -0.200 F 
ENDBRANCH  49  73
BRANCH  61  84
ATOM     84  C   UNL A   1      42.563  35.661  29.120  1.00  0.00     0.064 A 
ATOM     85  C   UNL A   1      41.922  36.292  28.041  1.00  0.00     0.173 A 
ATOM     86  C   UNL A   1      43.299  36.525  29.971  1.00  0.00     0.173 A 
ATOM     87  F   UNL A   1      41.058  35.636  27.257  1.00  0.00    -0.203 F 
ATOM     88  C   UNL A   1      42.099  37.650  27.764  1.00  0.00     0.198 A 
ATOM     89  C   UNL A   1      43.412  37.892  29.733  1.00  0.00     0.198 A 
ATOM     90  F   UNL A   1      43.907  36.080  31.079  1.00  0.00    -0.203 F 
ATOM     91  F   UNL A   1      41.522  38.181  26.677  1.00  0.00    -0.200 F 
ATOM     92  C   UNL A   1      42.838  38.450  28.612  1.00  0.00     0.200 A 
ATOM     93  F   UNL A   1      44.067  38.667  30.609  1.00  0.00    -0.200 F 
ATOM     94  F   UNL A   1      42.972  39.759  28.364  1.00  0.00    -0.200 F 
ENDBRANCH  61  84
ENDBRANCH  35  36
ENDBRANCH  27  30
ENDBRANCH  25  26
ENDBRANCH  24  25
ENDBRANCH   1  24
TORSDOF 13
ENDMDL
MODEL 3
REMARK VINA RESULT:     -14.1      3.881     10.267
REMARK SMILES Cc1ccc(C(=O)N[C@@H]2C=C[C@H](C(=O)NCCCCNC(=O)c3ccc(-c4c5nc(c(-c6c(F)c(F)c(F)c(F)c6F)c6ccc([nH]6)c(-c6c(F)c(F)c(F)c(F)c6F)c6nc(c(-c7c(F)c(F)c(F)c(F)c7F)c7ccc4[nH]7)C=C6)C=C5)cc3)C2)c(F)c1
REMARK SMILES IDX 17 1 16 2 15 3 13 4 14 5 12 7 9 8 10 9 86 10 11 11 8 12 6 13
REMARK SMILES IDX 7 14 5 16 1 17 2 18 3 19 89 20 4 21 87 22 88 23 18 24 19 25
REMARK SMILES IDX 20 26 21 27 22 29 23 30 24 31 85 32 25 33 84 34 26 35 27 36
REMARK SMILES IDX 28 37 78 38 29 39 83 40 77 41 79 42 30 43 82 44 76 45 75 46
REMARK SMILES IDX 31 48 63 49 43 50 62 51 44 52 47 53 61 54 80 55 45 56 46 57
REMARK SMILES IDX 60 59 81 60 48 61 32 62 33 63 41 64 34 65 35 66 39 67 42 68
REMARK SMILES IDX 36 69 37 70 40 71 38 72 64 73 65 74 73 75 66 76 67 77 71 78
REMARK SMILES IDX 74 79 68 80 69 81 72 82 70 83 49 84 50 85 58 86 51 87 52 88
REMARK SMILES IDX 56 89 59 90 53 91 54 92 57 93 55 94
REMARK H PARENT 15 6 8 15 20 28 79 47 47 58
REMARK Flexibility Score: inf
ROOT
ATOM      1  C   UNL A   1      32.457  30.372  26.823  1.00  0.00     0.023 C 
ENDROOT
BRANCH   1   2
ATOM      2  C   UNL A   1      31.415  30.255  25.705  1.00  0.00     0.116 C 
BRANCH   2   3
ATOM      3  N   UNL A   1      31.940  29.700  24.469  1.00  0.00    -0.356 N 
ATOM      4  C   UNL A   1      31.742  28.455  23.923  1.00  0.00     0.227 C 
ATOM      5  O   UNL A   1      32.144  28.254  22.778  1.00  0.00    -0.274 OA
ATOM      6  H   UNL A   1      32.520  30.301  23.948  1.00  0.00     0.163 HD
BRANCH   4   7
ATOM      7  C   UNL A   1      31.070  27.378  24.782  1.00  0.00     0.103 C 
ATOM      8  C   UNL A   1      31.529  25.012  24.189  1.00  0.00     0.106 C 
ATOM      9  C   UNL A   1      30.124  25.424  23.873  1.00  0.00    -0.006 C 
ATOM     10  C   UNL A   1      32.046  26.216  24.992  1.00  0.00     0.047 C 
ATOM     11  C   UNL A   1      29.887  26.708  24.162  1.00  0.00    -0.016 C 
BRANCH   8  12
ATOM     12  N   UNL A   1      32.167  24.682  22.926  1.00  0.00    -0.346 N 
ATOM     13  C   UNL A   1      33.180  23.822  22.581  1.00  0.00     0.254 C 
ATOM     14  O   UNL A   1      33.305  23.480  21.409  1.00  0.00    -0.269 OA
ATOM     15  H   UNL A   1      31.797  25.178  22.160  1.00  0.00     0.164 HD
BRANCH  13  16
ATOM     16  C   UNL A   1      34.175  23.387  23.574  1.00  0.00     0.075 A 
ATOM     17  C   UNL A   1      37.505  21.723  25.716  1.00  0.00     0.044 C 
ATOM     18  C   UNL A   1      36.302  22.324  25.051  1.00  0.00    -0.048 A 
ATOM     19  C   UNL A   1      36.228  23.703  24.804  1.00  0.00     0.004 A 
ATOM     20  C   UNL A   1      35.234  21.506  24.667  1.00  0.00     0.043 A 
ATOM     21  C   UNL A   1      35.154  24.242  24.086  1.00  0.00     0.017 A 
ATOM     22  C   UNL A   1      34.184  22.036  23.925  1.00  0.00     0.136 A 
ATOM     23  F   UNL A   1      33.227  21.198  23.500  1.00  0.00    -0.206 F 
ENDBRANCH  13  16
ENDBRANCH   8  12
ENDBRANCH   4   7
ENDBRANCH   2   3
ENDBRANCH   1   2
BRANCH   1  24
ATOM     24  C   UNL A   1      33.199  29.091  27.228  1.00  0.00     0.023 C 
BRANCH  24  25
ATOM     25  C   UNL A   1      34.701  29.162  27.027  1.00  0.00     0.116 C 
BRANCH  25  26
ATOM     26  N   UNL A   1      35.257  30.493  27.266  1.00  0.00    -0.352 N 
ATOM     27  C   UNL A   1      36.379  30.839  27.999  1.00  0.00     0.251 C 
ATOM     28  H   UNL A   1      34.769  31.241  26.852  1.00  0.00     0.163 HD
ATOM     29  O   UNL A   1      36.554  31.990  28.374  1.00  0.00    -0.269 OA
BRANCH  27  30
ATOM     30  C   UNL A   1      37.381  29.800  28.305  1.00  0.00     0.039 A 
ATOM     31  C   UNL A   1      37.295  28.976  29.438  1.00  0.00     0.014 A 
ATOM     32  C   UNL A   1      38.469  29.703  27.450  1.00  0.00     0.014 A 
ATOM     33  C   UNL A   1      38.306  28.042  29.682  1.00  0.00     0.010 A 
ATOM     34  C   UNL A   1      39.327  28.653  27.556  1.00  0.00     0.010 A 
ATOM     35  C   UNL A   1      39.316  27.903  28.732  1.00  0.00    -0.014 A 
BRANCH  35  36
ATOM     36  C   UNL A   1      40.556  27.169  28.901  1.00  0.00     0.031 A 
ATOM     37  C   UNL A   1      40.652  25.747  28.576  1.00  0.00     0.074 A 
ATOM     38  C   UNL A   1      41.639  27.965  29.052  1.00  0.00     0.049 A 
ATOM     39  N   UNL A   1      41.585  24.975  29.008  1.00  0.00    -0.248 NA
ATOM     40  C   UNL A   1      39.695  25.075  27.708  1.00  0.00     0.031 C 
ATOM     41  C   UNL A   1      43.046  27.688  28.820  1.00  0.00     0.029 A 
ATOM     42  N   UNL A   1      41.628  29.290  29.523  1.00  0.00    -0.354 N 
ATOM     43  C   UNL A   1      41.567  23.846  28.218  1.00  0.00     0.074 A 
ATOM     44  C   UNL A   1      40.300  23.894  27.525  1.00  0.00     0.031 C 
ATOM     45  C   UNL A   1      43.774  28.646  29.425  1.00  0.00     0.029 A 
ATOM     46  C   UNL A   1      42.847  29.476  30.185  1.00  0.00     0.049 A 
ATOM     47  H   UNL A   1      40.909  29.952  29.410  1.00  0.00     0.167 HD
ATOM     48  C   UNL A   1      42.719  23.121  28.092  1.00  0.00     0.037 A 
ATOM     49  C   UNL A   1      42.823  29.598  31.546  1.00  0.00     0.037 A 
ATOM     50  C   UNL A   1      43.795  23.745  28.868  1.00  0.00     0.049 A 
ATOM     51  C   UNL A   1      43.499  28.426  32.204  1.00  0.00     0.074 A 
ATOM     52  C   UNL A   1      44.833  24.583  28.487  1.00  0.00     0.029 A 
ATOM     53  N   UNL A   1      43.684  23.867  30.253  1.00  0.00    -0.354 N 
ATOM     54  N   UNL A   1      43.537  27.222  31.698  1.00  0.00    -0.248 NA
ATOM     55  C   UNL A   1      44.249  28.548  33.446  1.00  0.00     0.031 C 
ATOM     56  C   UNL A   1      45.302  25.257  29.641  1.00  0.00     0.029 A 
ATOM     57  C   UNL A   1      44.561  24.825  30.729  1.00  0.00     0.049 A 
ATOM     58  H   UNL A   1      43.066  23.344  30.814  1.00  0.00     0.167 HD
ATOM     59  C   UNL A   1      44.346  26.437  32.475  1.00  0.00     0.074 A 
ATOM     60  C   UNL A   1      44.754  27.309  33.563  1.00  0.00     0.031 C 
ATOM     61  C   UNL A   1      44.658  25.146  32.147  1.00  0.00     0.037 A 
BRANCH  48  62
ATOM     62  C   UNL A   1      42.969  22.091  27.002  1.00  0.00     0.064 A 
ATOM     63  C   UNL A   1      42.316  20.836  27.023  1.00  0.00     0.173 A 
ATOM     64  C   UNL A   1      43.860  22.263  25.926  1.00  0.00     0.173 A 
ATOM     65  F   UNL A   1      41.349  20.561  27.906  1.00  0.00    -0.203 F 
ATOM     66  C   UNL A   1      42.624  19.807  26.129  1.00  0.00     0.198 A 
ATOM     67  C   UNL A   1      44.201  21.220  25.054  1.00  0.00     0.198 A 
ATOM     68  F   UNL A   1      44.388  23.461  25.646  1.00  0.00    -0.203 F 
ATOM     69  F   UNL A   1      41.978  18.635  26.217  1.00  0.00    -0.200 F 
ATOM     70  C   UNL A   1      43.591  19.987  25.164  1.00  0.00     0.200 A 
ATOM     71  F   UNL A   1      45.122  21.423  24.101  1.00  0.00    -0.200 F 
ATOM     72  F   UNL A   1      43.910  18.991  24.327  1.00  0.00    -0.200 F 
ENDBRANCH  48  62
BRANCH  49  73
ATOM     73  C   UNL A   1      41.582  30.286  32.028  1.00  0.00     0.064 A 
ATOM     74  C   UNL A   1      41.408  31.642  31.675  1.00  0.00     0.173 A 
ATOM     75  C   UNL A   1      40.437  29.576  32.416  1.00  0.00     0.173 A 
ATOM     76  F   UNL A   1      42.467  32.372  31.288  1.00  0.00    -0.203 F 
ATOM     77  C   UNL A   1      40.141  32.216  31.582  1.00  0.00     0.198 A 
ATOM     78  C   UNL A   1      39.168  30.163  32.340  1.00  0.00     0.198 A 
ATOM     79  F   UNL A   1      40.524  28.285  32.766  1.00  0.00    -0.203 F 
ATOM     80  F   UNL A   1      40.007  33.468  31.118  1.00  0.00    -0.200 F 
ATOM     81  C   UNL A   1      39.019  31.468  31.889  1.00  0.00     0.200 A 
ATOM     82  F   UNL A   1      38.077  29.438  32.629  1.00  0.00    -0.200 F 
ATOM     83  F   UNL A   1      37.797  31.993  31.723  1.00  0.00    -0.200 F 
ENDBRANCH  49  73
BRANCH  61  84
ATOM     84  C   UNL A   1      45.255  24.127  33.087  1.00  0.00     0.064 A 
ATOM     85  C   UNL A   1      46.554  24.220  33.615  1.00  0.00     0.173 A 
ATOM     86  C   UNL A   1      44.472  23.064  33.602  1.00  0.00     0.173 A 
ATOM     87  F   UNL A   1      47.346  25.267  33.352  1.00  0.00    -0.203 F 
ATOM     88  C   UNL A   1      47.068  23.263  34.492  1.00  0.00     0.198 A 
ATOM     89  C   UNL A   1      44.964  22.154  34.534  1.00  0.00     0.198 A 
ATOM     90  F   UNL A   1      43.191  22.889  33.246  1.00  0.00    -0.203 F 
ATOM     91  F   UNL A   1      48.339  23.362  34.906  1.00  0.00    -0.200 F 
ATOM     92  C   UNL A   1      46.272  22.234  34.957  1.00  0.00     0.200 A 
ATOM     93  F   UNL A   1      44.153  21.210  35.033  1.00  0.00    -0.200 F 
ATOM     94  F   UNL A   1      46.757  21.342  35.829  1.00  0.00    -0.200 F 
ENDBRANCH  61  84
ENDBRANCH  35  36
ENDBRANCH  27  30
ENDBRANCH  25  26
ENDBRANCH  24  25
ENDBRANCH   1  24
TORSDOF 13
ENDMDL
