MODEL 1
REMARK VINA RESULT:     -13.8      0.000      0.000
REMARK SMILES Cc1cc(=O)n2cc(-c3ccccc3)nc2n1[C@H](C)C(=O)NCCCCNC(=O)c1ccc(-c2c3nc(c(-c4c(F)c(F)c(F)c(F)c4F)c4ccc([nH]4)c(-c4c(F)c(F)c(F)c(F)c4F)c4nc(c(-c5c(F)c(F)c(F)c(F)c5F)c5ccc2[nH]5)C=C4)C=C3)cc1
REMARK SMILES IDX 24 1 23 2 22 3 20 4 21 5 18 7 19 8 17 9 1 10 2 11 3 12 4 13
REMARK SMILES IDX 16 14 5 15 6 16 15 17 7 18 8 19 9 20 10 21 14 22 11 23 13 24
REMARK SMILES IDX 12 25 25 26 26 27 27 28 28 29 29 31 30 32 31 33 92 34 32 35
REMARK SMILES IDX 91 36 33 37 34 38 35 39 85 40 36 41 90 42 84 43 86 44 37 45
REMARK SMILES IDX 89 46 83 47 82 48 38 50 70 51 50 52 69 53 51 54 54 55 68 56
REMARK SMILES IDX 87 57 52 58 53 59 67 61 88 62 55 63 39 64 40 65 48 66 41 67
REMARK SMILES IDX 42 68 46 69 49 70 43 71 44 72 47 73 45 74 71 75 72 76 80 77
REMARK SMILES IDX 73 78 74 79 78 80 81 81 75 82 76 83 79 84 77 85 56 86 57 87
REMARK SMILES IDX 65 88 58 89 59 90 63 91 66 92 60 93 61 94 64 95 62 96
REMARK H PARENT 22 6 27 30 86 49 54 60
REMARK Flexibility Score: inf
ROOT
ATOM      1  C   UNL A   1      36.434  21.318  25.332  1.00  0.00     0.023 C 
ENDROOT
BRANCH   1   2
ATOM      2  C   UNL A   1      34.936  21.326  25.605  1.00  0.00     0.116 C 
BRANCH   2   3
ATOM      3  N   UNL A   1      34.474  22.178  26.672  1.00  0.00    -0.354 N 
ATOM      4  C   UNL A   1      33.191  22.588  26.919  1.00  0.00     0.242 C 
ATOM      5  O   UNL A   1      32.980  23.057  28.046  1.00  0.00    -0.273 OA
ATOM      6  H   UNL A   1      35.161  22.503  27.297  1.00  0.00     0.163 HD
BRANCH   4   7
ATOM      7  C   UNL A   1      32.038  22.534  25.873  1.00  0.00     0.176 C 
ATOM      8  C   UNL A   1      30.621  22.664  26.421  1.00  0.00     0.042 C 
BRANCH   7   9
ATOM      9  N   UNL A   1      32.338  23.272  24.593  1.00  0.00    -0.303 N 
ATOM     10  C   UNL A   1      32.115  21.133  23.232  1.00  0.00     0.065 C 
ATOM     11  C   UNL A   1      32.454  22.601  23.347  1.00  0.00     0.024 A 
ATOM     12  C   UNL A   1      32.847  23.233  22.225  1.00  0.00     0.093 A 
ATOM     13  C   UNL A   1      33.197  24.665  22.249  1.00  0.00     0.259 A 
ATOM     14  C   UNL A   1      32.575  24.630  24.630  1.00  0.00     0.218 A 
ATOM     15  O   UNL A   1      33.604  25.292  21.292  1.00  0.00    -0.269 OA
ATOM     16  N   UNL A   1      33.017  25.274  23.484  1.00  0.00    -0.251 N 
ATOM     17  N   UNL A   1      32.456  25.504  25.606  1.00  0.00    -0.212 NA
ATOM     18  C   UNL A   1      33.258  26.593  23.809  1.00  0.00     0.127 A 
ATOM     19  C   UNL A   1      32.888  26.711  25.124  1.00  0.00     0.091 A 
BRANCH  19  20
ATOM     20  C   UNL A   1      33.021  27.905  25.930  1.00  0.00     0.002 A 
ATOM     21  C   UNL A   1      34.222  28.234  26.562  1.00  0.00     0.010 A 
ATOM     22  C   UNL A   1      31.921  28.750  26.093  1.00  0.00     0.010 A 
ATOM     23  C   UNL A   1      34.313  29.386  27.351  1.00  0.00     0.001 A 
ATOM     24  C   UNL A   1      32.007  29.885  26.901  1.00  0.00     0.001 A 
ATOM     25  C   UNL A   1      33.203  30.207  27.527  1.00  0.00     0.000 A 
ENDBRANCH  19  20
ENDBRANCH   7   9
ENDBRANCH   4   7
ENDBRANCH   2   3
ENDBRANCH   1   2
BRANCH   1  26
ATOM     26  C   UNL A   1      37.084  22.641  24.931  1.00  0.00     0.023 C 
BRANCH  26  27
ATOM     27  C   UNL A   1      37.907  23.314  26.023  1.00  0.00     0.116 C 
BRANCH  27  28
ATOM     28  N   UNL A   1      38.935  22.446  26.603  1.00  0.00    -0.352 N 
ATOM     29  C   UNL A   1      40.252  22.757  26.895  1.00  0.00     0.251 C 
ATOM     30  H   UNL A   1      38.654  21.527  26.812  1.00  0.00     0.163 HD
ATOM     31  O   UNL A   1      41.105  21.879  26.956  1.00  0.00    -0.269 OA
BRANCH  29  32
ATOM     32  C   UNL A   1      40.622  24.158  27.166  1.00  0.00     0.039 A 
ATOM     33  C   UNL A   1      40.206  25.195  26.328  1.00  0.00     0.014 A 
ATOM     34  C   UNL A   1      41.374  24.432  28.304  1.00  0.00     0.014 A 
ATOM     35  C   UNL A   1      40.424  26.509  26.733  1.00  0.00     0.010 A 
ATOM     36  C   UNL A   1      41.465  25.710  28.776  1.00  0.00     0.010 A 
ATOM     37  C   UNL A   1      41.007  26.753  27.987  1.00  0.00    -0.014 A 
BRANCH  37  38
ATOM     38  C   UNL A   1      40.925  28.070  28.599  1.00  0.00     0.031 A 
ATOM     39  C   UNL A   1      41.990  29.001  28.127  1.00  0.00     0.074 A 
ATOM     40  C   UNL A   1      39.843  28.503  29.276  1.00  0.00     0.049 A 
ATOM     41  N   UNL A   1      42.981  29.482  28.801  1.00  0.00    -0.248 NA
ATOM     42  C   UNL A   1      42.054  29.300  26.684  1.00  0.00     0.031 C 
ATOM     43  C   UNL A   1      38.558  27.828  29.490  1.00  0.00     0.029 A 
ATOM     44  N   UNL A   1      39.641  29.716  29.851  1.00  0.00    -0.354 N 
ATOM     45  C   UNL A   1      43.685  30.297  27.917  1.00  0.00     0.074 A 
ATOM     46  C   UNL A   1      43.197  29.983  26.601  1.00  0.00     0.031 C 
ATOM     47  C   UNL A   1      37.651  28.717  29.956  1.00  0.00     0.029 A 
ATOM     48  C   UNL A   1      38.330  29.967  30.236  1.00  0.00     0.049 A 
ATOM     49  H   UNL A   1      40.368  30.368  29.985  1.00  0.00     0.167 HD
ATOM     50  C   UNL A   1      44.427  31.348  28.365  1.00  0.00     0.037 A 
ATOM     51  C   UNL A   1      37.857  31.143  30.716  1.00  0.00     0.037 A 
ATOM     52  C   UNL A   1      44.668  31.239  29.782  1.00  0.00     0.049 A 
ATOM     53  C   UNL A   1      39.035  31.921  31.181  1.00  0.00     0.074 A 
ATOM     54  C   UNL A   1      45.321  30.332  30.592  1.00  0.00     0.029 A 
ATOM     55  N   UNL A   1      43.842  31.954  30.615  1.00  0.00    -0.354 N 
ATOM     56  N   UNL A   1      39.789  31.571  32.186  1.00  0.00    -0.248 NA
ATOM     57  C   UNL A   1      39.639  32.851  30.241  1.00  0.00     0.031 C 
ATOM     58  C   UNL A   1      44.508  30.226  31.761  1.00  0.00     0.029 A 
ATOM     59  C   UNL A   1      43.447  31.124  31.632  1.00  0.00     0.049 A 
ATOM     60  H   UNL A   1      43.581  32.896  30.502  1.00  0.00     0.167 HD
ATOM     61  C   UNL A   1      41.079  31.894  31.792  1.00  0.00     0.074 A 
ATOM     62  C   UNL A   1      40.914  32.761  30.628  1.00  0.00     0.031 C 
ATOM     63  C   UNL A   1      42.151  31.197  32.271  1.00  0.00     0.037 A 
BRANCH  50  64
ATOM     64  C   UNL A   1      44.608  32.647  27.615  1.00  0.00     0.064 A 
ATOM     65  C   UNL A   1      45.778  32.849  26.855  1.00  0.00     0.173 A 
ATOM     66  C   UNL A   1      43.825  33.802  27.834  1.00  0.00     0.173 A 
ATOM     67  F   UNL A   1      46.618  31.832  26.613  1.00  0.00    -0.203 F 
ATOM     68  C   UNL A   1      46.157  34.116  26.401  1.00  0.00     0.198 A 
ATOM     69  C   UNL A   1      44.175  35.054  27.329  1.00  0.00     0.198 A 
ATOM     70  F   UNL A   1      42.754  33.799  28.636  1.00  0.00    -0.203 F 
ATOM     71  F   UNL A   1      47.338  34.278  25.788  1.00  0.00    -0.200 F 
ATOM     72  C   UNL A   1      45.355  35.217  26.638  1.00  0.00     0.200 A 
ATOM     73  F   UNL A   1      43.395  36.111  27.594  1.00  0.00    -0.200 F 
ATOM     74  F   UNL A   1      45.741  36.440  26.251  1.00  0.00    -0.200 F 
ENDBRANCH  50  64
BRANCH  51  75
ATOM     75  C   UNL A   1      36.542  31.784  30.477  1.00  0.00     0.064 A 
ATOM     76  C   UNL A   1      35.799  32.305  31.551  1.00  0.00     0.173 A 
ATOM     77  C   UNL A   1      36.144  32.183  29.187  1.00  0.00     0.173 A 
ATOM     78  F   UNL A   1      36.135  31.999  32.812  1.00  0.00    -0.203 F 
ATOM     79  C   UNL A   1      34.757  33.215  31.349  1.00  0.00     0.198 A 
ATOM     80  C   UNL A   1      35.099  33.088  28.986  1.00  0.00     0.198 A 
ATOM     81  F   UNL A   1      36.827  31.788  28.103  1.00  0.00    -0.203 F 
ATOM     82  F   UNL A   1      34.127  33.753  32.402  1.00  0.00    -0.200 F 
ATOM     83  C   UNL A   1      34.420  33.620  30.068  1.00  0.00     0.200 A 
ATOM     84  F   UNL A   1      34.805  33.499  27.745  1.00  0.00    -0.200 F 
ATOM     85  F   UNL A   1      33.476  34.552  29.878  1.00  0.00    -0.200 F 
ENDBRANCH  51  75
BRANCH  63  86
ATOM     86  C   UNL A   1      41.912  30.259  33.426  1.00  0.00     0.064 A 
ATOM     87  C   UNL A   1      41.621  28.890  33.288  1.00  0.00     0.173 A 
ATOM     88  C   UNL A   1      42.127  30.738  34.723  1.00  0.00     0.173 A 
ATOM     89  F   UNL A   1      41.491  28.332  32.080  1.00  0.00    -0.203 F 
ATOM     90  C   UNL A   1      41.516  28.052  34.398  1.00  0.00     0.198 A 
ATOM     91  C   UNL A   1      42.058  29.893  35.829  1.00  0.00     0.198 A 
ATOM     92  F   UNL A   1      42.457  32.025  34.916  1.00  0.00    -0.203 F 
ATOM     93  F   UNL A   1      41.230  26.751  34.235  1.00  0.00    -0.200 F 
ATOM     94  C   UNL A   1      41.745  28.554  35.667  1.00  0.00     0.200 A 
ATOM     95  F   UNL A   1      42.326  30.374  37.050  1.00  0.00    -0.200 F 
ATOM     96  F   UNL A   1      41.690  27.742  36.732  1.00  0.00    -0.200 F 
ENDBRANCH  63  86
ENDBRANCH  37  38
ENDBRANCH  29  32
ENDBRANCH  27  28
ENDBRANCH  26  27
ENDBRANCH   1  26
TORSDOF 13
ENDMDL
MODEL 2
REMARK VINA RESULT:     -13.6      3.304      8.794
REMARK SMILES Cc1cc(=O)n2cc(-c3ccccc3)nc2n1[C@H](C)C(=O)NCCCCNC(=O)c1ccc(-c2c3nc(c(-c4c(F)c(F)c(F)c(F)c4F)c4ccc([nH]4)c(-c4c(F)c(F)c(F)c(F)c4F)c4nc(c(-c5c(F)c(F)c(F)c(F)c5F)c5ccc2[nH]5)C=C4)C=C3)cc1
REMARK SMILES IDX 24 1 23 2 22 3 20 4 21 5 18 7 19 8 17 9 1 10 2 11 3 12 4 13
REMARK SMILES IDX 16 14 5 15 6 16 15 17 7 18 8 19 9 20 10 21 14 22 11 23 13 24
REMARK SMILES IDX 12 25 25 26 26 27 27 28 28 29 29 31 30 32 31 33 92 34 32 35
REMARK SMILES IDX 91 36 33 37 34 38 35 39 85 40 36 41 90 42 84 43 86 44 37 45
REMARK SMILES IDX 89 46 83 47 82 48 38 50 70 51 50 52 69 53 51 54 54 55 68 56
REMARK SMILES IDX 87 57 52 58 53 59 67 61 88 62 55 63 39 64 40 65 48 66 41 67
REMARK SMILES IDX 42 68 46 69 49 70 43 71 44 72 47 73 45 74 71 75 72 76 80 77
REMARK SMILES IDX 73 78 74 79 78 80 81 81 75 82 76 83 79 84 77 85 56 86 57 87
REMARK SMILES IDX 65 88 58 89 59 90 63 91 66 92 60 93 61 94 64 95 62 96
REMARK H PARENT 22 6 27 30 86 49 54 60
REMARK Flexibility Score: inf
ROOT
ATOM      1  C   UNL A   1      32.536  29.609  25.895  1.00  0.00     0.023 C 
ENDROOT
BRANCH   1   2
ATOM      2  C   UNL A   1      32.252  29.143  24.472  1.00  0.00     0.116 C 
BRANCH   2   3
ATOM      3  N   UNL A   1      33.368  28.625  23.723  1.00  0.00    -0.354 N 
ATOM      4  C   UNL A   1      33.341  27.702  22.711  1.00  0.00     0.242 C 
ATOM      5  O   UNL A   1      34.362  27.634  22.013  1.00  0.00    -0.273 OA
ATOM      6  H   UNL A   1      34.255  28.976  23.966  1.00  0.00     0.163 HD
BRANCH   4   7
ATOM      7  C   UNL A   1      32.146  26.743  22.434  1.00  0.00     0.176 C 
ATOM      8  C   UNL A   1      32.195  25.962  21.124  1.00  0.00     0.042 C 
BRANCH   7   9
ATOM      9  N   UNL A   1      31.670  25.991  23.651  1.00  0.00    -0.303 N 
ATOM     10  C   UNL A   1      29.358  27.040  23.474  1.00  0.00     0.065 C 
ATOM     11  C   UNL A   1      30.374  26.186  24.197  1.00  0.00     0.024 A 
ATOM     12  C   UNL A   1      29.989  25.617  25.355  1.00  0.00     0.093 A 
ATOM     13  C   UNL A   1      30.918  24.769  26.124  1.00  0.00     0.259 A 
ATOM     14  C   UNL A   1      32.532  25.134  24.303  1.00  0.00     0.218 A 
ATOM     15  O   UNL A   1      30.662  24.261  27.196  1.00  0.00    -0.269 OA
ATOM     16  N   UNL A   1      32.152  24.578  25.514  1.00  0.00    -0.251 N 
ATOM     17  N   UNL A   1      33.734  24.706  23.981  1.00  0.00    -0.212 NA
ATOM     18  C   UNL A   1      33.214  23.839  25.991  1.00  0.00     0.127 A 
ATOM     19  C   UNL A   1      34.175  23.923  25.016  1.00  0.00     0.091 A 
BRANCH  19  20
ATOM     20  C   UNL A   1      35.503  23.356  25.095  1.00  0.00     0.002 A 
ATOM     21  C   UNL A   1      36.497  23.924  25.895  1.00  0.00     0.010 A 
ATOM     22  C   UNL A   1      35.810  22.218  24.346  1.00  0.00     0.010 A 
ATOM     23  C   UNL A   1      37.779  23.362  25.935  1.00  0.00     0.001 A 
ATOM     24  C   UNL A   1      37.096  21.674  24.367  1.00  0.00     0.001 A 
ATOM     25  C   UNL A   1      38.080  22.243  25.164  1.00  0.00     0.000 A 
ENDBRANCH  19  20
ENDBRANCH   7   9
ENDBRANCH   4   7
ENDBRANCH   2   3
ENDBRANCH   1   2
BRANCH   1  26
ATOM     26  C   UNL A   1      33.499  28.770  26.732  1.00  0.00     0.023 C 
BRANCH  26  27
ATOM     27  C   UNL A   1      34.858  29.409  26.989  1.00  0.00     0.116 C 
BRANCH  27  28
ATOM     28  N   UNL A   1      34.776  30.794  27.460  1.00  0.00    -0.352 N 
ATOM     29  C   UNL A   1      35.343  31.346  28.597  1.00  0.00     0.251 C 
ATOM     30  H   UNL A   1      34.252  31.410  26.899  1.00  0.00     0.163 HD
ATOM     31  O   UNL A   1      34.866  32.352  29.110  1.00  0.00    -0.269 OA
BRANCH  29  32
ATOM     32  C   UNL A   1      36.551  30.730  29.174  1.00  0.00     0.039 A 
ATOM     33  C   UNL A   1      36.478  29.572  29.950  1.00  0.00     0.014 A 
ATOM     34  C   UNL A   1      37.783  31.316  28.898  1.00  0.00     0.014 A 
ATOM     35  C   UNL A   1      37.661  28.933  30.309  1.00  0.00     0.010 A 
ATOM     36  C   UNL A   1      38.939  30.623  29.123  1.00  0.00     0.010 A 
ATOM     37  C   UNL A   1      38.884  29.440  29.842  1.00  0.00    -0.014 A 
BRANCH  37  38
ATOM     38  C   UNL A   1      40.089  28.626  29.884  1.00  0.00     0.031 A 
ATOM     39  C   UNL A   1      40.599  28.405  31.267  1.00  0.00     0.074 A 
ATOM     40  C   UNL A   1      40.523  27.898  28.835  1.00  0.00     0.049 A 
ATOM     41  N   UNL A   1      41.688  28.858  31.794  1.00  0.00    -0.248 NA
ATOM     42  C   UNL A   1      39.705  27.740  32.233  1.00  0.00     0.031 C 
ATOM     43  C   UNL A   1      39.902  27.714  27.519  1.00  0.00     0.029 A 
ATOM     44  N   UNL A   1      41.604  27.078  28.771  1.00  0.00    -0.354 N 
ATOM     45  C   UNL A   1      41.711  28.374  33.100  1.00  0.00     0.074 A 
ATOM     46  C   UNL A   1      40.388  27.878  33.371  1.00  0.00     0.031 C 
ATOM     47  C   UNL A   1      40.496  26.682  26.877  1.00  0.00     0.029 A 
ATOM     48  C   UNL A   1      41.642  26.252  27.654  1.00  0.00     0.049 A 
ATOM     49  H   UNL A   1      42.304  27.068  29.463  1.00  0.00     0.167 HD
ATOM     50  C   UNL A   1      42.886  28.184  33.762  1.00  0.00     0.037 A 
ATOM     51  C   UNL A   1      42.547  25.268  27.428  1.00  0.00     0.037 A 
ATOM     52  C   UNL A   1      43.964  28.879  33.104  1.00  0.00     0.049 A 
ATOM     53  C   UNL A   1      43.707  25.541  28.315  1.00  0.00     0.074 A 
ATOM     54  C   UNL A   1      44.243  30.203  32.828  1.00  0.00     0.029 A 
ATOM     55  N   UNL A   1      44.758  28.147  32.256  1.00  0.00    -0.354 N 
ATOM     56  N   UNL A   1      44.489  26.578  28.193  1.00  0.00    -0.248 NA
ATOM     57  C   UNL A   1      43.725  24.894  29.617  1.00  0.00     0.031 C 
ATOM     58  C   UNL A   1      44.816  30.195  31.520  1.00  0.00     0.029 A 
ATOM     59  C   UNL A   1      44.921  28.867  31.101  1.00  0.00     0.049 A 
ATOM     60  H   UNL A   1      45.143  27.261  32.444  1.00  0.00     0.167 HD
ATOM     61  C   UNL A   1      44.772  26.964  29.495  1.00  0.00     0.074 A 
ATOM     62  C   UNL A   1      44.350  25.838  30.324  1.00  0.00     0.031 C 
ATOM     63  C   UNL A   1      45.052  28.267  29.792  1.00  0.00     0.037 A 
BRANCH  50  64
ATOM     64  C   UNL A   1      43.134  27.081  34.765  1.00  0.00     0.064 A 
ATOM     65  C   UNL A   1      43.332  27.411  36.121  1.00  0.00     0.173 A 
ATOM     66  C   UNL A   1      43.462  25.752  34.414  1.00  0.00     0.173 A 
ATOM     67  F   UNL A   1      43.088  28.653  36.563  1.00  0.00    -0.203 F 
ATOM     68  C   UNL A   1      43.868  26.499  37.034  1.00  0.00     0.198 A 
ATOM     69  C   UNL A   1      43.941  24.827  35.340  1.00  0.00     0.198 A 
ATOM     70  F   UNL A   1      43.446  25.322  33.147  1.00  0.00    -0.203 F 
ATOM     71  F   UNL A   1      44.151  26.896  38.283  1.00  0.00    -0.200 F 
ATOM     72  C   UNL A   1      44.172  25.208  36.644  1.00  0.00     0.200 A 
ATOM     73  F   UNL A   1      44.252  23.589  34.932  1.00  0.00    -0.200 F 
ATOM     74  F   UNL A   1      44.734  24.347  37.503  1.00  0.00    -0.200 F 
ENDBRANCH  50  64
BRANCH  51  75
ATOM     75  C   UNL A   1      42.341  23.944  26.793  1.00  0.00     0.064 A 
ATOM     76  C   UNL A   1      43.310  23.415  25.923  1.00  0.00     0.173 A 
ATOM     77  C   UNL A   1      41.368  23.046  27.270  1.00  0.00     0.173 A 
ATOM     78  F   UNL A   1      44.290  24.198  25.452  1.00  0.00    -0.203 F 
ATOM     79  C   UNL A   1      43.337  22.056  25.595  1.00  0.00     0.198 A 
ATOM     80  C   UNL A   1      41.392  21.690  26.936  1.00  0.00     0.198 A 
ATOM     81  F   UNL A   1      40.438  23.441  28.152  1.00  0.00    -0.203 F 
ATOM     82  F   UNL A   1      44.324  21.574  24.829  1.00  0.00    -0.200 F 
ATOM     83  C   UNL A   1      42.389  21.191  26.116  1.00  0.00     0.200 A 
ATOM     84  F   UNL A   1      40.491  20.856  27.474  1.00  0.00    -0.200 F 
ATOM     85  F   UNL A   1      42.461  19.876  25.867  1.00  0.00    -0.200 F 
ENDBRANCH  51  75
BRANCH  63  86
ATOM     86  C   UNL A   1      45.303  29.205  28.639  1.00  0.00     0.064 A 
ATOM     87  C   UNL A   1      44.308  29.983  28.019  1.00  0.00     0.173 A 
ATOM     88  C   UNL A   1      46.627  29.429  28.244  1.00  0.00     0.173 A 
ATOM     89  F   UNL A   1      43.030  29.897  28.400  1.00  0.00    -0.203 F 
ATOM     90  C   UNL A   1      44.622  30.912  27.028  1.00  0.00     0.198 A 
ATOM     91  C   UNL A   1      46.944  30.384  27.281  1.00  0.00     0.198 A 
ATOM     92  F   UNL A   1      47.625  28.754  28.835  1.00  0.00    -0.203 F 
ATOM     93  F   UNL A   1      43.651  31.634  26.449  1.00  0.00    -0.200 F 
ATOM     94  C   UNL A   1      45.942  31.118  26.667  1.00  0.00     0.200 A 
ATOM     95  F   UNL A   1      48.226  30.612  26.969  1.00  0.00    -0.200 F 
ATOM     96  F   UNL A   1      46.252  32.043  25.747  1.00  0.00    -0.200 F 
ENDBRANCH  63  86
ENDBRANCH  37  38
ENDBRANCH  29  32
ENDBRANCH  27  28
ENDBRANCH  26  27
ENDBRANCH   1  26
TORSDOF 13
ENDMDL
MODEL 3
REMARK VINA RESULT:     -13.2      3.112      8.690
REMARK SMILES Cc1cc(=O)n2cc(-c3ccccc3)nc2n1[C@H](C)C(=O)NCCCCNC(=O)c1ccc(-c2c3nc(c(-c4c(F)c(F)c(F)c(F)c4F)c4ccc([nH]4)c(-c4c(F)c(F)c(F)c(F)c4F)c4nc(c(-c5c(F)c(F)c(F)c(F)c5F)c5ccc2[nH]5)C=C4)C=C3)cc1
REMARK SMILES IDX 24 1 23 2 22 3 20 4 21 5 18 7 19 8 17 9 1 10 2 11 3 12 4 13
REMARK SMILES IDX 16 14 5 15 6 16 15 17 7 18 8 19 9 20 10 21 14 22 11 23 13 24
REMARK SMILES IDX 12 25 25 26 26 27 27 28 28 29 29 31 30 32 31 33 92 34 32 35
REMARK SMILES IDX 91 36 33 37 34 38 35 39 85 40 36 41 90 42 84 43 86 44 37 45
REMARK SMILES IDX 89 46 83 47 82 48 38 50 70 51 50 52 69 53 51 54 54 55 68 56
REMARK SMILES IDX 87 57 52 58 53 59 67 61 88 62 55 63 39 64 40 65 48 66 41 67
REMARK SMILES IDX 42 68 46 69 49 70 43 71 44 72 47 73 45 74 71 75 72 76 80 77
REMARK SMILES IDX 73 78 74 79 78 80 81 81 75 82 76 83 79 84 77 85 56 86 57 87
REMARK SMILES IDX 65 88 58 89 59 90 63 91 66 92 60 93 61 94 64 95 62 96
REMARK H PARENT 22 6 27 30 86 49 54 60
REMARK Flexibility Score: inf
ROOT
ATOM      1  C   UNL A   1      32.135  29.495  25.808  1.00  0.00     0.023 C 
ENDROOT
BRANCH   1   2
ATOM      2  C   UNL A   1      32.022  29.298  24.301  1.00  0.00     0.116 C 
BRANCH   2   3
ATOM      3  N   UNL A   1      33.171  28.743  23.631  1.00  0.00    -0.354 N 
ATOM      4  C   UNL A   1      33.188  27.761  22.675  1.00  0.00     0.242 C 
ATOM      5  O   UNL A   1      34.238  27.657  22.026  1.00  0.00    -0.273 OA
ATOM      6  H   UNL A   1      34.046  29.113  23.888  1.00  0.00     0.163 HD
BRANCH   4   7
ATOM      7  C   UNL A   1      32.009  26.780  22.408  1.00  0.00     0.176 C 
ATOM      8  C   UNL A   1      32.065  25.997  21.100  1.00  0.00     0.042 C 
BRANCH   7   9
ATOM      9  N   UNL A   1      31.553  26.023  23.630  1.00  0.00    -0.303 N 
ATOM     10  C   UNL A   1      29.239  27.075  23.497  1.00  0.00     0.065 C 
ATOM     11  C   UNL A   1      30.267  26.217  24.199  1.00  0.00     0.024 A 
ATOM     12  C   UNL A   1      29.901  25.642  25.360  1.00  0.00     0.093 A 
ATOM     13  C   UNL A   1      30.843  24.791  26.110  1.00  0.00     0.259 A 
ATOM     14  C   UNL A   1      32.426  25.163  24.263  1.00  0.00     0.218 A 
ATOM     15  O   UNL A   1      30.604  24.278  27.184  1.00  0.00    -0.269 OA
ATOM     16  N   UNL A   1      32.066  24.601  25.478  1.00  0.00    -0.251 N 
ATOM     17  N   UNL A   1      33.622  24.735  23.919  1.00  0.00    -0.212 NA
ATOM     18  C   UNL A   1      33.135  23.860  25.933  1.00  0.00     0.127 A 
ATOM     19  C   UNL A   1      34.079  23.948  24.943  1.00  0.00     0.091 A 
BRANCH  19  20
ATOM     20  C   UNL A   1      35.409  23.379  24.996  1.00  0.00     0.002 A 
ATOM     21  C   UNL A   1      36.382  23.871  25.869  1.00  0.00     0.010 A 
ATOM     22  C   UNL A   1      35.738  22.318  24.149  1.00  0.00     0.010 A 
ATOM     23  C   UNL A   1      37.665  23.312  25.883  1.00  0.00     0.001 A 
ATOM     24  C   UNL A   1      37.025  21.779  24.147  1.00  0.00     0.001 A 
ATOM     25  C   UNL A   1      37.989  22.272  25.015  1.00  0.00     0.000 A 
ENDBRANCH  19  20
ENDBRANCH   7   9
ENDBRANCH   4   7
ENDBRANCH   2   3
ENDBRANCH   1   2
BRANCH   1  26
ATOM     26  C   UNL A   1      33.522  29.371  26.433  1.00  0.00     0.023 C 
BRANCH  26  27
ATOM     27  C   UNL A   1      33.784  30.296  27.615  1.00  0.00     0.116 C 
BRANCH  27  28
ATOM     28  N   UNL A   1      34.368  31.585  27.234  1.00  0.00    -0.352 N 
ATOM     29  C   UNL A   1      35.496  32.199  27.752  1.00  0.00     0.251 C 
ATOM     30  H   UNL A   1      33.901  32.075  26.521  1.00  0.00     0.163 HD
ATOM     31  O   UNL A   1      35.635  33.415  27.682  1.00  0.00    -0.269 OA
BRANCH  29  32
ATOM     32  C   UNL A   1      36.553  31.374  28.364  1.00  0.00     0.039 A 
ATOM     33  C   UNL A   1      36.534  29.981  28.270  1.00  0.00     0.014 A 
ATOM     34  C   UNL A   1      37.598  32.022  29.015  1.00  0.00     0.014 A 
ATOM     35  C   UNL A   1      37.650  29.268  28.701  1.00  0.00     0.010 A 
ATOM     36  C   UNL A   1      38.749  31.347  29.308  1.00  0.00     0.010 A 
ATOM     37  C   UNL A   1      38.774  29.969  29.168  1.00  0.00    -0.014 A 
BRANCH  37  38
ATOM     38  C   UNL A   1      40.064  29.307  29.285  1.00  0.00     0.031 A 
ATOM     39  C   UNL A   1      40.438  28.997  30.694  1.00  0.00     0.074 A 
ATOM     40  C   UNL A   1      40.709  28.759  28.235  1.00  0.00     0.049 A 
ATOM     41  N   UNL A   1      41.389  29.517  31.397  1.00  0.00    -0.248 NA
ATOM     42  C   UNL A   1      39.537  28.125  31.471  1.00  0.00     0.031 C 
ATOM     43  C   UNL A   1      40.272  28.648  26.839  1.00  0.00     0.029 A 
ATOM     44  N   UNL A   1      41.889  28.088  28.231  1.00  0.00    -0.354 N 
ATOM     45  C   UNL A   1      41.327  28.897  32.642  1.00  0.00     0.074 A 
ATOM     46  C   UNL A   1      40.061  28.217  32.694  1.00  0.00     0.031 C 
ATOM     47  C   UNL A   1      41.068  27.775  26.182  1.00  0.00     0.029 A 
ATOM     48  C   UNL A   1      42.165  27.403  27.054  1.00  0.00     0.049 A 
ATOM     49  H   UNL A   1      42.502  28.086  29.002  1.00  0.00     0.167 HD
ATOM     50  C   UNL A   1      42.435  28.779  33.427  1.00  0.00     0.037 A 
ATOM     51  C   UNL A   1      43.213  26.568  26.852  1.00  0.00     0.037 A 
ATOM     52  C   UNL A   1      43.477  29.669  32.982  1.00  0.00     0.049 A 
ATOM     53  C   UNL A   1      44.218  26.879  27.901  1.00  0.00     0.074 A 
ATOM     54  C   UNL A   1      43.606  31.039  32.872  1.00  0.00     0.029 A 
ATOM     55  N   UNL A   1      44.454  29.137  32.175  1.00  0.00    -0.354 N 
ATOM     56  N   UNL A   1      44.863  28.010  27.980  1.00  0.00    -0.248 NA
ATOM     57  C   UNL A   1      44.173  26.098  29.127  1.00  0.00     0.031 C 
ATOM     58  C   UNL A   1      44.320  31.246  31.653  1.00  0.00     0.029 A 
ATOM     59  C   UNL A   1      44.649  29.996  31.125  1.00  0.00     0.049 A 
ATOM     60  H   UNL A   1      44.930  28.289  32.326  1.00  0.00     0.167 HD
ATOM     61  C   UNL A   1      44.941  28.280  29.338  1.00  0.00     0.074 A 
ATOM     62  C   UNL A   1      44.582  27.025  29.996  1.00  0.00     0.031 C 
ATOM     63  C   UNL A   1      45.008  29.566  29.792  1.00  0.00     0.037 A 
BRANCH  50  64
ATOM     64  C   UNL A   1      42.712  27.609  34.343  1.00  0.00     0.064 A 
ATOM     65  C   UNL A   1      43.205  26.406  33.798  1.00  0.00     0.173 A 
ATOM     66  C   UNL A   1      42.254  27.523  35.677  1.00  0.00     0.173 A 
ATOM     67  F   UNL A   1      43.634  26.358  32.528  1.00  0.00    -0.203 F 
ATOM     68  C   UNL A   1      43.186  25.206  34.514  1.00  0.00     0.198 A 
ATOM     69  C   UNL A   1      42.292  26.338  36.409  1.00  0.00     0.198 A 
ATOM     70  F   UNL A   1      41.647  28.545  36.292  1.00  0.00    -0.203 F 
ATOM     71  F   UNL A   1      43.552  24.066  33.912  1.00  0.00    -0.200 F 
ATOM     72  C   UNL A   1      42.730  25.172  35.819  1.00  0.00     0.200 A 
ATOM     73  F   UNL A   1      41.821  26.324  37.664  1.00  0.00    -0.200 F 
ATOM     74  F   UNL A   1      42.662  24.015  36.491  1.00  0.00    -0.200 F 
ENDBRANCH  50  64
BRANCH  51  75
ATOM     75  C   UNL A   1      43.261  25.307  26.072  1.00  0.00     0.064 A 
ATOM     76  C   UNL A   1      44.340  25.044  25.212  1.00  0.00     0.173 A 
ATOM     77  C   UNL A   1      42.434  24.214  26.394  1.00  0.00     0.173 A 
ATOM     78  F   UNL A   1      45.194  26.024  24.884  1.00  0.00    -0.203 F 
ATOM     79  C   UNL A   1      44.610  23.753  24.747  1.00  0.00     0.198 A 
ATOM     80  C   UNL A   1      42.701  22.927  25.924  1.00  0.00     0.198 A 
ATOM     81  F   UNL A   1      41.415  24.351  27.255  1.00  0.00    -0.203 F 
ATOM     82  F   UNL A   1      45.696  23.527  23.995  1.00  0.00    -0.200 F 
ATOM     83  C   UNL A   1      43.801  22.693  25.117  1.00  0.00     0.200 A 
ATOM     84  F   UNL A   1      41.932  21.902  26.317  1.00  0.00    -0.200 F 
ATOM     85  F   UNL A   1      44.103  21.443  24.738  1.00  0.00    -0.200 F 
ENDBRANCH  51  75
BRANCH  63  86
ATOM     86  C   UNL A   1      45.260  30.650  28.776  1.00  0.00     0.064 A 
ATOM     87  C   UNL A   1      46.531  30.986  28.274  1.00  0.00     0.173 A 
ATOM     88  C   UNL A   1      44.156  31.273  28.184  1.00  0.00     0.173 A 
ATOM     89  F   UNL A   1      47.632  30.371  28.720  1.00  0.00    -0.203 F 
ATOM     90  C   UNL A   1      46.688  31.925  27.256  1.00  0.00     0.198 A 
ATOM     91  C   UNL A   1      44.310  32.184  27.141  1.00  0.00     0.198 A 
ATOM     92  F   UNL A   1      42.914  30.958  28.585  1.00  0.00    -0.203 F 
ATOM     93  F   UNL A   1      47.913  32.230  26.803  1.00  0.00    -0.200 F 
ATOM     94  C   UNL A   1      45.574  32.516  26.684  1.00  0.00     0.200 A 
ATOM     95  F   UNL A   1      43.228  32.718  26.560  1.00  0.00    -0.200 F 
ATOM     96  F   UNL A   1      45.718  33.385  25.673  1.00  0.00    -0.200 F 
ENDBRANCH  63  86
ENDBRANCH  37  38
ENDBRANCH  29  32
ENDBRANCH  27  28
ENDBRANCH  26  27
ENDBRANCH   1  26
TORSDOF 13
ENDMDL
