MODEL 1
REMARK VINA RESULT:     -14.0      0.000      0.000
REMARK SMILES Cc1ccnc(C(=O)c2[nH]c3ccc(OC(F)(F)F)cc3c2CC(=O)NCCCCNC(=O)c2ccc(-c3c4nc(c(-c5c(F)c(F)c(F)c(F)c5F)c5ccc([nH]5)c(-c5c(F)c(F)c(F)c(F)c5F)c5nc(c(-c6c(F)c(F)c(F)c(F)c6F)c6ccc3[nH]6)C=C5)C=C4)cc2)c1
REMARK SMILES IDX 28 1 27 2 26 3 24 4 25 5 23 7 22 8 9 9 10 10 11 11 21 13
REMARK SMILES IDX 12 14 20 15 13 16 14 17 7 18 8 19 6 20 1 21 2 22 3 23 97 24
REMARK SMILES IDX 4 25 5 26 15 27 16 28 17 29 18 30 19 31 29 32 30 33 31 34
REMARK SMILES IDX 32 35 33 37 34 38 35 39 96 40 36 41 95 42 37 43 38 44 39 45
REMARK SMILES IDX 89 46 40 47 94 48 88 49 90 50 41 51 93 52 87 53 86 54 42 56
REMARK SMILES IDX 74 57 54 58 73 59 55 60 58 61 72 62 91 63 56 64 57 65 71 67
REMARK SMILES IDX 92 68 59 69 43 70 44 71 52 72 45 73 46 74 50 75 53 76 47 77
REMARK SMILES IDX 48 78 51 79 49 80 75 81 76 82 84 83 77 84 78 85 82 86 85 87
REMARK SMILES IDX 79 88 80 89 83 90 81 91 60 92 61 93 69 94 62 95 63 96 67 97
REMARK SMILES IDX 70 98 64 99 65 100 68 101 66 102
REMARK H PARENT 26 6 10 12 31 36 90 55 58 66
REMARK Flexibility Score: inf
ROOT
ATOM      1  C   UNL A   1      31.792  30.665  26.473  1.00  0.00     0.023 C 
ENDROOT
BRANCH   1   2
ATOM      2  C   UNL A   1      33.259  30.239  26.480  1.00  0.00     0.116 C 
BRANCH   2   3
ATOM      3  N   UNL A   1      33.674  29.620  25.238  1.00  0.00    -0.356 N 
ATOM      4  C   UNL A   1      33.572  28.315  24.846  1.00  0.00     0.224 C 
ATOM      5  O   UNL A   1      33.855  28.042  23.677  1.00  0.00    -0.275 OA
ATOM      6  H   UNL A   1      34.089  30.226  24.583  1.00  0.00     0.163 HD
BRANCH   4   7
ATOM      7  C   UNL A   1      33.004  27.254  25.778  1.00  0.00     0.138 C 
BRANCH   7   8
ATOM      8  C   UNL A   1      31.713  26.629  25.329  1.00  0.00    -0.002 A 
ATOM      9  C   UNL A   1      31.270  25.333  25.573  1.00  0.00     0.093 A 
ATOM     10  N   UNL A   1      29.994  25.231  25.068  1.00  0.00    -0.352 N 
ATOM     11  C   UNL A   1      29.639  26.381  24.409  1.00  0.00     0.046 A 
ATOM     12  H   UNL A   1      29.415  24.440  25.165  1.00  0.00     0.167 HD
ATOM     13  C   UNL A   1      30.703  27.269  24.531  1.00  0.00     0.008 A 
ATOM     14  C   UNL A   1      28.455  26.707  23.739  1.00  0.00     0.030 A 
ATOM     15  C   UNL A   1      30.578  28.541  23.937  1.00  0.00     0.057 A 
ATOM     16  C   UNL A   1      28.355  27.983  23.170  1.00  0.00     0.049 A 
ATOM     17  C   UNL A   1      29.402  28.899  23.263  1.00  0.00     0.130 A 
BRANCH   9  18
ATOM     18  C   UNL A   1      31.915  24.260  26.312  1.00  0.00     0.227 C 
ATOM     19  O   UNL A   1      31.479  23.897  27.399  1.00  0.00    -0.285 OA
BRANCH  18  20
ATOM     20  C   UNL A   1      33.107  23.570  25.687  1.00  0.00     0.113 A 
ATOM     21  C   UNL A   1      36.894  23.751  25.496  1.00  0.00     0.044 C 
ATOM     22  C   UNL A   1      35.471  23.324  25.289  1.00  0.00    -0.047 A 
ATOM     23  C   UNL A   1      35.172  22.264  24.433  1.00  0.00     0.023 A 
ATOM     24  C   UNL A   1      34.419  23.972  25.943  1.00  0.00     0.036 A 
ATOM     25  C   UNL A   1      33.846  21.913  24.250  1.00  0.00     0.112 A 
ATOM     26  N   UNL A   1      32.814  22.549  24.840  1.00  0.00    -0.253 NA
ENDBRANCH  18  20
ENDBRANCH   9  18
BRANCH  17  27
ATOM     27  O   UNL A   1      29.416  30.168  22.756  1.00  0.00    -0.406 OA
BRANCH  27  28
ATOM     28  C   UNL A   1      28.666  31.161  23.432  1.00  0.00     0.573 C 
ATOM     29  F   UNL A   1      27.442  30.701  23.770  1.00  0.00    -0.132 F 
ATOM     30  F   UNL A   1      29.309  31.589  24.539  1.00  0.00    -0.132 F 
ATOM     31  F   UNL A   1      28.504  32.219  22.606  1.00  0.00    -0.132 F 
ENDBRANCH  27  28
ENDBRANCH  17  27
ENDBRANCH   7   8
ENDBRANCH   4   7
ENDBRANCH   2   3
ENDBRANCH   1   2
BRANCH   1  32
ATOM     32  C   UNL A   1      31.528  32.129  26.830  1.00  0.00     0.023 C 
BRANCH  32  33
ATOM     33  C   UNL A   1      32.753  32.941  27.231  1.00  0.00     0.116 C 
BRANCH  33  34
ATOM     34  N   UNL A   1      32.437  34.290  27.671  1.00  0.00    -0.352 N 
ATOM     35  C   UNL A   1      33.040  35.049  28.643  1.00  0.00     0.251 C 
ATOM     36  H   UNL A   1      31.684  34.721  27.204  1.00  0.00     0.163 HD
ATOM     37  O   UNL A   1      32.581  36.146  28.941  1.00  0.00    -0.269 OA
BRANCH  35  38
ATOM     38  C   UNL A   1      34.219  34.526  29.369  1.00  0.00     0.039 A 
ATOM     39  C   UNL A   1      34.014  33.888  30.596  1.00  0.00     0.014 A 
ATOM     40  C   UNL A   1      35.512  34.664  28.858  1.00  0.00     0.014 A 
ATOM     41  C   UNL A   1      35.095  33.324  31.277  1.00  0.00     0.010 A 
ATOM     42  C   UNL A   1      36.585  34.062  29.512  1.00  0.00     0.010 A 
ATOM     43  C   UNL A   1      36.382  33.380  30.722  1.00  0.00    -0.014 A 
BRANCH  43  44
ATOM     44  C   UNL A   1      37.531  32.718  31.384  1.00  0.00     0.031 A 
ATOM     45  C   UNL A   1      38.242  31.585  30.709  1.00  0.00     0.074 A 
ATOM     46  C   UNL A   1      37.885  33.097  32.626  1.00  0.00     0.049 A 
ATOM     47  N   UNL A   1      39.210  30.829  31.163  1.00  0.00    -0.248 NA
ATOM     48  C   UNL A   1      37.794  31.241  29.351  1.00  0.00     0.031 C 
ATOM     49  C   UNL A   1      37.249  34.162  33.400  1.00  0.00     0.029 A 
ATOM     50  N   UNL A   1      38.864  32.617  33.459  1.00  0.00    -0.354 N 
ATOM     51  C   UNL A   1      39.466  29.904  30.161  1.00  0.00     0.074 A 
ATOM     52  C   UNL A   1      38.543  30.181  29.081  1.00  0.00     0.031 C 
ATOM     53  C   UNL A   1      37.866  34.269  34.588  1.00  0.00     0.029 A 
ATOM     54  C   UNL A   1      38.920  33.263  34.668  1.00  0.00     0.049 A 
ATOM     55  H   UNL A   1      39.468  31.879  33.213  1.00  0.00     0.167 HD
ATOM     56  C   UNL A   1      40.394  28.919  30.141  1.00  0.00     0.037 A 
ATOM     57  C   UNL A   1      39.730  33.061  35.724  1.00  0.00     0.037 A 
ATOM     58  C   UNL A   1      41.342  28.668  31.194  1.00  0.00     0.049 A 
ATOM     59  C   UNL A   1      40.763  31.975  35.668  1.00  0.00     0.074 A 
ATOM     60  C   UNL A   1      42.374  27.746  31.228  1.00  0.00     0.029 A 
ATOM     61  N   UNL A   1      41.375  29.352  32.400  1.00  0.00    -0.354 N 
ATOM     62  N   UNL A   1      41.028  31.135  34.698  1.00  0.00    -0.248 NA
ATOM     63  C   UNL A   1      41.609  31.805  36.859  1.00  0.00     0.031 C 
ATOM     64  C   UNL A   1      43.019  27.856  32.466  1.00  0.00     0.029 A 
ATOM     65  C   UNL A   1      42.400  28.860  33.193  1.00  0.00     0.049 A 
ATOM     66  H   UNL A   1      40.760  30.077  32.655  1.00  0.00     0.167 HD
ATOM     67  C   UNL A   1      42.077  30.351  35.149  1.00  0.00     0.074 A 
ATOM     68  C   UNL A   1      42.406  30.814  36.482  1.00  0.00     0.031 C 
ATOM     69  C   UNL A   1      42.713  29.337  34.513  1.00  0.00     0.037 A 
BRANCH  56  70
ATOM     70  C   UNL A   1      40.425  28.036  28.934  1.00  0.00     0.064 A 
ATOM     71  C   UNL A   1      39.686  26.846  28.879  1.00  0.00     0.173 A 
ATOM     72  C   UNL A   1      41.193  28.389  27.815  1.00  0.00     0.173 A 
ATOM     73  F   UNL A   1      38.949  26.462  29.933  1.00  0.00    -0.203 F 
ATOM     74  C   UNL A   1      39.730  26.029  27.754  1.00  0.00     0.198 A 
ATOM     75  C   UNL A   1      41.223  27.578  26.684  1.00  0.00     0.198 A 
ATOM     76  F   UNL A   1      41.919  29.518  27.822  1.00  0.00    -0.203 F 
ATOM     77  F   UNL A   1      39.045  24.878  27.735  1.00  0.00    -0.200 F 
ATOM     78  C   UNL A   1      40.496  26.397  26.656  1.00  0.00     0.200 A 
ATOM     79  F   UNL A   1      41.961  27.934  25.624  1.00  0.00    -0.200 F 
ATOM     80  F   UNL A   1      40.540  25.607  25.574  1.00  0.00    -0.200 F 
ENDBRANCH  56  70
BRANCH  57  81
ATOM     81  C   UNL A   1      39.613  33.939  36.911  1.00  0.00     0.064 A 
ATOM     82  C   UNL A   1      40.292  35.164  36.956  1.00  0.00     0.173 A 
ATOM     83  C   UNL A   1      38.812  33.587  38.004  1.00  0.00     0.173 A 
ATOM     84  F   UNL A   1      41.084  35.528  35.938  1.00  0.00    -0.203 F 
ATOM     85  C   UNL A   1      40.175  36.006  38.058  1.00  0.00     0.198 A 
ATOM     86  C   UNL A   1      38.686  34.437  39.101  1.00  0.00     0.198 A 
ATOM     87  F   UNL A   1      38.145  32.424  38.002  1.00  0.00    -0.203 F 
ATOM     88  F   UNL A   1      40.850  37.164  38.088  1.00  0.00    -0.200 F 
ATOM     89  C   UNL A   1      39.369  35.645  39.128  1.00  0.00     0.200 A 
ATOM     90  F   UNL A   1      37.904  34.088  40.131  1.00  0.00    -0.200 F 
ATOM     91  F   UNL A   1      39.254  36.458  40.186  1.00  0.00    -0.200 F 
ENDBRANCH  57  81
BRANCH  69  92
ATOM     92  C   UNL A   1      43.841  28.680  35.243  1.00  0.00     0.064 A 
ATOM     93  C   UNL A   1      43.616  27.606  36.114  1.00  0.00     0.173 A 
ATOM     94  C   UNL A   1      45.162  29.107  35.044  1.00  0.00     0.173 A 
ATOM     95  F   UNL A   1      42.367  27.177  36.347  1.00  0.00    -0.203 F 
ATOM     96  C   UNL A   1      44.676  26.988  36.772  1.00  0.00     0.198 A 
ATOM     97  C   UNL A   1      46.220  28.478  35.692  1.00  0.00     0.198 A 
ATOM     98  F   UNL A   1      45.423  30.134  34.220  1.00  0.00    -0.203 F 
ATOM     99  F   UNL A   1      44.439  25.980  37.622  1.00  0.00    -0.200 F 
ATOM    100  C   UNL A   1      45.976  27.421  36.556  1.00  0.00     0.200 A 
ATOM    101  F   UNL A   1      47.477  28.896  35.483  1.00  0.00    -0.200 F 
ATOM    102  F   UNL A   1      46.996  26.824  37.190  1.00  0.00    -0.200 F 
ENDBRANCH  69  92
ENDBRANCH  43  44
ENDBRANCH  35  38
ENDBRANCH  33  34
ENDBRANCH  32  33
ENDBRANCH   1  32
TORSDOF 16
ENDMDL
MODEL 2
REMARK VINA RESULT:     -13.6      5.569     10.303
REMARK SMILES Cc1ccnc(C(=O)c2[nH]c3ccc(OC(F)(F)F)cc3c2CC(=O)NCCCCNC(=O)c2ccc(-c3c4nc(c(-c5c(F)c(F)c(F)c(F)c5F)c5ccc([nH]5)c(-c5c(F)c(F)c(F)c(F)c5F)c5nc(c(-c6c(F)c(F)c(F)c(F)c6F)c6ccc3[nH]6)C=C5)C=C4)cc2)c1
REMARK SMILES IDX 28 1 27 2 26 3 24 4 25 5 23 7 22 8 9 9 10 10 11 11 21 13
REMARK SMILES IDX 12 14 20 15 13 16 14 17 7 18 8 19 6 20 1 21 2 22 3 23 97 24
REMARK SMILES IDX 4 25 5 26 15 27 16 28 17 29 18 30 19 31 29 32 30 33 31 34
REMARK SMILES IDX 32 35 33 37 34 38 35 39 96 40 36 41 95 42 37 43 38 44 39 45
REMARK SMILES IDX 89 46 40 47 94 48 88 49 90 50 41 51 93 52 87 53 86 54 42 56
REMARK SMILES IDX 74 57 54 58 73 59 55 60 58 61 72 62 91 63 56 64 57 65 71 67
REMARK SMILES IDX 92 68 59 69 43 70 44 71 52 72 45 73 46 74 50 75 53 76 47 77
REMARK SMILES IDX 48 78 51 79 49 80 75 81 76 82 84 83 77 84 78 85 82 86 85 87
REMARK SMILES IDX 79 88 80 89 83 90 81 91 60 92 61 93 69 94 62 95 63 96 67 97
REMARK SMILES IDX 70 98 64 99 65 100 68 101 66 102
REMARK H PARENT 26 6 10 12 31 36 90 55 58 66
REMARK Flexibility Score: inf
ROOT
ATOM      1  C   UNL A   1      37.298  20.693  24.888  1.00  0.00     0.023 C 
ENDROOT
BRANCH   1   2
ATOM      2  C   UNL A   1      37.573  21.962  25.692  1.00  0.00     0.116 C 
BRANCH   2   3
ATOM      3  N   UNL A   1      36.433  22.393  26.474  1.00  0.00    -0.356 N 
ATOM      4  C   UNL A   1      35.375  23.174  26.102  1.00  0.00     0.224 C 
ATOM      5  O   UNL A   1      34.437  23.287  26.895  1.00  0.00    -0.275 OA
ATOM      6  H   UNL A   1      36.418  22.080  27.407  1.00  0.00     0.163 HD
BRANCH   4   7
ATOM      7  C   UNL A   1      35.294  23.779  24.707  1.00  0.00     0.138 C 
BRANCH   7   8
ATOM      8  C   UNL A   1      34.116  23.337  23.885  1.00  0.00    -0.002 A 
ATOM      9  C   UNL A   1      33.330  24.120  23.044  1.00  0.00     0.093 A 
ATOM     10  N   UNL A   1      32.436  23.281  22.416  1.00  0.00    -0.352 N 
ATOM     11  C   UNL A   1      32.544  22.003  22.903  1.00  0.00     0.046 A 
ATOM     12  H   UNL A   1      31.806  23.561  21.714  1.00  0.00     0.167 HD
ATOM     13  C   UNL A   1      33.570  22.008  23.843  1.00  0.00     0.008 A 
ATOM     14  C   UNL A   1      31.832  20.848  22.567  1.00  0.00     0.030 A 
ATOM     15  C   UNL A   1      33.884  20.795  24.491  1.00  0.00     0.057 A 
ATOM     16  C   UNL A   1      32.175  19.655  23.216  1.00  0.00     0.049 A 
ATOM     17  C   UNL A   1      33.190  19.619  24.171  1.00  0.00     0.130 A 
BRANCH   9  18
ATOM     18  C   UNL A   1      33.434  25.537  22.737  1.00  0.00     0.227 C 
ATOM     19  O   UNL A   1      33.919  25.914  21.676  1.00  0.00    -0.285 OA
BRANCH  18  20
ATOM     20  C   UNL A   1      32.883  26.531  23.734  1.00  0.00     0.113 A 
ATOM     21  C   UNL A   1      33.851  28.475  26.848  1.00  0.00     0.044 C 
ATOM     22  C   UNL A   1      33.071  27.927  25.690  1.00  0.00    -0.047 A 
ATOM     23  C   UNL A   1      31.735  28.285  25.510  1.00  0.00     0.023 A 
ATOM     24  C   UNL A   1      33.659  27.052  24.772  1.00  0.00     0.036 A 
ATOM     25  C   UNL A   1      31.041  27.742  24.442  1.00  0.00     0.112 A 
ATOM     26  N   UNL A   1      31.578  26.866  23.568  1.00  0.00    -0.253 NA
ENDBRANCH  18  20
ENDBRANCH   9  18
BRANCH  17  27
ATOM     27  O   UNL A   1      33.615  18.519  24.862  1.00  0.00    -0.406 OA
BRANCH  27  28
ATOM     28  C   UNL A   1      34.387  17.556  24.167  1.00  0.00     0.573 C 
ATOM     29  F   UNL A   1      34.239  16.329  24.710  1.00  0.00    -0.132 F 
ATOM     30  F   UNL A   1      34.054  17.515  22.859  1.00  0.00    -0.132 F 
ATOM     31  F   UNL A   1      35.692  17.900  24.256  1.00  0.00    -0.132 F 
ENDBRANCH  27  28
ENDBRANCH  17  27
ENDBRANCH   7   8
ENDBRANCH   4   7
ENDBRANCH   2   3
ENDBRANCH   1   2
BRANCH   1  32
ATOM     32  C   UNL A   1      38.379  19.613  24.967  1.00  0.00     0.023 C 
BRANCH  32  33
ATOM     33  C   UNL A   1      39.423  19.804  26.060  1.00  0.00     0.116 C 
BRANCH  33  34
ATOM     34  N   UNL A   1      40.542  18.882  25.961  1.00  0.00    -0.352 N 
ATOM     35  C   UNL A   1      41.888  19.139  26.058  1.00  0.00     0.251 C 
ATOM     36  H   UNL A   1      40.301  17.940  25.804  1.00  0.00     0.163 HD
ATOM     37  O   UNL A   1      42.701  18.243  25.862  1.00  0.00    -0.269 OA
BRANCH  35  38
ATOM     38  C   UNL A   1      42.364  20.509  26.352  1.00  0.00     0.039 A 
ATOM     39  C   UNL A   1      42.736  21.327  25.280  1.00  0.00     0.014 A 
ATOM     40  C   UNL A   1      42.451  20.987  27.662  1.00  0.00     0.014 A 
ATOM     41  C   UNL A   1      43.127  22.647  25.515  1.00  0.00     0.010 A 
ATOM     42  C   UNL A   1      42.795  22.317  27.894  1.00  0.00     0.010 A 
ATOM     43  C   UNL A   1      43.128  23.159  26.821  1.00  0.00    -0.014 A 
BRANCH  43  44
ATOM     44  C   UNL A   1      43.458  24.578  27.087  1.00  0.00     0.031 A 
ATOM     45  C   UNL A   1      44.845  25.091  26.841  1.00  0.00     0.074 A 
ATOM     46  C   UNL A   1      42.522  25.386  27.619  1.00  0.00     0.049 A 
ATOM     47  N   UNL A   1      45.345  26.275  27.091  1.00  0.00    -0.248 NA
ATOM     48  C   UNL A   1      45.803  24.143  26.253  1.00  0.00     0.031 C 
ATOM     49  C   UNL A   1      41.149  24.995  27.935  1.00  0.00     0.029 A 
ATOM     50  N   UNL A   1      42.591  26.703  27.995  1.00  0.00    -0.354 N 
ATOM     51  C   UNL A   1      46.680  26.205  26.720  1.00  0.00     0.074 A 
ATOM     52  C   UNL A   1      46.918  24.859  26.242  1.00  0.00     0.031 C 
ATOM     53  C   UNL A   1      40.497  26.055  28.442  1.00  0.00     0.029 A 
ATOM     54  C   UNL A   1      41.415  27.189  28.509  1.00  0.00     0.049 A 
ATOM     55  H   UNL A   1      43.406  27.248  27.907  1.00  0.00     0.167 HD
ATOM     56  C   UNL A   1      47.619  27.179  26.765  1.00  0.00     0.037 A 
ATOM     57  C   UNL A   1      41.114  28.410  28.985  1.00  0.00     0.037 A 
ATOM     58  C   UNL A   1      47.376  28.529  27.198  1.00  0.00     0.049 A 
ATOM     59  C   UNL A   1      42.168  29.478  29.007  1.00  0.00     0.074 A 
ATOM     60  C   UNL A   1      48.244  29.607  27.202  1.00  0.00     0.029 A 
ATOM     61  N   UNL A   1      46.167  28.986  27.702  1.00  0.00    -0.354 N 
ATOM     62  N   UNL A   1      43.416  29.415  28.611  1.00  0.00    -0.248 NA
ATOM     63  C   UNL A   1      41.773  30.787  29.547  1.00  0.00     0.031 C 
ATOM     64  C   UNL A   1      47.567  30.713  27.729  1.00  0.00     0.029 A 
ATOM     65  C   UNL A   1      46.272  30.327  28.034  1.00  0.00     0.049 A 
ATOM     66  H   UNL A   1      45.356  28.438  27.809  1.00  0.00     0.167 HD
ATOM     67  C   UNL A   1      43.949  30.674  28.835  1.00  0.00     0.074 A 
ATOM     68  C   UNL A   1      42.891  31.486  29.401  1.00  0.00     0.031 C 
ATOM     69  C   UNL A   1      45.207  31.117  28.592  1.00  0.00     0.037 A 
BRANCH  56  70
ATOM     70  C   UNL A   1      49.003  26.812  26.332  1.00  0.00     0.064 A 
ATOM     71  C   UNL A   1      49.423  26.977  25.005  1.00  0.00     0.173 A 
ATOM     72  C   UNL A   1      49.924  26.300  27.258  1.00  0.00     0.173 A 
ATOM     73  F   UNL A   1      48.570  27.449  24.083  1.00  0.00    -0.203 F 
ATOM     74  C   UNL A   1      50.711  26.623  24.614  1.00  0.00     0.198 A 
ATOM     75  C   UNL A   1      51.217  25.963  26.868  1.00  0.00     0.198 A 
ATOM     76  F   UNL A   1      49.566  26.122  28.539  1.00  0.00    -0.203 F 
ATOM     77  F   UNL A   1      51.081  26.755  23.333  1.00  0.00    -0.200 F 
ATOM     78  C   UNL A   1      51.607  26.119  25.546  1.00  0.00     0.200 A 
ATOM     79  F   UNL A   1      52.082  25.477  27.768  1.00  0.00    -0.200 F 
ATOM     80  F   UNL A   1      52.846  25.776  25.167  1.00  0.00    -0.200 F 
ENDBRANCH  56  70
BRANCH  57  81
ATOM     81  C   UNL A   1      39.736  28.694  29.448  1.00  0.00     0.064 A 
ATOM     82  C   UNL A   1      39.366  28.438  30.775  1.00  0.00     0.173 A 
ATOM     83  C   UNL A   1      38.775  29.243  28.589  1.00  0.00     0.173 A 
ATOM     84  F   UNL A   1      40.251  27.895  31.622  1.00  0.00    -0.203 F 
ATOM     85  C   UNL A   1      38.080  28.718  31.226  1.00  0.00     0.198 A 
ATOM     86  C   UNL A   1      37.492  29.536  29.046  1.00  0.00     0.198 A 
ATOM     87  F   UNL A   1      39.087  29.504  27.312  1.00  0.00    -0.203 F 
ATOM     88  F   UNL A   1      37.743  28.446  32.494  1.00  0.00    -0.200 F 
ATOM     89  C   UNL A   1      37.145  29.271  30.363  1.00  0.00     0.200 A 
ATOM     90  F   UNL A   1      36.592  30.074  28.212  1.00  0.00    -0.200 F 
ATOM     91  F   UNL A   1      35.908  29.545  30.799  1.00  0.00    -0.200 F 
ENDBRANCH  57  81
BRANCH  69  92
ATOM     92  C   UNL A   1      45.495  32.549  28.914  1.00  0.00     0.064 A 
ATOM     93  C   UNL A   1      46.045  32.920  30.148  1.00  0.00     0.173 A 
ATOM     94  C   UNL A   1      45.250  33.555  27.968  1.00  0.00     0.173 A 
ATOM     95  F   UNL A   1      46.279  31.993  31.088  1.00  0.00    -0.203 F 
ATOM     96  C   UNL A   1      46.329  34.253  30.430  1.00  0.00     0.198 A 
ATOM     97  C   UNL A   1      45.549  34.884  28.247  1.00  0.00     0.198 A 
ATOM     98  F   UNL A   1      44.722  33.244  26.774  1.00  0.00    -0.203 F 
ATOM     99  F   UNL A   1      46.829  34.593  31.626  1.00  0.00    -0.200 F 
ATOM    100  C   UNL A   1      46.086  35.233  29.478  1.00  0.00     0.200 A 
ATOM    101  F   UNL A   1      45.314  35.831  27.326  1.00  0.00    -0.200 F 
ATOM    102  F   UNL A   1      46.361  36.517  29.749  1.00  0.00    -0.200 F 
ENDBRANCH  69  92
ENDBRANCH  43  44
ENDBRANCH  35  38
ENDBRANCH  33  34
ENDBRANCH  32  33
ENDBRANCH   1  32
TORSDOF 16
ENDMDL
MODEL 3
REMARK VINA RESULT:     -13.6      5.646     11.341
REMARK SMILES Cc1ccnc(C(=O)c2[nH]c3ccc(OC(F)(F)F)cc3c2CC(=O)NCCCCNC(=O)c2ccc(-c3c4nc(c(-c5c(F)c(F)c(F)c(F)c5F)c5ccc([nH]5)c(-c5c(F)c(F)c(F)c(F)c5F)c5nc(c(-c6c(F)c(F)c(F)c(F)c6F)c6ccc3[nH]6)C=C5)C=C4)cc2)c1
REMARK SMILES IDX 28 1 27 2 26 3 24 4 25 5 23 7 22 8 9 9 10 10 11 11 21 13
REMARK SMILES IDX 12 14 20 15 13 16 14 17 7 18 8 19 6 20 1 21 2 22 3 23 97 24
REMARK SMILES IDX 4 25 5 26 15 27 16 28 17 29 18 30 19 31 29 32 30 33 31 34
REMARK SMILES IDX 32 35 33 37 34 38 35 39 96 40 36 41 95 42 37 43 38 44 39 45
REMARK SMILES IDX 89 46 40 47 94 48 88 49 90 50 41 51 93 52 87 53 86 54 42 56
REMARK SMILES IDX 74 57 54 58 73 59 55 60 58 61 72 62 91 63 56 64 57 65 71 67
REMARK SMILES IDX 92 68 59 69 43 70 44 71 52 72 45 73 46 74 50 75 53 76 47 77
REMARK SMILES IDX 48 78 51 79 49 80 75 81 76 82 84 83 77 84 78 85 82 86 85 87
REMARK SMILES IDX 79 88 80 89 83 90 81 91 60 92 61 93 69 94 62 95 63 96 67 97
REMARK SMILES IDX 70 98 64 99 65 100 68 101 66 102
REMARK H PARENT 26 6 10 12 31 36 90 55 58 66
REMARK Flexibility Score: inf
ROOT
ATOM      1  C   UNL A   1      37.249  21.094  24.727  1.00  0.00     0.023 C 
ENDROOT
BRANCH   1   2
ATOM      2  C   UNL A   1      37.424  22.277  25.677  1.00  0.00     0.116 C 
BRANCH   2   3
ATOM      3  N   UNL A   1      36.228  22.571  26.439  1.00  0.00    -0.356 N 
ATOM      4  C   UNL A   1      35.116  23.273  26.067  1.00  0.00     0.224 C 
ATOM      5  O   UNL A   1      34.149  23.268  26.832  1.00  0.00    -0.275 OA
ATOM      6  H   UNL A   1      36.213  22.214  27.356  1.00  0.00     0.163 HD
BRANCH   4   7
ATOM      7  C   UNL A   1      35.023  23.933  24.697  1.00  0.00     0.138 C 
BRANCH   7   8
ATOM      8  C   UNL A   1      33.935  23.406  23.804  1.00  0.00    -0.002 A 
ATOM      9  C   UNL A   1      33.183  24.120  22.875  1.00  0.00     0.093 A 
ATOM     10  N   UNL A   1      32.381  23.217  22.214  1.00  0.00    -0.352 N 
ATOM     11  C   UNL A   1      32.507  21.964  22.759  1.00  0.00     0.046 A 
ATOM     12  H   UNL A   1      31.796  23.441  21.454  1.00  0.00     0.167 HD
ATOM     13  C   UNL A   1      33.454  22.052  23.774  1.00  0.00     0.008 A 
ATOM     14  C   UNL A   1      31.876  20.765  22.415  1.00  0.00     0.030 A 
ATOM     15  C   UNL A   1      33.769  20.880  24.492  1.00  0.00     0.057 A 
ATOM     16  C   UNL A   1      32.220  19.613  23.136  1.00  0.00     0.049 A 
ATOM     17  C   UNL A   1      33.156  19.661  24.167  1.00  0.00     0.130 A 
BRANCH   9  18
ATOM     18  C   UNL A   1      33.248  25.527  22.520  1.00  0.00     0.227 C 
ATOM     19  O   UNL A   1      33.985  25.914  21.620  1.00  0.00    -0.285 OA
BRANCH  18  20
ATOM     20  C   UNL A   1      32.348  26.496  23.255  1.00  0.00     0.113 A 
ATOM     21  C   UNL A   1      29.277  28.672  22.758  1.00  0.00     0.044 C 
ATOM     22  C   UNL A   1      30.466  27.996  23.375  1.00  0.00    -0.047 A 
ATOM     23  C   UNL A   1      30.836  28.287  24.687  1.00  0.00     0.023 A 
ATOM     24  C   UNL A   1      31.224  27.067  22.656  1.00  0.00     0.036 A 
ATOM     25  C   UNL A   1      31.953  27.661  25.215  1.00  0.00     0.112 A 
ATOM     26  N   UNL A   1      32.720  26.792  24.527  1.00  0.00    -0.253 NA
ENDBRANCH  18  20
ENDBRANCH   9  18
BRANCH  17  27
ATOM     27  O   UNL A   1      33.575  18.608  24.932  1.00  0.00    -0.406 OA
BRANCH  27  28
ATOM     28  C   UNL A   1      34.463  17.673  24.346  1.00  0.00     0.573 C 
ATOM     29  F   UNL A   1      34.075  17.354  23.093  1.00  0.00    -0.132 F 
ATOM     30  F   UNL A   1      35.726  18.150  24.320  1.00  0.00    -0.132 F 
ATOM     31  F   UNL A   1      34.455  16.544  25.088  1.00  0.00    -0.132 F 
ENDBRANCH  27  28
ENDBRANCH  17  27
ENDBRANCH   7   8
ENDBRANCH   4   7
ENDBRANCH   2   3
ENDBRANCH   1   2
BRANCH   1  32
ATOM     32  C   UNL A   1      38.159  19.893  24.991  1.00  0.00     0.023 C 
BRANCH  32  33
ATOM     33  C   UNL A   1      39.294  20.132  25.980  1.00  0.00     0.116 C 
BRANCH  33  34
ATOM     34  N   UNL A   1      40.331  19.114  25.929  1.00  0.00    -0.352 N 
ATOM     35  C   UNL A   1      41.688  19.250  26.095  1.00  0.00     0.251 C 
ATOM     36  H   UNL A   1      40.016  18.198  25.752  1.00  0.00     0.163 HD
ATOM     37  O   UNL A   1      42.427  18.286  25.932  1.00  0.00    -0.269 OA
BRANCH  35  38
ATOM     38  C   UNL A   1      42.267  20.571  26.424  1.00  0.00     0.039 A 
ATOM     39  C   UNL A   1      42.704  21.386  25.373  1.00  0.00     0.014 A 
ATOM     40  C   UNL A   1      42.389  21.008  27.745  1.00  0.00     0.014 A 
ATOM     41  C   UNL A   1      43.195  22.665  25.642  1.00  0.00     0.010 A 
ATOM     42  C   UNL A   1      42.835  22.301  28.011  1.00  0.00     0.010 A 
ATOM     43  C   UNL A   1      43.233  23.141  26.960  1.00  0.00    -0.014 A 
BRANCH  43  44
ATOM     44  C   UNL A   1      43.672  24.524  27.263  1.00  0.00     0.031 A 
ATOM     45  C   UNL A   1      42.698  25.524  27.809  1.00  0.00     0.074 A 
ATOM     46  C   UNL A   1      44.934  24.894  26.976  1.00  0.00     0.049 A 
ATOM     47  N   UNL A   1      42.873  26.798  28.056  1.00  0.00    -0.248 NA
ATOM     48  C   UNL A   1      41.343  25.033  28.099  1.00  0.00     0.031 C 
ATOM     49  C   UNL A   1      45.963  24.023  26.410  1.00  0.00     0.029 A 
ATOM     50  N   UNL A   1      45.560  26.107  27.114  1.00  0.00    -0.354 N 
ATOM     51  C   UNL A   1      41.646  27.266  28.501  1.00  0.00     0.074 A 
ATOM     52  C   UNL A   1      40.729  26.146  28.476  1.00  0.00     0.031 C 
ATOM     53  C   UNL A   1      47.100  24.724  26.265  1.00  0.00     0.029 A 
ATOM     54  C   UNL A   1      46.869  26.097  26.703  1.00  0.00     0.049 A 
ATOM     55  H   UNL A   1      45.113  26.907  27.472  1.00  0.00     0.167 HD
ATOM     56  C   UNL A   1      41.316  28.516  28.904  1.00  0.00     0.037 A 
ATOM     57  C   UNL A   1      47.779  27.088  26.679  1.00  0.00     0.037 A 
ATOM     58  C   UNL A   1      42.234  29.621  28.971  1.00  0.00     0.049 A 
ATOM     59  C   UNL A   1      47.393  28.460  27.148  1.00  0.00     0.074 A 
ATOM     60  C   UNL A   1      42.012  30.903  29.443  1.00  0.00     0.029 A 
ATOM     61  N   UNL A   1      43.556  29.569  28.556  1.00  0.00    -0.354 N 
ATOM     62  N   UNL A   1      46.242  28.882  27.610  1.00  0.00    -0.248 NA
ATOM     63  C   UNL A   1      48.434  29.496  27.088  1.00  0.00     0.031 C 
ATOM     64  C   UNL A   1      43.196  31.635  29.294  1.00  0.00     0.029 A 
ATOM     65  C   UNL A   1      44.159  30.802  28.747  1.00  0.00     0.049 A 
ATOM     66  H   UNL A   1      44.001  28.775  28.181  1.00  0.00     0.167 HD
ATOM     67  C   UNL A   1      46.422  30.222  27.912  1.00  0.00     0.074 A 
ATOM     68  C   UNL A   1      47.795  30.548  27.583  1.00  0.00     0.031 C 
ATOM     69  C   UNL A   1      45.527  31.105  28.418  1.00  0.00     0.037 A 
BRANCH  56  70
ATOM     70  C   UNL A   1      39.893  28.751  29.302  1.00  0.00     0.064 A 
ATOM     71  C   UNL A   1      39.462  28.559  30.622  1.00  0.00     0.173 A 
ATOM     72  C   UNL A   1      38.954  29.184  28.356  1.00  0.00     0.173 A 
ATOM     73  F   UNL A   1      40.324  28.130  31.557  1.00  0.00    -0.203 F 
ATOM     74  C   UNL A   1      38.133  28.773  30.977  1.00  0.00     0.198 A 
ATOM     75  C   UNL A   1      37.629  29.414  28.717  1.00  0.00     0.198 A 
ATOM     76  F   UNL A   1      39.320  29.380  27.079  1.00  0.00    -0.203 F 
ATOM     77  F   UNL A   1      37.733  28.548  32.236  1.00  0.00    -0.200 F 
ATOM     78  C   UNL A   1      37.219  29.203  30.025  1.00  0.00     0.200 A 
ATOM     79  F   UNL A   1      36.747  29.830  27.799  1.00  0.00    -0.200 F 
ATOM     80  F   UNL A   1      35.939  29.405  30.368  1.00  0.00    -0.200 F 
ENDBRANCH  56  70
BRANCH  57  81
ATOM     81  C   UNL A   1      49.159  26.801  26.223  1.00  0.00     0.064 A 
ATOM     82  C   UNL A   1      50.112  26.299  27.121  1.00  0.00     0.173 A 
ATOM     83  C   UNL A   1      49.546  26.998  24.892  1.00  0.00     0.173 A 
ATOM     84  F   UNL A   1      49.786  26.115  28.408  1.00  0.00    -0.203 F 
ATOM     85  C   UNL A   1      51.406  26.007  26.701  1.00  0.00     0.198 A 
ATOM     86  C   UNL A   1      50.838  26.693  24.471  1.00  0.00     0.198 A 
ATOM     87  F   UNL A   1      48.666  27.475  24.001  1.00  0.00    -0.203 F 
ATOM     88  F   UNL A   1      52.306  25.548  27.581  1.00  0.00    -0.200 F 
ATOM     89  C   UNL A   1      51.768  26.199  25.376  1.00  0.00     0.200 A 
ATOM     90  F   UNL A   1      51.183  26.875  23.189  1.00  0.00    -0.200 F 
ATOM     91  F   UNL A   1      53.013  25.915  24.971  1.00  0.00    -0.200 F 
ENDBRANCH  57  81
BRANCH  69  92
ATOM     92  C   UNL A   1      46.014  32.496  28.669  1.00  0.00     0.064 A 
ATOM     93  C   UNL A   1      45.888  33.497  27.696  1.00  0.00     0.173 A 
ATOM     94  C   UNL A   1      46.580  32.840  29.905  1.00  0.00     0.173 A 
ATOM     95  F   UNL A   1      45.368  33.208  26.494  1.00  0.00    -0.203 F 
ATOM     96  C   UNL A   1      46.325  34.794  27.948  1.00  0.00     0.198 A 
ATOM     97  C   UNL A   1      47.003  34.141  30.158  1.00  0.00     0.198 A 
ATOM     98  F   UNL A   1      46.722  31.912  30.864  1.00  0.00    -0.203 F 
ATOM     99  F   UNL A   1      46.222  35.731  26.996  1.00  0.00    -0.200 F 
ATOM    100  C   UNL A   1      46.878  35.116  29.179  1.00  0.00     0.200 A 
ATOM    101  F   UNL A   1      47.536  34.452  31.349  1.00  0.00    -0.200 F 
ATOM    102  F   UNL A   1      47.297  36.366  29.421  1.00  0.00    -0.200 F 
ENDBRANCH  69  92
ENDBRANCH  43  44
ENDBRANCH  35  38
ENDBRANCH  33  34
ENDBRANCH  32  33
ENDBRANCH   1  32
TORSDOF 16
ENDMDL
