MODEL 1
REMARK VINA RESULT:     -12.7      0.000      0.000
REMARK SMILES Cc1oc(-c2ccc(Cl)cc2[N+](=O)[O-])cc1C(=O)NCCCCNC(=O)c1ccc(-c2c3nc(c(-c4c(F)c(F)c(F)c(F)c4F)c4ccc([nH]4)c(-c4c(F)c(F)c(F)c(F)c4F)c4nc(c(-c5c(F)c(F)c(F)c(F)c5F)c5ccc2[nH]5)C=C4)C=C3)cc1
REMARK SMILES IDX 21 1 20 2 19 3 17 4 18 5 16 7 1 8 2 9 3 10 4 11 15 12 5 13
REMARK SMILES IDX 6 14 11 15 7 16 10 17 8 18 9 19 12 20 13 21 14 22 22 23
REMARK SMILES IDX 23 24 24 25 25 26 26 28 27 29 28 30 89 31 29 32 88 33 30 34
REMARK SMILES IDX 31 35 32 36 82 37 33 38 87 39 81 40 83 41 34 42 86 43 80 44
REMARK SMILES IDX 79 45 35 47 67 48 47 49 66 50 48 51 51 52 65 53 84 54 49 55
REMARK SMILES IDX 50 56 64 58 85 59 52 60 36 61 37 62 45 63 38 64 39 65 43 66
REMARK SMILES IDX 46 67 40 68 41 69 44 70 42 71 68 72 69 73 77 74 70 75 71 76
REMARK SMILES IDX 75 77 78 78 72 79 73 80 76 81 74 82 53 83 54 84 62 85 55 86
REMARK SMILES IDX 56 87 60 88 63 89 57 90 58 91 61 92 59 93
REMARK H PARENT 19 6 24 27 83 46 51 57
REMARK Flexibility Score: inf
ROOT
ATOM      1  C   UNL A   1      32.168  30.480  26.207  1.00  0.00     0.023 C 
ENDROOT
BRANCH   1   2
ATOM      2  C   UNL A   1      32.614  29.369  27.158  1.00  0.00     0.116 C 
BRANCH   2   3
ATOM      3  N   UNL A   1      31.657  28.296  27.151  1.00  0.00    -0.352 N 
ATOM      4  C   UNL A   1      31.640  27.058  26.575  1.00  0.00     0.254 C 
ATOM      5  O   UNL A   1      30.600  26.421  26.767  1.00  0.00    -0.269 OA
ATOM      6  H   UNL A   1      30.845  28.495  27.669  1.00  0.00     0.163 HD
BRANCH   4   7
ATOM      7  C   UNL A   1      32.735  26.441  25.824  1.00  0.00     0.081 A 
ATOM      8  C   UNL A   1      33.625  27.852  23.713  1.00  0.00     0.088 C 
ATOM      9  C   UNL A   1      33.510  26.771  24.714  1.00  0.00     0.114 A 
ATOM     10  O   UNL A   1      34.423  25.782  24.463  1.00  0.00    -0.460 OA
ATOM     11  C   UNL A   1      34.230  24.791  25.357  1.00  0.00     0.142 A 
ATOM     12  C   UNL A   1      33.204  25.126  26.197  1.00  0.00     0.065 A 
BRANCH  11  13
ATOM     13  C   UNL A   1      35.083  23.633  25.199  1.00  0.00     0.095 A 
ATOM     14  C   UNL A   1      36.431  23.742  25.573  1.00  0.00     0.021 A 
ATOM     15  C   UNL A   1      34.625  22.392  24.730  1.00  0.00     0.281 A 
ATOM     16  C   UNL A   1      37.287  22.639  25.486  1.00  0.00     0.022 A 
ATOM     17  C   UNL A   1      35.474  21.280  24.638  1.00  0.00     0.107 A 
ATOM     18  C   UNL A   1      36.805  21.416  25.020  1.00  0.00     0.047 A 
ATOM     19  Cl  UNL A   1      37.866  20.068  24.913  1.00  0.00    -0.084 Cl
BRANCH  15  20
ATOM     20  N   UNL A   1      33.249  22.221  24.286  1.00  0.00     0.063 N 
ATOM     21  O   UNL A   1      32.440  21.795  25.122  1.00  0.00    -0.258 OA
ATOM     22  O   UNL A   1      32.997  22.440  23.094  1.00  0.00    -0.258 OA
ENDBRANCH  15  20
ENDBRANCH  11  13
ENDBRANCH   4   7
ENDBRANCH   2   3
ENDBRANCH   1   2
BRANCH   1  23
ATOM     23  C   UNL A   1      31.724  31.773  26.894  1.00  0.00     0.023 C 
BRANCH  23  24
ATOM     24  C   UNL A   1      32.865  32.668  27.362  1.00  0.00     0.116 C 
BRANCH  24  25
ATOM     25  N   UNL A   1      32.454  34.036  27.646  1.00  0.00    -0.352 N 
ATOM     26  C   UNL A   1      32.990  34.908  28.562  1.00  0.00     0.251 C 
ATOM     27  H   UNL A   1      31.698  34.378  27.117  1.00  0.00     0.163 HD
ATOM     28  O   UNL A   1      32.485  36.009  28.753  1.00  0.00    -0.269 OA
BRANCH  26  29
ATOM     29  C   UNL A   1      34.156  34.475  29.353  1.00  0.00     0.039 A 
ATOM     30  C   UNL A   1      33.939  33.890  30.602  1.00  0.00     0.014 A 
ATOM     31  C   UNL A   1      35.447  34.587  28.830  1.00  0.00     0.014 A 
ATOM     32  C   UNL A   1      35.017  33.342  31.297  1.00  0.00     0.010 A 
ATOM     33  C   UNL A   1      36.507  33.979  29.491  1.00  0.00     0.010 A 
ATOM     34  C   UNL A   1      36.301  33.347  30.727  1.00  0.00    -0.014 A 
BRANCH  34  35
ATOM     35  C   UNL A   1      37.445  32.689  31.403  1.00  0.00     0.031 A 
ATOM     36  C   UNL A   1      38.128  31.522  30.752  1.00  0.00     0.074 A 
ATOM     37  C   UNL A   1      37.811  33.095  32.634  1.00  0.00     0.049 A 
ATOM     38  N   UNL A   1      39.084  30.759  31.216  1.00  0.00    -0.248 NA
ATOM     39  C   UNL A   1      37.650  31.140  29.414  1.00  0.00     0.031 C 
ATOM     40  C   UNL A   1      37.185  34.181  33.389  1.00  0.00     0.029 A 
ATOM     41  N   UNL A   1      38.791  32.629  33.472  1.00  0.00    -0.354 N 
ATOM     42  C   UNL A   1      39.307  29.799  30.239  1.00  0.00     0.074 A 
ATOM     43  C   UNL A   1      38.355  30.043  29.178  1.00  0.00     0.031 C 
ATOM     44  C   UNL A   1      37.809  34.311  34.571  1.00  0.00     0.029 A 
ATOM     45  C   UNL A   1      38.856  33.299  34.669  1.00  0.00     0.049 A 
ATOM     46  H   UNL A   1      39.392  31.885  33.238  1.00  0.00     0.167 HD
ATOM     47  C   UNL A   1      40.240  28.819  30.219  1.00  0.00     0.037 A 
ATOM     48  C   UNL A   1      39.668  33.112  35.727  1.00  0.00     0.037 A 
ATOM     49  C   UNL A   1      41.209  28.603  31.260  1.00  0.00     0.049 A 
ATOM     50  C   UNL A   1      40.709  32.029  35.671  1.00  0.00     0.074 A 
ATOM     51  C   UNL A   1      42.237  27.679  31.305  1.00  0.00     0.029 A 
ATOM     52  N   UNL A   1      41.269  29.328  32.441  1.00  0.00    -0.354 N 
ATOM     53  N   UNL A   1      40.957  31.170  34.711  1.00  0.00    -0.248 NA
ATOM     54  C   UNL A   1      41.588  31.892  36.840  1.00  0.00     0.031 C 
ATOM     55  C   UNL A   1      42.899  27.821  32.530  1.00  0.00     0.029 A 
ATOM     56  C   UNL A   1      42.309  28.863  33.228  1.00  0.00     0.049 A 
ATOM     57  H   UNL A   1      40.662  30.065  32.684  1.00  0.00     0.167 HD
ATOM     58  C   UNL A   1      42.036  30.414  35.145  1.00  0.00     0.074 A 
ATOM     59  C   UNL A   1      42.402  30.921  36.451  1.00  0.00     0.031 C 
ATOM     60  C   UNL A   1      42.668  29.392  34.518  1.00  0.00     0.037 A 
BRANCH  47  61
ATOM     61  C   UNL A   1      40.262  27.910  29.026  1.00  0.00     0.064 A 
ATOM     62  C   UNL A   1      39.532  26.712  29.001  1.00  0.00     0.173 A 
ATOM     63  C   UNL A   1      41.000  28.253  27.883  1.00  0.00     0.173 A 
ATOM     64  F   UNL A   1      38.824  26.332  30.075  1.00  0.00    -0.203 F 
ATOM     65  C   UNL A   1      39.561  25.878  27.887  1.00  0.00     0.198 A 
ATOM     66  C   UNL A   1      41.003  27.431  26.759  1.00  0.00     0.198 A 
ATOM     67  F   UNL A   1      41.713  29.389  27.852  1.00  0.00    -0.203 F 
ATOM     68  F   UNL A   1      38.894  24.715  27.906  1.00  0.00    -0.200 F 
ATOM     69  C   UNL A   1      40.290  26.241  26.765  1.00  0.00     0.200 A 
ATOM     70  F   UNL A   1      41.699  27.787  25.671  1.00  0.00    -0.200 F 
ATOM     71  F   UNL A   1      40.313  25.439  25.691  1.00  0.00    -0.200 F 
ENDBRANCH  47  61
BRANCH  48  72
ATOM     72  C   UNL A   1      39.551  33.995  36.916  1.00  0.00     0.064 A 
ATOM     73  C   UNL A   1      38.783  33.606  38.024  1.00  0.00     0.173 A 
ATOM     74  C   UNL A   1      40.198  35.237  36.973  1.00  0.00     0.173 A 
ATOM     75  F   UNL A   1      38.130  32.435  38.007  1.00  0.00    -0.203 F 
ATOM     76  C   UNL A   1      38.651  34.436  39.134  1.00  0.00     0.198 A 
ATOM     77  C   UNL A   1      40.085  36.055  38.096  1.00  0.00     0.198 A 
ATOM     78  F   UNL A   1      40.949  35.650  35.942  1.00  0.00    -0.203 F 
ATOM     79  F   UNL A   1      37.877  34.058  40.161  1.00  0.00    -0.200 F 
ATOM     80  C   UNL A   1      39.306  35.658  39.172  1.00  0.00     0.200 A 
ATOM     81  F   UNL A   1      40.731  37.229  38.134  1.00  0.00    -0.200 F 
ATOM     82  F   UNL A   1      39.181  36.455  40.242  1.00  0.00    -0.200 F 
ENDBRANCH  48  72
BRANCH  60  83
ATOM     83  C   UNL A   1      43.846  28.780  35.216  1.00  0.00     0.064 A 
ATOM     84  C   UNL A   1      45.146  29.267  35.026  1.00  0.00     0.173 A 
ATOM     85  C   UNL A   1      43.661  27.727  36.124  1.00  0.00     0.173 A 
ATOM     86  F   UNL A   1      45.374  30.262  34.155  1.00  0.00    -0.203 F 
ATOM     87  C   UNL A   1      46.225  28.707  35.705  1.00  0.00     0.198 A 
ATOM     88  C   UNL A   1      44.737  27.188  36.822  1.00  0.00     0.198 A 
ATOM     89  F   UNL A   1      42.435  27.232  36.344  1.00  0.00    -0.203 F 
ATOM     90  F   UNL A   1      47.465  29.160  35.480  1.00  0.00    -0.200 F 
ATOM     91  C   UNL A   1      46.019  27.674  36.608  1.00  0.00     0.200 A 
ATOM     92  F   UNL A   1      44.535  26.197  37.702  1.00  0.00    -0.200 F 
ATOM     93  F   UNL A   1      47.057  27.143  37.268  1.00  0.00    -0.200 F 
ENDBRANCH  60  83
ENDBRANCH  34  35
ENDBRANCH  26  29
ENDBRANCH  24  25
ENDBRANCH  23  24
ENDBRANCH   1  23
TORSDOF 13
ENDMDL
MODEL 2
REMARK VINA RESULT:     -12.5      0.946      2.283
REMARK SMILES Cc1oc(-c2ccc(Cl)cc2[N+](=O)[O-])cc1C(=O)NCCCCNC(=O)c1ccc(-c2c3nc(c(-c4c(F)c(F)c(F)c(F)c4F)c4ccc([nH]4)c(-c4c(F)c(F)c(F)c(F)c4F)c4nc(c(-c5c(F)c(F)c(F)c(F)c5F)c5ccc2[nH]5)C=C4)C=C3)cc1
REMARK SMILES IDX 21 1 20 2 19 3 17 4 18 5 16 7 1 8 2 9 3 10 4 11 15 12 5 13
REMARK SMILES IDX 6 14 11 15 7 16 10 17 8 18 9 19 12 20 13 21 14 22 22 23
REMARK SMILES IDX 23 24 24 25 25 26 26 28 27 29 28 30 89 31 29 32 88 33 30 34
REMARK SMILES IDX 31 35 32 36 82 37 33 38 87 39 81 40 83 41 34 42 86 43 80 44
REMARK SMILES IDX 79 45 35 47 67 48 47 49 66 50 48 51 51 52 65 53 84 54 49 55
REMARK SMILES IDX 50 56 64 58 85 59 52 60 36 61 37 62 45 63 38 64 39 65 43 66
REMARK SMILES IDX 46 67 40 68 41 69 44 70 42 71 68 72 69 73 77 74 70 75 71 76
REMARK SMILES IDX 75 77 78 78 72 79 73 80 76 81 74 82 53 83 54 84 62 85 55 86
REMARK SMILES IDX 56 87 60 88 63 89 57 90 58 91 61 92 59 93
REMARK H PARENT 19 6 24 27 83 46 51 57
REMARK Flexibility Score: inf
ROOT
ATOM      1  C   UNL A   1      32.011  30.435  26.790  1.00  0.00     0.023 C 
ENDROOT
BRANCH   1   2
ATOM      2  C   UNL A   1      32.585  29.987  25.445  1.00  0.00     0.116 C 
BRANCH   2   3
ATOM      3  N   UNL A   1      31.520  29.640  24.542  1.00  0.00    -0.352 N 
ATOM      4  C   UNL A   1      31.065  28.455  24.040  1.00  0.00     0.254 C 
ATOM      5  O   UNL A   1      30.131  28.566  23.240  1.00  0.00    -0.269 OA
ATOM      6  H   UNL A   1      31.015  30.420  24.218  1.00  0.00     0.163 HD
BRANCH   4   7
ATOM      7  C   UNL A   1      31.548  27.122  24.404  1.00  0.00     0.081 A 
ATOM      8  C   UNL A   1      29.810  25.605  25.788  1.00  0.00     0.088 C 
ATOM      9  C   UNL A   1      31.039  26.012  25.077  1.00  0.00     0.114 A 
ATOM     10  O   UNL A   1      31.969  25.009  25.107  1.00  0.00    -0.460 OA
ATOM     11  C   UNL A   1      33.093  25.456  24.510  1.00  0.00     0.142 A 
ATOM     12  C   UNL A   1      32.903  26.740  24.080  1.00  0.00     0.065 A 
BRANCH  11  13
ATOM     13  C   UNL A   1      34.206  24.532  24.503  1.00  0.00     0.095 A 
ATOM     14  C   UNL A   1      35.161  24.629  25.528  1.00  0.00     0.021 A 
ATOM     15  C   UNL A   1      34.362  23.514  23.550  1.00  0.00     0.281 A 
ATOM     16  C   UNL A   1      36.229  23.729  25.596  1.00  0.00     0.022 A 
ATOM     17  C   UNL A   1      35.430  22.607  23.608  1.00  0.00     0.107 A 
ATOM     18  C   UNL A   1      36.358  22.725  24.638  1.00  0.00     0.047 A 
ATOM     19  Cl  UNL A   1      37.677  21.626  24.728  1.00  0.00    -0.084 Cl
BRANCH  15  20
ATOM     20  N   UNL A   1      33.432  23.381  22.437  1.00  0.00     0.063 N 
ATOM     21  O   UNL A   1      32.644  22.427  22.476  1.00  0.00    -0.258 OA
ATOM     22  O   UNL A   1      33.540  24.182  21.498  1.00  0.00    -0.258 OA
ENDBRANCH  15  20
ENDBRANCH  11  13
ENDBRANCH   4   7
ENDBRANCH   2   3
ENDBRANCH   1   2
BRANCH   1  23
ATOM     23  C   UNL A   1      31.684  31.926  26.882  1.00  0.00     0.023 C 
BRANCH  23  24
ATOM     24  C   UNL A   1      32.820  32.796  27.406  1.00  0.00     0.116 C 
BRANCH  24  25
ATOM     25  N   UNL A   1      32.421  34.166  27.697  1.00  0.00    -0.352 N 
ATOM     26  C   UNL A   1      32.972  35.033  28.607  1.00  0.00     0.251 C 
ATOM     27  H   UNL A   1      31.661  34.513  27.176  1.00  0.00     0.163 HD
ATOM     28  O   UNL A   1      32.476  36.137  28.806  1.00  0.00    -0.269 OA
BRANCH  26  29
ATOM     29  C   UNL A   1      34.145  34.593  29.385  1.00  0.00     0.039 A 
ATOM     30  C   UNL A   1      33.947  34.096  30.675  1.00  0.00     0.014 A 
ATOM     31  C   UNL A   1      35.419  34.608  28.813  1.00  0.00     0.014 A 
ATOM     32  C   UNL A   1      35.022  33.539  31.366  1.00  0.00     0.010 A 
ATOM     33  C   UNL A   1      36.473  33.990  29.474  1.00  0.00     0.010 A 
ATOM     34  C   UNL A   1      36.283  33.445  30.754  1.00  0.00    -0.014 A 
BRANCH  34  35
ATOM     35  C   UNL A   1      37.418  32.774  31.431  1.00  0.00     0.031 A 
ATOM     36  C   UNL A   1      38.100  31.611  30.772  1.00  0.00     0.074 A 
ATOM     37  C   UNL A   1      37.777  33.164  32.669  1.00  0.00     0.049 A 
ATOM     38  N   UNL A   1      39.049  30.838  31.235  1.00  0.00    -0.248 NA
ATOM     39  C   UNL A   1      37.631  31.247  29.426  1.00  0.00     0.031 C 
ATOM     40  C   UNL A   1      37.151  34.245  33.432  1.00  0.00     0.029 A 
ATOM     41  N   UNL A   1      38.749  32.684  33.510  1.00  0.00    -0.354 N 
ATOM     42  C   UNL A   1      39.275  29.889  30.248  1.00  0.00     0.074 A 
ATOM     43  C   UNL A   1      38.332  30.149  29.183  1.00  0.00     0.031 C 
ATOM     44  C   UNL A   1      37.766  34.359  34.619  1.00  0.00     0.029 A 
ATOM     45  C   UNL A   1      38.807  33.340  34.715  1.00  0.00     0.049 A 
ATOM     46  H   UNL A   1      39.348  31.939  33.272  1.00  0.00     0.167 HD
ATOM     47  C   UNL A   1      40.203  28.904  30.225  1.00  0.00     0.037 A 
ATOM     48  C   UNL A   1      39.610  33.137  35.777  1.00  0.00     0.037 A 
ATOM     49  C   UNL A   1      41.163  28.671  31.270  1.00  0.00     0.049 A 
ATOM     50  C   UNL A   1      40.646  32.049  35.716  1.00  0.00     0.074 A 
ATOM     51  C   UNL A   1      42.186  27.742  31.313  1.00  0.00     0.029 A 
ATOM     52  N   UNL A   1      41.218  29.383  32.460  1.00  0.00    -0.354 N 
ATOM     53  N   UNL A   1      40.897  31.201  34.748  1.00  0.00    -0.248 NA
ATOM     54  C   UNL A   1      41.516  31.895  36.890  1.00  0.00     0.031 C 
ATOM     55  C   UNL A   1      42.840  27.867  32.544  1.00  0.00     0.029 A 
ATOM     56  C   UNL A   1      42.249  28.903  33.249  1.00  0.00     0.049 A 
ATOM     57  H   UNL A   1      40.613  30.120  32.707  1.00  0.00     0.167 HD
ATOM     58  C   UNL A   1      41.970  30.434  35.182  1.00  0.00     0.074 A 
ATOM     59  C   UNL A   1      42.328  30.924  36.496  1.00  0.00     0.031 C 
ATOM     60  C   UNL A   1      42.601  29.416  34.548  1.00  0.00     0.037 A 
BRANCH  47  61
ATOM     61  C   UNL A   1      40.230  28.008  29.021  1.00  0.00     0.064 A 
ATOM     62  C   UNL A   1      40.966  28.342  27.874  1.00  0.00     0.173 A 
ATOM     63  C   UNL A   1      39.535  26.790  29.024  1.00  0.00     0.173 A 
ATOM     64  F   UNL A   1      41.635  29.503  27.816  1.00  0.00    -0.203 F 
ATOM     65  C   UNL A   1      40.983  27.502  26.764  1.00  0.00     0.198 A 
ATOM     66  C   UNL A   1      39.578  25.939  27.923  1.00  0.00     0.198 A 
ATOM     67  F   UNL A   1      38.819  26.421  30.097  1.00  0.00    -0.203 F 
ATOM     68  F   UNL A   1      41.653  27.865  25.662  1.00  0.00    -0.200 F 
ATOM     69  C   UNL A   1      40.295  26.298  26.792  1.00  0.00     0.200 A 
ATOM     70  F   UNL A   1      38.922  24.770  27.955  1.00  0.00    -0.200 F 
ATOM     71  F   UNL A   1      40.317  25.488  25.724  1.00  0.00    -0.200 F 
ENDBRANCH  47  61
BRANCH  48  72
ATOM     72  C   UNL A   1      39.488  34.007  36.975  1.00  0.00     0.064 A 
ATOM     73  C   UNL A   1      40.128  35.254  37.022  1.00  0.00     0.173 A 
ATOM     74  C   UNL A   1      38.735  33.616  38.090  1.00  0.00     0.173 A 
ATOM     75  F   UNL A   1      40.875  35.662  35.986  1.00  0.00    -0.203 F 
ATOM     76  C   UNL A   1      40.037  36.067  38.149  1.00  0.00     0.198 A 
ATOM     77  C   UNL A   1      38.623  34.443  39.207  1.00  0.00     0.198 A 
ATOM     78  F   UNL A   1      38.099  32.436  38.091  1.00  0.00    -0.203 F 
ATOM     79  F   UNL A   1      40.693  37.235  38.185  1.00  0.00    -0.200 F 
ATOM     80  C   UNL A   1      39.280  35.663  39.239  1.00  0.00     0.200 A 
ATOM     81  F   UNL A   1      37.880  34.054  40.253  1.00  0.00    -0.200 F 
ATOM     82  F   UNL A   1      39.190  36.448  40.322  1.00  0.00    -0.200 F 
ENDBRANCH  48  72
BRANCH  60  83
ATOM     83  C   UNL A   1      43.770  28.791  35.248  1.00  0.00     0.064 A 
ATOM     84  C   UNL A   1      43.608  27.721  36.140  1.00  0.00     0.173 A 
ATOM     85  C   UNL A   1      45.074  29.237  34.983  1.00  0.00     0.173 A 
ATOM     86  F   UNL A   1      42.379  27.271  36.437  1.00  0.00    -0.203 F 
ATOM     87  C   UNL A   1      44.708  27.133  36.758  1.00  0.00     0.198 A 
ATOM     88  C   UNL A   1      46.174  28.628  35.580  1.00  0.00     0.198 A 
ATOM     89  F   UNL A   1      45.281  30.252  34.132  1.00  0.00    -0.203 F 
ATOM     90  F   UNL A   1      44.528  26.138  37.636  1.00  0.00    -0.200 F 
ATOM     91  C   UNL A   1      45.989  27.581  36.471  1.00  0.00     0.200 A 
ATOM     92  F   UNL A   1      47.411  29.055  35.294  1.00  0.00    -0.200 F 
ATOM     93  F   UNL A   1      47.048  27.007  37.060  1.00  0.00    -0.200 F 
ENDBRANCH  60  83
ENDBRANCH  34  35
ENDBRANCH  26  29
ENDBRANCH  24  25
ENDBRANCH  23  24
ENDBRANCH   1  23
TORSDOF 13
ENDMDL
MODEL 3
REMARK VINA RESULT:     -12.5      1.032      7.501
REMARK SMILES Cc1oc(-c2ccc(Cl)cc2[N+](=O)[O-])cc1C(=O)NCCCCNC(=O)c1ccc(-c2c3nc(c(-c4c(F)c(F)c(F)c(F)c4F)c4ccc([nH]4)c(-c4c(F)c(F)c(F)c(F)c4F)c4nc(c(-c5c(F)c(F)c(F)c(F)c5F)c5ccc2[nH]5)C=C4)C=C3)cc1
REMARK SMILES IDX 21 1 20 2 19 3 17 4 18 5 16 7 1 8 2 9 3 10 4 11 15 12 5 13
REMARK SMILES IDX 6 14 11 15 7 16 10 17 8 18 9 19 12 20 13 21 14 22 22 23
REMARK SMILES IDX 23 24 24 25 25 26 26 28 27 29 28 30 89 31 29 32 88 33 30 34
REMARK SMILES IDX 31 35 32 36 82 37 33 38 87 39 81 40 83 41 34 42 86 43 80 44
REMARK SMILES IDX 79 45 35 47 67 48 47 49 66 50 48 51 51 52 65 53 84 54 49 55
REMARK SMILES IDX 50 56 64 58 85 59 52 60 36 61 37 62 45 63 38 64 39 65 43 66
REMARK SMILES IDX 46 67 40 68 41 69 44 70 42 71 68 72 69 73 77 74 70 75 71 76
REMARK SMILES IDX 75 77 78 78 72 79 73 80 76 81 74 82 53 83 54 84 62 85 55 86
REMARK SMILES IDX 56 87 60 88 63 89 57 90 58 91 61 92 59 93
REMARK H PARENT 19 6 24 27 83 46 51 57
REMARK Flexibility Score: inf
ROOT
ATOM      1  C   UNL A   1      31.917  30.455  26.862  1.00  0.00     0.023 C 
ENDROOT
BRANCH   1   2
ATOM      2  C   UNL A   1      32.887  29.978  25.781  1.00  0.00     0.116 C 
BRANCH   2   3
ATOM      3  N   UNL A   1      32.178  29.725  24.555  1.00  0.00    -0.352 N 
ATOM      4  C   UNL A   1      31.902  28.590  23.849  1.00  0.00     0.254 C 
ATOM      5  O   UNL A   1      31.287  28.783  22.795  1.00  0.00    -0.269 OA
ATOM      6  H   UNL A   1      31.818  30.540  24.138  1.00  0.00     0.163 HD
BRANCH   4   7
ATOM      7  C   UNL A   1      32.222  27.221  24.256  1.00  0.00     0.081 A 
ATOM      8  C   UNL A   1      30.270  25.926  25.580  1.00  0.00     0.088 C 
ATOM      9  C   UNL A   1      31.567  26.186  24.922  1.00  0.00     0.114 A 
ATOM     10  O   UNL A   1      32.382  25.090  25.012  1.00  0.00    -0.460 OA
ATOM     11  C   UNL A   1      33.574  25.403  24.462  1.00  0.00     0.142 A 
ATOM     12  C   UNL A   1      33.542  26.690  24.004  1.00  0.00     0.065 A 
BRANCH  11  13
ATOM     13  C   UNL A   1      34.580  24.365  24.523  1.00  0.00     0.095 A 
ATOM     14  C   UNL A   1      35.597  24.478  25.484  1.00  0.00     0.021 A 
ATOM     15  C   UNL A   1      34.572  23.229  23.700  1.00  0.00     0.281 A 
ATOM     16  C   UNL A   1      36.567  23.479  25.618  1.00  0.00     0.022 A 
ATOM     17  C   UNL A   1      35.540  22.221  23.825  1.00  0.00     0.107 A 
ATOM     18  C   UNL A   1      36.533  22.358  24.790  1.00  0.00     0.047 A 
ATOM     19  Cl  UNL A   1      37.731  21.137  24.960  1.00  0.00    -0.084 Cl
BRANCH  15  20
ATOM     20  N   UNL A   1      33.571  23.068  22.655  1.00  0.00     0.063 N 
ATOM     21  O   UNL A   1      33.759  23.689  21.599  1.00  0.00    -0.258 OA
ATOM     22  O   UNL A   1      32.571  22.386  22.915  1.00  0.00    -0.258 OA
ENDBRANCH  15  20
ENDBRANCH  11  13
ENDBRANCH   4   7
ENDBRANCH   2   3
ENDBRANCH   1   2
BRANCH   1  23
ATOM     23  C   UNL A   1      31.636  31.959  26.853  1.00  0.00     0.023 C 
BRANCH  23  24
ATOM     24  C   UNL A   1      32.830  32.832  27.220  1.00  0.00     0.116 C 
BRANCH  24  25
ATOM     25  N   UNL A   1      32.464  34.178  27.636  1.00  0.00    -0.352 N 
ATOM     26  C   UNL A   1      33.024  34.939  28.631  1.00  0.00     0.251 C 
ATOM     27  H   UNL A   1      31.720  34.594  27.141  1.00  0.00     0.163 HD
ATOM     28  O   UNL A   1      32.554  36.032  28.929  1.00  0.00    -0.269 OA
BRANCH  26  29
ATOM     29  C   UNL A   1      34.173  34.393  29.377  1.00  0.00     0.039 A 
ATOM     30  C   UNL A   1      33.928  33.597  30.498  1.00  0.00     0.014 A 
ATOM     31  C   UNL A   1      35.477  34.613  28.927  1.00  0.00     0.014 A 
ATOM     32  C   UNL A   1      34.994  32.954  31.126  1.00  0.00     0.010 A 
ATOM     33  C   UNL A   1      36.528  33.916  29.511  1.00  0.00     0.010 A 
ATOM     34  C   UNL A   1      36.296  33.077  30.610  1.00  0.00    -0.014 A 
BRANCH  34  35
ATOM     35  C   UNL A   1      37.430  32.329  31.203  1.00  0.00     0.031 A 
ATOM     36  C   UNL A   1      37.945  32.704  32.562  1.00  0.00     0.074 A 
ATOM     37  C   UNL A   1      38.043  31.371  30.482  1.00  0.00     0.049 A 
ATOM     38  N   UNL A   1      38.977  32.234  33.215  1.00  0.00    -0.248 NA
ATOM     39  C   UNL A   1      37.222  33.774  33.269  1.00  0.00     0.031 C 
ATOM     40  C   UNL A   1      37.669  30.958  29.129  1.00  0.00     0.029 A 
ATOM     41  N   UNL A   1      39.122  30.579  30.784  1.00  0.00    -0.354 N 
ATOM     42  C   UNL A   1      39.037  32.962  34.395  1.00  0.00     0.074 A 
ATOM     43  C   UNL A   1      37.971  33.938  34.349  1.00  0.00     0.031 C 
ATOM     44  C   UNL A   1      38.490  29.977  28.725  1.00  0.00     0.029 A 
ATOM     45  C   UNL A   1      39.468  29.713  29.776  1.00  0.00     0.049 A 
ATOM     46  H   UNL A   1      39.603  30.627  31.643  1.00  0.00     0.167 HD
ATOM     47  C   UNL A   1      39.892  32.811  35.435  1.00  0.00     0.037 A 
ATOM     48  C   UNL A   1      40.467  28.812  29.709  1.00  0.00     0.037 A 
ATOM     49  C   UNL A   1      40.928  31.815  35.491  1.00  0.00     0.049 A 
ATOM     50  C   UNL A   1      41.389  28.651  30.886  1.00  0.00     0.074 A 
ATOM     51  C   UNL A   1      41.803  31.537  36.525  1.00  0.00     0.029 A 
ATOM     52  N   UNL A   1      41.224  30.928  34.466  1.00  0.00    -0.354 N 
ATOM     53  N   UNL A   1      41.394  29.297  32.026  1.00  0.00    -0.248 NA
ATOM     54  C   UNL A   1      42.440  27.630  30.769  1.00  0.00     0.031 C 
ATOM     55  C   UNL A   1      42.653  30.505  36.113  1.00  0.00     0.029 A 
ATOM     56  C   UNL A   1      42.278  30.111  34.839  1.00  0.00     0.049 A 
ATOM     57  H   UNL A   1      40.753  30.885  33.602  1.00  0.00     0.167 HD
ATOM     58  C   UNL A   1      42.424  28.743  32.774  1.00  0.00     0.074 A 
ATOM     59  C   UNL A   1      43.016  27.701  31.961  1.00  0.00     0.031 C 
ATOM     60  C   UNL A   1      42.842  29.068  34.022  1.00  0.00     0.037 A 
BRANCH  47  61
ATOM     61  C   UNL A   1      39.734  33.741  36.600  1.00  0.00     0.064 A 
ATOM     62  C   UNL A   1      40.384  34.984  36.641  1.00  0.00     0.173 A 
ATOM     63  C   UNL A   1      38.902  33.399  37.677  1.00  0.00     0.173 A 
ATOM     64  F   UNL A   1      41.202  35.351  35.644  1.00  0.00    -0.203 F 
ATOM     65  C   UNL A   1      40.228  35.838  37.729  1.00  0.00     0.198 A 
ATOM     66  C   UNL A   1      38.725  34.269  38.750  1.00  0.00     0.198 A 
ATOM     67  F   UNL A   1      38.255  32.224  37.686  1.00  0.00    -0.203 F 
ATOM     68  F   UNL A   1      40.897  37.000  37.768  1.00  0.00    -0.200 F 
ATOM     69  C   UNL A   1      39.393  35.484  38.779  1.00  0.00     0.200 A 
ATOM     70  F   UNL A   1      37.911  33.931  39.759  1.00  0.00    -0.200 F 
ATOM     71  F   UNL A   1      39.241  36.311  39.823  1.00  0.00    -0.200 F 
ENDBRANCH  47  61
BRANCH  48  72
ATOM     72  C   UNL A   1      40.623  27.968  28.497  1.00  0.00     0.064 A 
ATOM     73  C   UNL A   1      41.394  28.410  27.412  1.00  0.00     0.173 A 
ATOM     74  C   UNL A   1      40.011  26.711  28.395  1.00  0.00     0.173 A 
ATOM     75  F   UNL A   1      41.983  29.614  27.456  1.00  0.00    -0.203 F 
ATOM     76  C   UNL A   1      41.530  27.635  26.263  1.00  0.00     0.198 A 
ATOM     77  C   UNL A   1      40.169  25.925  27.254  1.00  0.00     0.198 A 
ATOM     78  F   UNL A   1      39.270  26.241  29.408  1.00  0.00    -0.203 F 
ATOM     79  F   UNL A   1      42.238  28.099  25.224  1.00  0.00    -0.200 F 
ATOM     80  C   UNL A   1      40.922  26.390  26.187  1.00  0.00     0.200 A 
ATOM     81  F   UNL A   1      39.591  24.718  27.191  1.00  0.00    -0.200 F 
ATOM     82  F   UNL A   1      41.055  25.643  25.082  1.00  0.00    -0.200 F 
ENDBRANCH  48  72
BRANCH  60  83
ATOM     83  C   UNL A   1      43.965  28.262  34.602  1.00  0.00     0.064 A 
ATOM     84  C   UNL A   1      45.299  28.681  34.502  1.00  0.00     0.173 A 
ATOM     85  C   UNL A   1      43.695  27.082  35.310  1.00  0.00     0.173 A 
ATOM     86  F   UNL A   1      45.607  29.795  33.820  1.00  0.00    -0.203 F 
ATOM     87  C   UNL A   1      46.326  27.935  35.074  1.00  0.00     0.198 A 
ATOM     88  C   UNL A   1      44.721  26.353  35.905  1.00  0.00     0.198 A 
ATOM     89  F   UNL A   1      42.434  26.644  35.439  1.00  0.00    -0.203 F 
ATOM     90  F   UNL A   1      47.598  28.332  34.933  1.00  0.00    -0.200 F 
ATOM     91  C   UNL A   1      46.036  26.778  35.781  1.00  0.00     0.200 A 
ATOM     92  F   UNL A   1      44.438  25.241  36.597  1.00  0.00    -0.200 F 
ATOM     93  F   UNL A   1      47.026  26.066  36.339  1.00  0.00    -0.200 F 
ENDBRANCH  60  83
ENDBRANCH  34  35
ENDBRANCH  26  29
ENDBRANCH  24  25
ENDBRANCH  23  24
ENDBRANCH   1  23
TORSDOF 13
ENDMDL
