MODEL 1
REMARK VINA RESULT:     -10.9      0.000      0.000
REMARK SMILES O=C(C[NH+]1CC2(CCCC2)C1)NCCCCNC(=O)c1ccc(-c2c3nc(c(-c4c(F)c(F)c(F)c(F)c4F)c4ccc([nH]4)c(-c4c(F)c(F)c(F)c(F)c4F)c4nc(c(-c5c(F)c(F)c(F)c(F)c5F)c5ccc2[nH]5)C=C4)C=C3)cc1
REMARK SMILES IDX 15 1 14 2 13 3 12 4 1 5 2 6 3 8 4 9 5 10 11 11 6 13 7 14
REMARK SMILES IDX 10 15 8 16 9 17 16 18 17 19 18 20 19 22 20 23 21 24 82 25
REMARK SMILES IDX 22 26 81 27 23 28 24 29 25 30 75 31 26 32 80 33 74 34 76 35
REMARK SMILES IDX 27 36 79 37 73 38 72 39 28 41 60 42 40 43 59 44 41 45 44 46
REMARK SMILES IDX 58 47 77 48 42 49 43 50 57 52 78 53 45 54 29 55 30 56 38 57
REMARK SMILES IDX 31 58 32 59 36 60 39 61 33 62 34 63 37 64 35 65 61 66 62 67
REMARK SMILES IDX 70 68 63 69 64 70 68 71 71 72 65 73 66 74 69 75 67 76 46 77
REMARK SMILES IDX 47 78 55 79 48 80 49 81 53 82 56 83 50 84 51 85 54 86 52 87
REMARK H PARENT 12 7 4 12 17 21 76 40 44 51
REMARK Flexibility Score: inf
ROOT
ATOM      1  C   UNL A   1      41.654  21.194  26.157  1.00  0.00     0.023 C 
ENDROOT
BRANCH   1   2
ATOM      2  C   UNL A   1      41.612  19.667  26.058  1.00  0.00     0.023 C 
BRANCH   2   3
ATOM      3  C   UNL A   1      42.979  19.006  25.870  1.00  0.00     0.116 C 
BRANCH   3   4
ATOM      4  N   UNL A   1      44.027  19.992  25.735  1.00  0.00    -0.351 N 
ATOM      5  O   UNL A   1      44.497  19.454  23.561  1.00  0.00    -0.269 OA
ATOM      6  C   UNL A   1      44.757  20.096  24.576  1.00  0.00     0.275 C 
ATOM      7  H   UNL A   1      44.220  20.600  26.485  1.00  0.00     0.163 HD
BRANCH   6   8
ATOM      8  C   UNL A   1      45.991  20.976  24.674  1.00  0.00     0.363 C 
BRANCH   8   9
ATOM      9  N   UNL A   1      45.971  22.207  23.850  1.00  0.00    -0.326 N 
ATOM     10  C   UNL A   1      46.544  23.440  24.460  1.00  0.00     0.275 C 
ATOM     11  C   UNL A   1      44.620  22.813  24.019  1.00  0.00     0.275 C 
ATOM     12  H   UNL A   1      46.382  21.881  22.976  1.00  0.00     0.348 HD
ATOM     13  C   UNL A   1      45.187  23.756  25.134  1.00  0.00     0.068 C 
ATOM     14  C   UNL A   1      44.490  25.125  25.060  1.00  0.00     0.019 C 
ATOM     15  C   UNL A   1      45.231  23.417  26.627  1.00  0.00     0.019 C 
ATOM     16  C   UNL A   1      43.844  25.332  26.439  1.00  0.00     0.001 C 
ATOM     17  C   UNL A   1      43.937  23.993  27.153  1.00  0.00     0.001 C 
ENDBRANCH   8   9
ENDBRANCH   6   8
ENDBRANCH   3   4
ENDBRANCH   2   3
ENDBRANCH   1   2
BRANCH   1  18
ATOM     18  C   UNL A   1      40.528  21.818  26.970  1.00  0.00     0.116 C 
BRANCH  18  19
ATOM     19  N   UNL A   1      39.417  22.264  26.143  1.00  0.00    -0.352 N 
ATOM     20  C   UNL A   1      38.791  23.484  26.121  1.00  0.00     0.251 C 
ATOM     21  H   UNL A   1      39.066  21.595  25.512  1.00  0.00     0.163 HD
ATOM     22  O   UNL A   1      37.766  23.642  25.460  1.00  0.00    -0.269 OA
BRANCH  20  23
ATOM     23  C   UNL A   1      39.329  24.604  26.919  1.00  0.00     0.039 A 
ATOM     24  C   UNL A   1      40.096  25.580  26.279  1.00  0.00     0.014 A 
ATOM     25  C   UNL A   1      39.072  24.702  28.290  1.00  0.00     0.014 A 
ATOM     26  C   UNL A   1      40.548  26.687  26.998  1.00  0.00     0.010 A 
ATOM     27  C   UNL A   1      39.456  25.844  28.987  1.00  0.00     0.010 A 
ATOM     28  C   UNL A   1      40.200  26.849  28.349  1.00  0.00    -0.014 A 
BRANCH  28  29
ATOM     29  C   UNL A   1      40.597  28.064  29.105  1.00  0.00     0.031 A 
ATOM     30  C   UNL A   1      41.986  28.184  29.671  1.00  0.00     0.074 A 
ATOM     31  C   UNL A   1      39.690  29.035  29.332  1.00  0.00     0.049 A 
ATOM     32  N   UNL A   1      42.500  29.138  30.407  1.00  0.00    -0.248 NA
ATOM     33  C   UNL A   1      42.912  27.076  29.394  1.00  0.00     0.031 C 
ATOM     34  C   UNL A   1      38.300  29.016  28.874  1.00  0.00     0.029 A 
ATOM     35  N   UNL A   1      39.799  30.222  30.015  1.00  0.00    -0.354 N 
ATOM     36  C   UNL A   1      43.801  28.738  30.689  1.00  0.00     0.074 A 
ATOM     37  C   UNL A   1      43.979  27.432  30.094  1.00  0.00     0.031 C 
ATOM     38  C   UNL A   1      37.694  30.148  29.264  1.00  0.00     0.029 A 
ATOM     39  C   UNL A   1      38.635  30.953  30.038  1.00  0.00     0.049 A 
ATOM     40  H   UNL A   1      40.632  30.521  30.445  1.00  0.00     0.167 HD
ATOM     41  C   UNL A   1      44.763  29.410  31.364  1.00  0.00     0.037 A 
ATOM     42  C   UNL A   1      38.356  32.132  30.626  1.00  0.00     0.037 A 
ATOM     43  C   UNL A   1      44.588  30.719  31.938  1.00  0.00     0.049 A 
ATOM     44  C   UNL A   1      39.439  32.844  31.391  1.00  0.00     0.074 A 
ATOM     45  C   UNL A   1      45.520  31.507  32.589  1.00  0.00     0.029 A 
ATOM     46  N   UNL A   1      43.396  31.429  31.938  1.00  0.00    -0.354 N 
ATOM     47  N   UNL A   1      40.687  32.491  31.588  1.00  0.00    -0.248 NA
ATOM     48  C   UNL A   1      39.077  34.128  32.010  1.00  0.00     0.031 C 
ATOM     49  C   UNL A   1      44.879  32.667  33.035  1.00  0.00     0.029 A 
ATOM     50  C   UNL A   1      43.563  32.632  32.604  1.00  0.00     0.049 A 
ATOM     51  H   UNL A   1      42.556  31.122  31.525  1.00  0.00     0.167 HD
ATOM     52  C   UNL A   1      41.265  33.518  32.321  1.00  0.00     0.074 A 
ATOM     53  C   UNL A   1      40.236  34.516  32.521  1.00  0.00     0.031 C 
ATOM     54  C   UNL A   1      42.533  33.624  32.787  1.00  0.00     0.037 A 
BRANCH  41  55
ATOM     55  C   UNL A   1      46.100  28.742  31.522  1.00  0.00     0.064 A 
ATOM     56  C   UNL A   1      47.124  28.905  30.575  1.00  0.00     0.173 A 
ATOM     57  C   UNL A   1      46.378  27.967  32.658  1.00  0.00     0.173 A 
ATOM     58  F   UNL A   1      46.909  29.628  29.466  1.00  0.00    -0.203 F 
ATOM     59  C   UNL A   1      48.364  28.295  30.746  1.00  0.00     0.198 A 
ATOM     60  C   UNL A   1      47.630  27.385  32.842  1.00  0.00     0.198 A 
ATOM     61  F   UNL A   1      45.439  27.782  33.598  1.00  0.00    -0.203 F 
ATOM     62  F   UNL A   1      49.308  28.424  29.804  1.00  0.00    -0.200 F 
ATOM     63  C   UNL A   1      48.619  27.542  31.883  1.00  0.00     0.200 A 
ATOM     64  F   UNL A   1      47.879  26.673  33.950  1.00  0.00    -0.200 F 
ATOM     65  F   UNL A   1      49.815  26.965  32.052  1.00  0.00    -0.200 F 
ENDBRANCH  41  55
BRANCH  42  66
ATOM     66  C   UNL A   1      36.996  32.723  30.506  1.00  0.00     0.064 A 
ATOM     67  C   UNL A   1      36.642  33.494  29.390  1.00  0.00     0.173 A 
ATOM     68  C   UNL A   1      36.032  32.550  31.509  1.00  0.00     0.173 A 
ATOM     69  F   UNL A   1      37.536  33.707  28.413  1.00  0.00    -0.203 F 
ATOM     70  C   UNL A   1      35.387  34.093  29.296  1.00  0.00     0.198 A 
ATOM     71  C   UNL A   1      34.765  33.121  31.399  1.00  0.00     0.198 A 
ATOM     72  F   UNL A   1      36.316  31.817  32.596  1.00  0.00    -0.203 F 
ATOM     73  F   UNL A   1      35.097  34.871  28.245  1.00  0.00    -0.200 F 
ATOM     74  C   UNL A   1      34.448  33.900  30.298  1.00  0.00     0.200 A 
ATOM     75  F   UNL A   1      33.855  32.918  32.361  1.00  0.00    -0.200 F 
ATOM     76  F   UNL A   1      33.241  34.476  30.206  1.00  0.00    -0.200 F 
ENDBRANCH  42  66
BRANCH  54  77
ATOM     77  C   UNL A   1      42.897  34.884  33.521  1.00  0.00     0.064 A 
ATOM     78  C   UNL A   1      43.294  36.047  32.845  1.00  0.00     0.173 A 
ATOM     79  C   UNL A   1      42.808  34.938  34.921  1.00  0.00     0.173 A 
ATOM     80  F   UNL A   1      43.409  36.046  31.509  1.00  0.00    -0.203 F 
ATOM     81  C   UNL A   1      43.618  37.206  33.546  1.00  0.00     0.198 A 
ATOM     82  C   UNL A   1      43.098  36.109  35.615  1.00  0.00     0.198 A 
ATOM     83  F   UNL A   1      42.424  33.856  35.617  1.00  0.00    -0.203 F 
ATOM     84  F   UNL A   1      44.048  38.289  32.882  1.00  0.00    -0.200 F 
ATOM     85  C   UNL A   1      43.511  37.239  34.928  1.00  0.00     0.200 A 
ATOM     86  F   UNL A   1      42.976  36.143  36.950  1.00  0.00    -0.200 F 
ATOM     87  F   UNL A   1      43.814  38.359  35.599  1.00  0.00    -0.200 F 
ENDBRANCH  54  77
ENDBRANCH  28  29
ENDBRANCH  20  23
ENDBRANCH  18  19
ENDBRANCH   1  18
TORSDOF 12
ENDMDL
MODEL 2
REMARK VINA RESULT:     -10.9      0.151      1.183
REMARK SMILES O=C(C[NH+]1CC2(CCCC2)C1)NCCCCNC(=O)c1ccc(-c2c3nc(c(-c4c(F)c(F)c(F)c(F)c4F)c4ccc([nH]4)c(-c4c(F)c(F)c(F)c(F)c4F)c4nc(c(-c5c(F)c(F)c(F)c(F)c5F)c5ccc2[nH]5)C=C4)C=C3)cc1
REMARK SMILES IDX 15 1 14 2 13 3 12 4 1 5 2 6 3 8 4 9 5 10 11 11 6 13 7 14
REMARK SMILES IDX 10 15 8 16 9 17 16 18 17 19 18 20 19 22 20 23 21 24 82 25
REMARK SMILES IDX 22 26 81 27 23 28 24 29 25 30 75 31 26 32 80 33 74 34 76 35
REMARK SMILES IDX 27 36 79 37 73 38 72 39 28 41 60 42 40 43 59 44 41 45 44 46
REMARK SMILES IDX 58 47 77 48 42 49 43 50 57 52 78 53 45 54 29 55 30 56 38 57
REMARK SMILES IDX 31 58 32 59 36 60 39 61 33 62 34 63 37 64 35 65 61 66 62 67
REMARK SMILES IDX 70 68 63 69 64 70 68 71 71 72 65 73 66 74 69 75 67 76 46 77
REMARK SMILES IDX 47 78 55 79 48 80 49 81 53 82 56 83 50 84 51 85 54 86 52 87
REMARK H PARENT 12 7 4 12 17 21 76 40 44 51
REMARK Flexibility Score: inf
ROOT
ATOM      1  C   UNL A   1      41.494  21.163  26.155  1.00  0.00     0.023 C 
ENDROOT
BRANCH   1   2
ATOM      2  C   UNL A   1      41.424  19.634  26.127  1.00  0.00     0.023 C 
BRANCH   2   3
ATOM      3  C   UNL A   1      42.781  18.940  25.994  1.00  0.00     0.116 C 
BRANCH   3   4
ATOM      4  N   UNL A   1      43.848  19.898  25.808  1.00  0.00    -0.351 N 
ATOM      5  O   UNL A   1      44.383  19.162  23.709  1.00  0.00    -0.269 OA
ATOM      6  C   UNL A   1      44.618  19.889  24.671  1.00  0.00     0.275 C 
ATOM      7  H   UNL A   1      44.024  20.569  26.508  1.00  0.00     0.163 HD
BRANCH   6   8
ATOM      8  C   UNL A   1      45.860  20.761  24.733  1.00  0.00     0.363 C 
BRANCH   8   9
ATOM      9  N   UNL A   1      45.842  21.969  23.876  1.00  0.00    -0.326 N 
ATOM     10  C   UNL A   1      46.415  23.217  24.453  1.00  0.00     0.275 C 
ATOM     11  C   UNL A   1      44.492  22.579  24.024  1.00  0.00     0.275 C 
ATOM     12  H   UNL A   1      46.256  21.619  23.012  1.00  0.00     0.348 HD
ATOM     13  C   UNL A   1      45.055  23.553  25.115  1.00  0.00     0.068 C 
ATOM     14  C   UNL A   1      44.359  24.919  25.001  1.00  0.00     0.019 C 
ATOM     15  C   UNL A   1      45.095  23.254  26.617  1.00  0.00     0.019 C 
ATOM     16  C   UNL A   1      43.709  25.163  26.372  1.00  0.00     0.001 C 
ATOM     17  C   UNL A   1      43.800  23.845  27.123  1.00  0.00     0.001 C 
ENDBRANCH   8   9
ENDBRANCH   6   8
ENDBRANCH   3   4
ENDBRANCH   2   3
ENDBRANCH   1   2
BRANCH   1  18
ATOM     18  C   UNL A   1      40.398  21.842  26.965  1.00  0.00     0.116 C 
BRANCH  18  19
ATOM     19  N   UNL A   1      39.289  22.296  26.141  1.00  0.00    -0.352 N 
ATOM     20  C   UNL A   1      38.666  23.518  26.125  1.00  0.00     0.251 C 
ATOM     21  H   UNL A   1      38.936  21.632  25.506  1.00  0.00     0.163 HD
ATOM     22  O   UNL A   1      37.642  23.683  25.465  1.00  0.00    -0.269 OA
BRANCH  20  23
ATOM     23  C   UNL A   1      39.209  24.633  26.929  1.00  0.00     0.039 A 
ATOM     24  C   UNL A   1      40.028  25.577  26.306  1.00  0.00     0.014 A 
ATOM     25  C   UNL A   1      38.903  24.757  28.288  1.00  0.00     0.014 A 
ATOM     26  C   UNL A   1      40.487  26.679  27.028  1.00  0.00     0.010 A 
ATOM     27  C   UNL A   1      39.296  25.896  28.985  1.00  0.00     0.010 A 
ATOM     28  C   UNL A   1      40.093  26.869  28.362  1.00  0.00    -0.014 A 
BRANCH  28  29
ATOM     29  C   UNL A   1      40.499  28.083  29.118  1.00  0.00     0.031 A 
ATOM     30  C   UNL A   1      41.885  28.189  29.692  1.00  0.00     0.074 A 
ATOM     31  C   UNL A   1      39.601  29.063  29.336  1.00  0.00     0.049 A 
ATOM     32  N   UNL A   1      42.405  29.139  30.430  1.00  0.00    -0.248 NA
ATOM     33  C   UNL A   1      42.801  27.070  29.425  1.00  0.00     0.031 C 
ATOM     34  C   UNL A   1      38.214  29.059  28.869  1.00  0.00     0.029 A 
ATOM     35  N   UNL A   1      39.719  30.252  30.016  1.00  0.00    -0.354 N 
ATOM     36  C   UNL A   1      43.699  28.725  30.721  1.00  0.00     0.074 A 
ATOM     37  C   UNL A   1      43.867  27.416  30.131  1.00  0.00     0.031 C 
ATOM     38  C   UNL A   1      37.618  30.199  29.252  1.00  0.00     0.029 A 
ATOM     39  C   UNL A   1      38.563  30.995  30.030  1.00  0.00     0.049 A 
ATOM     40  H   UNL A   1      40.552  30.543  30.451  1.00  0.00     0.167 HD
ATOM     41  C   UNL A   1      44.665  29.388  31.401  1.00  0.00     0.037 A 
ATOM     42  C   UNL A   1      38.293  32.179  30.613  1.00  0.00     0.037 A 
ATOM     43  C   UNL A   1      44.500  30.701  31.971  1.00  0.00     0.049 A 
ATOM     44  C   UNL A   1      39.379  32.882  31.383  1.00  0.00     0.074 A 
ATOM     45  C   UNL A   1      45.437  31.480  32.625  1.00  0.00     0.029 A 
ATOM     46  N   UNL A   1      43.315  31.424  31.960  1.00  0.00    -0.354 N 
ATOM     47  N   UNL A   1      40.621  32.515  31.589  1.00  0.00    -0.248 NA
ATOM     48  C   UNL A   1      39.027  34.170  31.996  1.00  0.00     0.031 C 
ATOM     49  C   UNL A   1      44.805  32.648  33.064  1.00  0.00     0.029 A 
ATOM     50  C   UNL A   1      43.492  32.627  32.624  1.00  0.00     0.049 A 
ATOM     51  H   UNL A   1      42.475  31.125  31.542  1.00  0.00     0.167 HD
ATOM     52  C   UNL A   1      41.205  33.538  32.323  1.00  0.00     0.074 A 
ATOM     53  C   UNL A   1      40.187  34.548  32.513  1.00  0.00     0.031 C 
ATOM     54  C   UNL A   1      42.471  33.631  32.797  1.00  0.00     0.037 A 
BRANCH  41  55
ATOM     55  C   UNL A   1      45.993  28.706  31.569  1.00  0.00     0.064 A 
ATOM     56  C   UNL A   1      46.268  27.888  32.676  1.00  0.00     0.173 A 
ATOM     57  C   UNL A   1      46.987  28.834  30.587  1.00  0.00     0.173 A 
ATOM     58  F   UNL A   1      45.356  27.738  33.649  1.00  0.00    -0.203 F 
ATOM     59  C   UNL A   1      47.497  27.248  32.808  1.00  0.00     0.198 A 
ATOM     60  C   UNL A   1      48.203  28.165  30.705  1.00  0.00     0.198 A 
ATOM     61  F   UNL A   1      46.776  29.598  29.505  1.00  0.00    -0.203 F 
ATOM     62  F   UNL A   1      47.755  26.512  33.898  1.00  0.00    -0.200 F 
ATOM     63  C   UNL A   1      48.461  27.380  31.819  1.00  0.00     0.200 A 
ATOM     64  F   UNL A   1      49.126  28.281  29.741  1.00  0.00    -0.200 F 
ATOM     65  F   UNL A   1      49.639  26.754  31.941  1.00  0.00    -0.200 F 
ENDBRANCH  41  55
BRANCH  42  66
ATOM     66  C   UNL A   1      36.941  32.784  30.482  1.00  0.00     0.064 A 
ATOM     67  C   UNL A   1      36.598  33.543  29.354  1.00  0.00     0.173 A 
ATOM     68  C   UNL A   1      35.972  32.638  31.486  1.00  0.00     0.173 A 
ATOM     69  F   UNL A   1      37.495  33.731  28.376  1.00  0.00    -0.203 F 
ATOM     70  C   UNL A   1      35.350  34.156  29.249  1.00  0.00     0.198 A 
ATOM     71  C   UNL A   1      34.713  33.222  31.365  1.00  0.00     0.198 A 
ATOM     72  F   UNL A   1      36.246  31.918  32.584  1.00  0.00    -0.203 F 
ATOM     73  F   UNL A   1      35.071  34.923  28.187  1.00  0.00    -0.200 F 
ATOM     74  C   UNL A   1      34.407  33.990  30.252  1.00  0.00     0.200 A 
ATOM     75  F   UNL A   1      33.799  33.045  32.329  1.00  0.00    -0.200 F 
ATOM     76  F   UNL A   1      33.207  34.578  30.150  1.00  0.00    -0.200 F 
ENDBRANCH  42  66
BRANCH  54  77
ATOM     77  C   UNL A   1      42.844  34.889  33.530  1.00  0.00     0.064 A 
ATOM     78  C   UNL A   1      43.294  36.034  32.856  1.00  0.00     0.173 A 
ATOM     79  C   UNL A   1      42.711  34.960  34.926  1.00  0.00     0.173 A 
ATOM     80  F   UNL A   1      43.453  36.015  31.525  1.00  0.00    -0.203 F 
ATOM     81  C   UNL A   1      43.626  37.192  33.555  1.00  0.00     0.198 A 
ATOM     82  C   UNL A   1      43.009  36.131  35.617  1.00  0.00     0.198 A 
ATOM     83  F   UNL A   1      42.277  33.897  35.620  1.00  0.00    -0.203 F 
ATOM     84  F   UNL A   1      44.105  38.256  32.895  1.00  0.00    -0.200 F 
ATOM     85  C   UNL A   1      43.475  37.242  34.933  1.00  0.00     0.200 A 
ATOM     86  F   UNL A   1      42.845  36.183  36.947  1.00  0.00    -0.200 F 
ATOM     87  F   UNL A   1      43.785  38.361  35.602  1.00  0.00    -0.200 F 
ENDBRANCH  54  77
ENDBRANCH  28  29
ENDBRANCH  20  23
ENDBRANCH  18  19
ENDBRANCH   1  18
TORSDOF 12
ENDMDL
MODEL 3
REMARK VINA RESULT:     -10.9      3.736     11.442
REMARK SMILES O=C(C[NH+]1CC2(CCCC2)C1)NCCCCNC(=O)c1ccc(-c2c3nc(c(-c4c(F)c(F)c(F)c(F)c4F)c4ccc([nH]4)c(-c4c(F)c(F)c(F)c(F)c4F)c4nc(c(-c5c(F)c(F)c(F)c(F)c5F)c5ccc2[nH]5)C=C4)C=C3)cc1
REMARK SMILES IDX 15 1 14 2 13 3 12 4 1 5 2 6 3 8 4 9 5 10 11 11 6 13 7 14
REMARK SMILES IDX 10 15 8 16 9 17 16 18 17 19 18 20 19 22 20 23 21 24 82 25
REMARK SMILES IDX 22 26 81 27 23 28 24 29 25 30 75 31 26 32 80 33 74 34 76 35
REMARK SMILES IDX 27 36 79 37 73 38 72 39 28 41 60 42 40 43 59 44 41 45 44 46
REMARK SMILES IDX 58 47 77 48 42 49 43 50 57 52 78 53 45 54 29 55 30 56 38 57
REMARK SMILES IDX 31 58 32 59 36 60 39 61 33 62 34 63 37 64 35 65 61 66 62 67
REMARK SMILES IDX 70 68 63 69 64 70 68 71 71 72 65 73 66 74 69 75 67 76 46 77
REMARK SMILES IDX 47 78 55 79 48 80 49 81 53 82 56 83 50 84 51 85 54 86 52 87
REMARK H PARENT 12 7 4 12 17 21 76 40 44 51
REMARK Flexibility Score: inf
ROOT
ATOM      1  C   UNL A   1      34.028  33.499  29.053  1.00  0.00     0.023 C 
ENDROOT
BRANCH   1   2
ATOM      2  C   UNL A   1      33.271  34.647  28.379  1.00  0.00     0.023 C 
BRANCH   2   3
ATOM      3  C   UNL A   1      33.226  35.941  29.194  1.00  0.00     0.116 C 
BRANCH   3   4
ATOM      4  N   UNL A   1      33.933  35.799  30.447  1.00  0.00    -0.351 N 
ATOM      5  O   UNL A   1      32.153  36.453  31.729  1.00  0.00    -0.269 OA
ATOM      6  C   UNL A   1      33.336  36.133  31.639  1.00  0.00     0.275 C 
ATOM      7  H   UNL A   1      34.856  35.458  30.447  1.00  0.00     0.163 HD
BRANCH   6   8
ATOM      8  C   UNL A   1      34.277  36.196  32.829  1.00  0.00     0.363 C 
BRANCH   8   9
ATOM      9  N   UNL A   1      34.218  35.042  33.758  1.00  0.00    -0.326 N 
ATOM     10  C   UNL A   1      35.506  34.578  34.344  1.00  0.00     0.275 C 
ATOM     11  C   UNL A   1      34.216  33.814  32.915  1.00  0.00     0.275 C 
ATOM     12  H   UNL A   1      33.485  35.332  34.406  1.00  0.00     0.348 HD
ATOM     13  C   UNL A   1      35.766  33.686  33.105  1.00  0.00     0.068 C 
ATOM     14  C   UNL A   1      36.159  32.202  33.183  1.00  0.00     0.019 C 
ATOM     15  C   UNL A   1      36.814  34.324  32.188  1.00  0.00     0.019 C 
ATOM     16  C   UNL A   1      37.162  31.983  32.040  1.00  0.00     0.001 C 
ATOM     17  C   UNL A   1      37.103  33.235  31.181  1.00  0.00     0.001 C 
ENDBRANCH   8   9
ENDBRANCH   6   8
ENDBRANCH   3   4
ENDBRANCH   2   3
ENDBRANCH   1   2
BRANCH   1  18
ATOM     18  C   UNL A   1      34.755  32.561  28.100  1.00  0.00     0.116 C 
BRANCH  18  19
ATOM     19  N   UNL A   1      34.070  31.288  27.932  1.00  0.00    -0.352 N 
ATOM     20  C   UNL A   1      34.591  30.019  27.933  1.00  0.00     0.251 C 
ATOM     21  H   UNL A   1      33.097  31.347  27.798  1.00  0.00     0.163 HD
ATOM     22  O   UNL A   1      33.885  29.060  27.626  1.00  0.00    -0.269 OA
BRANCH  20  23
ATOM     23  C   UNL A   1      36.013  29.805  28.271  1.00  0.00     0.039 A 
ATOM     24  C   UNL A   1      36.337  29.328  29.544  1.00  0.00     0.014 A 
ATOM     25  C   UNL A   1      37.022  30.060  27.338  1.00  0.00     0.014 A 
ATOM     26  C   UNL A   1      37.667  29.046  29.858  1.00  0.00     0.010 A 
ATOM     27  C   UNL A   1      38.337  29.703  27.626  1.00  0.00     0.010 A 
ATOM     28  C   UNL A   1      38.674  29.193  28.889  1.00  0.00    -0.014 A 
BRANCH  28  29
ATOM     29  C   UNL A   1      40.080  28.811  29.179  1.00  0.00     0.031 A 
ATOM     30  C   UNL A   1      40.984  29.756  29.924  1.00  0.00     0.074 A 
ATOM     31  C   UNL A   1      40.561  27.639  28.720  1.00  0.00     0.049 A 
ATOM     32  N   UNL A   1      42.254  29.627  30.218  1.00  0.00    -0.248 NA
ATOM     33  C   UNL A   1      40.389  31.022  30.377  1.00  0.00     0.031 C 
ATOM     34  C   UNL A   1      39.799  26.657  27.948  1.00  0.00     0.029 A 
ATOM     35  N   UNL A   1      41.811  27.079  28.828  1.00  0.00    -0.354 N 
ATOM     36  C   UNL A   1      42.609  30.798  30.878  1.00  0.00     0.074 A 
ATOM     37  C   UNL A   1      41.438  31.647  30.890  1.00  0.00     0.031 C 
ATOM     38  C   UNL A   1      40.586  25.605  27.675  1.00  0.00     0.029 A 
ATOM     39  C   UNL A   1      41.921  25.855  28.211  1.00  0.00     0.049 A 
ATOM     40  H   UNL A   1      42.556  27.512  29.303  1.00  0.00     0.167 HD
ATOM     41  C   UNL A   1      43.797  31.123  31.440  1.00  0.00     0.037 A 
ATOM     42  C   UNL A   1      42.981  25.034  28.083  1.00  0.00     0.037 A 
ATOM     43  C   UNL A   1      44.955  30.266  31.442  1.00  0.00     0.049 A 
ATOM     44  C   UNL A   1      44.296  25.434  28.697  1.00  0.00     0.074 A 
ATOM     45  C   UNL A   1      46.185  30.481  32.037  1.00  0.00     0.029 A 
ATOM     46  N   UNL A   1      45.026  29.033  30.811  1.00  0.00    -0.354 N 
ATOM     47  N   UNL A   1      44.600  26.509  29.383  1.00  0.00    -0.248 NA
ATOM     48  C   UNL A   1      45.417  24.497  28.527  1.00  0.00     0.031 C 
ATOM     49  C   UNL A   1      47.021  29.407  31.716  1.00  0.00     0.029 A 
ATOM     50  C   UNL A   1      46.291  28.490  30.977  1.00  0.00     0.049 A 
ATOM     51  H   UNL A   1      44.287  28.607  30.319  1.00  0.00     0.167 HD
ATOM     52  C   UNL A   1      45.930  26.365  29.752  1.00  0.00     0.074 A 
ATOM     53  C   UNL A   1      46.372  25.090  29.229  1.00  0.00     0.031 C 
ATOM     54  C   UNL A   1      46.715  27.213  30.461  1.00  0.00     0.037 A 
BRANCH  41  55
ATOM     55  C   UNL A   1      43.910  32.467  32.103  1.00  0.00     0.064 A 
ATOM     56  C   UNL A   1      44.317  33.608  31.394  1.00  0.00     0.173 A 
ATOM     57  C   UNL A   1      43.563  32.625  33.453  1.00  0.00     0.173 A 
ATOM     58  F   UNL A   1      44.669  33.512  30.103  1.00  0.00    -0.203 F 
ATOM     59  C   UNL A   1      44.398  34.850  32.019  1.00  0.00     0.198 A 
ATOM     60  C   UNL A   1      43.613  33.874  34.066  1.00  0.00     0.198 A 
ATOM     61  F   UNL A   1      43.161  31.569  34.177  1.00  0.00    -0.203 F 
ATOM     62  F   UNL A   1      44.838  35.915  31.334  1.00  0.00    -0.200 F 
ATOM     63  C   UNL A   1      44.039  34.984  33.352  1.00  0.00     0.200 A 
ATOM     64  F   UNL A   1      43.249  34.005  35.349  1.00  0.00    -0.200 F 
ATOM     65  F   UNL A   1      44.107  36.181  33.949  1.00  0.00    -0.200 F 
ENDBRANCH  41  55
BRANCH  42  66
ATOM     66  C   UNL A   1      42.843  23.745  27.354  1.00  0.00     0.064 A 
ATOM     67  C   UNL A   1      42.361  22.599  28.003  1.00  0.00     0.173 A 
ATOM     68  C   UNL A   1      43.208  23.623  26.006  1.00  0.00     0.173 A 
ATOM     69  F   UNL A   1      42.019  22.658  29.298  1.00  0.00    -0.203 F 
ATOM     70  C   UNL A   1      42.278  21.376  27.340  1.00  0.00     0.198 A 
ATOM     71  C   UNL A   1      43.093  22.408  25.334  1.00  0.00     0.198 A 
ATOM     72  F   UNL A   1      43.670  24.689  25.336  1.00  0.00    -0.203 F 
ATOM     73  F   UNL A   1      41.869  20.285  28.001  1.00  0.00    -0.200 F 
ATOM     74  C   UNL A   1      42.638  21.283  26.004  1.00  0.00     0.200 A 
ATOM     75  F   UNL A   1      43.426  22.327  24.038  1.00  0.00    -0.200 F 
ATOM     76  F   UNL A   1      42.557  20.107  25.367  1.00  0.00    -0.200 F 
ENDBRANCH  42  66
BRANCH  54  77
ATOM     77  C   UNL A   1      48.121  26.772  30.753  1.00  0.00     0.064 A 
ATOM     78  C   UNL A   1      48.428  25.951  31.848  1.00  0.00     0.173 A 
ATOM     79  C   UNL A   1      49.172  27.146  29.900  1.00  0.00     0.173 A 
ATOM     80  F   UNL A   1      47.464  25.577  32.702  1.00  0.00    -0.203 F 
ATOM     81  C   UNL A   1      49.738  25.547  32.095  1.00  0.00     0.198 A 
ATOM     82  C   UNL A   1      50.474  26.710  30.130  1.00  0.00     0.198 A 
ATOM     83  F   UNL A   1      48.934  27.923  28.833  1.00  0.00    -0.203 F 
ATOM     84  F   UNL A   1      50.015  24.807  33.179  1.00  0.00    -0.200 F 
ATOM     85  C   UNL A   1      50.757  25.919  31.232  1.00  0.00     0.200 A 
ATOM     86  F   UNL A   1      51.454  27.056  29.284  1.00  0.00    -0.200 F 
ATOM     87  F   UNL A   1      52.015  25.520  31.466  1.00  0.00    -0.200 F 
ENDBRANCH  54  77
ENDBRANCH  28  29
ENDBRANCH  20  23
ENDBRANCH  18  19
ENDBRANCH   1  18
TORSDOF 12
ENDMDL
