MODEL 1
REMARK VINA RESULT:     -12.9      0.000      0.000
REMARK SMILES O=C(CCc1nc(-c2ccccc2)c(-c2ccccc2)o1)NCCCCNC(=O)c1ccc(-c2c3nc(c(-c4c(F)c(F)c(F)c(F)c4F)c4ccc([nH]4)c(-c4c(F)c(F)c(F)c(F)c4F)c4nc(c(-c5c(F)c(F)c(F)c(F)c5F)c5ccc2[nH]5)C=C4)C=C3)cc1
REMARK SMILES IDX 24 1 23 2 22 3 1 4 2 5 3 7 4 8 5 9 6 10 21 11 7 12 14 13
REMARK SMILES IDX 8 14 9 15 13 16 10 17 12 18 11 19 15 20 16 21 20 22 17 23
REMARK SMILES IDX 19 24 18 25 25 26 26 27 27 28 28 29 29 31 30 32 31 33 92 34
REMARK SMILES IDX 32 35 91 36 33 37 34 38 35 39 85 40 36 41 90 42 84 43 86 44
REMARK SMILES IDX 37 45 89 46 83 47 82 48 38 50 70 51 50 52 69 53 51 54 54 55
REMARK SMILES IDX 68 56 87 57 52 58 53 59 67 61 88 62 55 63 39 64 40 65 48 66
REMARK SMILES IDX 41 67 42 68 46 69 49 70 43 71 44 72 47 73 45 74 71 75 72 76
REMARK SMILES IDX 80 77 73 78 74 79 78 80 81 81 75 82 76 83 79 84 77 85 56 86
REMARK SMILES IDX 57 87 65 88 58 89 59 90 63 91 66 92 60 93 61 94 64 95 62 96
REMARK H PARENT 22 6 27 30 86 49 54 60
REMARK Flexibility Score: inf
ROOT
ATOM      1  C   UNL A   1      35.521  21.836  26.247  1.00  0.00     0.023 C 
ENDROOT
BRANCH   1   2
ATOM      2  C   UNL A   1      35.344  23.211  25.575  1.00  0.00     0.116 C 
BRANCH   2   3
ATOM      3  N   UNL A   1      34.241  23.322  24.623  1.00  0.00    -0.356 N 
ATOM      4  O   UNL A   1      35.608  23.313  22.775  1.00  0.00    -0.275 OA
ATOM      5  C   UNL A   1      34.473  23.335  23.259  1.00  0.00     0.220 C 
ATOM      6  H   UNL A   1      33.318  23.388  24.957  1.00  0.00     0.163 HD
BRANCH   5   7
ATOM      7  C   UNL A   1      33.255  23.375  22.343  1.00  0.00     0.110 C 
BRANCH   7   8
ATOM      8  C   UNL A   1      31.950  23.677  23.096  1.00  0.00     0.107 C 
BRANCH   8   9
ATOM      9  C   UNL A   1      31.619  25.129  23.124  1.00  0.00     0.196 A 
ATOM     10  N   UNL A   1      30.655  25.811  22.520  1.00  0.00    -0.213 NA
ATOM     11  O   UNL A   1      32.389  25.867  23.974  1.00  0.00    -0.440 OA
ATOM     12  C   UNL A   1      30.798  27.093  23.017  1.00  0.00     0.117 A 
ATOM     13  C   UNL A   1      31.827  27.090  23.939  1.00  0.00     0.162 A 
BRANCH  12  14
ATOM     14  C   UNL A   1      29.885  28.226  22.864  1.00  0.00     0.004 A 
ATOM     15  C   UNL A   1      28.516  28.072  23.168  1.00  0.00     0.010 A 
ATOM     16  C   UNL A   1      30.293  29.399  22.222  1.00  0.00     0.010 A 
ATOM     17  C   UNL A   1      27.569  29.010  22.752  1.00  0.00     0.001 A 
ATOM     18  C   UNL A   1      29.343  30.355  21.830  1.00  0.00     0.001 A 
ATOM     19  C   UNL A   1      27.984  30.150  22.073  1.00  0.00     0.000 A 
ENDBRANCH  12  14
BRANCH  13  20
ATOM     20  C   UNL A   1      32.177  27.947  25.033  1.00  0.00     0.020 A 
ATOM     21  C   UNL A   1      33.033  29.044  24.927  1.00  0.00     0.012 A 
ATOM     22  C   UNL A   1      31.589  27.631  26.249  1.00  0.00     0.012 A 
ATOM     23  C   UNL A   1      33.278  29.839  26.049  1.00  0.00     0.001 A 
ATOM     24  C   UNL A   1      31.787  28.460  27.320  1.00  0.00     0.001 A 
ATOM     25  C   UNL A   1      32.647  29.544  27.252  1.00  0.00     0.000 A 
ENDBRANCH  13  20
ENDBRANCH   8   9
ENDBRANCH   7   8
ENDBRANCH   5   7
ENDBRANCH   2   3
ENDBRANCH   1   2
BRANCH   1  26
ATOM     26  C   UNL A   1      36.050  20.682  25.366  1.00  0.00     0.023 C 
BRANCH  26  27
ATOM     27  C   UNL A   1      37.411  20.893  24.662  1.00  0.00     0.116 C 
BRANCH  27  28
ATOM     28  N   UNL A   1      38.528  20.171  25.275  1.00  0.00    -0.352 N 
ATOM     29  C   UNL A   1      39.564  20.514  26.122  1.00  0.00     0.251 C 
ATOM     30  H   UNL A   1      38.544  19.219  25.026  1.00  0.00     0.163 HD
ATOM     31  O   UNL A   1      40.311  19.612  26.511  1.00  0.00    -0.269 OA
BRANCH  29  32
ATOM     32  C   UNL A   1      39.902  21.898  26.554  1.00  0.00     0.039 A 
ATOM     33  C   UNL A   1      40.923  22.067  27.501  1.00  0.00     0.014 A 
ATOM     34  C   UNL A   1      39.184  23.028  26.185  1.00  0.00     0.014 A 
ATOM     35  C   UNL A   1      41.316  23.350  27.951  1.00  0.00     0.010 A 
ATOM     36  C   UNL A   1      39.631  24.320  26.590  1.00  0.00     0.010 A 
ATOM     37  C   UNL A   1      40.747  24.525  27.432  1.00  0.00    -0.014 A 
BRANCH  37  38
ATOM     38  C   UNL A   1      41.329  25.907  27.739  1.00  0.00     0.031 A 
ATOM     39  C   UNL A   1      42.721  26.319  27.269  1.00  0.00     0.074 A 
ATOM     40  C   UNL A   1      40.670  26.822  28.503  1.00  0.00     0.049 A 
ATOM     41  N   UNL A   1      43.393  27.429  27.505  1.00  0.00    -0.248 NA
ATOM     42  C   UNL A   1      43.479  25.343  26.480  1.00  0.00     0.031 C 
ATOM     43  C   UNL A   1      39.376  26.626  29.158  1.00  0.00     0.029 A 
ATOM     44  N   UNL A   1      41.004  28.120  28.867  1.00  0.00    -0.354 N 
ATOM     45  C   UNL A   1      44.649  27.251  26.932  1.00  0.00     0.074 A 
ATOM     46  C   UNL A   1      44.681  25.895  26.432  1.00  0.00     0.031 C 
ATOM     47  C   UNL A   1      39.005  27.755  29.784  1.00  0.00     0.029 A 
ATOM     48  C   UNL A   1      40.044  28.767  29.619  1.00  0.00     0.049 A 
ATOM     49  H   UNL A   1      41.855  28.543  28.610  1.00  0.00     0.167 HD
ATOM     50  C   UNL A   1      45.671  28.132  26.764  1.00  0.00     0.037 A 
ATOM     51  C   UNL A   1      39.979  30.022  30.120  1.00  0.00     0.037 A 
ATOM     52  C   UNL A   1      45.654  29.516  27.160  1.00  0.00     0.049 A 
ATOM     53  C   UNL A   1      41.103  31.004  29.886  1.00  0.00     0.074 A 
ATOM     54  C   UNL A   1      46.613  30.490  26.925  1.00  0.00     0.029 A 
ATOM     55  N   UNL A   1      44.630  30.131  27.858  1.00  0.00    -0.354 N 
ATOM     56  N   UNL A   1      42.229  30.837  29.240  1.00  0.00    -0.248 NA
ATOM     57  C   UNL A   1      40.939  32.358  30.446  1.00  0.00     0.031 C 
ATOM     58  C   UNL A   1      46.188  31.683  27.518  1.00  0.00     0.029 A 
ATOM     59  C   UNL A   1      44.941  31.466  28.075  1.00  0.00     0.049 A 
ATOM     60  H   UNL A   1      43.803  29.687  28.157  1.00  0.00     0.167 HD
ATOM     61  C   UNL A   1      42.880  32.065  29.280  1.00  0.00     0.074 A 
ATOM     62  C   UNL A   1      42.023  32.977  30.001  1.00  0.00     0.031 C 
ATOM     63  C   UNL A   1      44.087  32.398  28.762  1.00  0.00     0.037 A 
BRANCH  50  64
ATOM     64  C   UNL A   1      46.905  27.631  26.061  1.00  0.00     0.064 A 
ATOM     65  C   UNL A   1      47.032  27.702  24.663  1.00  0.00     0.173 A 
ATOM     66  C   UNL A   1      47.987  27.110  26.787  1.00  0.00     0.173 A 
ATOM     67  F   UNL A   1      46.030  28.195  23.920  1.00  0.00    -0.203 F 
ATOM     68  C   UNL A   1      48.165  27.216  24.019  1.00  0.00     0.198 A 
ATOM     69  C   UNL A   1      49.137  26.664  26.142  1.00  0.00     0.198 A 
ATOM     70  F   UNL A   1      47.933  27.040  28.127  1.00  0.00    -0.203 F 
ATOM     71  F   UNL A   1      48.225  27.223  22.680  1.00  0.00    -0.200 F 
ATOM     72  C   UNL A   1      49.219  26.701  24.758  1.00  0.00     0.200 A 
ATOM     73  F   UNL A   1      50.166  26.190  26.858  1.00  0.00    -0.200 F 
ATOM     74  F   UNL A   1      50.310  26.235  24.135  1.00  0.00    -0.200 F 
ENDBRANCH  50  64
BRANCH  51  75
ATOM     75  C   UNL A   1      38.773  30.477  30.878  1.00  0.00     0.064 A 
ATOM     76  C   UNL A   1      37.668  31.030  30.209  1.00  0.00     0.173 A 
ATOM     77  C   UNL A   1      38.724  30.437  32.278  1.00  0.00     0.173 A 
ATOM     78  F   UNL A   1      37.676  31.125  28.870  1.00  0.00    -0.203 F 
ATOM     79  C   UNL A   1      36.582  31.554  30.910  1.00  0.00     0.198 A 
ATOM     80  C   UNL A   1      37.624  30.931  32.978  1.00  0.00     0.198 A 
ATOM     81  F   UNL A   1      39.752  29.925  32.971  1.00  0.00    -0.203 F 
ATOM     82  F   UNL A   1      35.577  32.140  30.245  1.00  0.00    -0.200 F 
ATOM     83  C   UNL A   1      36.560  31.501  32.295  1.00  0.00     0.200 A 
ATOM     84  F   UNL A   1      37.600  30.870  34.316  1.00  0.00    -0.200 F 
ATOM     85  F   UNL A   1      35.520  32.011  32.970  1.00  0.00    -0.200 F 
ENDBRANCH  51  75
BRANCH  63  86
ATOM     86  C   UNL A   1      44.550  33.824  28.888  1.00  0.00     0.064 A 
ATOM     87  C   UNL A   1      44.226  34.798  27.932  1.00  0.00     0.173 A 
ATOM     88  C   UNL A   1      45.279  34.235  30.016  1.00  0.00     0.173 A 
ATOM     89  F   UNL A   1      43.542  34.460  26.828  1.00  0.00    -0.203 F 
ATOM     90  C   UNL A   1      44.629  36.123  28.091  1.00  0.00     0.198 A 
ATOM     91  C   UNL A   1      45.653  35.565  30.187  1.00  0.00     0.198 A 
ATOM     92  F   UNL A   1      45.612  33.347  30.965  1.00  0.00    -0.203 F 
ATOM     93  F   UNL A   1      44.342  37.027  27.144  1.00  0.00    -0.200 F 
ATOM     94  C   UNL A   1      45.334  36.507  29.223  1.00  0.00     0.200 A 
ATOM     95  F   UNL A   1      46.320  35.936  31.289  1.00  0.00    -0.200 F 
ATOM     96  F   UNL A   1      45.708  37.785  29.380  1.00  0.00    -0.200 F 
ENDBRANCH  63  86
ENDBRANCH  37  38
ENDBRANCH  29  32
ENDBRANCH  27  28
ENDBRANCH  26  27
ENDBRANCH   1  26
TORSDOF 15
ENDMDL
MODEL 2
REMARK VINA RESULT:     -12.6      4.211     10.157
REMARK SMILES O=C(CCc1nc(-c2ccccc2)c(-c2ccccc2)o1)NCCCCNC(=O)c1ccc(-c2c3nc(c(-c4c(F)c(F)c(F)c(F)c4F)c4ccc([nH]4)c(-c4c(F)c(F)c(F)c(F)c4F)c4nc(c(-c5c(F)c(F)c(F)c(F)c5F)c5ccc2[nH]5)C=C4)C=C3)cc1
REMARK SMILES IDX 24 1 23 2 22 3 1 4 2 5 3 7 4 8 5 9 6 10 21 11 7 12 14 13
REMARK SMILES IDX 8 14 9 15 13 16 10 17 12 18 11 19 15 20 16 21 20 22 17 23
REMARK SMILES IDX 19 24 18 25 25 26 26 27 27 28 28 29 29 31 30 32 31 33 92 34
REMARK SMILES IDX 32 35 91 36 33 37 34 38 35 39 85 40 36 41 90 42 84 43 86 44
REMARK SMILES IDX 37 45 89 46 83 47 82 48 38 50 70 51 50 52 69 53 51 54 54 55
REMARK SMILES IDX 68 56 87 57 52 58 53 59 67 61 88 62 55 63 39 64 40 65 48 66
REMARK SMILES IDX 41 67 42 68 46 69 49 70 43 71 44 72 47 73 45 74 71 75 72 76
REMARK SMILES IDX 80 77 73 78 74 79 78 80 81 81 75 82 76 83 79 84 77 85 56 86
REMARK SMILES IDX 57 87 65 88 58 89 59 90 63 91 66 92 60 93 61 94 64 95 62 96
REMARK H PARENT 22 6 27 30 86 49 54 60
REMARK Flexibility Score: inf
ROOT
ATOM      1  C   UNL A   1      33.179  28.609  25.125  1.00  0.00     0.023 C 
ENDROOT
BRANCH   1   2
ATOM      2  C   UNL A   1      32.343  27.386  24.705  1.00  0.00     0.116 C 
BRANCH   2   3
ATOM      3  N   UNL A   1      32.235  26.314  25.692  1.00  0.00    -0.356 N 
ATOM      4  O   UNL A   1      30.071  25.779  25.130  1.00  0.00    -0.275 OA
ATOM      5  C   UNL A   1      31.081  25.558  25.805  1.00  0.00     0.220 C 
ATOM      6  H   UNL A   1      32.996  26.125  26.287  1.00  0.00     0.163 HD
BRANCH   5   7
ATOM      7  C   UNL A   1      31.091  24.413  26.810  1.00  0.00     0.110 C 
BRANCH   7   8
ATOM      8  C   UNL A   1      30.490  23.116  26.246  1.00  0.00     0.107 C 
BRANCH   8   9
ATOM      9  C   UNL A   1      31.526  22.130  25.831  1.00  0.00     0.196 A 
ATOM     10  N   UNL A   1      31.410  20.939  25.260  1.00  0.00    -0.213 NA
ATOM     11  O   UNL A   1      32.811  22.556  25.996  1.00  0.00    -0.440 OA
ATOM     12  C   UNL A   1      32.718  20.558  25.025  1.00  0.00     0.117 A 
ATOM     13  C   UNL A   1      33.550  21.582  25.434  1.00  0.00     0.162 A 
BRANCH  12  14
ATOM     14  C   UNL A   1      33.199  19.427  24.229  1.00  0.00     0.004 A 
ATOM     15  C   UNL A   1      32.426  18.946  23.151  1.00  0.00     0.010 A 
ATOM     16  C   UNL A   1      34.302  18.673  24.641  1.00  0.00     0.010 A 
ATOM     17  C   UNL A   1      32.683  17.703  22.570  1.00  0.00     0.001 A 
ATOM     18  C   UNL A   1      34.576  17.437  24.036  1.00  0.00     0.001 A 
ATOM     19  C   UNL A   1      33.756  16.943  23.020  1.00  0.00     0.000 A 
ENDBRANCH  12  14
BRANCH  13  20
ATOM     20  C   UNL A   1      34.894  21.956  25.106  1.00  0.00     0.020 A 
ATOM     21  C   UNL A   1      36.004  21.670  25.902  1.00  0.00     0.012 A 
ATOM     22  C   UNL A   1      35.047  22.629  23.903  1.00  0.00     0.012 A 
ATOM     23  C   UNL A   1      37.278  22.046  25.469  1.00  0.00     0.001 A 
ATOM     24  C   UNL A   1      36.309  22.929  23.464  1.00  0.00     0.001 A 
ATOM     25  C   UNL A   1      37.429  22.678  24.241  1.00  0.00     0.000 A 
ENDBRANCH  13  20
ENDBRANCH   8   9
ENDBRANCH   7   8
ENDBRANCH   5   7
ENDBRANCH   2   3
ENDBRANCH   1   2
BRANCH   1  26
ATOM     26  C   UNL A   1      32.464  29.978  25.158  1.00  0.00     0.023 C 
BRANCH  26  27
ATOM     27  C   UNL A   1      31.753  30.376  26.472  1.00  0.00     0.116 C 
BRANCH  27  28
ATOM     28  N   UNL A   1      31.986  31.761  26.891  1.00  0.00    -0.352 N 
ATOM     29  C   UNL A   1      33.049  32.447  27.444  1.00  0.00     0.251 C 
ATOM     30  H   UNL A   1      31.202  32.336  26.743  1.00  0.00     0.163 HD
ATOM     31  O   UNL A   1      32.924  33.663  27.610  1.00  0.00    -0.269 OA
BRANCH  29  32
ATOM     32  C   UNL A   1      34.317  31.831  27.925  1.00  0.00     0.039 A 
ATOM     33  C   UNL A   1      35.416  32.671  28.158  1.00  0.00     0.014 A 
ATOM     34  C   UNL A   1      34.528  30.463  28.030  1.00  0.00     0.014 A 
ATOM     35  C   UNL A   1      36.650  32.166  28.632  1.00  0.00     0.010 A 
ATOM     36  C   UNL A   1      35.752  29.971  28.572  1.00  0.00     0.010 A 
ATOM     37  C   UNL A   1      36.825  30.809  28.950  1.00  0.00    -0.014 A 
BRANCH  37  38
ATOM     38  C   UNL A   1      38.072  30.305  29.680  1.00  0.00     0.031 A 
ATOM     39  C   UNL A   1      38.385  30.710  31.117  1.00  0.00     0.074 A 
ATOM     40  C   UNL A   1      39.007  29.524  29.071  1.00  0.00     0.049 A 
ATOM     41  N   UNL A   1      39.437  30.428  31.860  1.00  0.00    -0.248 NA
ATOM     42  C   UNL A   1      37.422  31.587  31.792  1.00  0.00     0.031 C 
ATOM     43  C   UNL A   1      38.992  29.092  27.673  1.00  0.00     0.029 A 
ATOM     44  N   UNL A   1      40.173  28.946  29.557  1.00  0.00    -0.354 N 
ATOM     45  C   UNL A   1      39.270  31.127  33.052  1.00  0.00     0.074 A 
ATOM     46  C   UNL A   1      38.074  31.925  32.892  1.00  0.00     0.031 C 
ATOM     47  C   UNL A   1      40.042  28.289  27.431  1.00  0.00     0.029 A 
ATOM     48  C   UNL A   1      40.846  28.162  28.642  1.00  0.00     0.049 A 
ATOM     49  H   UNL A   1      40.491  29.084  30.479  1.00  0.00     0.167 HD
ATOM     50  C   UNL A   1      39.987  31.081  34.206  1.00  0.00     0.037 A 
ATOM     51  C   UNL A   1      41.970  27.416  28.741  1.00  0.00     0.037 A 
ATOM     52  C   UNL A   1      41.128  30.237  34.447  1.00  0.00     0.049 A 
ATOM     53  C   UNL A   1      42.731  27.337  30.044  1.00  0.00     0.074 A 
ATOM     54  C   UNL A   1      41.836  30.062  35.627  1.00  0.00     0.029 A 
ATOM     55  N   UNL A   1      41.724  29.418  33.504  1.00  0.00    -0.354 N 
ATOM     56  N   UNL A   1      42.480  27.924  31.187  1.00  0.00    -0.248 NA
ATOM     57  C   UNL A   1      43.931  26.481  30.071  1.00  0.00     0.031 C 
ATOM     58  C   UNL A   1      42.885  29.170  35.387  1.00  0.00     0.029 A 
ATOM     59  C   UNL A   1      42.799  28.748  34.073  1.00  0.00     0.049 A 
ATOM     60  H   UNL A   1      41.430  29.324  32.569  1.00  0.00     0.167 HD
ATOM     61  C   UNL A   1      43.457  27.477  32.070  1.00  0.00     0.074 A 
ATOM     62  C   UNL A   1      44.301  26.561  31.341  1.00  0.00     0.031 C 
ATOM     63  C   UNL A   1      43.632  27.806  33.373  1.00  0.00     0.037 A 
BRANCH  50  64
ATOM     64  C   UNL A   1      39.519  31.948  35.345  1.00  0.00     0.064 A 
ATOM     65  C   UNL A   1      39.947  33.280  35.476  1.00  0.00     0.173 A 
ATOM     66  C   UNL A   1      38.608  31.461  36.294  1.00  0.00     0.173 A 
ATOM     67  F   UNL A   1      40.817  33.798  34.595  1.00  0.00    -0.203 F 
ATOM     68  C   UNL A   1      39.531  34.067  36.544  1.00  0.00     0.198 A 
ATOM     69  C   UNL A   1      38.158  32.267  37.337  1.00  0.00     0.198 A 
ATOM     70  F   UNL A   1      38.144  30.205  36.206  1.00  0.00    -0.203 F 
ATOM     71  F   UNL A   1      40.018  35.308  36.689  1.00  0.00    -0.200 F 
ATOM     72  C   UNL A   1      38.632  33.563  37.472  1.00  0.00     0.200 A 
ATOM     73  F   UNL A   1      37.271  31.786  38.219  1.00  0.00    -0.200 F 
ATOM     74  F   UNL A   1      38.230  34.324  38.499  1.00  0.00    -0.200 F 
ENDBRANCH  50  64
BRANCH  51  75
ATOM     75  C   UNL A   1      42.459  26.618  27.574  1.00  0.00     0.064 A 
ATOM     76  C   UNL A   1      41.999  25.308  27.355  1.00  0.00     0.173 A 
ATOM     77  C   UNL A   1      43.439  27.111  26.702  1.00  0.00     0.173 A 
ATOM     78  F   UNL A   1      41.088  24.772  28.182  1.00  0.00    -0.203 F 
ATOM     79  C   UNL A   1      42.524  24.516  26.334  1.00  0.00     0.198 A 
ATOM     80  C   UNL A   1      43.939  26.330  25.660  1.00  0.00     0.198 A 
ATOM     81  F   UNL A   1      43.918  28.352  26.866  1.00  0.00    -0.203 F 
ATOM     82  F   UNL A   1      42.117  23.246  26.197  1.00  0.00    -0.200 F 
ATOM     83  C   UNL A   1      43.491  25.029  25.485  1.00  0.00     0.200 A 
ATOM     84  F   UNL A   1      44.868  26.832  24.835  1.00  0.00    -0.200 F 
ATOM     85  F   UNL A   1      44.002  24.266  24.508  1.00  0.00    -0.200 F 
ENDBRANCH  51  75
BRANCH  63  86
ATOM     86  C   UNL A   1      44.740  27.135  34.137  1.00  0.00     0.064 A 
ATOM     87  C   UNL A   1      46.015  27.708  34.255  1.00  0.00     0.173 A 
ATOM     88  C   UNL A   1      44.503  25.928  34.814  1.00  0.00     0.173 A 
ATOM     89  F   UNL A   1      46.302  28.855  33.619  1.00  0.00    -0.203 F 
ATOM     90  C   UNL A   1      47.014  27.090  35.004  1.00  0.00     0.198 A 
ATOM     91  C   UNL A   1      45.495  25.328  35.588  1.00  0.00     0.198 A 
ATOM     92  F   UNL A   1      43.301  25.337  34.742  1.00  0.00    -0.203 F 
ATOM     93  F   UNL A   1      48.237  27.637  35.068  1.00  0.00    -0.200 F 
ATOM     94  C   UNL A   1      46.751  25.906  35.677  1.00  0.00     0.200 A 
ATOM     95  F   UNL A   1      45.232  24.193  36.249  1.00  0.00    -0.200 F 
ATOM     96  F   UNL A   1      47.709  25.321  36.409  1.00  0.00    -0.200 F 
ENDBRANCH  63  86
ENDBRANCH  37  38
ENDBRANCH  29  32
ENDBRANCH  27  28
ENDBRANCH  26  27
ENDBRANCH   1  26
TORSDOF 15
ENDMDL
MODEL 3
REMARK VINA RESULT:     -12.6      4.218      7.692
REMARK SMILES O=C(CCc1nc(-c2ccccc2)c(-c2ccccc2)o1)NCCCCNC(=O)c1ccc(-c2c3nc(c(-c4c(F)c(F)c(F)c(F)c4F)c4ccc([nH]4)c(-c4c(F)c(F)c(F)c(F)c4F)c4nc(c(-c5c(F)c(F)c(F)c(F)c5F)c5ccc2[nH]5)C=C4)C=C3)cc1
REMARK SMILES IDX 24 1 23 2 22 3 1 4 2 5 3 7 4 8 5 9 6 10 21 11 7 12 14 13
REMARK SMILES IDX 8 14 9 15 13 16 10 17 12 18 11 19 15 20 16 21 20 22 17 23
REMARK SMILES IDX 19 24 18 25 25 26 26 27 27 28 28 29 29 31 30 32 31 33 92 34
REMARK SMILES IDX 32 35 91 36 33 37 34 38 35 39 85 40 36 41 90 42 84 43 86 44
REMARK SMILES IDX 37 45 89 46 83 47 82 48 38 50 70 51 50 52 69 53 51 54 54 55
REMARK SMILES IDX 68 56 87 57 52 58 53 59 67 61 88 62 55 63 39 64 40 65 48 66
REMARK SMILES IDX 41 67 42 68 46 69 49 70 43 71 44 72 47 73 45 74 71 75 72 76
REMARK SMILES IDX 80 77 73 78 74 79 78 80 81 81 75 82 76 83 79 84 77 85 56 86
REMARK SMILES IDX 57 87 65 88 58 89 59 90 63 91 66 92 60 93 61 94 64 95 62 96
REMARK H PARENT 22 6 27 30 86 49 54 60
REMARK Flexibility Score: inf
ROOT
ATOM      1  C   UNL A   1      33.640  28.155  24.541  1.00  0.00     0.023 C 
ENDROOT
BRANCH   1   2
ATOM      2  C   UNL A   1      33.058  26.795  24.112  1.00  0.00     0.116 C 
BRANCH   2   3
ATOM      3  N   UNL A   1      32.754  25.859  25.193  1.00  0.00    -0.356 N 
ATOM      4  O   UNL A   1      30.504  26.331  25.202  1.00  0.00    -0.275 OA
ATOM      5  C   UNL A   1      31.457  25.680  25.641  1.00  0.00     0.220 C 
ATOM      6  H   UNL A   1      33.484  25.346  25.609  1.00  0.00     0.163 HD
BRANCH   5   7
ATOM      7  C   UNL A   1      31.229  24.626  26.718  1.00  0.00     0.110 C 
BRANCH   7   8
ATOM      8  C   UNL A   1      30.585  23.342  26.173  1.00  0.00     0.107 C 
BRANCH   8   9
ATOM      9  C   UNL A   1      31.588  22.320  25.764  1.00  0.00     0.196 A 
ATOM     10  N   UNL A   1      31.430  21.115  25.232  1.00  0.00    -0.213 NA
ATOM     11  O   UNL A   1      32.885  22.722  25.883  1.00  0.00    -0.440 OA
ATOM     12  C   UNL A   1      32.723  20.697  24.977  1.00  0.00     0.117 A 
ATOM     13  C   UNL A   1      33.588  21.714  25.334  1.00  0.00     0.162 A 
BRANCH  12  14
ATOM     14  C   UNL A   1      33.158  19.532  24.205  1.00  0.00     0.004 A 
ATOM     15  C   UNL A   1      32.390  19.089  23.108  1.00  0.00     0.010 A 
ATOM     16  C   UNL A   1      34.200  18.716  24.657  1.00  0.00     0.010 A 
ATOM     17  C   UNL A   1      32.588  17.827  22.544  1.00  0.00     0.001 A 
ATOM     18  C   UNL A   1      34.417  17.460  24.070  1.00  0.00     0.001 A 
ATOM     19  C   UNL A   1      33.599  17.007  23.033  1.00  0.00     0.000 A 
ENDBRANCH  12  14
BRANCH  13  20
ATOM     20  C   UNL A   1      34.931  22.046  24.961  1.00  0.00     0.020 A 
ATOM     21  C   UNL A   1      35.278  22.699  23.778  1.00  0.00     0.012 A 
ATOM     22  C   UNL A   1      35.909  21.687  25.878  1.00  0.00     0.012 A 
ATOM     23  C   UNL A   1      36.617  23.011  23.529  1.00  0.00     0.001 A 
ATOM     24  C   UNL A   1      37.206  22.061  25.648  1.00  0.00     0.001 A 
ATOM     25  C   UNL A   1      37.584  22.691  24.474  1.00  0.00     0.000 A 
ENDBRANCH  13  20
ENDBRANCH   8   9
ENDBRANCH   7   8
ENDBRANCH   5   7
ENDBRANCH   2   3
ENDBRANCH   1   2
BRANCH   1  26
ATOM     26  C   UNL A   1      32.677  29.363  24.555  1.00  0.00     0.023 C 
BRANCH  26  27
ATOM     27  C   UNL A   1      31.826  29.578  25.828  1.00  0.00     0.116 C 
BRANCH  27  28
ATOM     28  N   UNL A   1      31.807  30.958  26.318  1.00  0.00    -0.352 N 
ATOM     29  C   UNL A   1      32.691  31.757  27.015  1.00  0.00     0.251 C 
ATOM     30  H   UNL A   1      30.970  31.425  26.098  1.00  0.00     0.163 HD
ATOM     31  O   UNL A   1      32.373  32.935  27.207  1.00  0.00    -0.269 OA
BRANCH  29  32
ATOM     32  C   UNL A   1      33.973  31.302  27.622  1.00  0.00     0.039 A 
ATOM     33  C   UNL A   1      34.925  32.272  27.967  1.00  0.00     0.014 A 
ATOM     34  C   UNL A   1      34.346  29.970  27.745  1.00  0.00     0.014 A 
ATOM     35  C   UNL A   1      36.160  31.922  28.563  1.00  0.00     0.010 A 
ATOM     36  C   UNL A   1      35.562  29.631  28.408  1.00  0.00     0.010 A 
ATOM     37  C   UNL A   1      36.475  30.593  28.895  1.00  0.00    -0.014 A 
BRANCH  37  38
ATOM     38  C   UNL A   1      37.697  30.242  29.747  1.00  0.00     0.031 A 
ATOM     39  C   UNL A   1      38.803  29.326  29.234  1.00  0.00     0.074 A 
ATOM     40  C   UNL A   1      37.836  30.671  31.033  1.00  0.00     0.049 A 
ATOM     41  N   UNL A   1      39.873  28.871  29.854  1.00  0.00    -0.248 NA
ATOM     42  C   UNL A   1      38.666  28.809  27.868  1.00  0.00     0.031 C 
ATOM     43  C   UNL A   1      36.865  31.466  31.786  1.00  0.00     0.029 A 
ATOM     44  N   UNL A   1      38.864  30.493  31.949  1.00  0.00    -0.354 N 
ATOM     45  C   UNL A   1      40.493  27.994  28.969  1.00  0.00     0.074 A 
ATOM     46  C   UNL A   1      39.626  27.901  27.815  1.00  0.00     0.031 C 
ATOM     47  C   UNL A   1      37.356  31.750  33.005  1.00  0.00     0.029 A 
ATOM     48  C   UNL A   1      38.669  31.133  33.157  1.00  0.00     0.049 A 
ATOM     49  H   UNL A   1      39.665  29.956  31.753  1.00  0.00     0.167 HD
ATOM     50  C   UNL A   1      41.695  27.364  29.051  1.00  0.00     0.037 A 
ATOM     51  C   UNL A   1      39.439  31.233  34.265  1.00  0.00     0.037 A 
ATOM     52  C   UNL A   1      42.634  27.496  30.134  1.00  0.00     0.049 A 
ATOM     53  C   UNL A   1      40.794  30.566  34.324  1.00  0.00     0.074 A 
ATOM     54  C   UNL A   1      43.914  26.971  30.233  1.00  0.00     0.029 A 
ATOM     55  N   UNL A   1      42.409  28.209  31.300  1.00  0.00    -0.354 N 
ATOM     56  N   UNL A   1      41.398  29.836  33.422  1.00  0.00    -0.248 NA
ATOM     57  C   UNL A   1      41.578  30.747  35.560  1.00  0.00     0.031 C 
ATOM     58  C   UNL A   1      44.446  27.331  31.475  1.00  0.00     0.029 A 
ATOM     59  C   UNL A   1      43.520  28.124  32.127  1.00  0.00     0.049 A 
ATOM     60  H   UNL A   1      41.583  28.702  31.510  1.00  0.00     0.167 HD
ATOM     61  C   UNL A   1      42.639  29.511  33.960  1.00  0.00     0.074 A 
ATOM     62  C   UNL A   1      42.712  30.130  35.262  1.00  0.00     0.031 C 
ATOM     63  C   UNL A   1      43.626  28.760  33.413  1.00  0.00     0.037 A 
BRANCH  50  64
ATOM     64  C   UNL A   1      42.100  26.495  27.890  1.00  0.00     0.064 A 
ATOM     65  C   UNL A   1      41.618  25.182  27.753  1.00  0.00     0.173 A 
ATOM     66  C   UNL A   1      42.948  26.985  26.885  1.00  0.00     0.173 A 
ATOM     67  F   UNL A   1      40.802  24.664  28.684  1.00  0.00    -0.203 F 
ATOM     68  C   UNL A   1      42.016  24.377  26.692  1.00  0.00     0.198 A 
ATOM     69  C   UNL A   1      43.310  26.190  25.800  1.00  0.00     0.198 A 
ATOM     70  F   UNL A   1      43.421  28.240  26.949  1.00  0.00    -0.203 F 
ATOM     71  F   UNL A   1      41.604  23.104  26.629  1.00  0.00    -0.200 F 
ATOM     72  C   UNL A   1      42.858  24.882  25.712  1.00  0.00     0.200 A 
ATOM     73  F   UNL A   1      44.104  26.687  24.842  1.00  0.00    -0.200 F 
ATOM     74  F   UNL A   1      43.238  24.105  24.689  1.00  0.00    -0.200 F 
ENDBRANCH  50  64
BRANCH  51  75
ATOM     75  C   UNL A   1      38.985  32.043  35.437  1.00  0.00     0.064 A 
ATOM     76  C   UNL A   1      39.300  33.409  35.533  1.00  0.00     0.173 A 
ATOM     77  C   UNL A   1      38.296  31.463  36.511  1.00  0.00     0.173 A 
ATOM     78  F   UNL A   1      39.990  34.007  34.550  1.00  0.00    -0.203 F 
ATOM     79  C   UNL A   1      38.974  34.151  36.669  1.00  0.00     0.198 A 
ATOM     80  C   UNL A   1      37.941  32.214  37.632  1.00  0.00     0.198 A 
ATOM     81  F   UNL A   1      37.973  30.163  36.477  1.00  0.00    -0.203 F 
ATOM     82  F   UNL A   1      39.353  35.433  36.760  1.00  0.00    -0.200 F 
ATOM     83  C   UNL A   1      38.291  33.553  37.716  1.00  0.00     0.200 A 
ATOM     84  F   UNL A   1      37.272  31.636  38.639  1.00  0.00    -0.200 F 
ATOM     85  F   UNL A   1      37.984  34.263  38.811  1.00  0.00    -0.200 F 
ENDBRANCH  51  75
BRANCH  63  86
ATOM     86  C   UNL A   1      44.911  28.602  34.179  1.00  0.00     0.064 A 
ATOM     87  C   UNL A   1      45.121  27.537  35.067  1.00  0.00     0.173 A 
ATOM     88  C   UNL A   1      45.973  29.498  33.973  1.00  0.00     0.173 A 
ATOM     89  F   UNL A   1      44.138  26.657  35.311  1.00  0.00    -0.203 F 
ATOM     90  C   UNL A   1      46.336  27.386  35.733  1.00  0.00     0.198 A 
ATOM     91  C   UNL A   1      47.196  29.326  34.617  1.00  0.00     0.198 A 
ATOM     92  F   UNL A   1      45.831  30.532  33.131  1.00  0.00    -0.203 F 
ATOM     93  F   UNL A   1      46.498  26.382  36.608  1.00  0.00    -0.200 F 
ATOM     94  C   UNL A   1      47.375  28.274  35.501  1.00  0.00     0.200 A 
ATOM     95  F   UNL A   1      48.203  30.178  34.378  1.00  0.00    -0.200 F 
ATOM     96  F   UNL A   1      48.547  28.118  36.131  1.00  0.00    -0.200 F 
ENDBRANCH  63  86
ENDBRANCH  37  38
ENDBRANCH  29  32
ENDBRANCH  27  28
ENDBRANCH  26  27
ENDBRANCH   1  26
TORSDOF 15
ENDMDL
