MODEL 1
REMARK VINA RESULT:     -10.6      0.000      0.000
REMARK SMILES CCCCCC[C@@H](C)N1C[C@H](C(=O)NCCCCNC(=O)c2ccc(-c3c4nc(c(-c5c(F)c(F)c(F)c(F)c5F)c5ccc([nH]5)c(-c5c(F)c(F)c(F)c(F)c5F)c5nc(c(-c6c(F)c(F)c(F)c(F)c6F)c6ccc3[nH]6)C=C5)C=C4)cc2)CC1=O
REMARK SMILES IDX 12 1 13 2 14 3 11 5 9 6 10 7 86 8 85 9 87 10 7 11 8 12 6 13
REMARK SMILES IDX 5 14 4 15 3 16 2 17 1 18 15 19 16 20 17 21 18 22 19 23 20 24
REMARK SMILES IDX 21 26 22 27 23 28 84 29 24 30 83 31 25 32 26 33 27 34 77 35
REMARK SMILES IDX 28 36 82 37 76 38 78 39 29 40 81 41 75 42 74 43 30 45 62 46
REMARK SMILES IDX 42 47 61 48 43 49 46 50 60 51 79 52 44 53 45 54 59 56 80 57
REMARK SMILES IDX 47 58 31 59 32 60 40 61 33 62 34 63 38 64 41 65 35 66 36 67
REMARK SMILES IDX 39 68 37 69 63 70 64 71 72 72 65 73 66 74 70 75 73 76 67 77
REMARK SMILES IDX 68 78 71 79 69 80 48 81 49 82 57 83 50 84 51 85 55 86 58 87
REMARK SMILES IDX 52 88 53 89 56 90 54 91
REMARK H PARENT 14 4 19 25 78 44 46 55
REMARK Flexibility Score: inf
ROOT
ATOM      1  C   UNL A   1      34.726  22.634  26.529  1.00  0.00     0.225 C 
ATOM      2  O   UNL A   1      34.036  22.661  27.546  1.00  0.00    -0.275 OA
ATOM      3  N   UNL A   1      35.817  21.815  26.517  1.00  0.00    -0.356 N 
ATOM      4  H   UNL A   1      35.878  21.186  27.272  1.00  0.00     0.163 HD
ENDROOT
BRANCH   1   5
ATOM      5  C   UNL A   1      34.361  23.397  25.269  1.00  0.00     0.107 C 
ATOM      6  N   UNL A   1      32.490  24.758  25.669  1.00  0.00    -0.339 N 
ATOM      7  C   UNL A   1      32.844  23.451  25.165  1.00  0.00     0.133 C 
ATOM      8  C   UNL A   1      33.587  25.601  25.767  1.00  0.00     0.223 C 
ATOM      9  C   UNL A   1      34.811  24.854  25.319  1.00  0.00     0.115 C 
ATOM     10  O   UNL A   1      33.573  26.777  26.105  1.00  0.00    -0.275 OA
BRANCH   6  11
ATOM     11  C   UNL A   1      31.144  25.168  26.083  1.00  0.00     0.082 C 
ATOM     12  C   UNL A   1      30.336  23.936  26.507  1.00  0.00     0.031 C 
BRANCH  11  13
ATOM     13  C   UNL A   1      30.395  25.992  25.016  1.00  0.00     0.025 C 
BRANCH  13  14
ATOM     14  C   UNL A   1      30.281  25.310  23.645  1.00  0.00     0.002 C 
BRANCH  14  15
ATOM     15  C   UNL A   1      31.343  25.732  22.624  1.00  0.00     0.000 C 
BRANCH  15  16
ATOM     16  C   UNL A   1      31.942  27.123  22.854  1.00  0.00    -0.000 C 
BRANCH  16  17
ATOM     17  C   UNL A   1      33.394  27.288  22.394  1.00  0.00    -0.003 C 
ATOM     18  C   UNL A   1      34.032  28.582  22.876  1.00  0.00     0.004 C 
ENDBRANCH  16  17
ENDBRANCH  15  16
ENDBRANCH  14  15
ENDBRANCH  13  14
ENDBRANCH  11  13
ENDBRANCH   6  11
ENDBRANCH   1   5
BRANCH   3  19
ATOM     19  C   UNL A   1      36.901  21.734  25.556  1.00  0.00     0.116 C 
BRANCH  19  20
ATOM     20  C   UNL A   1      36.801  20.451  24.731  1.00  0.00     0.023 C 
BRANCH  20  21
ATOM     21  C   UNL A   1      37.982  19.488  24.913  1.00  0.00     0.023 C 
BRANCH  21  22
ATOM     22  C   UNL A   1      39.128  20.018  25.769  1.00  0.00     0.116 C 
BRANCH  22  23
ATOM     23  N   UNL A   1      40.229  19.076  25.883  1.00  0.00    -0.352 N 
ATOM     24  C   UNL A   1      41.561  19.313  26.115  1.00  0.00     0.251 C 
ATOM     25  H   UNL A   1      39.983  18.129  25.778  1.00  0.00     0.163 HD
ATOM     26  O   UNL A   1      42.363  18.387  26.035  1.00  0.00    -0.269 OA
BRANCH  24  27
ATOM     27  C   UNL A   1      42.040  20.676  26.431  1.00  0.00     0.039 A 
ATOM     28  C   UNL A   1      42.272  21.561  25.375  1.00  0.00     0.014 A 
ATOM     29  C   UNL A   1      42.282  21.082  27.746  1.00  0.00     0.014 A 
ATOM     30  C   UNL A   1      42.698  22.863  25.639  1.00  0.00     0.010 A 
ATOM     31  C   UNL A   1      42.632  22.404  28.014  1.00  0.00     0.010 A 
ATOM     32  C   UNL A   1      42.852  23.307  26.963  1.00  0.00    -0.014 A 
BRANCH  32  33
ATOM     33  C   UNL A   1      43.240  24.712  27.250  1.00  0.00     0.031 A 
ATOM     34  C   UNL A   1      44.635  25.196  26.964  1.00  0.00     0.074 A 
ATOM     35  C   UNL A   1      42.341  25.546  27.806  1.00  0.00     0.049 A 
ATOM     36  N   UNL A   1      45.151  26.387  27.143  1.00  0.00    -0.248 NA
ATOM     37  C   UNL A   1      45.585  24.207  26.433  1.00  0.00     0.031 C 
ATOM     38  C   UNL A   1      40.977  25.180  28.191  1.00  0.00     0.029 A 
ATOM     39  N   UNL A   1      42.437  26.873  28.147  1.00  0.00    -0.354 N 
ATOM     40  C   UNL A   1      46.482  26.286  26.759  1.00  0.00     0.074 A 
ATOM     41  C   UNL A   1      46.710  24.905  26.393  1.00  0.00     0.031 C 
ATOM     42  C   UNL A   1      40.356  26.261  28.690  1.00  0.00     0.029 A 
ATOM     43  C   UNL A   1      41.285  27.387  28.691  1.00  0.00     0.049 A 
ATOM     44  H   UNL A   1      43.256  27.404  28.017  1.00  0.00     0.167 HD
ATOM     45  C   UNL A   1      47.421  27.260  26.692  1.00  0.00     0.037 A 
ATOM     46  C   UNL A   1      41.009  28.625  29.140  1.00  0.00     0.037 A 
ATOM     47  C   UNL A   1      47.184  28.638  27.041  1.00  0.00     0.049 A 
ATOM     48  C   UNL A   1      42.063  29.693  29.040  1.00  0.00     0.074 A 
ATOM     49  C   UNL A   1      48.048  29.715  26.942  1.00  0.00     0.029 A 
ATOM     50  N   UNL A   1      45.996  29.128  27.567  1.00  0.00    -0.354 N 
ATOM     51  N   UNL A   1      43.291  29.607  28.588  1.00  0.00    -0.248 NA
ATOM     52  C   UNL A   1      41.686  31.037  29.500  1.00  0.00     0.031 C 
ATOM     53  C   UNL A   1      47.405  30.843  27.463  1.00  0.00     0.029 A 
ATOM     54  C   UNL A   1      46.116  30.485  27.824  1.00  0.00     0.049 A 
ATOM     55  H   UNL A   1      45.189  28.590  27.731  1.00  0.00     0.167 HD
ATOM     56  C   UNL A   1      43.823  30.886  28.683  1.00  0.00     0.074 A 
ATOM     57  C   UNL A   1      42.777  31.734  29.215  1.00  0.00     0.031 C 
ATOM     58  C   UNL A   1      45.067  31.318  28.358  1.00  0.00     0.037 A 
BRANCH  45  59
ATOM     59  C   UNL A   1      48.797  26.869  26.228  1.00  0.00     0.064 A 
ATOM     60  C   UNL A   1      49.192  27.005  24.887  1.00  0.00     0.173 A 
ATOM     61  C   UNL A   1      49.744  26.380  27.141  1.00  0.00     0.173 A 
ATOM     62  F   UNL A   1      48.324  27.458  23.969  1.00  0.00    -0.203 F 
ATOM     63  C   UNL A   1      50.467  26.630  24.472  1.00  0.00     0.198 A 
ATOM     64  C   UNL A   1      51.030  26.040  26.729  1.00  0.00     0.198 A 
ATOM     65  F   UNL A   1      49.424  26.238  28.436  1.00  0.00    -0.203 F 
ATOM     66  F   UNL A   1      50.800  26.712  23.176  1.00  0.00    -0.200 F 
ATOM     67  C   UNL A   1      51.388  26.155  25.395  1.00  0.00     0.200 A 
ATOM     68  F   UNL A   1      51.923  25.596  27.624  1.00  0.00    -0.200 F 
ATOM     69  F   UNL A   1      52.617  25.800  24.994  1.00  0.00    -0.200 F 
ENDBRANCH  45  59
BRANCH  46  70
ATOM     70  C   UNL A   1      39.664  28.926  29.698  1.00  0.00     0.064 A 
ATOM     71  C   UNL A   1      39.377  28.706  31.052  1.00  0.00     0.173 A 
ATOM     72  C   UNL A   1      38.641  29.444  28.890  1.00  0.00     0.173 A 
ATOM     73  F   UNL A   1      40.315  28.195  31.862  1.00  0.00    -0.203 F 
ATOM     74  C   UNL A   1      38.110  28.971  31.572  1.00  0.00     0.198 A 
ATOM     75  C   UNL A   1      37.386  29.738  29.418  1.00  0.00     0.198 A 
ATOM     76  F   UNL A   1      38.867  29.680  27.589  1.00  0.00    -0.203 F 
ATOM     77  F   UNL A   1      37.849  28.706  32.859  1.00  0.00    -0.200 F 
ATOM     78  C   UNL A   1      37.119  29.493  30.756  1.00  0.00     0.200 A 
ATOM     79  F   UNL A   1      36.436  30.260  28.630  1.00  0.00    -0.200 F 
ATOM     80  F   UNL A   1      35.904  29.754  31.258  1.00  0.00    -0.200 F 
ENDBRANCH  46  70
BRANCH  58  81
ATOM     81  C   UNL A   1      45.353  32.784  28.539  1.00  0.00     0.064 A 
ATOM     82  C   UNL A   1      45.922  33.287  29.718  1.00  0.00     0.173 A 
ATOM     83  C   UNL A   1      45.065  33.694  27.510  1.00  0.00     0.173 A 
ATOM     84  F   UNL A   1      46.206  32.463  30.737  1.00  0.00    -0.203 F 
ATOM     85  C   UNL A   1      46.155  34.652  29.875  1.00  0.00     0.198 A 
ATOM     86  C   UNL A   1      45.331  35.052  27.657  1.00  0.00     0.198 A 
ATOM     87  F   UNL A   1      44.527  33.265  26.358  1.00  0.00    -0.203 F 
ATOM     88  F   UNL A   1      46.638  35.118  31.035  1.00  0.00    -0.200 F 
ATOM     89  C   UNL A   1      45.865  35.532  28.843  1.00  0.00     0.200 A 
ATOM     90  F   UNL A   1      45.066  35.898  26.652  1.00  0.00    -0.200 F 
ATOM     91  F   UNL A   1      46.089  36.844  28.997  1.00  0.00    -0.200 F 
ENDBRANCH  58  81
ENDBRANCH  32  33
ENDBRANCH  24  27
ENDBRANCH  22  23
ENDBRANCH  21  22
ENDBRANCH  20  21
ENDBRANCH  19  20
ENDBRANCH   3  19
TORSDOF 17
ENDMDL
MODEL 2
REMARK VINA RESULT:     -10.6      5.225     10.970
REMARK SMILES CCCCCC[C@@H](C)N1C[C@H](C(=O)NCCCCNC(=O)c2ccc(-c3c4nc(c(-c5c(F)c(F)c(F)c(F)c5F)c5ccc([nH]5)c(-c5c(F)c(F)c(F)c(F)c5F)c5nc(c(-c6c(F)c(F)c(F)c(F)c6F)c6ccc3[nH]6)C=C5)C=C4)cc2)CC1=O
REMARK SMILES IDX 12 1 13 2 14 3 11 5 9 6 10 7 86 8 85 9 87 10 7 11 8 12 6 13
REMARK SMILES IDX 5 14 4 15 3 16 2 17 1 18 15 19 16 20 17 21 18 22 19 23 20 24
REMARK SMILES IDX 21 26 22 27 23 28 84 29 24 30 83 31 25 32 26 33 27 34 77 35
REMARK SMILES IDX 28 36 82 37 76 38 78 39 29 40 81 41 75 42 74 43 30 45 62 46
REMARK SMILES IDX 42 47 61 48 43 49 46 50 60 51 79 52 44 53 45 54 59 56 80 57
REMARK SMILES IDX 47 58 31 59 32 60 40 61 33 62 34 63 38 64 41 65 35 66 36 67
REMARK SMILES IDX 39 68 37 69 63 70 64 71 72 72 65 73 66 74 70 75 73 76 67 77
REMARK SMILES IDX 68 78 71 79 69 80 48 81 49 82 57 83 50 84 51 85 55 86 58 87
REMARK SMILES IDX 52 88 53 89 56 90 54 91
REMARK H PARENT 14 4 19 25 78 44 46 55
REMARK Flexibility Score: inf
ROOT
ATOM      1  C   UNL A   1      33.311  27.431  25.621  1.00  0.00     0.225 C 
ATOM      2  O   UNL A   1      34.304  26.883  26.098  1.00  0.00    -0.275 OA
ATOM      3  N   UNL A   1      33.289  28.794  25.583  1.00  0.00    -0.356 N 
ATOM      4  H   UNL A   1      34.143  29.233  25.797  1.00  0.00     0.163 HD
ENDROOT
BRANCH   1   5
ATOM      5  C   UNL A   1      32.167  26.654  24.997  1.00  0.00     0.107 C 
ATOM      6  N   UNL A   1      32.465  24.354  25.359  1.00  0.00    -0.339 N 
ATOM      7  C   UNL A   1      32.731  25.383  24.380  1.00  0.00     0.133 C 
ATOM      8  C   UNL A   1      31.557  24.764  26.324  1.00  0.00     0.223 C 
ATOM      9  C   UNL A   1      31.151  26.181  26.032  1.00  0.00     0.115 C 
ATOM     10  O   UNL A   1      31.105  24.083  27.235  1.00  0.00    -0.275 OA
BRANCH   6  11
ATOM     11  C   UNL A   1      33.098  23.031  25.388  1.00  0.00     0.082 C 
ATOM     12  C   UNL A   1      34.321  23.064  26.314  1.00  0.00     0.031 C 
BRANCH  11  13
ATOM     13  C   UNL A   1      33.465  22.492  23.991  1.00  0.00     0.025 C 
BRANCH  13  14
ATOM     14  C   UNL A   1      32.479  21.459  23.426  1.00  0.00     0.002 C 
BRANCH  14  15
ATOM     15  C   UNL A   1      32.505  20.093  24.122  1.00  0.00     0.000 C 
BRANCH  15  16
ATOM     16  C   UNL A   1      33.903  19.574  24.471  1.00  0.00    -0.000 C 
BRANCH  16  17
ATOM     17  C   UNL A   1      34.081  18.058  24.348  1.00  0.00    -0.003 C 
ATOM     18  C   UNL A   1      33.297  17.454  23.192  1.00  0.00     0.004 C 
ENDBRANCH  16  17
ENDBRANCH  15  16
ENDBRANCH  14  15
ENDBRANCH  13  14
ENDBRANCH  11  13
ENDBRANCH   6  11
ENDBRANCH   1   5
BRANCH   3  19
ATOM     19  C   UNL A   1      32.192  29.691  25.273  1.00  0.00     0.116 C 
BRANCH  19  20
ATOM     20  C   UNL A   1      31.536  30.210  26.553  1.00  0.00     0.023 C 
BRANCH  20  21
ATOM     21  C   UNL A   1      31.405  31.737  26.623  1.00  0.00     0.023 C 
BRANCH  21  22
ATOM     22  C   UNL A   1      32.692  32.486  26.953  1.00  0.00     0.116 C 
BRANCH  22  23
ATOM     23  N   UNL A   1      32.451  33.832  27.447  1.00  0.00    -0.352 N 
ATOM     24  C   UNL A   1      33.081  34.519  28.453  1.00  0.00     0.251 C 
ATOM     25  H   UNL A   1      31.728  34.321  26.993  1.00  0.00     0.163 HD
ATOM     26  O   UNL A   1      32.635  35.604  28.818  1.00  0.00    -0.269 OA
BRANCH  24  27
ATOM     27  C   UNL A   1      34.274  33.953  29.119  1.00  0.00     0.039 A 
ATOM     28  C   UNL A   1      34.084  33.032  30.153  1.00  0.00     0.014 A 
ATOM     29  C   UNL A   1      35.568  34.334  28.754  1.00  0.00     0.014 A 
ATOM     30  C   UNL A   1      35.189  32.458  30.784  1.00  0.00     0.010 A 
ATOM     31  C   UNL A   1      36.670  33.703  29.331  1.00  0.00     0.010 A 
ATOM     32  C   UNL A   1      36.492  32.765  30.358  1.00  0.00    -0.014 A 
BRANCH  32  33
ATOM     33  C   UNL A   1      37.667  32.105  30.983  1.00  0.00     0.031 A 
ATOM     34  C   UNL A   1      38.128  32.500  32.359  1.00  0.00     0.074 A 
ATOM     35  C   UNL A   1      38.347  31.170  30.291  1.00  0.00     0.049 A 
ATOM     36  N   UNL A   1      39.127  32.031  33.065  1.00  0.00    -0.248 NA
ATOM     37  C   UNL A   1      37.387  33.584  33.021  1.00  0.00     0.031 C 
ATOM     38  C   UNL A   1      38.040  30.746  28.924  1.00  0.00     0.029 A 
ATOM     39  N   UNL A   1      39.435  30.409  30.638  1.00  0.00    -0.354 N 
ATOM     40  C   UNL A   1      39.140  32.767  34.242  1.00  0.00     0.074 A 
ATOM     41  C   UNL A   1      38.087  33.753  34.132  1.00  0.00     0.031 C 
ATOM     42  C   UNL A   1      38.903  29.783  28.559  1.00  0.00     0.029 A 
ATOM     43  C   UNL A   1      39.841  29.545  29.651  1.00  0.00     0.049 A 
ATOM     44  H   UNL A   1      39.884  30.479  31.512  1.00  0.00     0.167 HD
ATOM     45  C   UNL A   1      39.938  32.617  35.326  1.00  0.00     0.037 A 
ATOM     46  C   UNL A   1      40.855  28.661  29.628  1.00  0.00     0.037 A 
ATOM     47  C   UNL A   1      40.974  31.622  35.438  1.00  0.00     0.049 A 
ATOM     48  C   UNL A   1      41.718  28.502  30.850  1.00  0.00     0.074 A 
ATOM     49  C   UNL A   1      41.791  31.343  36.520  1.00  0.00     0.029 A 
ATOM     50  N   UNL A   1      41.342  30.747  34.425  1.00  0.00    -0.354 N 
ATOM     51  N   UNL A   1      41.661  29.142  31.993  1.00  0.00    -0.248 NA
ATOM     52  C   UNL A   1      42.778  27.486  30.783  1.00  0.00     0.031 C 
ATOM     53  C   UNL A   1      42.692  30.342  36.142  1.00  0.00     0.029 A 
ATOM     54  C   UNL A   1      42.393  29.947  34.848  1.00  0.00     0.049 A 
ATOM     55  H   UNL A   1      40.918  30.700  33.538  1.00  0.00     0.167 HD
ATOM     56  C   UNL A   1      42.656  28.589  32.789  1.00  0.00     0.074 A 
ATOM     57  C   UNL A   1      43.286  27.547  32.005  1.00  0.00     0.031 C 
ATOM     58  C   UNL A   1      43.014  28.916  34.056  1.00  0.00     0.037 A 
BRANCH  45  59
ATOM     59  C   UNL A   1      39.727  33.558  36.480  1.00  0.00     0.064 A 
ATOM     60  C   UNL A   1      38.887  33.231  37.557  1.00  0.00     0.173 A 
ATOM     61  C   UNL A   1      40.396  34.791  36.525  1.00  0.00     0.173 A 
ATOM     62  F   UNL A   1      38.215  32.070  37.562  1.00  0.00    -0.203 F 
ATOM     63  C   UNL A   1      38.696  34.118  38.613  1.00  0.00     0.198 A 
ATOM     64  C   UNL A   1      40.230  35.660  37.601  1.00  0.00     0.198 A 
ATOM     65  F   UNL A   1      41.217  35.152  35.527  1.00  0.00    -0.203 F 
ATOM     66  F   UNL A   1      37.842  33.809  39.600  1.00  0.00    -0.200 F 
ATOM     67  C   UNL A   1      39.373  35.328  38.639  1.00  0.00     0.200 A 
ATOM     68  F   UNL A   1      40.897  36.821  37.631  1.00  0.00    -0.200 F 
ATOM     69  F   UNL A   1      39.192  36.178  39.660  1.00  0.00    -0.200 F 
ENDBRANCH  45  59
BRANCH  46  70
ATOM     70  C   UNL A   1      41.090  27.837  28.413  1.00  0.00     0.064 A 
ATOM     71  C   UNL A   1      41.985  28.253  27.417  1.00  0.00     0.173 A 
ATOM     72  C   UNL A   1      40.430  26.614  28.225  1.00  0.00     0.173 A 
ATOM     73  F   UNL A   1      42.628  29.423  27.541  1.00  0.00    -0.203 F 
ATOM     74  C   UNL A   1      42.191  27.490  26.269  1.00  0.00     0.198 A 
ATOM     75  C   UNL A   1      40.661  25.836  27.093  1.00  0.00     0.198 A 
ATOM     76  F   UNL A   1      39.569  26.166  29.152  1.00  0.00    -0.203 F 
ATOM     77  F   UNL A   1      43.015  27.936  25.311  1.00  0.00    -0.200 F 
ATOM     78  C   UNL A   1      41.535  26.279  26.111  1.00  0.00     0.200 A 
ATOM     79  F   UNL A   1      40.038  24.658  26.952  1.00  0.00    -0.200 F 
ATOM     80  F   UNL A   1      41.739  25.542  25.011  1.00  0.00    -0.200 F 
ENDBRANCH  46  70
BRANCH  58  81
ATOM     81  C   UNL A   1      44.120  28.113  34.685  1.00  0.00     0.064 A 
ATOM     82  C   UNL A   1      45.452  28.552  34.675  1.00  0.00     0.173 A 
ATOM     83  C   UNL A   1      43.837  26.892  35.317  1.00  0.00     0.173 A 
ATOM     84  F   UNL A   1      45.779  29.705  34.074  1.00  0.00    -0.203 F 
ATOM     85  C   UNL A   1      46.465  27.780  35.240  1.00  0.00     0.198 A 
ATOM     86  C   UNL A   1      44.847  26.141  35.912  1.00  0.00     0.198 A 
ATOM     87  F   UNL A   1      42.579  26.428  35.362  1.00  0.00    -0.203 F 
ATOM     88  F   UNL A   1      47.739  28.189  35.161  1.00  0.00    -0.200 F 
ATOM     89  C   UNL A   1      46.161  26.579  35.863  1.00  0.00     0.200 A 
ATOM     90  F   UNL A   1      44.548  24.988  36.528  1.00  0.00    -0.200 F 
ATOM     91  F   UNL A   1      47.137  25.838  36.405  1.00  0.00    -0.200 F 
ENDBRANCH  58  81
ENDBRANCH  32  33
ENDBRANCH  24  27
ENDBRANCH  22  23
ENDBRANCH  21  22
ENDBRANCH  20  21
ENDBRANCH  19  20
ENDBRANCH   3  19
TORSDOF 17
ENDMDL
MODEL 3
REMARK VINA RESULT:     -10.6      5.279     10.951
REMARK SMILES CCCCCC[C@@H](C)N1C[C@H](C(=O)NCCCCNC(=O)c2ccc(-c3c4nc(c(-c5c(F)c(F)c(F)c(F)c5F)c5ccc([nH]5)c(-c5c(F)c(F)c(F)c(F)c5F)c5nc(c(-c6c(F)c(F)c(F)c(F)c6F)c6ccc3[nH]6)C=C5)C=C4)cc2)CC1=O
REMARK SMILES IDX 12 1 13 2 14 3 11 5 9 6 10 7 86 8 85 9 87 10 7 11 8 12 6 13
REMARK SMILES IDX 5 14 4 15 3 16 2 17 1 18 15 19 16 20 17 21 18 22 19 23 20 24
REMARK SMILES IDX 21 26 22 27 23 28 84 29 24 30 83 31 25 32 26 33 27 34 77 35
REMARK SMILES IDX 28 36 82 37 76 38 78 39 29 40 81 41 75 42 74 43 30 45 62 46
REMARK SMILES IDX 42 47 61 48 43 49 46 50 60 51 79 52 44 53 45 54 59 56 80 57
REMARK SMILES IDX 47 58 31 59 32 60 40 61 33 62 34 63 38 64 41 65 35 66 36 67
REMARK SMILES IDX 39 68 37 69 63 70 64 71 72 72 65 73 66 74 70 75 73 76 67 77
REMARK SMILES IDX 68 78 71 79 69 80 48 81 49 82 57 83 50 84 51 85 55 86 58 87
REMARK SMILES IDX 52 88 53 89 56 90 54 91
REMARK H PARENT 14 4 19 25 78 44 46 55
REMARK Flexibility Score: inf
ROOT
ATOM      1  C   UNL A   1      31.759  27.475  26.824  1.00  0.00     0.225 C 
ATOM      2  O   UNL A   1      30.928  26.663  27.226  1.00  0.00    -0.275 OA
ATOM      3  N   UNL A   1      31.770  28.714  27.394  1.00  0.00    -0.356 N 
ATOM      4  H   UNL A   1      31.211  28.812  28.198  1.00  0.00     0.163 HD
ENDROOT
BRANCH   1   5
ATOM      5  C   UNL A   1      32.820  27.122  25.799  1.00  0.00     0.107 C 
ATOM      6  N   UNL A   1      32.480  24.938  25.009  1.00  0.00    -0.339 N 
ATOM      7  C   UNL A   1      33.225  25.670  26.007  1.00  0.00     0.133 C 
ATOM      8  C   UNL A   1      31.933  25.769  24.042  1.00  0.00     0.223 C 
ATOM      9  C   UNL A   1      32.294  27.190  24.369  1.00  0.00     0.115 C 
ATOM     10  O   UNL A   1      31.307  25.419  23.050  1.00  0.00    -0.275 OA
BRANCH   6  11
ATOM     11  C   UNL A   1      32.266  23.487  25.009  1.00  0.00     0.082 C 
ATOM     12  C   UNL A   1      31.064  23.142  25.897  1.00  0.00     0.031 C 
BRANCH  11  13
ATOM     13  C   UNL A   1      33.515  22.679  25.415  1.00  0.00     0.025 C 
BRANCH  13  14
ATOM     14  C   UNL A   1      34.240  21.994  24.247  1.00  0.00     0.002 C 
BRANCH  14  15
ATOM     15  C   UNL A   1      34.950  22.948  23.280  1.00  0.00     0.000 C 
BRANCH  15  16
ATOM     16  C   UNL A   1      36.471  23.024  23.449  1.00  0.00    -0.000 C 
BRANCH  16  17
ATOM     17  C   UNL A   1      37.091  21.878  24.254  1.00  0.00    -0.003 C 
ATOM     18  C   UNL A   1      37.665  22.326  25.591  1.00  0.00     0.004 C 
ENDBRANCH  16  17
ENDBRANCH  15  16
ENDBRANCH  14  15
ENDBRANCH  13  14
ENDBRANCH  11  13
ENDBRANCH   6  11
ENDBRANCH   1   5
BRANCH   3  19
ATOM     19  C   UNL A   1      32.485  29.910  26.989  1.00  0.00     0.116 C 
BRANCH  19  20
ATOM     20  C   UNL A   1      31.570  30.851  26.204  1.00  0.00     0.023 C 
BRANCH  20  21
ATOM     21  C   UNL A   1      31.370  32.226  26.853  1.00  0.00     0.023 C 
BRANCH  21  22
ATOM     22  C   UNL A   1      32.644  33.044  27.051  1.00  0.00     0.116 C 
BRANCH  22  23
ATOM     23  N   UNL A   1      32.391  34.345  27.646  1.00  0.00    -0.352 N 
ATOM     24  C   UNL A   1      33.010  34.955  28.709  1.00  0.00     0.251 C 
ATOM     25  H   UNL A   1      31.670  34.866  27.226  1.00  0.00     0.163 HD
ATOM     26  O   UNL A   1      32.555  36.005  29.153  1.00  0.00    -0.269 OA
BRANCH  24  27
ATOM     27  C   UNL A   1      34.200  34.343  29.339  1.00  0.00     0.039 A 
ATOM     28  C   UNL A   1      34.011  33.494  30.432  1.00  0.00     0.014 A 
ATOM     29  C   UNL A   1      35.493  34.613  28.881  1.00  0.00     0.014 A 
ATOM     30  C   UNL A   1      35.111  32.879  31.033  1.00  0.00     0.010 A 
ATOM     31  C   UNL A   1      36.582  33.940  29.432  1.00  0.00     0.010 A 
ATOM     32  C   UNL A   1      36.404  33.072  30.519  1.00  0.00    -0.014 A 
BRANCH  32  33
ATOM     33  C   UNL A   1      37.568  32.365  31.114  1.00  0.00     0.031 A 
ATOM     34  C   UNL A   1      38.069  32.733  32.484  1.00  0.00     0.074 A 
ATOM     35  C   UNL A   1      38.200  31.414  30.401  1.00  0.00     0.049 A 
ATOM     36  N   UNL A   1      39.065  32.223  33.165  1.00  0.00    -0.248 NA
ATOM     37  C   UNL A   1      37.380  33.836  33.169  1.00  0.00     0.031 C 
ATOM     38  C   UNL A   1      37.852  31.012  29.037  1.00  0.00     0.029 A 
ATOM     39  N   UNL A   1      39.268  30.613  30.720  1.00  0.00    -0.354 N 
ATOM     40  C   UNL A   1      39.128  32.948  34.348  1.00  0.00     0.074 A 
ATOM     41  C   UNL A   1      38.108  33.971  34.267  1.00  0.00     0.031 C 
ATOM     42  C   UNL A   1      38.672  30.023  28.647  1.00  0.00     0.029 A 
ATOM     43  C   UNL A   1      39.624  29.744  29.718  1.00  0.00     0.049 A 
ATOM     44  H   UNL A   1      39.736  30.659  31.585  1.00  0.00     0.167 HD
ATOM     45  C   UNL A   1      39.942  32.761  35.414  1.00  0.00     0.037 A 
ATOM     46  C   UNL A   1      40.605  28.825  29.667  1.00  0.00     0.037 A 
ATOM     47  C   UNL A   1      40.944  31.729  35.497  1.00  0.00     0.049 A 
ATOM     48  C   UNL A   1      41.487  28.626  30.870  1.00  0.00     0.074 A 
ATOM     49  C   UNL A   1      41.773  31.413  36.560  1.00  0.00     0.029 A 
ATOM     50  N   UNL A   1      41.261  30.851  34.470  1.00  0.00    -0.354 N 
ATOM     51  N   UNL A   1      41.476  29.257  32.019  1.00  0.00    -0.248 NA
ATOM     52  C   UNL A   1      42.509  27.575  30.773  1.00  0.00     0.031 C 
ATOM     53  C   UNL A   1      42.631  30.385  36.156  1.00  0.00     0.029 A 
ATOM     54  C   UNL A   1      42.292  30.012  34.865  1.00  0.00     0.049 A 
ATOM     55  H   UNL A   1      40.818  30.827  33.591  1.00  0.00     0.167 HD
ATOM     56  C   UNL A   1      42.466  28.664  32.790  1.00  0.00     0.074 A 
ATOM     57  C   UNL A   1      43.043  27.607  31.985  1.00  0.00     0.031 C 
ATOM     58  C   UNL A   1      42.861  28.966  34.052  1.00  0.00     0.037 A 
BRANCH  45  59
ATOM     59  C   UNL A   1      39.787  33.699  36.579  1.00  0.00     0.064 A 
ATOM     60  C   UNL A   1      40.477  34.921  36.643  1.00  0.00     0.173 A 
ATOM     61  C   UNL A   1      38.915  33.386  37.634  1.00  0.00     0.173 A 
ATOM     62  F   UNL A   1      41.330  35.266  35.668  1.00  0.00    -0.203 F 
ATOM     63  C   UNL A   1      40.328  35.773  37.734  1.00  0.00     0.198 A 
ATOM     64  C   UNL A   1      38.742  34.258  38.706  1.00  0.00     0.198 A 
ATOM     65  F   UNL A   1      38.224  32.236  37.622  1.00  0.00    -0.203 F 
ATOM     66  F   UNL A   1      41.043  36.905  37.800  1.00  0.00    -0.200 F 
ATOM     67  C   UNL A   1      39.455  35.445  38.761  1.00  0.00     0.200 A 
ATOM     68  F   UNL A   1      37.887  33.947  39.689  1.00  0.00    -0.200 F 
ATOM     69  F   UNL A   1      39.309  36.270  39.807  1.00  0.00    -0.200 F 
ENDBRANCH  45  59
BRANCH  46  70
ATOM     70  C   UNL A   1      40.787  28.004  28.441  1.00  0.00     0.064 A 
ATOM     71  C   UNL A   1      40.165  26.755  28.306  1.00  0.00     0.173 A 
ATOM     72  C   UNL A   1      41.583  28.454  27.376  1.00  0.00     0.173 A 
ATOM     73  F   UNL A   1      39.408  26.273  29.303  1.00  0.00    -0.203 F 
ATOM     74  C   UNL A   1      40.350  25.977  27.164  1.00  0.00     0.198 A 
ATOM     75  C   UNL A   1      41.742  27.689  26.222  1.00  0.00     0.198 A 
ATOM     76  F   UNL A   1      42.194  29.645  27.452  1.00  0.00    -0.203 F 
ATOM     77  F   UNL A   1      39.783  24.766  27.083  1.00  0.00    -0.200 F 
ATOM     78  C   UNL A   1      41.132  26.448  26.121  1.00  0.00     0.200 A 
ATOM     79  F   UNL A   1      42.484  28.156  25.209  1.00  0.00    -0.200 F 
ATOM     80  F   UNL A   1      41.305  25.703  25.021  1.00  0.00    -0.200 F 
ENDBRANCH  46  70
BRANCH  58  81
ATOM     81  C   UNL A   1      43.950  28.120  34.651  1.00  0.00     0.064 A 
ATOM     82  C   UNL A   1      43.671  26.919  35.322  1.00  0.00     0.173 A 
ATOM     83  C   UNL A   1      45.294  28.510  34.539  1.00  0.00     0.173 A 
ATOM     84  F   UNL A   1      42.404  26.506  35.467  1.00  0.00    -0.203 F 
ATOM     85  C   UNL A   1      44.693  26.163  35.891  1.00  0.00     0.198 A 
ATOM     86  C   UNL A   1      46.315  27.734  35.079  1.00  0.00     0.198 A 
ATOM     87  F   UNL A   1      45.618  29.646  33.902  1.00  0.00    -0.203 F 
ATOM     88  F   UNL A   1      44.397  25.054  36.584  1.00  0.00    -0.200 F 
ATOM     89  C   UNL A   1      46.014  26.568  35.765  1.00  0.00     0.200 A 
ATOM     90  F   UNL A   1      47.591  28.119  34.941  1.00  0.00    -0.200 F 
ATOM     91  F   UNL A   1      46.995  25.839  36.315  1.00  0.00    -0.200 F 
ENDBRANCH  58  81
ENDBRANCH  32  33
ENDBRANCH  24  27
ENDBRANCH  22  23
ENDBRANCH  21  22
ENDBRANCH  20  21
ENDBRANCH  19  20
ENDBRANCH   3  19
TORSDOF 17
ENDMDL
