MODEL 1
REMARK VINA RESULT:     -14.1      0.000      0.000
REMARK SMILES CC1=C[C@H](C)[C@H](CN2C[C@]34C=C[C@@H](O3)[C@H](C(=O)NCCCCNC(=O)c3ccc(-c5c6nc(c(-c7c(F)c(F)c(F)c(F)c7F)c7ccc([nH]7)c(-c7c(F)c(F)c(F)c(F)c7F)c7nc(c(-c8c(F)c(F)c(F)c(F)c8F)c8ccc5[nH]8)C=C7)C=C6)cc3)[C@@H]4C2=O)[C@H](C)C1
REMARK SMILES IDX 20 1 19 2 18 3 16 4 17 5 15 7 8 8 9 9 90 10 10 11 89 12
REMARK SMILES IDX 91 13 11 14 14 15 12 16 13 17 7 18 6 19 1 20 2 21 3 22 94 23
REMARK SMILES IDX 4 24 92 25 5 26 93 27 21 28 22 29 23 30 24 31 25 33 26 34
REMARK SMILES IDX 27 35 88 36 28 37 87 38 29 39 30 40 31 41 81 42 32 43 86 44
REMARK SMILES IDX 80 45 82 46 33 47 85 48 79 49 78 50 34 52 66 53 46 54 65 55
REMARK SMILES IDX 47 56 50 57 64 58 83 59 48 60 49 61 63 63 84 64 51 65 35 66
REMARK SMILES IDX 36 67 44 68 37 69 38 70 42 71 45 72 39 73 40 74 43 75 41 76
REMARK SMILES IDX 67 77 68 78 76 79 69 80 70 81 74 82 77 83 71 84 72 85 75 86
REMARK SMILES IDX 73 87 52 88 53 89 61 90 54 91 55 92 59 93 62 94 56 95 57 96
REMARK SMILES IDX 60 97 58 98
REMARK H PARENT 18 6 23 32 82 51 50 62
REMARK Flexibility Score: inf
ROOT
ATOM      1  C   UNL A   1      31.803  30.646  26.191  1.00  0.00     0.023 C 
ENDROOT
BRANCH   1   2
ATOM      2  C   UNL A   1      33.196  30.067  26.370  1.00  0.00     0.116 C 
BRANCH   2   3
ATOM      3  N   UNL A   1      33.439  29.117  25.313  1.00  0.00    -0.356 N 
ATOM      4  C   UNL A   1      33.429  27.771  25.242  1.00  0.00     0.227 C 
ATOM      5  O   UNL A   1      33.883  27.352  24.168  1.00  0.00    -0.275 OA
ATOM      6  H   UNL A   1      33.661  29.545  24.455  1.00  0.00     0.163 HD
BRANCH   4   7
ATOM      7  C   UNL A   1      32.757  26.821  26.238  1.00  0.00     0.127 C 
ATOM      8  N   UNL A   1      33.204  23.794  24.617  1.00  0.00    -0.339 N 
ATOM      9  C   UNL A   1      32.183  24.694  24.226  1.00  0.00     0.160 C 
ATOM     10  C   UNL A   1      33.669  24.217  25.831  1.00  0.00     0.230 C 
ATOM     11  C   UNL A   1      31.289  24.895  25.533  1.00  0.00     0.117 C 
ATOM     12  C   UNL A   1      32.692  25.266  26.305  1.00  0.00     0.132 C 
ATOM     13  O   UNL A   1      34.625  23.787  26.459  1.00  0.00    -0.274 OA
ATOM     14  C   UNL A   1      30.379  25.717  24.591  1.00  0.00     0.009 C 
ATOM     15  O   UNL A   1      30.753  25.784  26.578  1.00  0.00    -0.360 OA
ATOM     16  C   UNL A   1      30.512  27.019  24.850  1.00  0.00     0.004 C 
ATOM     17  C   UNL A   1      31.229  27.085  26.150  1.00  0.00     0.155 C 
BRANCH   8  18
ATOM     18  C   UNL A   1      33.707  22.777  23.696  1.00  0.00     0.124 C 
BRANCH  18  19
ATOM     19  C   UNL A   1      33.466  21.377  24.271  1.00  0.00     0.018 C 
ATOM     20  C   UNL A   1      33.156  16.955  24.529  1.00  0.00     0.039 C 
ATOM     21  C   UNL A   1      33.277  18.444  24.380  1.00  0.00    -0.077 C 
ATOM     22  C   UNL A   1      32.273  19.153  23.851  1.00  0.00    -0.025 C 
ATOM     23  C   UNL A   1      34.585  19.047  24.790  1.00  0.00     0.034 C 
ATOM     24  C   UNL A   1      32.301  20.621  23.579  1.00  0.00     0.014 C 
ATOM     25  C   UNL A   1      34.663  20.581  24.879  1.00  0.00    -0.005 C 
ATOM     26  C   UNL A   1      32.112  20.860  22.081  1.00  0.00     0.012 C 
ATOM     27  C   UNL A   1      36.071  21.071  24.531  1.00  0.00     0.008 C 
ENDBRANCH  18  19
ENDBRANCH   8  18
ENDBRANCH   4   7
ENDBRANCH   2   3
ENDBRANCH   1   2
BRANCH   1  28
ATOM     28  C   UNL A   1      31.495  32.026  26.766  1.00  0.00     0.023 C 
BRANCH  28  29
ATOM     29  C   UNL A   1      32.688  32.765  27.345  1.00  0.00     0.116 C 
BRANCH  29  30
ATOM     30  N   UNL A   1      32.409  34.164  27.650  1.00  0.00    -0.352 N 
ATOM     31  C   UNL A   1      32.975  35.008  28.576  1.00  0.00     0.251 C 
ATOM     32  H   UNL A   1      31.700  34.572  27.103  1.00  0.00     0.163 HD
ATOM     33  O   UNL A   1      32.493  36.120  28.770  1.00  0.00    -0.269 OA
BRANCH  31  34
ATOM     34  C   UNL A   1      34.144  34.566  29.366  1.00  0.00     0.039 A 
ATOM     35  C   UNL A   1      33.944  34.021  30.637  1.00  0.00     0.014 A 
ATOM     36  C   UNL A   1      35.433  34.663  28.843  1.00  0.00     0.014 A 
ATOM     37  C   UNL A   1      35.027  33.489  31.339  1.00  0.00     0.010 A 
ATOM     38  C   UNL A   1      36.484  34.022  29.483  1.00  0.00     0.010 A 
ATOM     39  C   UNL A   1      36.297  33.435  30.742  1.00  0.00    -0.014 A 
BRANCH  39  40
ATOM     40  C   UNL A   1      37.453  32.786  31.410  1.00  0.00     0.031 A 
ATOM     41  C   UNL A   1      38.143  31.625  30.745  1.00  0.00     0.074 A 
ATOM     42  C   UNL A   1      37.814  33.175  32.649  1.00  0.00     0.049 A 
ATOM     43  N   UNL A   1      39.083  30.842  31.209  1.00  0.00    -0.248 NA
ATOM     44  C   UNL A   1      37.681  31.266  29.393  1.00  0.00     0.031 C 
ATOM     45  C   UNL A   1      37.178  34.244  33.421  1.00  0.00     0.029 A 
ATOM     46  N   UNL A   1      38.797  32.705  33.484  1.00  0.00    -0.354 N 
ATOM     47  C   UNL A   1      39.300  29.889  30.223  1.00  0.00     0.074 A 
ATOM     48  C   UNL A   1      38.348  30.146  29.166  1.00  0.00     0.031 C 
ATOM     49  C   UNL A   1      37.804  34.367  34.602  1.00  0.00     0.029 A 
ATOM     50  C   UNL A   1      38.852  33.357  34.692  1.00  0.00     0.049 A 
ATOM     51  H   UNL A   1      39.404  31.969  33.240  1.00  0.00     0.167 HD
ATOM     52  C   UNL A   1      40.231  28.907  30.187  1.00  0.00     0.037 A 
ATOM     53  C   UNL A   1      39.655  33.153  35.755  1.00  0.00     0.037 A 
ATOM     54  C   UNL A   1      41.202  28.688  31.225  1.00  0.00     0.049 A 
ATOM     55  C   UNL A   1      40.689  32.061  35.686  1.00  0.00     0.074 A 
ATOM     56  C   UNL A   1      42.240  27.775  31.255  1.00  0.00     0.029 A 
ATOM     57  N   UNL A   1      41.251  29.394  32.419  1.00  0.00    -0.354 N 
ATOM     58  N   UNL A   1      40.939  31.218  34.714  1.00  0.00    -0.248 NA
ATOM     59  C   UNL A   1      41.556  31.897  36.860  1.00  0.00     0.031 C 
ATOM     60  C   UNL A   1      42.883  27.889  32.492  1.00  0.00     0.029 A 
ATOM     61  C   UNL A   1      42.286  28.916  33.206  1.00  0.00     0.049 A 
ATOM     62  H   UNL A   1      40.641  30.124  32.669  1.00  0.00     0.167 HD
ATOM     63  C   UNL A   1      42.009  30.445  35.143  1.00  0.00     0.074 A 
ATOM     64  C   UNL A   1      42.371  30.931  36.459  1.00  0.00     0.031 C 
ATOM     65  C   UNL A   1      42.634  29.423  34.509  1.00  0.00     0.037 A 
BRANCH  52  66
ATOM     66  C   UNL A   1      40.249  28.005  28.985  1.00  0.00     0.064 A 
ATOM     67  C   UNL A   1      40.982  28.323  27.831  1.00  0.00     0.173 A 
ATOM     68  C   UNL A   1      39.548  26.789  28.999  1.00  0.00     0.173 A 
ATOM     69  F   UNL A   1      41.660  29.479  27.759  1.00  0.00    -0.203 F 
ATOM     70  C   UNL A   1      40.983  27.479  26.724  1.00  0.00     0.198 A 
ATOM     71  C   UNL A   1      39.582  25.929  27.904  1.00  0.00     0.198 A 
ATOM     72  F   UNL A   1      38.835  26.431  30.076  1.00  0.00    -0.203 F 
ATOM     73  F   UNL A   1      41.642  27.835  25.613  1.00  0.00    -0.200 F 
ATOM     74  C   UNL A   1      40.290  26.279  26.764  1.00  0.00     0.200 A 
ATOM     75  F   UNL A   1      38.923  24.763  27.950  1.00  0.00    -0.200 F 
ATOM     76  F   UNL A   1      40.300  25.462  25.703  1.00  0.00    -0.200 F 
ENDBRANCH  52  66
BRANCH  53  77
ATOM     77  C   UNL A   1      39.526  34.011  36.963  1.00  0.00     0.064 A 
ATOM     78  C   UNL A   1      38.786  33.584  38.075  1.00  0.00     0.173 A 
ATOM     79  C   UNL A   1      40.131  35.275  37.033  1.00  0.00     0.173 A 
ATOM     80  F   UNL A   1      38.173  32.391  38.053  1.00  0.00    -0.203 F 
ATOM     81  C   UNL A   1      38.634  34.397  39.197  1.00  0.00     0.198 A 
ATOM     82  C   UNL A   1      40.006  36.073  38.168  1.00  0.00     0.198 A 
ATOM     83  F   UNL A   1      40.858  35.730  36.002  1.00  0.00    -0.203 F 
ATOM     84  F   UNL A   1      37.877  33.984  40.223  1.00  0.00    -0.200 F 
ATOM     85  C   UNL A   1      39.249  35.639  39.246  1.00  0.00     0.200 A 
ATOM     86  F   UNL A   1      40.617  37.265  38.217  1.00  0.00    -0.200 F 
ATOM     87  F   UNL A   1      39.105  36.418  40.325  1.00  0.00    -0.200 F 
ENDBRANCH  53  77
BRANCH  65  88
ATOM     88  C   UNL A   1      43.799  28.787  35.209  1.00  0.00     0.064 A 
ATOM     89  C   UNL A   1      45.106  29.274  35.059  1.00  0.00     0.173 A 
ATOM     90  C   UNL A   1      43.597  27.707  36.083  1.00  0.00     0.173 A 
ATOM     91  F   UNL A   1      45.355  30.294  34.224  1.00  0.00    -0.203 F 
ATOM     92  C   UNL A   1      46.170  28.687  35.739  1.00  0.00     0.198 A 
ATOM     93  C   UNL A   1      44.657  27.147  36.788  1.00  0.00     0.198 A 
ATOM     94  F   UNL A   1      42.365  27.209  36.268  1.00  0.00    -0.203 F 
ATOM     95  F   UNL A   1      47.417  29.137  35.543  1.00  0.00    -0.200 F 
ATOM     96  C   UNL A   1      45.944  27.632  36.610  1.00  0.00     0.200 A 
ATOM     97  F   UNL A   1      44.433  26.139  37.643  1.00  0.00    -0.200 F 
ATOM     98  F   UNL A   1      46.967  27.078  37.273  1.00  0.00    -0.200 F 
ENDBRANCH  65  88
ENDBRANCH  39  40
ENDBRANCH  31  34
ENDBRANCH  29  30
ENDBRANCH  28  29
ENDBRANCH   1  28
TORSDOF 13
ENDMDL
MODEL 2
REMARK VINA RESULT:     -14.0      5.531     11.323
REMARK SMILES CC1=C[C@H](C)[C@H](CN2C[C@]34C=C[C@@H](O3)[C@H](C(=O)NCCCCNC(=O)c3ccc(-c5c6nc(c(-c7c(F)c(F)c(F)c(F)c7F)c7ccc([nH]7)c(-c7c(F)c(F)c(F)c(F)c7F)c7nc(c(-c8c(F)c(F)c(F)c(F)c8F)c8ccc5[nH]8)C=C7)C=C6)cc3)[C@@H]4C2=O)[C@H](C)C1
REMARK SMILES IDX 20 1 19 2 18 3 16 4 17 5 15 7 8 8 9 9 90 10 10 11 89 12
REMARK SMILES IDX 91 13 11 14 14 15 12 16 13 17 7 18 6 19 1 20 2 21 3 22 94 23
REMARK SMILES IDX 4 24 92 25 5 26 93 27 21 28 22 29 23 30 24 31 25 33 26 34
REMARK SMILES IDX 27 35 88 36 28 37 87 38 29 39 30 40 31 41 81 42 32 43 86 44
REMARK SMILES IDX 80 45 82 46 33 47 85 48 79 49 78 50 34 52 66 53 46 54 65 55
REMARK SMILES IDX 47 56 50 57 64 58 83 59 48 60 49 61 63 63 84 64 51 65 35 66
REMARK SMILES IDX 36 67 44 68 37 69 38 70 42 71 45 72 39 73 40 74 43 75 41 76
REMARK SMILES IDX 67 77 68 78 76 79 69 80 70 81 74 82 77 83 71 84 72 85 75 86
REMARK SMILES IDX 73 87 52 88 53 89 61 90 54 91 55 92 59 93 62 94 56 95 57 96
REMARK SMILES IDX 60 97 58 98
REMARK H PARENT 18 6 23 32 82 51 50 62
REMARK Flexibility Score: inf
ROOT
ATOM      1  C   UNL A   1      37.008  20.790  25.003  1.00  0.00     0.023 C 
ENDROOT
BRANCH   1   2
ATOM      2  C   UNL A   1      37.250  22.137  25.661  1.00  0.00     0.116 C 
BRANCH   2   3
ATOM      3  N   UNL A   1      35.991  22.645  26.148  1.00  0.00    -0.356 N 
ATOM      4  C   UNL A   1      35.110  23.558  25.693  1.00  0.00     0.227 C 
ATOM      5  O   UNL A   1      34.237  23.827  26.529  1.00  0.00    -0.275 OA
ATOM      6  H   UNL A   1      35.715  22.234  26.999  1.00  0.00     0.163 HD
BRANCH   4   7
ATOM      7  C   UNL A   1      35.015  24.081  24.257  1.00  0.00     0.127 C 
ATOM      8  N   UNL A   1      32.135  25.992  24.475  1.00  0.00    -0.339 N 
ATOM      9  C   UNL A   1      32.075  24.582  24.355  1.00  0.00     0.160 C 
ATOM     10  C   UNL A   1      33.417  26.366  24.182  1.00  0.00     0.230 C 
ATOM     11  C   UNL A   1      32.840  24.253  22.993  1.00  0.00     0.117 C 
ATOM     12  C   UNL A   1      34.082  25.141  23.601  1.00  0.00     0.132 C 
ATOM     13  O   UNL A   1      33.915  27.477  24.281  1.00  0.00    -0.274 OA
ATOM     14  C   UNL A   1      32.374  22.804  23.267  1.00  0.00     0.009 C 
ATOM     15  O   UNL A   1      33.959  23.600  22.293  1.00  0.00    -0.360 OA
ATOM     16  C   UNL A   1      33.407  22.062  23.672  1.00  0.00     0.004 C 
ATOM     17  C   UNL A   1      34.613  22.875  23.365  1.00  0.00     0.155 C 
BRANCH   8  18
ATOM     18  C   UNL A   1      31.014  26.750  25.028  1.00  0.00     0.124 C 
BRANCH  18  19
ATOM     19  C   UNL A   1      30.574  27.836  24.042  1.00  0.00     0.018 C 
ATOM     20  C   UNL A   1      28.144  31.036  22.150  1.00  0.00     0.039 C 
ATOM     21  C   UNL A   1      28.920  29.949  22.835  1.00  0.00    -0.077 C 
ATOM     22  C   UNL A   1      28.607  28.664  22.630  1.00  0.00    -0.025 C 
ATOM     23  C   UNL A   1      29.991  30.395  23.783  1.00  0.00     0.034 C 
ATOM     24  C   UNL A   1      29.249  27.499  23.308  1.00  0.00     0.014 C 
ATOM     25  C   UNL A   1      30.960  29.324  24.315  1.00  0.00    -0.005 C 
ATOM     26  C   UNL A   1      28.191  26.734  24.105  1.00  0.00     0.012 C 
ATOM     27  C   UNL A   1      31.422  29.672  25.732  1.00  0.00     0.008 C 
ENDBRANCH  18  19
ENDBRANCH   8  18
ENDBRANCH   4   7
ENDBRANCH   2   3
ENDBRANCH   1   2
BRANCH   1  28
ATOM     28  C   UNL A   1      38.140  19.765  24.974  1.00  0.00     0.023 C 
BRANCH  28  29
ATOM     29  C   UNL A   1      39.380  20.152  25.760  1.00  0.00     0.116 C 
BRANCH  29  30
ATOM     30  N   UNL A   1      40.355  19.072  25.868  1.00  0.00    -0.352 N 
ATOM     31  C   UNL A   1      41.712  19.110  26.088  1.00  0.00     0.251 C 
ATOM     32  H   UNL A   1      39.981  18.167  25.769  1.00  0.00     0.163 HD
ATOM     33  O   UNL A   1      42.377  18.083  26.003  1.00  0.00    -0.269 OA
BRANCH  31  34
ATOM     34  C   UNL A   1      42.378  20.394  26.394  1.00  0.00     0.039 A 
ATOM     35  C   UNL A   1      42.976  21.118  25.359  1.00  0.00     0.014 A 
ATOM     36  C   UNL A   1      42.390  20.897  27.694  1.00  0.00     0.014 A 
ATOM     37  C   UNL A   1      43.498  22.386  25.615  1.00  0.00     0.010 A 
ATOM     38  C   UNL A   1      42.793  22.205  27.921  1.00  0.00     0.010 A 
ATOM     39  C   UNL A   1      43.359  22.963  26.887  1.00  0.00    -0.014 A 
BRANCH  39  40
ATOM     40  C   UNL A   1      43.808  24.349  27.177  1.00  0.00     0.031 A 
ATOM     41  C   UNL A   1      42.815  25.367  27.666  1.00  0.00     0.074 A 
ATOM     42  C   UNL A   1      45.078  24.710  26.905  1.00  0.00     0.049 A 
ATOM     43  N   UNL A   1      42.969  26.653  27.856  1.00  0.00    -0.248 NA
ATOM     44  C   UNL A   1      41.449  24.885  27.933  1.00  0.00     0.031 C 
ATOM     45  C   UNL A   1      46.115  23.828  26.366  1.00  0.00     0.029 A 
ATOM     46  N   UNL A   1      45.710  25.922  27.033  1.00  0.00    -0.354 N 
ATOM     47  C   UNL A   1      41.721  27.130  28.234  1.00  0.00     0.074 A 
ATOM     48  C   UNL A   1      40.804  26.014  28.179  1.00  0.00     0.031 C 
ATOM     49  C   UNL A   1      47.258  24.518  26.236  1.00  0.00     0.029 A 
ATOM     50  C   UNL A   1      47.025  25.902  26.636  1.00  0.00     0.049 A 
ATOM     51  H   UNL A   1      45.262  26.730  27.374  1.00  0.00     0.167 HD
ATOM     52  C   UNL A   1      41.377  28.380  28.624  1.00  0.00     0.037 A 
ATOM     53  C   UNL A   1      47.937  26.893  26.592  1.00  0.00     0.037 A 
ATOM     54  C   UNL A   1      42.307  29.473  28.717  1.00  0.00     0.049 A 
ATOM     55  C   UNL A   1      47.532  28.273  27.041  1.00  0.00     0.074 A 
ATOM     56  C   UNL A   1      42.084  30.758  29.175  1.00  0.00     0.029 A 
ATOM     57  N   UNL A   1      43.642  29.404  28.342  1.00  0.00    -0.354 N 
ATOM     58  N   UNL A   1      46.368  28.694  27.474  1.00  0.00    -0.248 NA
ATOM     59  C   UNL A   1      48.568  29.312  26.999  1.00  0.00     0.031 C 
ATOM     60  C   UNL A   1      43.269  31.484  29.025  1.00  0.00     0.029 A 
ATOM     61  C   UNL A   1      44.248  30.635  28.533  1.00  0.00     0.049 A 
ATOM     62  H   UNL A   1      44.090  28.601  27.992  1.00  0.00     0.167 HD
ATOM     63  C   UNL A   1      46.539  30.035  27.786  1.00  0.00     0.074 A 
ATOM     64  C   UNL A   1      47.924  30.354  27.506  1.00  0.00     0.031 C 
ATOM     65  C   UNL A   1      45.632  30.926  28.257  1.00  0.00     0.037 A 
BRANCH  52  66
ATOM     66  C   UNL A   1      39.940  28.628  28.986  1.00  0.00     0.064 A 
ATOM     67  C   UNL A   1      39.455  28.410  30.286  1.00  0.00     0.173 A 
ATOM     68  C   UNL A   1      39.040  29.121  28.028  1.00  0.00     0.173 A 
ATOM     69  F   UNL A   1      40.269  27.927  31.237  1.00  0.00    -0.203 F 
ATOM     70  C   UNL A   1      38.119  28.639  30.602  1.00  0.00     0.198 A 
ATOM     71  C   UNL A   1      37.714  29.385  28.359  1.00  0.00     0.198 A 
ATOM     72  F   UNL A   1      39.449  29.353  26.772  1.00  0.00    -0.203 F 
ATOM     73  F   UNL A   1      37.669  28.366  31.834  1.00  0.00    -0.200 F 
ATOM     74  C   UNL A   1      37.252  29.134  29.642  1.00  0.00     0.200 A 
ATOM     75  F   UNL A   1      36.880  29.877  27.432  1.00  0.00    -0.200 F 
ATOM     76  F   UNL A   1      35.969  29.365  29.951  1.00  0.00    -0.200 F 
ENDBRANCH  52  66
BRANCH  53  77
ATOM     77  C   UNL A   1      49.322  26.615  26.127  1.00  0.00     0.064 A 
ATOM     78  C   UNL A   1      50.287  26.101  27.005  1.00  0.00     0.173 A 
ATOM     79  C   UNL A   1      49.714  26.859  24.802  1.00  0.00     0.173 A 
ATOM     80  F   UNL A   1      49.968  25.866  28.286  1.00  0.00    -0.203 F 
ATOM     81  C   UNL A   1      51.596  25.869  26.584  1.00  0.00     0.198 A 
ATOM     82  C   UNL A   1      51.013  26.596  24.374  1.00  0.00     0.198 A 
ATOM     83  F   UNL A   1      48.829  27.342  23.918  1.00  0.00    -0.203 F 
ATOM     84  F   UNL A   1      52.510  25.428  27.459  1.00  0.00    -0.200 F 
ATOM     85  C   UNL A   1      51.957  26.111  25.268  1.00  0.00     0.200 A 
ATOM     86  F   UNL A   1      51.353  26.815  23.096  1.00  0.00    -0.200 F 
ATOM     87  F   UNL A   1      53.213  25.885  24.863  1.00  0.00    -0.200 F 
ENDBRANCH  53  77
BRANCH  65  88
ATOM     88  C   UNL A   1      46.115  32.319  28.540  1.00  0.00     0.064 A 
ATOM     89  C   UNL A   1      46.642  32.678  29.788  1.00  0.00     0.173 A 
ATOM     90  C   UNL A   1      46.098  33.293  27.529  1.00  0.00     0.173 A 
ATOM     91  F   UNL A   1      46.667  31.788  30.792  1.00  0.00    -0.203 F 
ATOM     92  C   UNL A   1      47.111  33.967  30.023  1.00  0.00     0.198 A 
ATOM     93  C   UNL A   1      46.601  34.570  27.755  1.00  0.00     0.198 A 
ATOM     94  F   UNL A   1      45.612  32.998  26.314  1.00  0.00    -0.203 F 
ATOM     95  F   UNL A   1      47.565  34.303  31.238  1.00  0.00    -0.200 F 
ATOM     96  C   UNL A   1      47.099  34.909  29.005  1.00  0.00     0.200 A 
ATOM     97  F   UNL A   1      46.605  35.473  26.765  1.00  0.00    -0.200 F 
ATOM     98  F   UNL A   1      47.564  36.145  29.228  1.00  0.00    -0.200 F 
ENDBRANCH  65  88
ENDBRANCH  39  40
ENDBRANCH  31  34
ENDBRANCH  29  30
ENDBRANCH  28  29
ENDBRANCH   1  28
TORSDOF 13
ENDMDL
MODEL 3
REMARK VINA RESULT:     -13.9      0.878      1.694
REMARK SMILES CC1=C[C@H](C)[C@H](CN2C[C@]34C=C[C@@H](O3)[C@H](C(=O)NCCCCNC(=O)c3ccc(-c5c6nc(c(-c7c(F)c(F)c(F)c(F)c7F)c7ccc([nH]7)c(-c7c(F)c(F)c(F)c(F)c7F)c7nc(c(-c8c(F)c(F)c(F)c(F)c8F)c8ccc5[nH]8)C=C7)C=C6)cc3)[C@@H]4C2=O)[C@H](C)C1
REMARK SMILES IDX 20 1 19 2 18 3 16 4 17 5 15 7 8 8 9 9 90 10 10 11 89 12
REMARK SMILES IDX 91 13 11 14 14 15 12 16 13 17 7 18 6 19 1 20 2 21 3 22 94 23
REMARK SMILES IDX 4 24 92 25 5 26 93 27 21 28 22 29 23 30 24 31 25 33 26 34
REMARK SMILES IDX 27 35 88 36 28 37 87 38 29 39 30 40 31 41 81 42 32 43 86 44
REMARK SMILES IDX 80 45 82 46 33 47 85 48 79 49 78 50 34 52 66 53 46 54 65 55
REMARK SMILES IDX 47 56 50 57 64 58 83 59 48 60 49 61 63 63 84 64 51 65 35 66
REMARK SMILES IDX 36 67 44 68 37 69 38 70 42 71 45 72 39 73 40 74 43 75 41 76
REMARK SMILES IDX 67 77 68 78 76 79 69 80 70 81 74 82 77 83 71 84 72 85 75 86
REMARK SMILES IDX 73 87 52 88 53 89 61 90 54 91 55 92 59 93 62 94 56 95 57 96
REMARK SMILES IDX 60 97 58 98
REMARK H PARENT 18 6 23 32 82 51 50 62
REMARK Flexibility Score: inf
ROOT
ATOM      1  C   UNL A   1      31.784  30.388  26.765  1.00  0.00     0.023 C 
ENDROOT
BRANCH   1   2
ATOM      2  C   UNL A   1      31.940  29.725  25.408  1.00  0.00     0.116 C 
BRANCH   2   3
ATOM      3  N   UNL A   1      32.631  28.472  25.585  1.00  0.00    -0.356 N 
ATOM      4  C   UNL A   1      32.231  27.196  25.752  1.00  0.00     0.227 C 
ATOM      5  O   UNL A   1      33.168  26.444  26.057  1.00  0.00    -0.275 OA
ATOM      6  H   UNL A   1      33.611  28.571  25.584  1.00  0.00     0.163 HD
BRANCH   4   7
ATOM      7  C   UNL A   1      30.847  26.634  25.415  1.00  0.00     0.127 C 
ATOM      8  N   UNL A   1      31.530  23.239  25.416  1.00  0.00    -0.339 N 
ATOM      9  C   UNL A   1      31.871  24.058  24.311  1.00  0.00     0.160 C 
ATOM     10  C   UNL A   1      30.685  23.965  26.208  1.00  0.00     0.230 C 
ATOM     11  C   UNL A   1      30.490  24.702  23.835  1.00  0.00     0.117 C 
ATOM     12  C   UNL A   1      30.296  25.177  25.396  1.00  0.00     0.132 C 
ATOM     13  O   UNL A   1      30.253  23.669  27.312  1.00  0.00    -0.274 OA
ATOM     14  C   UNL A   1      31.339  25.275  22.677  1.00  0.00     0.009 C 
ATOM     15  O   UNL A   1      29.657  25.895  23.614  1.00  0.00    -0.360 OA
ATOM     16  C   UNL A   1      31.536  26.582  22.860  1.00  0.00     0.004 C 
ATOM     17  C   UNL A   1      30.575  26.974  23.924  1.00  0.00     0.155 C 
BRANCH   8  18
ATOM     18  C   UNL A   1      32.203  21.962  25.643  1.00  0.00     0.124 C 
BRANCH  18  19
ATOM     19  C   UNL A   1      33.694  22.084  25.315  1.00  0.00     0.018 C 
ATOM     20  C   UNL A   1      38.105  21.734  25.692  1.00  0.00     0.039 C 
ATOM     21  C   UNL A   1      36.608  21.824  25.622  1.00  0.00    -0.077 C 
ATOM     22  C   UNL A   1      35.960  22.806  26.259  1.00  0.00    -0.025 C 
ATOM     23  C   UNL A   1      35.913  20.732  24.868  1.00  0.00     0.034 C 
ATOM     24  C   UNL A   1      34.476  22.959  26.330  1.00  0.00     0.014 C 
ATOM     25  C   UNL A   1      34.414  20.917  24.571  1.00  0.00    -0.005 C 
ATOM     26  C   UNL A   1      34.032  22.890  27.792  1.00  0.00     0.012 C 
ATOM     27  C   UNL A   1      33.699  19.564  24.544  1.00  0.00     0.008 C 
ENDBRANCH  18  19
ENDBRANCH   8  18
ENDBRANCH   4   7
ENDBRANCH   2   3
ENDBRANCH   1   2
BRANCH   1  28
ATOM     28  C   UNL A   1      31.568  31.898  26.831  1.00  0.00     0.023 C 
BRANCH  28  29
ATOM     29  C   UNL A   1      32.774  32.703  27.281  1.00  0.00     0.116 C 
BRANCH  29  30
ATOM     30  N   UNL A   1      32.452  34.084  27.626  1.00  0.00    -0.352 N 
ATOM     31  C   UNL A   1      32.981  34.914  28.585  1.00  0.00     0.251 C 
ATOM     32  H   UNL A   1      31.739  34.489  27.081  1.00  0.00     0.163 HD
ATOM     33  O   UNL A   1      32.466  36.005  28.806  1.00  0.00    -0.269 OA
BRANCH  31  34
ATOM     34  C   UNL A   1      34.152  34.480  29.378  1.00  0.00     0.039 A 
ATOM     35  C   UNL A   1      33.951  33.913  30.639  1.00  0.00     0.014 A 
ATOM     36  C   UNL A   1      35.443  34.607  28.867  1.00  0.00     0.014 A 
ATOM     37  C   UNL A   1      35.037  33.388  31.341  1.00  0.00     0.010 A 
ATOM     38  C   UNL A   1      36.499  33.974  29.506  1.00  0.00     0.010 A 
ATOM     39  C   UNL A   1      36.312  33.365  30.754  1.00  0.00    -0.014 A 
BRANCH  39  40
ATOM     40  C   UNL A   1      37.475  32.725  31.421  1.00  0.00     0.031 A 
ATOM     41  C   UNL A   1      38.163  31.560  30.764  1.00  0.00     0.074 A 
ATOM     42  C   UNL A   1      37.842  33.128  32.654  1.00  0.00     0.049 A 
ATOM     43  N   UNL A   1      39.109  30.784  31.230  1.00  0.00    -0.248 NA
ATOM     44  C   UNL A   1      37.694  31.187  29.419  1.00  0.00     0.031 C 
ATOM     45  C   UNL A   1      37.207  34.202  33.420  1.00  0.00     0.029 A 
ATOM     46  N   UNL A   1      38.831  32.668  33.488  1.00  0.00    -0.354 N 
ATOM     47  C   UNL A   1      39.322  29.822  30.252  1.00  0.00     0.074 A 
ATOM     48  C   UNL A   1      38.363  30.066  29.198  1.00  0.00     0.031 C 
ATOM     49  C   UNL A   1      37.840  34.340  34.596  1.00  0.00     0.029 A 
ATOM     50  C   UNL A   1      38.891  33.333  34.689  1.00  0.00     0.049 A 
ATOM     51  H   UNL A   1      39.438  31.932  33.248  1.00  0.00     0.167 HD
ATOM     52  C   UNL A   1      40.256  28.842  30.220  1.00  0.00     0.037 A 
ATOM     53  C   UNL A   1      39.701  33.142  35.749  1.00  0.00     0.037 A 
ATOM     54  C   UNL A   1      41.233  28.636  31.254  1.00  0.00     0.049 A 
ATOM     55  C   UNL A   1      40.738  32.052  35.685  1.00  0.00     0.074 A 
ATOM     56  C   UNL A   1      42.274  27.726  31.288  1.00  0.00     0.029 A 
ATOM     57  N   UNL A   1      41.288  29.354  32.441  1.00  0.00    -0.354 N 
ATOM     58  N   UNL A   1      40.984  31.200  34.720  1.00  0.00    -0.248 NA
ATOM     59  C   UNL A   1      41.612  31.902  36.855  1.00  0.00     0.031 C 
ATOM     60  C   UNL A   1      42.924  27.855  32.519  1.00  0.00     0.029 A 
ATOM     61  C   UNL A   1      42.328  28.887  33.227  1.00  0.00     0.049 A 
ATOM     62  H   UNL A   1      40.677  30.085  32.688  1.00  0.00     0.167 HD
ATOM     63  C   UNL A   1      42.058  30.434  35.150  1.00  0.00     0.074 A 
ATOM     64  C   UNL A   1      42.427  30.934  36.459  1.00  0.00     0.031 C 
ATOM     65  C   UNL A   1      42.683  29.408  34.523  1.00  0.00     0.037 A 
BRANCH  52  66
ATOM     66  C   UNL A   1      40.269  27.928  29.027  1.00  0.00     0.064 A 
ATOM     67  C   UNL A   1      41.015  28.225  27.875  1.00  0.00     0.173 A 
ATOM     68  C   UNL A   1      39.550  26.723  29.047  1.00  0.00     0.173 A 
ATOM     69  F   UNL A   1      41.710  29.369  27.798  1.00  0.00    -0.203 F 
ATOM     70  C   UNL A   1      41.011  27.369  26.777  1.00  0.00     0.198 A 
ATOM     71  C   UNL A   1      39.579  25.853  27.961  1.00  0.00     0.198 A 
ATOM     72  F   UNL A   1      38.824  26.386  30.123  1.00  0.00    -0.203 F 
ATOM     73  F   UNL A   1      41.683  27.705  25.668  1.00  0.00    -0.200 F 
ATOM     74  C   UNL A   1      40.301  26.181  26.824  1.00  0.00     0.200 A 
ATOM     75  F   UNL A   1      38.903  24.697  28.014  1.00  0.00    -0.200 F 
ATOM     76  F   UNL A   1      40.306  25.354  25.770  1.00  0.00    -0.200 F 
ENDBRANCH  52  66
BRANCH  53  77
ATOM     77  C   UNL A   1      39.577  34.011  36.950  1.00  0.00     0.064 A 
ATOM     78  C   UNL A   1      38.819  33.606  38.058  1.00  0.00     0.173 A 
ATOM     79  C   UNL A   1      40.205  35.264  37.016  1.00  0.00     0.173 A 
ATOM     80  F   UNL A   1      38.184  32.425  38.039  1.00  0.00    -0.203 F 
ATOM     81  C   UNL A   1      38.672  34.431  39.172  1.00  0.00     0.198 A 
ATOM     82  C   UNL A   1      40.084  36.073  38.144  1.00  0.00     0.198 A 
ATOM     83  F   UNL A   1      40.949  35.698  35.988  1.00  0.00    -0.203 F 
ATOM     84  F   UNL A   1      37.898  34.040  40.195  1.00  0.00    -0.200 F 
ATOM     85  C   UNL A   1      39.309  35.661  39.217  1.00  0.00     0.200 A 
ATOM     86  F   UNL A   1      40.716  37.254  38.189  1.00  0.00    -0.200 F 
ATOM     87  F   UNL A   1      39.170  36.452  40.289  1.00  0.00    -0.200 F 
ENDBRANCH  53  77
BRANCH  65  88
ATOM     88  C   UNL A   1      43.854  28.781  35.222  1.00  0.00     0.064 A 
ATOM     89  C   UNL A   1      45.167  29.218  34.998  1.00  0.00     0.173 A 
ATOM     90  C   UNL A   1      43.652  27.765  36.169  1.00  0.00     0.173 A 
ATOM     91  F   UNL A   1      45.415  30.177  34.092  1.00  0.00    -0.203 F 
ATOM     92  C   UNL A   1      46.238  28.643  35.677  1.00  0.00     0.198 A 
ATOM     93  C   UNL A   1      44.721  27.218  36.872  1.00  0.00     0.198 A 
ATOM     94  F   UNL A   1      42.414  27.317  36.426  1.00  0.00    -0.203 F 
ATOM     95  F   UNL A   1      47.490  29.043  35.412  1.00  0.00    -0.200 F 
ATOM     96  C   UNL A   1      46.014  27.652  36.620  1.00  0.00     0.200 A 
ATOM     97  F   UNL A   1      44.499  26.272  37.796  1.00  0.00    -0.200 F 
ATOM     98  F   UNL A   1      47.044  27.110  37.282  1.00  0.00    -0.200 F 
ENDBRANCH  65  88
ENDBRANCH  39  40
ENDBRANCH  31  34
ENDBRANCH  29  30
ENDBRANCH  28  29
ENDBRANCH   1  28
TORSDOF 13
ENDMDL
