MODEL 1
REMARK VINA RESULT:     -12.7      0.000      0.000
REMARK SMILES O=C(NCCCCNC(=O)c1cc(C2CC2)nc2c(-c3ccc(Cl)cc3)cnn12)c1ccc(-c2c3nc(c(-c4c(F)c(F)c(F)c(F)c4F)c4ccc([nH]4)c(-c4c(F)c(F)c(F)c(F)c4F)c4nc(c(-c5c(F)c(F)c(F)c(F)c5F)c5ccc2[nH]5)C=C4)C=C3)cc1
REMARK SMILES IDX 5 1 4 2 3 3 1 4 2 5 30 7 31 8 92 9 32 10 91 11 33 12 34 13
REMARK SMILES IDX 35 14 85 15 36 16 90 17 84 18 86 19 37 20 89 21 83 22 82 23
REMARK SMILES IDX 38 25 70 26 50 27 69 28 51 29 54 30 68 31 87 32 52 33 53 34
REMARK SMILES IDX 67 36 88 37 55 38 39 39 40 40 48 41 41 42 42 43 46 44 49 45
REMARK SMILES IDX 43 46 44 47 47 48 45 49 71 50 72 51 80 52 73 53 74 54 78 55
REMARK SMILES IDX 81 56 75 57 76 58 79 59 77 60 56 61 57 62 65 63 58 64 59 65
REMARK SMILES IDX 63 66 66 67 60 68 61 69 64 70 62 71 6 72 7 73 8 74 9 75
REMARK SMILES IDX 10 77 11 78 12 79 29 80 13 81 18 82 28 83 17 84 19 85 27 86
REMARK SMILES IDX 14 87 15 88 16 89 20 90 21 91 26 92 22 93 25 94 23 95 24 96
REMARK H PARENT 3 6 86 24 54 35 8 76
REMARK Flexibility Score: inf
ROOT
ATOM      1  C   UNL A   1      35.566  24.138  24.764  1.00  0.00     0.023 C 
ENDROOT
BRANCH   1   2
ATOM      2  C   UNL A   1      36.274  23.818  26.075  1.00  0.00     0.116 C 
BRANCH   2   3
ATOM      3  N   UNL A   1      37.309  22.804  25.937  1.00  0.00    -0.352 N 
ATOM      4  O   UNL A   1      39.402  21.961  25.909  1.00  0.00    -0.269 OA
ATOM      5  C   UNL A   1      38.655  22.890  26.203  1.00  0.00     0.251 C 
ATOM      6  H   UNL A   1      37.001  21.931  25.606  1.00  0.00     0.163 HD
BRANCH   5   7
ATOM      7  C   UNL A   1      39.210  24.116  26.816  1.00  0.00     0.039 A 
ATOM      8  C   UNL A   1      39.014  24.390  28.171  1.00  0.00     0.014 A 
ATOM      9  C   UNL A   1      39.933  25.008  26.018  1.00  0.00     0.014 A 
ATOM     10  C   UNL A   1      39.403  25.619  28.691  1.00  0.00     0.010 A 
ATOM     11  C   UNL A   1      40.403  26.206  26.565  1.00  0.00     0.010 A 
ATOM     12  C   UNL A   1      40.111  26.535  27.897  1.00  0.00    -0.014 A 
BRANCH  12  13
ATOM     13  C   UNL A   1      40.592  27.802  28.505  1.00  0.00     0.031 A 
ATOM     14  C   UNL A   1      42.042  28.007  28.840  1.00  0.00     0.074 A 
ATOM     15  C   UNL A   1      39.698  28.783  28.738  1.00  0.00     0.049 A 
ATOM     16  N   UNL A   1      42.626  29.055  29.367  1.00  0.00    -0.248 NA
ATOM     17  C   UNL A   1      42.955  26.890  28.559  1.00  0.00     0.031 C 
ATOM     18  C   UNL A   1      38.261  28.689  28.471  1.00  0.00     0.029 A 
ATOM     19  N   UNL A   1      39.862  30.048  29.239  1.00  0.00    -0.354 N 
ATOM     20  C   UNL A   1      43.967  28.720  29.496  1.00  0.00     0.074 A 
ATOM     21  C   UNL A   1      44.108  27.360  29.018  1.00  0.00     0.031 C 
ATOM     22  C   UNL A   1      37.681  29.856  28.779  1.00  0.00     0.029 A 
ATOM     23  C   UNL A   1      38.690  30.759  29.319  1.00  0.00     0.049 A 
ATOM     24  H   UNL A   1      40.735  30.411  29.514  1.00  0.00     0.167 HD
ATOM     25  C   UNL A   1      44.985  29.481  29.967  1.00  0.00     0.037 A 
ATOM     26  C   UNL A   1      38.448  31.994  29.795  1.00  0.00     0.037 A 
ATOM     27  C   UNL A   1      44.838  30.839  30.426  1.00  0.00     0.049 A 
ATOM     28  C   UNL A   1      39.593  32.810  30.321  1.00  0.00     0.074 A 
ATOM     29  C   UNL A   1      45.818  31.711  30.871  1.00  0.00     0.029 A 
ATOM     30  N   UNL A   1      43.632  31.521  30.509  1.00  0.00    -0.354 N 
ATOM     31  N   UNL A   1      40.864  32.499  30.393  1.00  0.00    -0.248 NA
ATOM     32  C   UNL A   1      39.270  34.148  30.831  1.00  0.00     0.031 C 
ATOM     33  C   UNL A   1      45.198  32.902  31.268  1.00  0.00     0.029 A 
ATOM     34  C   UNL A   1      43.840  32.792  31.024  1.00  0.00     0.049 A 
ATOM     35  H   UNL A   1      42.758  31.156  30.240  1.00  0.00     0.167 HD
ATOM     36  C   UNL A   1      41.495  33.603  30.947  1.00  0.00     0.074 A 
ATOM     37  C   UNL A   1      40.469  34.602  31.168  1.00  0.00     0.031 C 
ATOM     38  C   UNL A   1      42.806  33.772  31.246  1.00  0.00     0.037 A 
BRANCH  25  39
ATOM     39  C   UNL A   1      46.351  28.860  30.029  1.00  0.00     0.064 A 
ATOM     40  C   UNL A   1      46.799  28.169  31.165  1.00  0.00     0.173 A 
ATOM     41  C   UNL A   1      47.206  28.915  28.917  1.00  0.00     0.173 A 
ATOM     42  F   UNL A   1      46.024  28.094  32.258  1.00  0.00    -0.203 F 
ATOM     43  C   UNL A   1      48.061  27.581  31.195  1.00  0.00     0.198 A 
ATOM     44  C   UNL A   1      48.457  28.302  28.941  1.00  0.00     0.198 A 
ATOM     45  F   UNL A   1      46.825  29.555  27.802  1.00  0.00    -0.203 F 
ATOM     46  F   UNL A   1      48.485  26.964  32.308  1.00  0.00    -0.200 F 
ATOM     47  C   UNL A   1      48.886  27.642  30.082  1.00  0.00     0.200 A 
ATOM     48  F   UNL A   1      49.247  28.351  27.860  1.00  0.00    -0.200 F 
ATOM     49  F   UNL A   1      50.097  27.069  30.111  1.00  0.00    -0.200 F 
ENDBRANCH  25  39
BRANCH  26  50
ATOM     50  C   UNL A   1      37.059  32.516  29.797  1.00  0.00     0.064 A 
ATOM     51  C   UNL A   1      36.214  32.323  30.897  1.00  0.00     0.173 A 
ATOM     52  C   UNL A   1      36.560  33.247  28.708  1.00  0.00     0.173 A 
ATOM     53  F   UNL A   1      36.642  31.616  31.953  1.00  0.00    -0.203 F 
ATOM     54  C   UNL A   1      34.919  32.835  30.906  1.00  0.00     0.198 A 
ATOM     55  C   UNL A   1      35.276  33.783  28.729  1.00  0.00     0.198 A 
ATOM     56  F   UNL A   1      37.334  33.465  27.635  1.00  0.00    -0.203 F 
ATOM     57  F   UNL A   1      34.119  32.609  31.956  1.00  0.00    -0.200 F 
ATOM     58  C   UNL A   1      34.453  33.572  29.826  1.00  0.00     0.200 A 
ATOM     59  F   UNL A   1      34.838  34.511  27.694  1.00  0.00    -0.200 F 
ATOM     60  F   UNL A   1      33.213  34.076  29.841  1.00  0.00    -0.200 F 
ENDBRANCH  26  50
BRANCH  38  61
ATOM     61  C   UNL A   1      43.205  35.094  31.833  1.00  0.00     0.064 A 
ATOM     62  C   UNL A   1      43.676  36.141  31.027  1.00  0.00     0.173 A 
ATOM     63  C   UNL A   1      43.090  35.323  33.212  1.00  0.00     0.173 A 
ATOM     64  F   UNL A   1      43.821  35.964  29.705  1.00  0.00    -0.203 F 
ATOM     65  C   UNL A   1      44.042  37.363  31.586  1.00  0.00     0.198 A 
ATOM     66  C   UNL A   1      43.430  36.556  33.763  1.00  0.00     0.198 A 
ATOM     67  F   UNL A   1      42.642  34.355  34.024  1.00  0.00    -0.203 F 
ATOM     68  F   UNL A   1      44.535  38.333  30.805  1.00  0.00    -0.200 F 
ATOM     69  C   UNL A   1      43.912  37.571  32.951  1.00  0.00     0.200 A 
ATOM     70  F   UNL A   1      43.294  36.759  35.080  1.00  0.00    -0.200 F 
ATOM     71  F   UNL A   1      44.261  38.750  33.486  1.00  0.00    -0.200 F 
ENDBRANCH  38  61
ENDBRANCH  12  13
ENDBRANCH   5   7
ENDBRANCH   2   3
ENDBRANCH   1   2
BRANCH   1  72
ATOM     72  C   UNL A   1      34.683  23.026  24.210  1.00  0.00     0.023 C 
BRANCH  72  73
ATOM     73  C   UNL A   1      33.183  23.268  24.316  1.00  0.00     0.116 C 
BRANCH  73  74
ATOM     74  N   UNL A   1      32.655  23.078  25.659  1.00  0.00    -0.351 N 
ATOM     75  C   UNL A   1      32.060  23.985  26.498  1.00  0.00     0.270 C 
ATOM     76  H   UNL A   1      32.737  22.164  26.018  1.00  0.00     0.163 HD
ATOM     77  O   UNL A   1      31.618  23.624  27.583  1.00  0.00    -0.268 OA
BRANCH  75  78
ATOM     78  C   UNL A   1      31.932  25.374  26.027  1.00  0.00     0.134 A 
ATOM     79  C   UNL A   1      32.784  26.276  26.543  1.00  0.00     0.058 A 
ATOM     80  N   UNL A   1      30.973  25.756  25.093  1.00  0.00    -0.209 N 
ATOM     81  C   UNL A   1      32.461  27.689  26.227  1.00  0.00     0.048 A 
ATOM     82  C   UNL A   1      30.863  27.107  24.722  1.00  0.00     0.164 A 
ATOM     83  N   UNL A   1      30.041  24.994  24.460  1.00  0.00    -0.174 NA
ATOM     84  N   UNL A   1      31.594  28.086  25.347  1.00  0.00    -0.233 NA
ATOM     85  C   UNL A   1      29.893  27.157  23.739  1.00  0.00     0.047 A 
ATOM     86  C   UNL A   1      29.425  25.835  23.630  1.00  0.00     0.146 A 
BRANCH  81  87
ATOM     87  C   UNL A   1      33.094  28.760  27.046  1.00  0.00     0.038 C 
ATOM     88  C   UNL A   1      34.507  29.258  26.836  1.00  0.00     0.010 C 
ATOM     89  C   UNL A   1      33.339  30.142  26.504  1.00  0.00     0.010 C 
ENDBRANCH  81  87
BRANCH  85  90
ATOM     90  C   UNL A   1      29.455  28.358  23.061  1.00  0.00    -0.013 A 
ATOM     91  C   UNL A   1      30.359  29.121  22.309  1.00  0.00     0.010 A 
ATOM     92  C   UNL A   1      28.113  28.755  23.133  1.00  0.00     0.010 A 
ATOM     93  C   UNL A   1      29.925  30.264  21.633  1.00  0.00     0.021 A 
ATOM     94  C   UNL A   1      27.683  29.905  22.464  1.00  0.00     0.021 A 
ATOM     95  C   UNL A   1      28.590  30.651  21.715  1.00  0.00     0.041 A 
ATOM     96  Cl  UNL A   1      28.057  32.062  20.886  1.00  0.00    -0.084 Cl
ENDBRANCH  85  90
ENDBRANCH  75  78
ENDBRANCH  73  74
ENDBRANCH  72  73
ENDBRANCH   1  72
TORSDOF 13
ENDMDL
MODEL 2
REMARK VINA RESULT:     -12.7      4.367      7.786
REMARK SMILES O=C(NCCCCNC(=O)c1cc(C2CC2)nc2c(-c3ccc(Cl)cc3)cnn12)c1ccc(-c2c3nc(c(-c4c(F)c(F)c(F)c(F)c4F)c4ccc([nH]4)c(-c4c(F)c(F)c(F)c(F)c4F)c4nc(c(-c5c(F)c(F)c(F)c(F)c5F)c5ccc2[nH]5)C=C4)C=C3)cc1
REMARK SMILES IDX 5 1 4 2 3 3 1 4 2 5 30 7 31 8 92 9 32 10 91 11 33 12 34 13
REMARK SMILES IDX 35 14 85 15 36 16 90 17 84 18 86 19 37 20 89 21 83 22 82 23
REMARK SMILES IDX 38 25 70 26 50 27 69 28 51 29 54 30 68 31 87 32 52 33 53 34
REMARK SMILES IDX 67 36 88 37 55 38 39 39 40 40 48 41 41 42 42 43 46 44 49 45
REMARK SMILES IDX 43 46 44 47 47 48 45 49 71 50 72 51 80 52 73 53 74 54 78 55
REMARK SMILES IDX 81 56 75 57 76 58 79 59 77 60 56 61 57 62 65 63 58 64 59 65
REMARK SMILES IDX 63 66 66 67 60 68 61 69 64 70 62 71 6 72 7 73 8 74 9 75
REMARK SMILES IDX 10 77 11 78 12 79 29 80 13 81 18 82 28 83 17 84 19 85 27 86
REMARK SMILES IDX 14 87 15 88 16 89 20 90 21 91 26 92 22 93 25 94 23 95 24 96
REMARK H PARENT 3 6 86 24 54 35 8 76
REMARK Flexibility Score: inf
ROOT
ATOM      1  C   UNL A   1      31.882  28.149  25.920  1.00  0.00     0.023 C 
ENDROOT
BRANCH   1   2
ATOM      2  C   UNL A   1      32.946  29.204  25.647  1.00  0.00     0.116 C 
BRANCH   2   3
ATOM      3  N   UNL A   1      32.545  30.543  26.052  1.00  0.00    -0.352 N 
ATOM      4  O   UNL A   1      32.560  32.434  27.284  1.00  0.00    -0.269 OA
ATOM      5  C   UNL A   1      33.111  31.378  26.987  1.00  0.00     0.251 C 
ATOM      6  H   UNL A   1      31.755  30.903  25.591  1.00  0.00     0.163 HD
BRANCH   5   7
ATOM      7  C   UNL A   1      34.370  30.990  27.657  1.00  0.00     0.039 A 
ATOM      8  C   UNL A   1      34.558  29.689  28.128  1.00  0.00     0.014 A 
ATOM      9  C   UNL A   1      35.376  31.947  27.822  1.00  0.00     0.014 A 
ATOM     10  C   UNL A   1      35.678  29.387  28.895  1.00  0.00     0.010 A 
ATOM     11  C   UNL A   1      36.544  31.616  28.516  1.00  0.00     0.010 A 
ATOM     12  C   UNL A   1      36.688  30.343  29.088  1.00  0.00    -0.014 A 
BRANCH  12  13
ATOM     13  C   UNL A   1      37.913  29.964  29.836  1.00  0.00     0.031 A 
ATOM     14  C   UNL A   1      38.928  29.024  29.248  1.00  0.00     0.074 A 
ATOM     15  C   UNL A   1      38.110  30.495  31.058  1.00  0.00     0.049 A 
ATOM     16  N   UNL A   1      40.053  28.598  29.766  1.00  0.00    -0.248 NA
ATOM     17  C   UNL A   1      38.641  28.485  27.911  1.00  0.00     0.031 C 
ATOM     18  C   UNL A   1      37.184  31.402  31.738  1.00  0.00     0.029 A 
ATOM     19  N   UNL A   1      39.152  30.360  31.939  1.00  0.00    -0.354 N 
ATOM     20  C   UNL A   1      40.599  27.730  28.830  1.00  0.00     0.074 A 
ATOM     21  C   UNL A   1      39.669  27.668  27.722  1.00  0.00     0.031 C 
ATOM     22  C   UNL A   1      37.711  31.769  32.913  1.00  0.00     0.029 A 
ATOM     23  C   UNL A   1      38.982  31.079  33.097  1.00  0.00     0.049 A 
ATOM     24  H   UNL A   1      39.943  29.802  31.760  1.00  0.00     0.167 HD
ATOM     25  C   UNL A   1      41.772  27.052  28.891  1.00  0.00     0.037 A 
ATOM     26  C   UNL A   1      39.754  31.157  34.196  1.00  0.00     0.037 A 
ATOM     27  C   UNL A   1      42.699  27.133  29.992  1.00  0.00     0.049 A 
ATOM     28  C   UNL A   1      41.041  30.387  34.242  1.00  0.00     0.074 A 
ATOM     29  C   UNL A   1      43.937  26.527  30.122  1.00  0.00     0.029 A 
ATOM     30  N   UNL A   1      42.486  27.858  31.156  1.00  0.00    -0.354 N 
ATOM     31  N   UNL A   1      41.568  29.607  33.330  1.00  0.00    -0.248 NA
ATOM     32  C   UNL A   1      41.840  30.507  35.467  1.00  0.00     0.031 C 
ATOM     33  C   UNL A   1      44.451  26.846  31.386  1.00  0.00     0.029 A 
ATOM     34  C   UNL A   1      43.557  27.692  32.021  1.00  0.00     0.049 A 
ATOM     35  H   UNL A   1      41.692  28.410  31.339  1.00  0.00     0.167 HD
ATOM     36  C   UNL A   1      42.764  29.151  33.865  1.00  0.00     0.074 A 
ATOM     37  C   UNL A   1      42.896  29.763  35.172  1.00  0.00     0.031 C 
ATOM     38  C   UNL A   1      43.669  28.301  33.323  1.00  0.00     0.037 A 
BRANCH  25  39
ATOM     39  C   UNL A   1      42.115  26.146  27.744  1.00  0.00     0.064 A 
ATOM     40  C   UNL A   1      43.042  26.517  26.759  1.00  0.00     0.173 A 
ATOM     41  C   UNL A   1      41.543  24.867  27.655  1.00  0.00     0.173 A 
ATOM     42  F   UNL A   1      43.612  27.732  26.792  1.00  0.00    -0.203 F 
ATOM     43  C   UNL A   1      43.364  25.653  25.714  1.00  0.00     0.198 A 
ATOM     44  C   UNL A   1      41.887  23.995  26.624  1.00  0.00     0.198 A 
ATOM     45  F   UNL A   1      40.656  24.457  28.574  1.00  0.00    -0.203 F 
ATOM     46  F   UNL A   1      44.219  26.047  24.760  1.00  0.00    -0.200 F 
ATOM     47  C   UNL A   1      42.791  24.391  25.651  1.00  0.00     0.200 A 
ATOM     48  F   UNL A   1      41.342  22.772  26.573  1.00  0.00    -0.200 F 
ATOM     49  F   UNL A   1      43.107  23.560  24.649  1.00  0.00    -0.200 F 
ENDBRANCH  25  39
BRANCH  26  50
ATOM     50  C   UNL A   1      39.311  31.995  35.339  1.00  0.00     0.064 A 
ATOM     51  C   UNL A   1      39.663  33.348  35.425  1.00  0.00     0.173 A 
ATOM     52  C   UNL A   1      38.499  31.463  36.353  1.00  0.00     0.173 A 
ATOM     53  F   UNL A   1      40.451  33.895  34.488  1.00  0.00    -0.203 F 
ATOM     54  C   UNL A   1      39.225  34.137  36.486  1.00  0.00     0.198 A 
ATOM     55  C   UNL A   1      38.039  32.260  37.398  1.00  0.00     0.198 A 
ATOM     56  F   UNL A   1      38.129  30.175  36.311  1.00  0.00    -0.203 F 
ATOM     57  F   UNL A   1      39.602  35.421  36.563  1.00  0.00    -0.200 F 
ATOM     58  C   UNL A   1      38.407  33.595  37.467  1.00  0.00     0.200 A 
ATOM     59  F   UNL A   1      37.232  31.738  38.331  1.00  0.00    -0.200 F 
ATOM     60  F   UNL A   1      37.976  34.358  38.479  1.00  0.00    -0.200 F 
ENDBRANCH  26  50
BRANCH  38  61
ATOM     61  C   UNL A   1      44.890  27.995  34.139  1.00  0.00     0.064 A 
ATOM     62  C   UNL A   1      46.035  28.802  34.077  1.00  0.00     0.173 A 
ATOM     63  C   UNL A   1      44.905  26.896  35.012  1.00  0.00     0.173 A 
ATOM     64  F   UNL A   1      46.076  29.853  33.244  1.00  0.00    -0.203 F 
ATOM     65  C   UNL A   1      47.160  28.506  34.842  1.00  0.00     0.198 A 
ATOM     66  C   UNL A   1      46.021  26.620  35.796  1.00  0.00     0.198 A 
ATOM     67  F   UNL A   1      43.833  26.095  35.110  1.00  0.00    -0.203 F 
ATOM     68  F   UNL A   1      48.261  29.263  34.732  1.00  0.00    -0.200 F 
ATOM     69  C   UNL A   1      47.150  27.420  35.705  1.00  0.00     0.200 A 
ATOM     70  F   UNL A   1      46.006  25.577  36.637  1.00  0.00    -0.200 F 
ATOM     71  F   UNL A   1      48.233  27.139  36.443  1.00  0.00    -0.200 F 
ENDBRANCH  38  61
ENDBRANCH  12  13
ENDBRANCH   5   7
ENDBRANCH   2   3
ENDBRANCH   1   2
BRANCH   1  72
ATOM     72  C   UNL A   1      32.387  26.713  25.983  1.00  0.00     0.023 C 
BRANCH  72  73
ATOM     73  C   UNL A   1      31.902  25.800  24.864  1.00  0.00     0.116 C 
BRANCH  73  74
ATOM     74  N   UNL A   1      32.640  25.960  23.619  1.00  0.00    -0.351 N 
ATOM     75  C   UNL A   1      33.560  25.125  23.038  1.00  0.00     0.270 C 
ATOM     76  H   UNL A   1      32.451  26.789  23.122  1.00  0.00     0.163 HD
ATOM     77  O   UNL A   1      34.039  25.402  21.944  1.00  0.00    -0.268 OA
BRANCH  75  78
ATOM     78  C   UNL A   1      33.902  23.881  23.748  1.00  0.00     0.134 A 
ATOM     79  C   UNL A   1      34.851  23.959  24.695  1.00  0.00     0.058 A 
ATOM     80  N   UNL A   1      33.285  22.667  23.459  1.00  0.00    -0.209 N 
ATOM     81  C   UNL A   1      35.331  22.652  25.206  1.00  0.00     0.048 A 
ATOM     82  C   UNL A   1      33.693  21.503  24.131  1.00  0.00     0.164 A 
ATOM     83  N   UNL A   1      32.310  22.396  22.551  1.00  0.00    -0.174 NA
ATOM     84  N   UNL A   1      34.771  21.502  24.980  1.00  0.00    -0.233 NA
ATOM     85  C   UNL A   1      32.856  20.494  23.693  1.00  0.00     0.047 A 
ATOM     86  C   UNL A   1      32.039  21.103  22.723  1.00  0.00     0.146 A 
BRANCH  81  87
ATOM     87  C   UNL A   1      36.619  22.612  25.953  1.00  0.00     0.038 C 
ATOM     88  C   UNL A   1      37.976  22.522  25.291  1.00  0.00     0.010 C 
ATOM     89  C   UNL A   1      37.560  23.785  25.989  1.00  0.00     0.010 C 
ENDBRANCH  81  87
BRANCH  85  90
ATOM     90  C   UNL A   1      32.912  19.116  24.130  1.00  0.00    -0.013 A 
ATOM     91  C   UNL A   1      32.627  18.778  25.460  1.00  0.00     0.010 A 
ATOM     92  C   UNL A   1      33.230  18.102  23.217  1.00  0.00     0.010 A 
ATOM     93  C   UNL A   1      32.655  17.444  25.871  1.00  0.00     0.021 A 
ATOM     94  C   UNL A   1      33.268  16.767  23.631  1.00  0.00     0.021 A 
ATOM     95  C   UNL A   1      32.977  16.445  24.955  1.00  0.00     0.041 A 
ATOM     96  Cl  UNL A   1      33.015  14.801  25.462  1.00  0.00    -0.084 Cl
ENDBRANCH  85  90
ENDBRANCH  75  78
ENDBRANCH  73  74
ENDBRANCH  72  73
ENDBRANCH   1  72
TORSDOF 13
ENDMDL
MODEL 3
REMARK VINA RESULT:     -12.7      4.380      9.190
REMARK SMILES O=C(NCCCCNC(=O)c1cc(C2CC2)nc2c(-c3ccc(Cl)cc3)cnn12)c1ccc(-c2c3nc(c(-c4c(F)c(F)c(F)c(F)c4F)c4ccc([nH]4)c(-c4c(F)c(F)c(F)c(F)c4F)c4nc(c(-c5c(F)c(F)c(F)c(F)c5F)c5ccc2[nH]5)C=C4)C=C3)cc1
REMARK SMILES IDX 5 1 4 2 3 3 1 4 2 5 30 7 31 8 92 9 32 10 91 11 33 12 34 13
REMARK SMILES IDX 35 14 85 15 36 16 90 17 84 18 86 19 37 20 89 21 83 22 82 23
REMARK SMILES IDX 38 25 70 26 50 27 69 28 51 29 54 30 68 31 87 32 52 33 53 34
REMARK SMILES IDX 67 36 88 37 55 38 39 39 40 40 48 41 41 42 42 43 46 44 49 45
REMARK SMILES IDX 43 46 44 47 47 48 45 49 71 50 72 51 80 52 73 53 74 54 78 55
REMARK SMILES IDX 81 56 75 57 76 58 79 59 77 60 56 61 57 62 65 63 58 64 59 65
REMARK SMILES IDX 63 66 66 67 60 68 61 69 64 70 62 71 6 72 7 73 8 74 9 75
REMARK SMILES IDX 10 77 11 78 12 79 29 80 13 81 18 82 28 83 17 84 19 85 27 86
REMARK SMILES IDX 14 87 15 88 16 89 20 90 21 91 26 92 22 93 25 94 23 95 24 96
REMARK H PARENT 3 6 86 24 54 35 8 76
REMARK Flexibility Score: inf
ROOT
ATOM      1  C   UNL A   1      31.720  28.175  25.868  1.00  0.00     0.023 C 
ENDROOT
BRANCH   1   2
ATOM      2  C   UNL A   1      32.898  29.138  25.802  1.00  0.00     0.116 C 
BRANCH   2   3
ATOM      3  N   UNL A   1      32.537  30.511  26.121  1.00  0.00    -0.352 N 
ATOM      4  O   UNL A   1      32.617  32.479  27.222  1.00  0.00    -0.269 OA
ATOM      5  C   UNL A   1      33.138  31.392  26.989  1.00  0.00     0.251 C 
ATOM      6  H   UNL A   1      31.749  30.860  25.646  1.00  0.00     0.163 HD
BRANCH   5   7
ATOM      7  C   UNL A   1      34.396  31.017  27.668  1.00  0.00     0.039 A 
ATOM      8  C   UNL A   1      34.643  29.693  28.036  1.00  0.00     0.014 A 
ATOM      9  C   UNL A   1      35.341  32.009  27.945  1.00  0.00     0.014 A 
ATOM     10  C   UNL A   1      35.755  29.388  28.813  1.00  0.00     0.010 A 
ATOM     11  C   UNL A   1      36.505  31.684  28.649  1.00  0.00     0.010 A 
ATOM     12  C   UNL A   1      36.703  30.377  29.119  1.00  0.00    -0.014 A 
BRANCH  12  13
ATOM     13  C   UNL A   1      37.925  30.002  29.875  1.00  0.00     0.031 A 
ATOM     14  C   UNL A   1      38.167  30.508  31.269  1.00  0.00     0.074 A 
ATOM     15  C   UNL A   1      38.816  29.178  29.290  1.00  0.00     0.049 A 
ATOM     16  N   UNL A   1      39.177  30.270  32.068  1.00  0.00    -0.248 NA
ATOM     17  C   UNL A   1      37.151  31.404  31.838  1.00  0.00     0.031 C 
ATOM     18  C   UNL A   1      38.695  28.641  27.933  1.00  0.00     0.029 A 
ATOM     19  N   UNL A   1      39.986  28.641  29.758  1.00  0.00    -0.354 N 
ATOM     20  C   UNL A   1      38.930  30.997  33.224  1.00  0.00     0.074 A 
ATOM     21  C   UNL A   1      37.686  31.709  33.014  1.00  0.00     0.031 C 
ATOM     22  C   UNL A   1      39.730  27.826  27.690  1.00  0.00     0.029 A 
ATOM     23  C   UNL A   1      40.616  27.829  28.848  1.00  0.00     0.049 A 
ATOM     24  H   UNL A   1      40.341  28.821  30.659  1.00  0.00     0.167 HD
ATOM     25  C   UNL A   1      39.672  31.060  34.357  1.00  0.00     0.037 A 
ATOM     26  C   UNL A   1      41.789  27.175  28.926  1.00  0.00     0.037 A 
ATOM     27  C   UNL A   1      40.901  30.336  34.563  1.00  0.00     0.049 A 
ATOM     28  C   UNL A   1      42.596  27.272  30.189  1.00  0.00     0.074 A 
ATOM     29  C   UNL A   1      41.697  30.292  35.695  1.00  0.00     0.029 A 
ATOM     30  N   UNL A   1      41.518  29.536  33.612  1.00  0.00    -0.354 N 
ATOM     31  N   UNL A   1      42.327  27.925  31.292  1.00  0.00    -0.248 NA
ATOM     32  C   UNL A   1      43.869  26.541  30.216  1.00  0.00     0.031 C 
ATOM     33  C   UNL A   1      42.820  29.505  35.412  1.00  0.00     0.029 A 
ATOM     34  C   UNL A   1      42.698  29.017  34.122  1.00  0.00     0.049 A 
ATOM     35  H   UNL A   1      41.168  29.361  32.708  1.00  0.00     0.167 HD
ATOM     36  C   UNL A   1      43.389  27.678  32.149  1.00  0.00     0.074 A 
ATOM     37  C   UNL A   1      44.295  26.793  31.446  1.00  0.00     0.031 C 
ATOM     38  C   UNL A   1      43.594  28.144  33.405  1.00  0.00     0.037 A 
BRANCH  25  39
ATOM     39  C   UNL A   1      39.188  31.957  35.460  1.00  0.00     0.064 A 
ATOM     40  C   UNL A   1      38.384  31.478  36.504  1.00  0.00     0.173 A 
ATOM     41  C   UNL A   1      39.575  33.306  35.498  1.00  0.00     0.173 A 
ATOM     42  F   UNL A   1      37.978  30.199  36.512  1.00  0.00    -0.203 F 
ATOM     43  C   UNL A   1      37.963  32.322  37.530  1.00  0.00     0.198 A 
ATOM     44  C   UNL A   1      39.174  34.140  36.539  1.00  0.00     0.198 A 
ATOM     45  F   UNL A   1      40.350  33.815  34.528  1.00  0.00    -0.203 F 
ATOM     46  F   UNL A   1      37.158  31.852  38.494  1.00  0.00    -0.200 F 
ATOM     47  C   UNL A   1      38.363  33.650  37.550  1.00  0.00     0.200 A 
ATOM     48  F   UNL A   1      39.574  35.419  36.563  1.00  0.00    -0.200 F 
ATOM     49  F   UNL A   1      37.963  34.457  38.542  1.00  0.00    -0.200 F 
ENDBRANCH  25  39
BRANCH  26  50
ATOM     50  C   UNL A   1      42.261  26.382  27.764  1.00  0.00     0.064 A 
ATOM     51  C   UNL A   1      41.788  25.084  27.532  1.00  0.00     0.173 A 
ATOM     52  C   UNL A   1      43.172  26.922  26.843  1.00  0.00     0.173 A 
ATOM     53  F   UNL A   1      40.930  24.521  28.394  1.00  0.00    -0.203 F 
ATOM     54  C   UNL A   1      42.215  24.352  26.426  1.00  0.00     0.198 A 
ATOM     55  C   UNL A   1      43.575  26.201  25.722  1.00  0.00     0.198 A 
ATOM     56  F   UNL A   1      43.647  28.164  27.017  1.00  0.00    -0.203 F 
ATOM     57  F   UNL A   1      41.774  23.100  26.244  1.00  0.00    -0.200 F 
ATOM     58  C   UNL A   1      43.102  24.914  25.518  1.00  0.00     0.200 A 
ATOM     59  F   UNL A   1      44.415  26.754  24.838  1.00  0.00    -0.200 F 
ATOM     60  F   UNL A   1      43.500  24.214  24.448  1.00  0.00    -0.200 F 
ENDBRANCH  26  50
BRANCH  38  61
ATOM     61  C   UNL A   1      44.843  27.692  34.103  1.00  0.00     0.064 A 
ATOM     62  C   UNL A   1      44.875  26.509  34.856  1.00  0.00     0.173 A 
ATOM     63  C   UNL A   1      46.027  28.437  33.995  1.00  0.00     0.173 A 
ATOM     64  F   UNL A   1      43.763  25.773  35.004  1.00  0.00    -0.203 F 
ATOM     65  C   UNL A   1      46.042  26.102  35.498  1.00  0.00     0.198 A 
ATOM     66  C   UNL A   1      47.199  28.011  34.614  1.00  0.00     0.198 A 
ATOM     67  F   UNL A   1      46.049  29.573  33.283  1.00  0.00    -0.203 F 
ATOM     68  F   UNL A   1      46.037  24.995  36.252  1.00  0.00    -0.200 F 
ATOM     69  C   UNL A   1      47.204  26.849  35.370  1.00  0.00     0.200 A 
ATOM     70  F   UNL A   1      48.323  28.728  34.481  1.00  0.00    -0.200 F 
ATOM     71  F   UNL A   1      48.327  26.453  35.985  1.00  0.00    -0.200 F 
ENDBRANCH  38  61
ENDBRANCH  12  13
ENDBRANCH   5   7
ENDBRANCH   2   3
ENDBRANCH   1   2
BRANCH   1  72
ATOM     72  C   UNL A   1      32.083  26.712  26.091  1.00  0.00     0.023 C 
BRANCH  72  73
ATOM     73  C   UNL A   1      31.744  25.771  24.942  1.00  0.00     0.116 C 
BRANCH  73  74
ATOM     74  N   UNL A   1      32.533  26.008  23.741  1.00  0.00    -0.351 N 
ATOM     75  C   UNL A   1      33.512  25.232  23.175  1.00  0.00     0.270 C 
ATOM     76  H   UNL A   1      32.335  26.849  23.267  1.00  0.00     0.163 HD
ATOM     77  O   UNL A   1      34.031  25.570  22.116  1.00  0.00    -0.268 OA
BRANCH  75  78
ATOM     78  C   UNL A   1      33.869  23.975  23.853  1.00  0.00     0.134 A 
ATOM     79  C   UNL A   1      34.830  24.037  24.790  1.00  0.00     0.058 A 
ATOM     80  N   UNL A   1      33.254  22.764  23.546  1.00  0.00    -0.209 N 
ATOM     81  C   UNL A   1      35.322  22.721  25.266  1.00  0.00     0.048 A 
ATOM     82  C   UNL A   1      33.676  21.588  24.187  1.00  0.00     0.164 A 
ATOM     83  N   UNL A   1      32.270  22.508  22.644  1.00  0.00    -0.174 NA
ATOM     84  N   UNL A   1      34.765  21.574  25.023  1.00  0.00    -0.233 NA
ATOM     85  C   UNL A   1      32.839  20.585  23.737  1.00  0.00     0.047 A 
ATOM     86  C   UNL A   1      32.006  21.211  22.791  1.00  0.00     0.146 A 
BRANCH  81  87
ATOM     87  C   UNL A   1      36.619  22.672  25.997  1.00  0.00     0.038 C 
ATOM     88  C   UNL A   1      37.936  22.298  25.352  1.00  0.00     0.010 C 
ATOM     89  C   UNL A   1      37.689  23.711  25.799  1.00  0.00     0.010 C 
ENDBRANCH  81  87
BRANCH  85  90
ATOM     90  C   UNL A   1      32.907  19.197  24.144  1.00  0.00    -0.013 A 
ATOM     91  C   UNL A   1      32.575  18.821  25.452  1.00  0.00     0.010 A 
ATOM     92  C   UNL A   1      33.284  18.214  23.220  1.00  0.00     0.010 A 
ATOM     93  C   UNL A   1      32.616  17.478  25.832  1.00  0.00     0.021 A 
ATOM     94  C   UNL A   1      33.334  16.870  23.604  1.00  0.00     0.021 A 
ATOM     95  C   UNL A   1      32.996  16.509  24.906  1.00  0.00     0.041 A 
ATOM     96  Cl  UNL A   1      33.050  14.854  25.375  1.00  0.00    -0.084 Cl
ENDBRANCH  85  90
ENDBRANCH  75  78
ENDBRANCH  73  74
ENDBRANCH  72  73
ENDBRANCH   1  72
TORSDOF 13
ENDMDL
