MODEL 1
REMARK VINA RESULT:     -11.6      0.000      0.000
REMARK SMILES C[C@@H](C(=O)NCCCCNC(=O)c1ccc(-c2c3nc(c(-c4c(F)c(F)c(F)c(F)c4F)c4ccc([nH]4)c(-c4c(F)c(F)c(F)c(F)c4F)c4nc(c(-c5c(F)c(F)c(F)c(F)c5F)c5ccc2[nH]5)C=C4)C=C3)cc1)c1ccc2c(c1)[nH]c1ccc(Cl)cc12
REMARK SMILES IDX 8 1 7 2 6 3 5 4 3 5 4 6 2 8 1 9 76 10 77 11 81 12 78 13
REMARK SMILES IDX 80 14 79 15 82 16 89 17 83 18 88 20 84 21 86 22 85 23 87 24
REMARK SMILES IDX 9 25 10 26 11 27 12 29 13 30 14 31 75 32 15 33 74 34 16 35
REMARK SMILES IDX 17 36 18 37 68 38 19 39 73 40 67 41 69 42 20 43 72 44 66 45
REMARK SMILES IDX 65 46 21 48 53 49 33 50 52 51 34 52 37 53 51 54 70 55 35 56
REMARK SMILES IDX 36 57 50 59 71 60 38 61 22 62 23 63 31 64 24 65 25 66 29 67
REMARK SMILES IDX 32 68 26 69 27 70 30 71 28 72 54 73 55 74 63 75 56 76 57 77
REMARK SMILES IDX 61 78 64 79 58 80 59 81 62 82 60 83 39 84 40 85 48 86 41 87
REMARK SMILES IDX 42 88 46 89 49 90 43 91 44 92 47 93 45 94
REMARK H PARENT 5 7 82 19 10 28 69 47 37 58
REMARK Flexibility Score: inf
ROOT
ATOM      1  C   UNL A   1      34.788  34.230  29.272  1.00  0.00     0.023 C 
ENDROOT
BRANCH   1   2
ATOM      2  C   UNL A   1      33.460  34.973  29.069  1.00  0.00     0.023 C 
BRANCH   2   3
ATOM      3  C   UNL A   1      33.295  36.239  29.915  1.00  0.00     0.116 C 
BRANCH   3   4
ATOM      4  N   UNL A   1      32.169  36.127  30.816  1.00  0.00    -0.356 N 
ATOM      5  C   UNL A   1      32.084  36.127  32.174  1.00  0.00     0.227 C 
ATOM      6  O   UNL A   1      30.940  36.011  32.624  1.00  0.00    -0.274 OA
ATOM      7  H   UNL A   1      31.301  36.031  30.363  1.00  0.00     0.163 HD
BRANCH   5   8
ATOM      8  C   UNL A   1      33.322  36.335  33.077  1.00  0.00     0.105 C 
ATOM      9  C   UNL A   1      34.129  37.606  32.777  1.00  0.00     0.023 C 
BRANCH   8  10
ATOM     10  C   UNL A   1      34.300  35.156  32.970  1.00  0.00    -0.034 A 
ATOM     11  C   UNL A   1      33.854  33.855  32.709  1.00  0.00     0.005 A 
ATOM     12  C   UNL A   1      35.669  35.384  33.202  1.00  0.00     0.031 A 
ATOM     13  C   UNL A   1      34.750  32.771  32.691  1.00  0.00     0.011 A 
ATOM     14  C   UNL A   1      36.534  34.290  33.223  1.00  0.00     0.047 A 
ATOM     15  C   UNL A   1      36.116  32.987  32.972  1.00  0.00     0.007 A 
ATOM     16  N   UNL A   1      37.878  34.250  33.491  1.00  0.00    -0.355 N 
ATOM     17  C   UNL A   1      37.272  32.146  33.095  1.00  0.00     0.009 A 
ATOM     18  C   UNL A   1      38.340  32.958  33.480  1.00  0.00     0.047 A 
ATOM     19  H   UNL A   1      38.436  35.042  33.668  1.00  0.00     0.167 HD
ATOM     20  C   UNL A   1      37.506  30.764  32.946  1.00  0.00     0.031 A 
ATOM     21  C   UNL A   1      39.614  32.465  33.779  1.00  0.00     0.028 A 
ATOM     22  C   UNL A   1      38.782  30.258  33.223  1.00  0.00     0.041 A 
ATOM     23  C   UNL A   1      39.815  31.089  33.650  1.00  0.00     0.022 A 
ATOM     24  Cl  UNL A   1      39.081  28.571  33.042  1.00  0.00    -0.084 Cl
ENDBRANCH   8  10
ENDBRANCH   5   8
ENDBRANCH   3   4
ENDBRANCH   2   3
ENDBRANCH   1   2
BRANCH   1  25
ATOM     25  C   UNL A   1      35.181  33.257  28.163  1.00  0.00     0.116 C 
BRANCH  25  26
ATOM     26  N   UNL A   1      34.195  32.210  27.949  1.00  0.00    -0.352 N 
ATOM     27  C   UNL A   1      34.362  30.845  27.894  1.00  0.00     0.251 C 
ATOM     28  H   UNL A   1      33.269  32.524  27.825  1.00  0.00     0.163 HD
ATOM     29  O   UNL A   1      33.423  30.123  27.584  1.00  0.00    -0.269 OA
BRANCH  27  30
ATOM     30  C   UNL A   1      35.690  30.252  28.165  1.00  0.00     0.039 A 
ATOM     31  C   UNL A   1      36.626  30.209  27.128  1.00  0.00     0.014 A 
ATOM     32  C   UNL A   1      36.019  29.760  29.431  1.00  0.00     0.014 A 
ATOM     33  C   UNL A   1      37.926  29.766  27.386  1.00  0.00     0.010 A 
ATOM     34  C   UNL A   1      37.331  29.372  29.700  1.00  0.00     0.010 A 
ATOM     35  C   UNL A   1      38.303  29.398  28.688  1.00  0.00    -0.014 A 
BRANCH  35  36
ATOM     36  C   UNL A   1      39.723  29.118  29.029  1.00  0.00     0.031 A 
ATOM     37  C   UNL A   1      40.579  30.171  29.672  1.00  0.00     0.074 A 
ATOM     38  C   UNL A   1      40.265  27.941  28.659  1.00  0.00     0.049 A 
ATOM     39  N   UNL A   1      41.862  30.148  29.929  1.00  0.00    -0.248 NA
ATOM     40  C   UNL A   1      39.910  31.423  30.060  1.00  0.00     0.031 C 
ATOM     41  C   UNL A   1      39.548  26.855  27.985  1.00  0.00     0.029 A 
ATOM     42  N   UNL A   1      41.549  27.467  28.771  1.00  0.00    -0.354 N 
ATOM     43  C   UNL A   1      42.159  31.381  30.491  1.00  0.00     0.074 A 
ATOM     44  C   UNL A   1      40.929  32.143  30.513  1.00  0.00     0.031 C 
ATOM     45  C   UNL A   1      40.401  25.848  27.742  1.00  0.00     0.029 A 
ATOM     46  C   UNL A   1      41.732  26.229  28.202  1.00  0.00     0.049 A 
ATOM     47  H   UNL A   1      42.271  27.966  29.219  1.00  0.00     0.167 HD
ATOM     48  C   UNL A   1      43.350  31.829  30.957  1.00  0.00     0.037 A 
ATOM     49  C   UNL A   1      42.851  25.496  28.040  1.00  0.00     0.037 A 
ATOM     50  C   UNL A   1      44.565  31.055  30.963  1.00  0.00     0.049 A 
ATOM     51  C   UNL A   1      44.161  26.031  28.551  1.00  0.00     0.074 A 
ATOM     52  C   UNL A   1      45.793  31.388  31.508  1.00  0.00     0.029 A 
ATOM     53  N   UNL A   1      44.707  29.801  30.389  1.00  0.00    -0.354 N 
ATOM     54  N   UNL A   1      44.409  27.162  29.165  1.00  0.00    -0.248 NA
ATOM     55  C   UNL A   1      45.349  25.190  28.342  1.00  0.00     0.031 C 
ATOM     56  C   UNL A   1      46.695  30.359  31.214  1.00  0.00     0.029 A 
ATOM     57  C   UNL A   1      46.016  29.365  30.530  1.00  0.00     0.049 A 
ATOM     58  H   UNL A   1      43.987  29.296  29.948  1.00  0.00     0.167 HD
ATOM     59  C   UNL A   1      45.771  27.159  29.432  1.00  0.00     0.074 A 
ATOM     60  C   UNL A   1      46.293  25.905  28.934  1.00  0.00     0.031 C 
ATOM     61  C   UNL A   1      46.523  28.115  30.029  1.00  0.00     0.037 A 
BRANCH  48  62
ATOM     62  C   UNL A   1      43.416  33.222  31.508  1.00  0.00     0.064 A 
ATOM     63  C   UNL A   1      43.629  34.331  30.678  1.00  0.00     0.173 A 
ATOM     64  C   UNL A   1      43.165  33.455  32.869  1.00  0.00     0.173 A 
ATOM     65  F   UNL A   1      43.880  34.160  29.372  1.00  0.00    -0.203 F 
ATOM     66  C   UNL A   1      43.597  35.625  31.192  1.00  0.00     0.198 A 
ATOM     67  C   UNL A   1      43.108  34.751  33.374  1.00  0.00     0.198 A 
ATOM     68  F   UNL A   1      42.947  32.427  33.703  1.00  0.00    -0.203 F 
ATOM     69  F   UNL A   1      43.823  36.671  30.385  1.00  0.00    -0.200 F 
ATOM     70  C   UNL A   1      43.325  35.834  32.537  1.00  0.00     0.200 A 
ATOM     71  F   UNL A   1      42.832  34.952  34.671  1.00  0.00    -0.200 F 
ATOM     72  F   UNL A   1      43.272  37.081  33.025  1.00  0.00    -0.200 F 
ENDBRANCH  48  62
BRANCH  49  73
ATOM     73  C   UNL A   1      42.791  24.185  27.341  1.00  0.00     0.064 A 
ATOM     74  C   UNL A   1      42.469  23.010  28.036  1.00  0.00     0.173 A 
ATOM     75  C   UNL A   1      43.091  24.073  25.975  1.00  0.00     0.173 A 
ATOM     76  F   UNL A   1      42.199  23.062  29.348  1.00  0.00    -0.203 F 
ATOM     77  C   UNL A   1      42.480  21.771  27.398  1.00  0.00     0.198 A 
ATOM     78  C   UNL A   1      43.069  22.838  25.332  1.00  0.00     0.198 A 
ATOM     79  F   UNL A   1      43.403  25.167  25.263  1.00  0.00    -0.203 F 
ATOM     80  F   UNL A   1      42.226  20.658  28.098  1.00  0.00    -0.200 F 
ATOM     81  C   UNL A   1      42.775  21.687  26.045  1.00  0.00     0.200 A 
ATOM     82  F   UNL A   1      43.341  22.763  24.022  1.00  0.00    -0.200 F 
ATOM     83  F   UNL A   1      42.788  20.495  25.434  1.00  0.00    -0.200 F 
ENDBRANCH  49  73
BRANCH  61  84
ATOM     84  C   UNL A   1      47.989  27.838  30.189  1.00  0.00     0.064 A 
ATOM     85  C   UNL A   1      48.484  27.156  31.310  1.00  0.00     0.173 A 
ATOM     86  C   UNL A   1      48.901  28.218  29.193  1.00  0.00     0.173 A 
ATOM     87  F   UNL A   1      47.654  26.788  32.297  1.00  0.00    -0.203 F 
ATOM     88  C   UNL A   1      49.844  26.881  31.437  1.00  0.00     0.198 A 
ATOM     89  C   UNL A   1      50.255  27.916  29.310  1.00  0.00     0.198 A 
ATOM     90  F   UNL A   1      48.477  28.870  28.100  1.00  0.00    -0.203 F 
ATOM     91  F   UNL A   1      50.301  26.266  32.537  1.00  0.00    -0.200 F 
ATOM     92  C   UNL A   1      50.726  27.253  30.433  1.00  0.00     0.200 A 
ATOM     93  F   UNL A   1      51.104  28.265  28.333  1.00  0.00    -0.200 F 
ATOM     94  F   UNL A   1      52.032  26.979  30.553  1.00  0.00    -0.200 F 
ENDBRANCH  61  84
ENDBRANCH  35  36
ENDBRANCH  27  30
ENDBRANCH  25  26
ENDBRANCH   1  25
TORSDOF 12
ENDMDL
MODEL 2
REMARK VINA RESULT:     -11.5      5.094     10.827
REMARK SMILES C[C@@H](C(=O)NCCCCNC(=O)c1ccc(-c2c3nc(c(-c4c(F)c(F)c(F)c(F)c4F)c4ccc([nH]4)c(-c4c(F)c(F)c(F)c(F)c4F)c4nc(c(-c5c(F)c(F)c(F)c(F)c5F)c5ccc2[nH]5)C=C4)C=C3)cc1)c1ccc2c(c1)[nH]c1ccc(Cl)cc12
REMARK SMILES IDX 8 1 7 2 6 3 5 4 3 5 4 6 2 8 1 9 76 10 77 11 81 12 78 13
REMARK SMILES IDX 80 14 79 15 82 16 89 17 83 18 88 20 84 21 86 22 85 23 87 24
REMARK SMILES IDX 9 25 10 26 11 27 12 29 13 30 14 31 75 32 15 33 74 34 16 35
REMARK SMILES IDX 17 36 18 37 68 38 19 39 73 40 67 41 69 42 20 43 72 44 66 45
REMARK SMILES IDX 65 46 21 48 53 49 33 50 52 51 34 52 37 53 51 54 70 55 35 56
REMARK SMILES IDX 36 57 50 59 71 60 38 61 22 62 23 63 31 64 24 65 25 66 29 67
REMARK SMILES IDX 32 68 26 69 27 70 30 71 28 72 54 73 55 74 63 75 56 76 57 77
REMARK SMILES IDX 61 78 64 79 58 80 59 81 62 82 60 83 39 84 40 85 48 86 41 87
REMARK SMILES IDX 42 88 46 89 49 90 43 91 44 92 47 93 45 94
REMARK H PARENT 5 7 82 19 10 28 69 47 37 58
REMARK Flexibility Score: inf
ROOT
ATOM      1  C   UNL A   1      31.725  32.040  26.621  1.00  0.00     0.023 C 
ENDROOT
BRANCH   1   2
ATOM      2  C   UNL A   1      31.745  30.527  26.882  1.00  0.00     0.023 C 
BRANCH   2   3
ATOM      3  C   UNL A   1      32.597  29.716  25.901  1.00  0.00     0.116 C 
BRANCH   3   4
ATOM      4  N   UNL A   1      31.954  29.608  24.610  1.00  0.00    -0.356 N 
ATOM      5  C   UNL A   1      32.323  28.988  23.456  1.00  0.00     0.227 C 
ATOM      6  O   UNL A   1      31.518  29.099  22.526  1.00  0.00    -0.274 OA
ATOM      7  H   UNL A   1      31.087  30.070  24.555  1.00  0.00     0.163 HD
BRANCH   5   8
ATOM      8  C   UNL A   1      33.617  28.149  23.349  1.00  0.00     0.105 C 
ATOM      9  C   UNL A   1      34.281  28.168  21.965  1.00  0.00     0.023 C 
BRANCH   8  10
ATOM     10  C   UNL A   1      33.362  26.676  23.695  1.00  0.00    -0.034 A 
ATOM     11  C   UNL A   1      33.740  26.137  24.931  1.00  0.00     0.005 A 
ATOM     12  C   UNL A   1      32.790  25.836  22.722  1.00  0.00     0.031 A 
ATOM     13  C   UNL A   1      33.573  24.768  25.208  1.00  0.00     0.011 A 
ATOM     14  C   UNL A   1      32.673  24.474  22.999  1.00  0.00     0.047 A 
ATOM     15  C   UNL A   1      33.046  23.912  24.216  1.00  0.00     0.007 A 
ATOM     16  N   UNL A   1      32.219  23.460  22.197  1.00  0.00    -0.355 N 
ATOM     17  C   UNL A   1      32.793  22.503  24.122  1.00  0.00     0.009 A 
ATOM     18  C   UNL A   1      32.336  22.247  22.828  1.00  0.00     0.047 A 
ATOM     19  H   UNL A   1      31.857  23.584  21.290  1.00  0.00     0.167 HD
ATOM     20  C   UNL A   1      32.939  21.414  25.005  1.00  0.00     0.031 A 
ATOM     21  C   UNL A   1      32.069  20.962  22.346  1.00  0.00     0.028 A 
ATOM     22  C   UNL A   1      32.657  20.123  24.542  1.00  0.00     0.041 A 
ATOM     23  C   UNL A   1      32.247  19.896  23.231  1.00  0.00     0.022 A 
ATOM     24  Cl  UNL A   1      32.830  18.784  25.613  1.00  0.00    -0.084 Cl
ENDBRANCH   8  10
ENDBRANCH   5   8
ENDBRANCH   3   4
ENDBRANCH   2   3
ENDBRANCH   1   2
BRANCH   1  25
ATOM     25  C   UNL A   1      32.835  32.844  27.294  1.00  0.00     0.116 C 
BRANCH  25  26
ATOM     26  N   UNL A   1      32.420  34.188  27.662  1.00  0.00    -0.352 N 
ATOM     27  C   UNL A   1      32.946  35.042  28.605  1.00  0.00     0.251 C 
ATOM     28  H   UNL A   1      31.649  34.541  27.162  1.00  0.00     0.163 HD
ATOM     29  O   UNL A   1      32.383  36.099  28.858  1.00  0.00    -0.269 OA
BRANCH  27  30
ATOM     30  C   UNL A   1      34.167  34.660  29.348  1.00  0.00     0.039 A 
ATOM     31  C   UNL A   1      34.034  34.204  30.662  1.00  0.00     0.014 A 
ATOM     32  C   UNL A   1      35.429  34.732  28.752  1.00  0.00     0.014 A 
ATOM     33  C   UNL A   1      35.154  33.722  31.345  1.00  0.00     0.010 A 
ATOM     34  C   UNL A   1      36.535  34.200  29.414  1.00  0.00     0.010 A 
ATOM     35  C   UNL A   1      36.403  33.666  30.706  1.00  0.00    -0.014 A 
BRANCH  35  36
ATOM     36  C   UNL A   1      37.560  32.976  31.335  1.00  0.00     0.031 A 
ATOM     37  C   UNL A   1      38.176  31.768  30.690  1.00  0.00     0.074 A 
ATOM     38  C   UNL A   1      37.986  33.386  32.546  1.00  0.00     0.049 A 
ATOM     39  N   UNL A   1      39.106  30.971  31.151  1.00  0.00    -0.248 NA
ATOM     40  C   UNL A   1      37.667  31.393  29.361  1.00  0.00     0.031 C 
ATOM     41  C   UNL A   1      37.437  34.519  33.296  1.00  0.00     0.029 A 
ATOM     42  N   UNL A   1      38.959  32.884  33.375  1.00  0.00    -0.354 N 
ATOM     43  C   UNL A   1      39.283  29.994  30.183  1.00  0.00     0.074 A 
ATOM     44  C   UNL A   1      38.345  30.278  29.118  1.00  0.00     0.031 C 
ATOM     45  C   UNL A   1      38.077  34.622  34.471  1.00  0.00     0.029 A 
ATOM     46  C   UNL A   1      39.052  33.541  34.579  1.00  0.00     0.049 A 
ATOM     47  H   UNL A   1      39.538  32.126  33.129  1.00  0.00     0.167 HD
ATOM     48  C   UNL A   1      40.160  28.961  30.179  1.00  0.00     0.037 A 
ATOM     49  C   UNL A   1      39.812  33.284  35.660  1.00  0.00     0.037 A 
ATOM     50  C   UNL A   1      41.115  28.700  31.225  1.00  0.00     0.049 A 
ATOM     51  C   UNL A   1      40.761  32.116  35.632  1.00  0.00     0.074 A 
ATOM     52  C   UNL A   1      42.111  27.739  31.260  1.00  0.00     0.029 A 
ATOM     53  N   UNL A   1      41.186  29.394  32.423  1.00  0.00    -0.354 N 
ATOM     54  N   UNL A   1      40.983  31.256  34.670  1.00  0.00    -0.248 NA
ATOM     55  C   UNL A   1      41.562  31.882  36.843  1.00  0.00     0.031 C 
ATOM     56  C   UNL A   1      42.748  27.815  32.503  1.00  0.00     0.029 A 
ATOM     57  C   UNL A   1      42.182  28.854  33.222  1.00  0.00     0.049 A 
ATOM     58  H   UNL A   1      40.615  30.158  32.669  1.00  0.00     0.167 HD
ATOM     59  C   UNL A   1      41.959  30.393  35.150  1.00  0.00     0.074 A 
ATOM     60  C   UNL A   1      42.303  30.846  36.480  1.00  0.00     0.031 C 
ATOM     61  C   UNL A   1      42.514  29.314  34.544  1.00  0.00     0.037 A 
BRANCH  48  62
ATOM     62  C   UNL A   1      40.144  28.022  29.010  1.00  0.00     0.064 A 
ATOM     63  C   UNL A   1      40.869  28.293  27.840  1.00  0.00     0.173 A 
ATOM     64  C   UNL A   1      39.475  26.792  29.099  1.00  0.00     0.173 A 
ATOM     65  F   UNL A   1      41.519  29.458  27.704  1.00  0.00    -0.203 F 
ATOM     66  C   UNL A   1      40.917  27.370  26.799  1.00  0.00     0.198 A 
ATOM     67  C   UNL A   1      39.546  25.862  28.067  1.00  0.00     0.198 A 
ATOM     68  F   UNL A   1      38.773  26.482  30.201  1.00  0.00    -0.203 F 
ATOM     69  F   UNL A   1      41.599  27.658  25.682  1.00  0.00    -0.200 F 
ATOM     70  C   UNL A   1      40.265  26.151  26.918  1.00  0.00     0.200 A 
ATOM     71  F   UNL A   1      38.927  24.679  28.189  1.00  0.00    -0.200 F 
ATOM     72  F   UNL A   1      40.331  25.254  25.924  1.00  0.00    -0.200 F 
ENDBRANCH  48  62
BRANCH  49  73
ATOM     73  C   UNL A   1      39.694  34.131  36.877  1.00  0.00     0.064 A 
ATOM     74  C   UNL A   1      40.426  35.321  37.002  1.00  0.00     0.173 A 
ATOM     75  C   UNL A   1      38.876  33.753  37.952  1.00  0.00     0.173 A 
ATOM     76  F   UNL A   1      41.240  35.713  36.011  1.00  0.00    -0.203 F 
ATOM     77  C   UNL A   1      40.369  36.081  38.168  1.00  0.00     0.198 A 
ATOM     78  C   UNL A   1      38.795  34.531  39.104  1.00  0.00     0.198 A 
ATOM     79  F   UNL A   1      38.152  32.625  37.882  1.00  0.00    -0.203 F 
ATOM     80  F   UNL A   1      41.124  37.182  38.285  1.00  0.00    -0.200 F 
ATOM     81  C   UNL A   1      39.550  35.688  39.217  1.00  0.00     0.200 A 
ATOM     82  F   UNL A   1      37.992  34.155  40.109  1.00  0.00    -0.200 F 
ATOM     83  F   UNL A   1      39.499  36.419  40.339  1.00  0.00    -0.200 F 
ENDBRANCH  49  73
BRANCH  61  84
ATOM     84  C   UNL A   1      43.560  28.559  35.308  1.00  0.00     0.064 A 
ATOM     85  C   UNL A   1      43.213  27.538  36.206  1.00  0.00     0.173 A 
ATOM     86  C   UNL A   1      44.923  28.826  35.111  1.00  0.00     0.173 A 
ATOM     87  F   UNL A   1      41.923  27.257  36.443  1.00  0.00    -0.203 F 
ATOM     88  C   UNL A   1      44.193  26.824  36.892  1.00  0.00     0.198 A 
ATOM     89  C   UNL A   1      45.901  28.091  35.776  1.00  0.00     0.198 A 
ATOM     90  F   UNL A   1      45.307  29.790  34.260  1.00  0.00    -0.203 F 
ATOM     91  F   UNL A   1      43.838  25.883  37.777  1.00  0.00    -0.200 F 
ATOM     92  C   UNL A   1      45.536  27.096  36.670  1.00  0.00     0.200 A 
ATOM     93  F   UNL A   1      47.197  28.346  35.550  1.00  0.00    -0.200 F 
ATOM     94  F   UNL A   1      46.477  26.402  37.323  1.00  0.00    -0.200 F 
ENDBRANCH  61  84
ENDBRANCH  35  36
ENDBRANCH  27  30
ENDBRANCH  25  26
ENDBRANCH   1  25
TORSDOF 12
ENDMDL
MODEL 3
REMARK VINA RESULT:     -11.5      4.811     10.785
REMARK SMILES C[C@@H](C(=O)NCCCCNC(=O)c1ccc(-c2c3nc(c(-c4c(F)c(F)c(F)c(F)c4F)c4ccc([nH]4)c(-c4c(F)c(F)c(F)c(F)c4F)c4nc(c(-c5c(F)c(F)c(F)c(F)c5F)c5ccc2[nH]5)C=C4)C=C3)cc1)c1ccc2c(c1)[nH]c1ccc(Cl)cc12
REMARK SMILES IDX 8 1 7 2 6 3 5 4 3 5 4 6 2 8 1 9 76 10 77 11 81 12 78 13
REMARK SMILES IDX 80 14 79 15 82 16 89 17 83 18 88 20 84 21 86 22 85 23 87 24
REMARK SMILES IDX 9 25 10 26 11 27 12 29 13 30 14 31 75 32 15 33 74 34 16 35
REMARK SMILES IDX 17 36 18 37 68 38 19 39 73 40 67 41 69 42 20 43 72 44 66 45
REMARK SMILES IDX 65 46 21 48 53 49 33 50 52 51 34 52 37 53 51 54 70 55 35 56
REMARK SMILES IDX 36 57 50 59 71 60 38 61 22 62 23 63 31 64 24 65 25 66 29 67
REMARK SMILES IDX 32 68 26 69 27 70 30 71 28 72 54 73 55 74 63 75 56 76 57 77
REMARK SMILES IDX 61 78 64 79 58 80 59 81 62 82 60 83 39 84 40 85 48 86 41 87
REMARK SMILES IDX 42 88 46 89 49 90 43 91 44 92 47 93 45 94
REMARK H PARENT 5 7 82 19 10 28 69 47 37 58
REMARK Flexibility Score: inf
ROOT
ATOM      1  C   UNL A   1      36.034  23.112  25.912  1.00  0.00     0.023 C 
ENDROOT
BRANCH   1   2
ATOM      2  C   UNL A   1      35.838  21.603  26.111  1.00  0.00     0.023 C 
BRANCH   2   3
ATOM      3  C   UNL A   1      35.219  20.871  24.917  1.00  0.00     0.116 C 
BRANCH   3   4
ATOM      4  N   UNL A   1      34.266  19.873  25.348  1.00  0.00    -0.356 N 
ATOM      5  C   UNL A   1      32.917  19.774  25.200  1.00  0.00     0.227 C 
ATOM      6  O   UNL A   1      32.410  18.766  25.703  1.00  0.00    -0.274 OA
ATOM      7  H   UNL A   1      34.668  19.123  25.843  1.00  0.00     0.163 HD
BRANCH   5   8
ATOM      8  C   UNL A   1      32.099  20.810  24.396  1.00  0.00     0.105 C 
ATOM      9  C   UNL A   1      32.301  20.748  22.876  1.00  0.00     0.023 C 
BRANCH   8  10
ATOM     10  C   UNL A   1      32.431  22.246  24.826  1.00  0.00    -0.034 A 
ATOM     11  C   UNL A   1      32.205  22.690  26.134  1.00  0.00     0.005 A 
ATOM     12  C   UNL A   1      32.918  23.150  23.864  1.00  0.00     0.031 A 
ATOM     13  C   UNL A   1      32.440  24.029  26.497  1.00  0.00     0.011 A 
ATOM     14  C   UNL A   1      33.103  24.482  24.232  1.00  0.00     0.047 A 
ATOM     15  C   UNL A   1      32.880  24.951  25.523  1.00  0.00     0.007 A 
ATOM     16  N   UNL A   1      33.496  25.549  23.466  1.00  0.00    -0.355 N 
ATOM     17  C   UNL A   1      33.161  26.358  25.512  1.00  0.00     0.009 A 
ATOM     18  C   UNL A   1      33.483  26.709  24.199  1.00  0.00     0.047 A 
ATOM     19  H   UNL A   1      33.754  25.491  22.518  1.00  0.00     0.167 HD
ATOM     20  C   UNL A   1      33.142  27.375  26.488  1.00  0.00     0.031 A 
ATOM     21  C   UNL A   1      33.732  28.023  23.793  1.00  0.00     0.028 A 
ATOM     22  C   UNL A   1      33.409  28.693  26.099  1.00  0.00     0.041 A 
ATOM     23  C   UNL A   1      33.682  29.017  24.772  1.00  0.00     0.022 A 
ATOM     24  Cl  UNL A   1      33.392  29.945  27.283  1.00  0.00    -0.084 Cl
ENDBRANCH   8  10
ENDBRANCH   5   8
ENDBRANCH   3   4
ENDBRANCH   2   3
ENDBRANCH   1   2
BRANCH   1  25
ATOM     25  C   UNL A   1      37.330  23.529  25.220  1.00  0.00     0.116 C 
BRANCH  25  26
ATOM     26  N   UNL A   1      38.466  22.702  25.595  1.00  0.00    -0.352 N 
ATOM     27  C   UNL A   1      39.602  23.037  26.294  1.00  0.00     0.251 C 
ATOM     28  H   UNL A   1      38.414  21.762  25.305  1.00  0.00     0.163 HD
ATOM     29  O   UNL A   1      40.513  22.227  26.412  1.00  0.00    -0.269 OA
BRANCH  27  30
ATOM     30  C   UNL A   1      39.745  24.395  26.866  1.00  0.00     0.039 A 
ATOM     31  C   UNL A   1      39.258  24.631  28.155  1.00  0.00     0.014 A 
ATOM     32  C   UNL A   1      40.369  25.420  26.151  1.00  0.00     0.014 A 
ATOM     33  C   UNL A   1      39.487  25.866  28.766  1.00  0.00     0.010 A 
ATOM     34  C   UNL A   1      40.645  26.632  26.782  1.00  0.00     0.010 A 
ATOM     35  C   UNL A   1      40.231  26.857  28.104  1.00  0.00    -0.014 A 
BRANCH  35  36
ATOM     36  C   UNL A   1      40.658  28.096  28.805  1.00  0.00     0.031 A 
ATOM     37  C   UNL A   1      42.033  28.206  29.397  1.00  0.00     0.074 A 
ATOM     38  C   UNL A   1      39.761  29.084  28.994  1.00  0.00     0.049 A 
ATOM     39  N   UNL A   1      42.537  29.157  30.144  1.00  0.00    -0.248 NA
ATOM     40  C   UNL A   1      42.961  27.095  29.134  1.00  0.00     0.031 C 
ATOM     41  C   UNL A   1      38.378  29.073  28.508  1.00  0.00     0.029 A 
ATOM     42  N   UNL A   1      39.863  30.276  29.668  1.00  0.00    -0.354 N 
ATOM     43  C   UNL A   1      43.828  28.754  30.453  1.00  0.00     0.074 A 
ATOM     44  C   UNL A   1      44.025  27.458  29.839  1.00  0.00     0.031 C 
ATOM     45  C   UNL A   1      37.764  30.200  28.901  1.00  0.00     0.029 A 
ATOM     46  C   UNL A   1      38.691  30.993  29.703  1.00  0.00     0.049 A 
ATOM     47  H   UNL A   1      40.698  30.588  30.087  1.00  0.00     0.167 HD
ATOM     48  C   UNL A   1      44.765  29.414  31.175  1.00  0.00     0.037 A 
ATOM     49  C   UNL A   1      38.386  32.143  30.333  1.00  0.00     0.037 A 
ATOM     50  C   UNL A   1      44.577  30.717  31.757  1.00  0.00     0.049 A 
ATOM     51  C   UNL A   1      39.445  32.841  31.144  1.00  0.00     0.074 A 
ATOM     52  C   UNL A   1      45.503  31.507  32.417  1.00  0.00     0.029 A 
ATOM     53  N   UNL A   1      43.380  31.417  31.760  1.00  0.00    -0.354 N 
ATOM     54  N   UNL A   1      40.691  32.492  31.350  1.00  0.00    -0.248 NA
ATOM     55  C   UNL A   1      39.054  34.090  31.814  1.00  0.00     0.031 C 
ATOM     56  C   UNL A   1      44.852  32.660  32.868  1.00  0.00     0.029 A 
ATOM     57  C   UNL A   1      43.534  32.611  32.447  1.00  0.00     0.049 A 
ATOM     58  H   UNL A   1      42.545  31.111  31.336  1.00  0.00     0.167 HD
ATOM     59  C   UNL A   1      41.236  33.484  32.154  1.00  0.00     0.074 A 
ATOM     60  C   UNL A   1      40.192  34.461  32.380  1.00  0.00     0.031 C 
ATOM     61  C   UNL A   1      42.487  33.573  32.666  1.00  0.00     0.037 A 
BRANCH  48  62
ATOM     62  C   UNL A   1      46.094  28.750  31.383  1.00  0.00     0.064 A 
ATOM     63  C   UNL A   1      46.329  27.901  32.474  1.00  0.00     0.173 A 
ATOM     64  C   UNL A   1      47.111  28.889  30.427  1.00  0.00     0.173 A 
ATOM     65  F   UNL A   1      45.391  27.741  33.419  1.00  0.00    -0.203 F 
ATOM     66  C   UNL A   1      47.537  27.222  32.605  1.00  0.00     0.198 A 
ATOM     67  C   UNL A   1      48.308  28.188  30.547  1.00  0.00     0.198 A 
ATOM     68  F   UNL A   1      46.933  29.684  29.360  1.00  0.00    -0.203 F 
ATOM     69  F   UNL A   1      47.748  26.431  33.666  1.00  0.00    -0.200 F 
ATOM     70  C   UNL A   1      48.521  27.357  31.635  1.00  0.00     0.200 A 
ATOM     71  F   UNL A   1      49.252  28.310  29.602  1.00  0.00    -0.200 F 
ATOM     72  F   UNL A   1      49.674  26.685  31.750  1.00  0.00    -0.200 F 
ENDBRANCH  48  62
BRANCH  49  73
ATOM     73  C   UNL A   1      37.011  32.702  30.249  1.00  0.00     0.064 A 
ATOM     74  C   UNL A   1      36.628  33.520  29.176  1.00  0.00     0.173 A 
ATOM     75  C   UNL A   1      36.063  32.460  31.254  1.00  0.00     0.173 A 
ATOM     76  F   UNL A   1      37.507  33.800  28.202  1.00  0.00    -0.203 F 
ATOM     77  C   UNL A   1      35.362  34.099  29.128  1.00  0.00     0.198 A 
ATOM     78  C   UNL A   1      34.786  33.013  31.189  1.00  0.00     0.198 A 
ATOM     79  F   UNL A   1      36.376  31.681  32.301  1.00  0.00    -0.203 F 
ATOM     80  F   UNL A   1      35.042  34.925  28.123  1.00  0.00    -0.200 F 
ATOM     81  C   UNL A   1      34.440  33.842  30.133  1.00  0.00     0.200 A 
ATOM     82  F   UNL A   1      33.894  32.751  32.154  1.00  0.00    -0.200 F 
ATOM     83  F   UNL A   1      33.224  34.402  30.088  1.00  0.00    -0.200 F 
ENDBRANCH  49  73
BRANCH  61  84
ATOM     84  C   UNL A   1      42.802  34.773  33.510  1.00  0.00     0.064 A 
ATOM     85  C   UNL A   1      43.168  35.997  32.930  1.00  0.00     0.173 A 
ATOM     86  C   UNL A   1      42.695  34.712  34.907  1.00  0.00     0.173 A 
ATOM     87  F   UNL A   1      43.301  36.101  31.600  1.00  0.00    -0.203 F 
ATOM     88  C   UNL A   1      43.433  37.112  33.722  1.00  0.00     0.198 A 
ATOM     89  C   UNL A   1      42.932  35.836  35.694  1.00  0.00     0.198 A 
ATOM     90  F   UNL A   1      42.345  33.565  35.510  1.00  0.00    -0.203 F 
ATOM     91  F   UNL A   1      43.823  38.259  33.150  1.00  0.00    -0.200 F 
ATOM     92  C   UNL A   1      43.307  37.033  35.101  1.00  0.00     0.200 A 
ATOM     93  F   UNL A   1      42.798  35.761  37.025  1.00  0.00    -0.200 F 
ATOM     94  F   UNL A   1      43.553  38.109  35.860  1.00  0.00    -0.200 F 
ENDBRANCH  61  84
ENDBRANCH  35  36
ENDBRANCH  27  30
ENDBRANCH  25  26
ENDBRANCH   1  25
TORSDOF 12
ENDMDL
