MODEL 1
REMARK VINA RESULT:     -11.8      0.000      0.000
REMARK SMILES CC(C)C[C@H](NC(=O)[C@@H](NC(=O)[C@H](C)NC(=O)CNC(=O)OCc1ccccc1)C(C)C)C(=O)NCCCCNC(=O)c1ccc(-c2c3nc(c(-c4c(F)c(F)c(F)c(F)c4F)c4ccc([nH]4)c(-c4c(F)c(F)c(F)c(F)c4F)c4nc(c(-c5c(F)c(F)c(F)c(F)c5F)c5ccc2[nH]5)C=C4)C=C3)cc1
REMARK SMILES IDX 6 1 7 2 8 3 5 5 4 6 2 7 1 8 3 9 33 10 34 11 35 12 36 14
REMARK SMILES IDX 37 15 38 16 39 17 40 18 41 19 42 21 43 22 44 23 105 24 45 25
REMARK SMILES IDX 104 26 46 27 47 28 48 29 98 30 49 31 103 32 97 33 99 34
REMARK SMILES IDX 50 35 102 36 96 37 95 38 51 40 83 41 63 42 82 43 64 44 67 45
REMARK SMILES IDX 81 46 100 47 65 48 66 49 80 51 101 52 68 53 52 54 53 55
REMARK SMILES IDX 61 56 54 57 55 58 59 59 62 60 56 61 57 62 60 63 58 64 84 65
REMARK SMILES IDX 85 66 93 67 86 68 87 69 91 70 94 71 88 72 89 73 92 74 90 75
REMARK SMILES IDX 69 76 70 77 78 78 71 79 72 80 76 81 79 82 73 83 74 84 77 85
REMARK SMILES IDX 75 86 9 87 10 88 11 89 12 91 13 92 14 93 15 94 16 95 17 97
REMARK SMILES IDX 18 98 19 99 20 100 21 102 22 103 23 104 24 105 25 106 29 107
REMARK SMILES IDX 26 108 28 109 27 110 30 111 31 112 32 113
REMARK H PARENT 6 4 35 13 40 20 99 39 67 50 10 90 15 96 19 101
REMARK Flexibility Score: inf
ROOT
ATOM      1  N   UNL A   1      33.307  27.196  24.695  1.00  0.00    -0.343 N 
ATOM      2  C   UNL A   1      33.325  25.886  24.389  1.00  0.00     0.243 C 
ATOM      3  O   UNL A   1      34.463  25.443  24.165  1.00  0.00    -0.273 OA
ATOM      4  H   UNL A   1      34.194  27.589  24.525  1.00  0.00     0.164 HD
ENDROOT
BRANCH   1   5
ATOM      5  C   UNL A   1      32.387  28.242  25.205  1.00  0.00     0.171 C 
BRANCH   5   6
ATOM      6  C   UNL A   1      30.961  28.208  24.646  1.00  0.00     0.038 C 
BRANCH   6   7
ATOM      7  C   UNL A   1      30.626  28.815  23.272  1.00  0.00    -0.015 C 
ATOM      8  C   UNL A   1      29.681  30.009  23.387  1.00  0.00     0.007 C 
ATOM      9  C   UNL A   1      31.938  29.269  22.614  1.00  0.00     0.007 C 
ENDBRANCH   6   7
ENDBRANCH   5   6
BRANCH   5  10
ATOM     10  C   UNL A   1      32.342  28.045  26.725  1.00  0.00     0.242 C 
ATOM     11  O   UNL A   1      32.123  26.949  27.237  1.00  0.00    -0.273 OA
ATOM     12  N   UNL A   1      32.621  29.110  27.532  1.00  0.00    -0.354 N 
ATOM     13  H   UNL A   1      32.603  28.926  28.499  1.00  0.00     0.163 HD
BRANCH  12  14
ATOM     14  C   UNL A   1      32.941  30.479  27.158  1.00  0.00     0.116 C 
BRANCH  14  15
ATOM     15  C   UNL A   1      31.791  31.114  26.399  1.00  0.00     0.023 C 
BRANCH  15  16
ATOM     16  C   UNL A   1      31.536  32.555  26.819  1.00  0.00     0.023 C 
BRANCH  16  17
ATOM     17  C   UNL A   1      32.704  33.182  27.566  1.00  0.00     0.116 C 
BRANCH  17  18
ATOM     18  N   UNL A   1      32.487  34.599  27.828  1.00  0.00    -0.352 N 
ATOM     19  C   UNL A   1      33.085  35.378  28.786  1.00  0.00     0.251 C 
ATOM     20  H   UNL A   1      31.831  35.052  27.248  1.00  0.00     0.163 HD
ATOM     21  O   UNL A   1      32.670  36.497  29.051  1.00  0.00    -0.269 OA
BRANCH  19  22
ATOM     22  C   UNL A   1      34.234  34.807  29.508  1.00  0.00     0.039 A 
ATOM     23  C   UNL A   1      34.025  34.184  30.737  1.00  0.00     0.014 A 
ATOM     24  C   UNL A   1      35.491  34.794  28.896  1.00  0.00     0.014 A 
ATOM     25  C   UNL A   1      35.077  33.492  31.332  1.00  0.00     0.010 A 
ATOM     26  C   UNL A   1      36.505  34.021  29.440  1.00  0.00     0.010 A 
ATOM     27  C   UNL A   1      36.311  33.371  30.669  1.00  0.00    -0.014 A 
BRANCH  27  28
ATOM     28  C   UNL A   1      37.422  32.584  31.254  1.00  0.00     0.031 A 
ATOM     29  C   UNL A   1      37.939  32.929  32.622  1.00  0.00     0.074 A 
ATOM     30  C   UNL A   1      37.996  31.600  30.536  1.00  0.00     0.049 A 
ATOM     31  N   UNL A   1      38.932  32.400  33.290  1.00  0.00    -0.248 NA
ATOM     32  C   UNL A   1      37.272  34.039  33.322  1.00  0.00     0.031 C 
ATOM     33  C   UNL A   1      37.616  31.210  29.178  1.00  0.00     0.029 A 
ATOM     34  N   UNL A   1      39.030  30.752  30.847  1.00  0.00    -0.354 N 
ATOM     35  C   UNL A   1      39.011  33.116  34.476  1.00  0.00     0.074 A 
ATOM     36  C   UNL A   1      38.016  34.163  34.409  1.00  0.00     0.031 C 
ATOM     37  C   UNL A   1      38.382  30.181  28.784  1.00  0.00     0.029 A 
ATOM     38  C   UNL A   1      39.338  29.868  29.843  1.00  0.00     0.049 A 
ATOM     39  H   UNL A   1      39.505  30.777  31.709  1.00  0.00     0.167 HD
ATOM     40  C   UNL A   1      39.819  32.900  35.540  1.00  0.00     0.037 A 
ATOM     41  C   UNL A   1      40.290  28.918  29.783  1.00  0.00     0.037 A 
ATOM     42  C   UNL A   1      40.796  31.846  35.606  1.00  0.00     0.049 A 
ATOM     43  C   UNL A   1      41.192  28.713  30.971  1.00  0.00     0.074 A 
ATOM     44  C   UNL A   1      41.629  31.507  36.657  1.00  0.00     0.029 A 
ATOM     45  N   UNL A   1      41.075  30.963  34.573  1.00  0.00    -0.354 N 
ATOM     46  N   UNL A   1      41.208  29.345  32.119  1.00  0.00    -0.248 NA
ATOM     47  C   UNL A   1      42.204  27.654  30.857  1.00  0.00     0.031 C 
ATOM     48  C   UNL A   1      42.455  30.460  36.238  1.00  0.00     0.029 A 
ATOM     49  C   UNL A   1      42.089  30.098  34.951  1.00  0.00     0.049 A 
ATOM     50  H   UNL A   1      40.619  30.953  33.699  1.00  0.00     0.167 HD
ATOM     51  C   UNL A   1      42.206  28.744  32.874  1.00  0.00     0.074 A 
ATOM     52  C   UNL A   1      42.761  27.683  32.060  1.00  0.00     0.031 C 
ATOM     53  C   UNL A   1      42.625  29.042  34.129  1.00  0.00     0.037 A 
BRANCH  40  54
ATOM     54  C   UNL A   1      39.679  33.823  36.717  1.00  0.00     0.064 A 
ATOM     55  C   UNL A   1      40.331  35.066  36.763  1.00  0.00     0.173 A 
ATOM     56  C   UNL A   1      38.861  33.473  37.802  1.00  0.00     0.173 A 
ATOM     57  F   UNL A   1      41.136  35.445  35.760  1.00  0.00    -0.203 F 
ATOM     58  C   UNL A   1      40.195  35.907  37.865  1.00  0.00     0.198 A 
ATOM     59  C   UNL A   1      38.698  34.333  38.885  1.00  0.00     0.198 A 
ATOM     60  F   UNL A   1      38.213  32.298  37.810  1.00  0.00    -0.203 F 
ATOM     61  F   UNL A   1      40.873  37.062  37.911  1.00  0.00    -0.200 F 
ATOM     62  C   UNL A   1      39.372  35.544  38.920  1.00  0.00     0.200 A 
ATOM     63  F   UNL A   1      37.891  33.986  39.897  1.00  0.00    -0.200 F 
ATOM     64  F   UNL A   1      39.235  36.358  39.975  1.00  0.00    -0.200 F 
ENDBRANCH  40  54
BRANCH  41  65
ATOM     65  C   UNL A   1      40.429  28.078  28.563  1.00  0.00     0.064 A 
ATOM     66  C   UNL A   1      39.791  26.833  28.466  1.00  0.00     0.173 A 
ATOM     67  C   UNL A   1      41.210  28.494  27.475  1.00  0.00     0.173 A 
ATOM     68  F   UNL A   1      39.047  26.380  29.486  1.00  0.00    -0.203 F 
ATOM     69  C   UNL A   1      39.951  26.025  27.341  1.00  0.00     0.198 A 
ATOM     70  C   UNL A   1      41.342  27.702  26.336  1.00  0.00     0.198 A 
ATOM     71  F   UNL A   1      41.837  29.679  27.512  1.00  0.00    -0.203 F 
ATOM     72  F   UNL A   1      39.374  24.818  27.299  1.00  0.00    -0.200 F 
ATOM     73  C   UNL A   1      40.722  26.464  26.275  1.00  0.00     0.200 A 
ATOM     74  F   UNL A   1      42.073  28.136  25.301  1.00  0.00    -0.200 F 
ATOM     75  F   UNL A   1      40.872  25.688  25.192  1.00  0.00    -0.200 F 
ENDBRANCH  41  65
BRANCH  53  76
ATOM     76  C   UNL A   1      43.710  28.184  34.716  1.00  0.00     0.064 A 
ATOM     77  C   UNL A   1      43.425  26.993  35.400  1.00  0.00     0.173 A 
ATOM     78  C   UNL A   1      45.058  28.542  34.554  1.00  0.00     0.173 A 
ATOM     79  F   UNL A   1      42.153  26.613  35.593  1.00  0.00    -0.203 F 
ATOM     80  C   UNL A   1      44.447  26.207  35.924  1.00  0.00     0.198 A 
ATOM     81  C   UNL A   1      46.078  27.734  35.048  1.00  0.00     0.198 A 
ATOM     82  F   UNL A   1      45.386  29.666  33.901  1.00  0.00    -0.203 F 
ATOM     83  F   UNL A   1      44.149  25.103  36.622  1.00  0.00    -0.200 F 
ATOM     84  C   UNL A   1      45.772  26.574  35.741  1.00  0.00     0.200 A 
ATOM     85  F   UNL A   1      47.358  28.080  34.853  1.00  0.00    -0.200 F 
ATOM     86  F   UNL A   1      46.755  25.810  36.239  1.00  0.00    -0.200 F 
ENDBRANCH  53  76
ENDBRANCH  27  28
ENDBRANCH  19  22
ENDBRANCH  17  18
ENDBRANCH  16  17
ENDBRANCH  15  16
ENDBRANCH  14  15
ENDBRANCH  12  14
ENDBRANCH   5  10
ENDBRANCH   1   5
BRANCH   2  87
ATOM     87  C   UNL A   1      32.116  24.944  24.165  1.00  0.00     0.174 C 
BRANCH  87  88
ATOM     88  N   UNL A   1      30.928  25.234  24.995  1.00  0.00    -0.342 N 
ATOM     89  C   UNL A   1      30.157  24.670  25.959  1.00  0.00     0.242 C 
ATOM     90  H   UNL A   1      30.584  26.130  24.779  1.00  0.00     0.164 HD
ATOM     91  O   UNL A   1      29.234  25.395  26.360  1.00  0.00    -0.273 OA
BRANCH  89  92
ATOM     92  C   UNL A   1      30.388  23.278  26.606  1.00  0.00     0.168 C 
ATOM     93  C   UNL A   1      29.267  22.646  27.418  1.00  0.00     0.041 C 
BRANCH  92  94
ATOM     94  N   UNL A   1      31.555  23.288  27.496  1.00  0.00    -0.343 N 
ATOM     95  C   UNL A   1      32.732  22.616  27.364  1.00  0.00     0.240 C 
ATOM     96  H   UNL A   1      31.476  23.857  28.296  1.00  0.00     0.164 HD
ATOM     97  O   UNL A   1      33.331  22.292  28.393  1.00  0.00    -0.273 OA
BRANCH  95  98
ATOM     98  C   UNL A   1      33.371  22.436  25.985  1.00  0.00     0.219 C 
BRANCH  98  99
ATOM     99  N   UNL A   1      34.680  23.030  25.830  1.00  0.00    -0.312 N 
ATOM    100  C   UNL A   1      35.872  22.373  25.923  1.00  0.00     0.407 C 
ATOM    101  H   UNL A   1      34.714  23.995  25.642  1.00  0.00     0.167 HD
ATOM    102  O   UNL A   1      36.915  23.001  25.972  1.00  0.00    -0.225 OA
BRANCH 100 103
ATOM    103  O   UNL A   1      35.735  21.030  26.006  1.00  0.00    -0.445 OA
BRANCH 103 104
ATOM    104  C   UNL A   1      35.832  20.233  24.809  1.00  0.00     0.270 C 
BRANCH 104 105
ATOM    105  C   UNL A   1      34.850  19.103  24.603  1.00  0.00    -0.011 A 
ATOM    106  C   UNL A   1      33.481  19.413  24.521  1.00  0.00     0.007 A 
ATOM    107  C   UNL A   1      35.230  17.758  24.541  1.00  0.00     0.007 A 
ATOM    108  C   UNL A   1      32.525  18.400  24.424  1.00  0.00     0.000 A 
ATOM    109  C   UNL A   1      34.274  16.746  24.483  1.00  0.00     0.000 A 
ATOM    110  C   UNL A   1      32.923  17.066  24.424  1.00  0.00     0.000 A 
ENDBRANCH 104 105
ENDBRANCH 103 104
ENDBRANCH 100 103
ENDBRANCH  98  99
ENDBRANCH  95  98
ENDBRANCH  92  94
ENDBRANCH  89  92
ENDBRANCH  87  88
BRANCH  87 111
ATOM    111  C   UNL A   1      31.944  24.595  22.670  1.00  0.00     0.015 C 
ATOM    112  C   UNL A   1      32.233  25.766  21.720  1.00  0.00     0.010 C 
ATOM    113  C   UNL A   1      32.837  23.447  22.231  1.00  0.00     0.010 C 
ENDBRANCH  87 111
ENDBRANCH   2  87
TORSDOF 24
ENDMDL
MODEL 2
REMARK VINA RESULT:     -11.8      0.944      2.186
REMARK SMILES CC(C)C[C@H](NC(=O)[C@@H](NC(=O)[C@H](C)NC(=O)CNC(=O)OCc1ccccc1)C(C)C)C(=O)NCCCCNC(=O)c1ccc(-c2c3nc(c(-c4c(F)c(F)c(F)c(F)c4F)c4ccc([nH]4)c(-c4c(F)c(F)c(F)c(F)c4F)c4nc(c(-c5c(F)c(F)c(F)c(F)c5F)c5ccc2[nH]5)C=C4)C=C3)cc1
REMARK SMILES IDX 6 1 7 2 8 3 5 5 4 6 2 7 1 8 3 9 33 10 34 11 35 12 36 14
REMARK SMILES IDX 37 15 38 16 39 17 40 18 41 19 42 21 43 22 44 23 105 24 45 25
REMARK SMILES IDX 104 26 46 27 47 28 48 29 98 30 49 31 103 32 97 33 99 34
REMARK SMILES IDX 50 35 102 36 96 37 95 38 51 40 83 41 63 42 82 43 64 44 67 45
REMARK SMILES IDX 81 46 100 47 65 48 66 49 80 51 101 52 68 53 52 54 53 55
REMARK SMILES IDX 61 56 54 57 55 58 59 59 62 60 56 61 57 62 60 63 58 64 84 65
REMARK SMILES IDX 85 66 93 67 86 68 87 69 91 70 94 71 88 72 89 73 92 74 90 75
REMARK SMILES IDX 69 76 70 77 78 78 71 79 72 80 76 81 79 82 73 83 74 84 77 85
REMARK SMILES IDX 75 86 9 87 10 88 11 89 12 91 13 92 14 93 15 94 16 95 17 97
REMARK SMILES IDX 18 98 19 99 20 100 21 102 22 103 23 104 24 105 25 106 29 107
REMARK SMILES IDX 26 108 28 109 27 110 30 111 31 112 32 113
REMARK H PARENT 6 4 35 13 40 20 99 39 67 50 10 90 15 96 19 101
REMARK Flexibility Score: inf
ROOT
ATOM      1  N   UNL A   1      34.004  26.571  25.346  1.00  0.00    -0.343 N 
ATOM      2  C   UNL A   1      34.116  25.252  25.098  1.00  0.00     0.243 C 
ATOM      3  O   UNL A   1      35.191  24.763  25.482  1.00  0.00    -0.273 OA
ATOM      4  H   UNL A   1      34.872  26.927  25.645  1.00  0.00     0.164 HD
ENDROOT
BRANCH   1   5
ATOM      5  C   UNL A   1      33.000  27.662  25.315  1.00  0.00     0.171 C 
BRANCH   5   6
ATOM      6  C   UNL A   1      31.961  27.583  24.192  1.00  0.00     0.038 C 
BRANCH   6   7
ATOM      7  C   UNL A   1      32.157  28.341  22.867  1.00  0.00    -0.015 C 
ATOM      8  C   UNL A   1      31.019  29.322  22.593  1.00  0.00     0.007 C 
ATOM      9  C   UNL A   1      33.484  29.113  22.946  1.00  0.00     0.007 C 
ENDBRANCH   6   7
ENDBRANCH   5   6
BRANCH   5  10
ATOM     10  C   UNL A   1      32.287  27.603  26.672  1.00  0.00     0.242 C 
ATOM     11  O   UNL A   1      31.799  26.564  27.111  1.00  0.00    -0.273 OA
ATOM     12  N   UNL A   1      32.254  28.730  27.442  1.00  0.00    -0.354 N 
ATOM     13  H   UNL A   1      31.806  28.634  28.314  1.00  0.00     0.163 HD
BRANCH  12  14
ATOM     14  C   UNL A   1      32.789  30.051  27.152  1.00  0.00     0.116 C 
BRANCH  14  15
ATOM     15  C   UNL A   1      31.824  30.846  26.293  1.00  0.00     0.023 C 
BRANCH  15  16
ATOM     16  C   UNL A   1      31.501  32.211  26.884  1.00  0.00     0.023 C 
BRANCH  16  17
ATOM     17  C   UNL A   1      32.707  32.902  27.504  1.00  0.00     0.116 C 
BRANCH  17  18
ATOM     18  N   UNL A   1      32.464  34.319  27.741  1.00  0.00    -0.352 N 
ATOM     19  C   UNL A   1      33.041  35.124  28.690  1.00  0.00     0.251 C 
ATOM     20  H   UNL A   1      31.805  34.750  27.149  1.00  0.00     0.163 HD
ATOM     21  O   UNL A   1      32.604  36.239  28.934  1.00  0.00    -0.269 OA
BRANCH  19  22
ATOM     22  C   UNL A   1      34.194  34.585  29.430  1.00  0.00     0.039 A 
ATOM     23  C   UNL A   1      33.977  33.894  30.620  1.00  0.00     0.014 A 
ATOM     24  C   UNL A   1      35.472  34.672  28.867  1.00  0.00     0.014 A 
ATOM     25  C   UNL A   1      35.046  33.235  31.224  1.00  0.00     0.010 A 
ATOM     26  C   UNL A   1      36.508  33.932  29.415  1.00  0.00     0.010 A 
ATOM     27  C   UNL A   1      36.308  33.216  30.605  1.00  0.00    -0.014 A 
BRANCH  27  28
ATOM     28  C   UNL A   1      37.441  32.465  31.197  1.00  0.00     0.031 A 
ATOM     29  C   UNL A   1      37.955  32.845  32.557  1.00  0.00     0.074 A 
ATOM     30  C   UNL A   1      38.036  31.485  30.492  1.00  0.00     0.049 A 
ATOM     31  N   UNL A   1      38.965  32.351  33.228  1.00  0.00    -0.248 NA
ATOM     32  C   UNL A   1      37.264  33.949  33.242  1.00  0.00     0.031 C 
ATOM     33  C   UNL A   1      37.659  31.064  29.141  1.00  0.00     0.029 A 
ATOM     34  N   UNL A   1      39.092  30.668  30.810  1.00  0.00    -0.354 N 
ATOM     35  C   UNL A   1      39.032  33.087  34.402  1.00  0.00     0.074 A 
ATOM     36  C   UNL A   1      38.010  34.109  34.323  1.00  0.00     0.031 C 
ATOM     37  C   UNL A   1      38.449  30.048  28.760  1.00  0.00     0.029 A 
ATOM     38  C   UNL A   1      39.417  29.776  29.819  1.00  0.00     0.049 A 
ATOM     39  H   UNL A   1      39.571  30.718  31.669  1.00  0.00     0.167 HD
ATOM     40  C   UNL A   1      39.850  32.909  35.465  1.00  0.00     0.037 A 
ATOM     41  C   UNL A   1      40.393  28.849  29.768  1.00  0.00     0.037 A 
ATOM     42  C   UNL A   1      40.853  31.881  35.542  1.00  0.00     0.049 A 
ATOM     43  C   UNL A   1      41.305  28.685  30.955  1.00  0.00     0.074 A 
ATOM     44  C   UNL A   1      41.699  31.579  36.594  1.00  0.00     0.029 A 
ATOM     45  N   UNL A   1      41.148  30.988  34.521  1.00  0.00    -0.354 N 
ATOM     46  N   UNL A   1      41.310  29.336  32.093  1.00  0.00    -0.248 NA
ATOM     47  C   UNL A   1      42.342  27.650  30.853  1.00  0.00     0.031 C 
ATOM     48  C   UNL A   1      42.549  30.546  36.187  1.00  0.00     0.029 A 
ATOM     49  C   UNL A   1      42.185  30.155  34.908  1.00  0.00     0.049 A 
ATOM     50  H   UNL A   1      40.689  30.953  33.651  1.00  0.00     0.167 HD
ATOM     51  C   UNL A   1      42.326  28.772  32.852  1.00  0.00     0.074 A 
ATOM     52  C   UNL A   1      42.904  27.712  32.052  1.00  0.00     0.031 C 
ATOM     53  C   UNL A   1      42.744  29.100  34.101  1.00  0.00     0.037 A 
BRANCH  40  54
ATOM     54  C   UNL A   1      39.692  33.847  36.628  1.00  0.00     0.064 A 
ATOM     55  C   UNL A   1      38.890  33.522  37.734  1.00  0.00     0.173 A 
ATOM     56  C   UNL A   1      40.372  35.073  36.651  1.00  0.00     0.173 A 
ATOM     57  F   UNL A   1      38.207  32.369  37.759  1.00  0.00    -0.203 F 
ATOM     58  C   UNL A   1      38.750  34.405  38.802  1.00  0.00     0.198 A 
ATOM     59  C   UNL A   1      40.259  35.937  37.737  1.00  0.00     0.198 A 
ATOM     60  F   UNL A   1      41.154  35.434  35.622  1.00  0.00    -0.203 F 
ATOM     61  F   UNL A   1      37.933  34.098  39.819  1.00  0.00    -0.200 F 
ATOM     62  C   UNL A   1      39.440  35.607  38.807  1.00  0.00     0.200 A 
ATOM     63  F   UNL A   1      40.939  37.091  37.746  1.00  0.00    -0.200 F 
ATOM     64  F   UNL A   1      39.312  36.452  39.839  1.00  0.00    -0.200 F 
ENDBRANCH  40  54
BRANCH  41  65
ATOM     65  C   UNL A   1      40.546  27.993  28.561  1.00  0.00     0.064 A 
ATOM     66  C   UNL A   1      41.326  28.412  27.474  1.00  0.00     0.173 A 
ATOM     67  C   UNL A   1      39.908  26.748  28.463  1.00  0.00     0.173 A 
ATOM     68  F   UNL A   1      41.943  29.602  27.510  1.00  0.00    -0.203 F 
ATOM     69  C   UNL A   1      41.440  27.631  26.324  1.00  0.00     0.198 A 
ATOM     70  C   UNL A   1      40.050  25.953  27.328  1.00  0.00     0.198 A 
ATOM     71  F   UNL A   1      39.156  26.297  29.477  1.00  0.00    -0.203 F 
ATOM     72  F   UNL A   1      42.148  28.080  25.280  1.00  0.00    -0.200 F 
ATOM     73  C   UNL A   1      40.806  26.399  26.255  1.00  0.00     0.200 A 
ATOM     74  F   UNL A   1      39.451  24.756  27.272  1.00  0.00    -0.200 F 
ATOM     75  F   UNL A   1      40.919  25.647  25.152  1.00  0.00    -0.200 F 
ENDBRANCH  41  65
BRANCH  53  76
ATOM     76  C   UNL A   1      43.852  28.279  34.696  1.00  0.00     0.064 A 
ATOM     77  C   UNL A   1      43.609  27.051  35.328  1.00  0.00     0.173 A 
ATOM     78  C   UNL A   1      45.184  28.711  34.592  1.00  0.00     0.173 A 
ATOM     79  F   UNL A   1      42.352  26.600  35.464  1.00  0.00    -0.203 F 
ATOM     80  C   UNL A   1      44.652  26.301  35.861  1.00  0.00     0.198 A 
ATOM     81  C   UNL A   1      46.229  27.940  35.093  1.00  0.00     0.198 A 
ATOM     82  F   UNL A   1      45.475  29.873  33.989  1.00  0.00    -0.203 F 
ATOM     83  F   UNL A   1      44.390  25.158  36.510  1.00  0.00    -0.200 F 
ATOM     84  C   UNL A   1      45.962  26.741  35.736  1.00  0.00     0.200 A 
ATOM     85  F   UNL A   1      47.495  28.358  34.954  1.00  0.00    -0.200 F 
ATOM     86  F   UNL A   1      46.967  26.012  36.242  1.00  0.00    -0.200 F 
ENDBRANCH  53  76
ENDBRANCH  27  28
ENDBRANCH  19  22
ENDBRANCH  17  18
ENDBRANCH  16  17
ENDBRANCH  15  16
ENDBRANCH  14  15
ENDBRANCH  12  14
ENDBRANCH   5  10
ENDBRANCH   1   5
BRANCH   2  87
ATOM     87  C   UNL A   1      33.145  24.348  24.299  1.00  0.00     0.174 C 
BRANCH  87  88
ATOM     88  N   UNL A   1      31.708  24.641  24.491  1.00  0.00    -0.342 N 
ATOM     89  C   UNL A   1      30.640  24.225  25.215  1.00  0.00     0.242 C 
ATOM     90  H   UNL A   1      31.439  25.380  23.899  1.00  0.00     0.164 HD
ATOM     91  O   UNL A   1      29.599  24.865  24.999  1.00  0.00    -0.273 OA
BRANCH  89  92
ATOM     92  C   UNL A   1      30.654  23.106  26.292  1.00  0.00     0.168 C 
ATOM     93  C   UNL A   1      29.427  22.913  27.171  1.00  0.00     0.041 C 
BRANCH  92  94
ATOM     94  N   UNL A   1      31.776  23.272  27.222  1.00  0.00    -0.343 N 
ATOM     95  C   UNL A   1      32.762  22.386  27.534  1.00  0.00     0.240 C 
ATOM     96  H   UNL A   1      31.823  24.141  27.683  1.00  0.00     0.164 HD
ATOM     97  O   UNL A   1      33.251  22.440  28.665  1.00  0.00    -0.273 OA
BRANCH  95  98
ATOM     98  C   UNL A   1      33.360  21.481  26.454  1.00  0.00     0.219 C 
BRANCH  98  99
ATOM     99  N   UNL A   1      32.864  20.123  26.446  1.00  0.00    -0.312 N 
ATOM    100  C   UNL A   1      33.067  19.203  25.459  1.00  0.00     0.407 C 
ATOM    101  H   UNL A   1      32.331  19.836  27.222  1.00  0.00     0.167 HD
ATOM    102  O   UNL A   1      32.443  18.157  25.459  1.00  0.00    -0.225 OA
BRANCH 100 103
ATOM    103  O   UNL A   1      33.949  19.616  24.520  1.00  0.00    -0.445 OA
BRANCH 103 104
ATOM    104  C   UNL A   1      35.270  19.041  24.488  1.00  0.00     0.270 C 
BRANCH 104 105
ATOM    105  C   UNL A   1      36.448  19.892  24.903  1.00  0.00    -0.011 A 
ATOM    106  C   UNL A   1      36.272  21.284  24.980  1.00  0.00     0.007 A 
ATOM    107  C   UNL A   1      37.718  19.367  25.163  1.00  0.00     0.007 A 
ATOM    108  C   UNL A   1      37.350  22.124  25.268  1.00  0.00     0.000 A 
ATOM    109  C   UNL A   1      38.801  20.208  25.413  1.00  0.00     0.000 A 
ATOM    110  C   UNL A   1      38.618  21.585  25.465  1.00  0.00     0.000 A 
ENDBRANCH 104 105
ENDBRANCH 103 104
ENDBRANCH 100 103
ENDBRANCH  98  99
ENDBRANCH  95  98
ENDBRANCH  92  94
ENDBRANCH  89  92
ENDBRANCH  87  88
BRANCH  87 111
ATOM    111  C   UNL A   1      33.688  24.052  22.884  1.00  0.00     0.015 C 
ATOM    112  C   UNL A   1      33.106  22.782  22.246  1.00  0.00     0.010 C 
ATOM    113  C   UNL A   1      33.430  25.188  21.909  1.00  0.00     0.010 C 
ENDBRANCH  87 111
ENDBRANCH   2  87
TORSDOF 24
ENDMDL
MODEL 3
REMARK VINA RESULT:     -11.5      1.371      2.845
REMARK SMILES CC(C)C[C@H](NC(=O)[C@@H](NC(=O)[C@H](C)NC(=O)CNC(=O)OCc1ccccc1)C(C)C)C(=O)NCCCCNC(=O)c1ccc(-c2c3nc(c(-c4c(F)c(F)c(F)c(F)c4F)c4ccc([nH]4)c(-c4c(F)c(F)c(F)c(F)c4F)c4nc(c(-c5c(F)c(F)c(F)c(F)c5F)c5ccc2[nH]5)C=C4)C=C3)cc1
REMARK SMILES IDX 6 1 7 2 8 3 5 5 4 6 2 7 1 8 3 9 33 10 34 11 35 12 36 14
REMARK SMILES IDX 37 15 38 16 39 17 40 18 41 19 42 21 43 22 44 23 105 24 45 25
REMARK SMILES IDX 104 26 46 27 47 28 48 29 98 30 49 31 103 32 97 33 99 34
REMARK SMILES IDX 50 35 102 36 96 37 95 38 51 40 83 41 63 42 82 43 64 44 67 45
REMARK SMILES IDX 81 46 100 47 65 48 66 49 80 51 101 52 68 53 52 54 53 55
REMARK SMILES IDX 61 56 54 57 55 58 59 59 62 60 56 61 57 62 60 63 58 64 84 65
REMARK SMILES IDX 85 66 93 67 86 68 87 69 91 70 94 71 88 72 89 73 92 74 90 75
REMARK SMILES IDX 69 76 70 77 78 78 71 79 72 80 76 81 79 82 73 83 74 84 77 85
REMARK SMILES IDX 75 86 9 87 10 88 11 89 12 91 13 92 14 93 15 94 16 95 17 97
REMARK SMILES IDX 18 98 19 99 20 100 21 102 22 103 23 104 24 105 25 106 29 107
REMARK SMILES IDX 26 108 28 109 27 110 30 111 31 112 32 113
REMARK H PARENT 6 4 35 13 40 20 99 39 67 50 10 90 15 96 19 101
REMARK Flexibility Score: inf
ROOT
ATOM      1  N   UNL A   1      32.393  28.550  24.483  1.00  0.00    -0.343 N 
ATOM      2  C   UNL A   1      31.898  28.426  23.238  1.00  0.00     0.243 C 
ATOM      3  O   UNL A   1      32.536  29.064  22.383  1.00  0.00    -0.273 OA
ATOM      4  H   UNL A   1      33.078  29.257  24.499  1.00  0.00     0.164 HD
ENDROOT
BRANCH   1   5
ATOM      5  C   UNL A   1      32.242  27.969  25.840  1.00  0.00     0.171 C 
BRANCH   5   6
ATOM      6  C   UNL A   1      32.433  26.453  25.942  1.00  0.00     0.038 C 
BRANCH   6   7
ATOM      7  C   UNL A   1      31.405  25.564  26.665  1.00  0.00    -0.015 C 
ATOM      8  C   UNL A   1      30.017  25.666  26.038  1.00  0.00     0.007 C 
ATOM      9  C   UNL A   1      31.890  24.107  26.589  1.00  0.00     0.007 C 
ENDBRANCH   6   7
ENDBRANCH   5   6
BRANCH   5  10
ATOM     10  C   UNL A   1      33.292  28.673  26.708  1.00  0.00     0.242 C 
ATOM     11  O   UNL A   1      34.455  28.280  26.778  1.00  0.00    -0.273 OA
ATOM     12  N   UNL A   1      32.936  29.812  27.371  1.00  0.00    -0.354 N 
ATOM     13  H   UNL A   1      33.652  30.239  27.895  1.00  0.00     0.163 HD
BRANCH  12  14
ATOM     14  C   UNL A   1      31.644  30.479  27.410  1.00  0.00     0.116 C 
BRANCH  14  15
ATOM     15  C   UNL A   1      31.505  31.452  26.253  1.00  0.00     0.023 C 
BRANCH  15  16
ATOM     16  C   UNL A   1      31.597  32.906  26.695  1.00  0.00     0.023 C 
BRANCH  16  17
ATOM     17  C   UNL A   1      32.938  33.265  27.316  1.00  0.00     0.116 C 
BRANCH  17  18
ATOM     18  N   UNL A   1      32.873  34.506  28.078  1.00  0.00    -0.352 N 
ATOM     19  C   UNL A   1      33.598  34.848  29.191  1.00  0.00     0.251 C 
ATOM     20  H   UNL A   1      32.231  35.179  27.755  1.00  0.00     0.163 HD
ATOM     21  O   UNL A   1      33.307  35.824  29.868  1.00  0.00    -0.269 OA
BRANCH  19  22
ATOM     22  C   UNL A   1      34.728  33.980  29.561  1.00  0.00     0.039 A 
ATOM     23  C   UNL A   1      36.017  34.340  29.175  1.00  0.00     0.014 A 
ATOM     24  C   UNL A   1      34.503  32.877  30.390  1.00  0.00     0.014 A 
ATOM     25  C   UNL A   1      37.099  33.616  29.674  1.00  0.00     0.010 A 
ATOM     26  C   UNL A   1      35.583  32.225  30.964  1.00  0.00     0.010 A 
ATOM     27  C   UNL A   1      36.892  32.581  30.602  1.00  0.00    -0.014 A 
BRANCH  27  28
ATOM     28  C   UNL A   1      38.032  31.844  31.195  1.00  0.00     0.031 A 
ATOM     29  C   UNL A   1      38.493  32.179  32.586  1.00  0.00     0.074 A 
ATOM     30  C   UNL A   1      38.683  30.917  30.466  1.00  0.00     0.049 A 
ATOM     31  N   UNL A   1      39.499  31.690  33.265  1.00  0.00    -0.248 NA
ATOM     32  C   UNL A   1      37.744  33.227  33.297  1.00  0.00     0.031 C 
ATOM     33  C   UNL A   1      38.361  30.545  29.088  1.00  0.00     0.029 A 
ATOM     34  N   UNL A   1      39.756  30.123  30.781  1.00  0.00    -0.354 N 
ATOM     35  C   UNL A   1      39.505  32.374  34.472  1.00  0.00     0.074 A 
ATOM     36  C   UNL A   1      38.451  33.363  34.407  1.00  0.00     0.031 C 
ATOM     37  C   UNL A   1      39.196  29.574  28.687  1.00  0.00     0.029 A 
ATOM     38  C   UNL A   1      40.142  29.287  29.762  1.00  0.00     0.049 A 
ATOM     39  H   UNL A   1      40.208  30.150  31.656  1.00  0.00     0.167 HD
ATOM     40  C   UNL A   1      40.298  32.176  35.551  1.00  0.00     0.037 A 
ATOM     41  C   UNL A   1      41.151  28.397  29.701  1.00  0.00     0.037 A 
ATOM     42  C   UNL A   1      41.334  31.180  35.614  1.00  0.00     0.049 A 
ATOM     43  C   UNL A   1      42.032  28.211  30.907  1.00  0.00     0.074 A 
ATOM     44  C   UNL A   1      42.158  30.860  36.677  1.00  0.00     0.029 A 
ATOM     45  N   UNL A   1      41.690  30.345  34.565  1.00  0.00    -0.354 N 
ATOM     46  N   UNL A   1      41.981  28.810  32.072  1.00  0.00    -0.248 NA
ATOM     47  C   UNL A   1      43.108  27.217  30.792  1.00  0.00     0.031 C 
ATOM     48  C   UNL A   1      43.056  29.876  36.252  1.00  0.00     0.029 A 
ATOM     49  C   UNL A   1      42.744  29.531  34.946  1.00  0.00     0.049 A 
ATOM     50  H   UNL A   1      41.258  30.333  33.679  1.00  0.00     0.167 HD
ATOM     51  C   UNL A   1      42.994  28.247  32.837  1.00  0.00     0.074 A 
ATOM     52  C   UNL A   1      43.632  27.244  32.009  1.00  0.00     0.031 C 
ATOM     53  C   UNL A   1      43.363  28.533  34.111  1.00  0.00     0.037 A 
BRANCH  40  54
ATOM     54  C   UNL A   1      40.073  33.054  36.749  1.00  0.00     0.064 A 
ATOM     55  C   UNL A   1      39.092  32.757  37.709  1.00  0.00     0.173 A 
ATOM     56  C   UNL A   1      40.866  34.193  36.956  1.00  0.00     0.173 A 
ATOM     57  F   UNL A   1      38.296  31.689  37.554  1.00  0.00    -0.203 F 
ATOM     58  C   UNL A   1      38.892  33.585  38.811  1.00  0.00     0.198 A 
ATOM     59  C   UNL A   1      40.688  34.997  38.078  1.00  0.00     0.198 A 
ATOM     60  F   UNL A   1      41.820  34.523  36.072  1.00  0.00    -0.203 F 
ATOM     61  F   UNL A   1      37.911  33.312  39.681  1.00  0.00    -0.200 F 
ATOM     62  C   UNL A   1      39.695  34.699  38.999  1.00  0.00     0.200 A 
ATOM     63  F   UNL A   1      41.476  36.065  38.265  1.00  0.00    -0.200 F 
ATOM     64  F   UNL A   1      39.509  35.489  40.064  1.00  0.00    -0.200 F 
ENDBRANCH  40  54
BRANCH  41  65
ATOM     65  C   UNL A   1      41.370  27.602  28.463  1.00  0.00     0.064 A 
ATOM     66  C   UNL A   1      42.276  28.029  27.481  1.00  0.00     0.173 A 
ATOM     67  C   UNL A   1      40.670  26.409  28.228  1.00  0.00     0.173 A 
ATOM     68  F   UNL A   1      42.956  29.173  27.649  1.00  0.00    -0.203 F 
ATOM     69  C   UNL A   1      42.455  27.308  26.302  1.00  0.00     0.198 A 
ATOM     70  C   UNL A   1      40.874  25.671  27.064  1.00  0.00     0.198 A 
ATOM     71  F   UNL A   1      39.797  25.953  29.136  1.00  0.00    -0.203 F 
ATOM     72  F   UNL A   1      43.286  27.768  25.358  1.00  0.00    -0.200 F 
ATOM     73  C   UNL A   1      41.757  26.126  26.097  1.00  0.00     0.200 A 
ATOM     74  F   UNL A   1      40.213  24.521  26.878  1.00  0.00    -0.200 F 
ATOM     75  F   UNL A   1      41.932  25.432  24.964  1.00  0.00    -0.200 F 
ENDBRANCH  41  65
BRANCH  53  76
ATOM     76  C   UNL A   1      44.482  27.723  34.703  1.00  0.00     0.064 A 
ATOM     77  C   UNL A   1      44.251  26.502  35.351  1.00  0.00     0.173 A 
ATOM     78  C   UNL A   1      45.810  28.161  34.581  1.00  0.00     0.173 A 
ATOM     79  F   UNL A   1      42.998  26.045  35.506  1.00  0.00    -0.203 F 
ATOM     80  C   UNL A   1      45.304  25.762  35.881  1.00  0.00     0.198 A 
ATOM     81  C   UNL A   1      46.864  27.400  35.080  1.00  0.00     0.198 A 
ATOM     82  F   UNL A   1      46.088  29.318  33.962  1.00  0.00    -0.203 F 
ATOM     83  F   UNL A   1      45.054  24.625  36.546  1.00  0.00    -0.200 F 
ATOM     84  C   UNL A   1      46.609  26.207  35.738  1.00  0.00     0.200 A 
ATOM     85  F   UNL A   1      48.126  27.823  34.923  1.00  0.00    -0.200 F 
ATOM     86  F   UNL A   1      47.623  25.489  36.241  1.00  0.00    -0.200 F 
ENDBRANCH  53  76
ENDBRANCH  27  28
ENDBRANCH  19  22
ENDBRANCH  17  18
ENDBRANCH  16  17
ENDBRANCH  15  16
ENDBRANCH  14  15
ENDBRANCH  12  14
ENDBRANCH   5  10
ENDBRANCH   1   5
BRANCH   2  87
ATOM     87  C   UNL A   1      30.596  27.713  22.797  1.00  0.00     0.174 C 
BRANCH  87  88
ATOM     88  N   UNL A   1      30.606  26.240  22.935  1.00  0.00    -0.342 N 
ATOM     89  C   UNL A   1      31.337  25.157  22.573  1.00  0.00     0.242 C 
ATOM     90  H   UNL A   1      29.828  25.953  23.465  1.00  0.00     0.164 HD
ATOM     91  O   UNL A   1      30.892  24.079  22.996  1.00  0.00    -0.273 OA
BRANCH  89  92
ATOM     92  C   UNL A   1      32.662  25.185  21.763  1.00  0.00     0.168 C 
ATOM     93  C   UNL A   1      32.600  25.350  20.252  1.00  0.00     0.041 C 
BRANCH  92  94
ATOM     94  N   UNL A   1      33.454  23.971  21.991  1.00  0.00    -0.343 N 
ATOM     95  C   UNL A   1      34.550  23.805  22.781  1.00  0.00     0.240 C 
ATOM     96  H   UNL A   1      33.153  23.169  21.506  1.00  0.00     0.164 HD
ATOM     97  O   UNL A   1      35.383  22.960  22.445  1.00  0.00    -0.273 OA
BRANCH  95  98
ATOM     98  C   UNL A   1      34.647  24.519  24.132  1.00  0.00     0.219 C 
BRANCH  98  99
ATOM     99  N   UNL A   1      35.843  24.237  24.893  1.00  0.00    -0.312 N 
ATOM    100  C   UNL A   1      35.955  23.315  25.893  1.00  0.00     0.407 C 
ATOM    101  H   UNL A   1      36.648  24.757  24.671  1.00  0.00     0.167 HD
ATOM    102  O   UNL A   1      36.947  23.295  26.599  1.00  0.00    -0.225 OA
BRANCH 100 103
ATOM    103  O   UNL A   1      34.863  22.526  26.015  1.00  0.00    -0.445 OA
BRANCH 103 104
ATOM    104  C   UNL A   1      35.004  21.097  25.891  1.00  0.00     0.270 C 
BRANCH 104 105
ATOM    105  C   UNL A   1      34.063  20.347  24.976  1.00  0.00    -0.011 A 
ATOM    106  C   UNL A   1      34.301  18.980  24.748  1.00  0.00     0.007 A 
ATOM    107  C   UNL A   1      32.998  20.956  24.305  1.00  0.00     0.007 A 
ATOM    108  C   UNL A   1      33.520  18.262  23.840  1.00  0.00     0.000 A 
ATOM    109  C   UNL A   1      32.243  20.249  23.372  1.00  0.00     0.000 A 
ATOM    110  C   UNL A   1      32.503  18.904  23.139  1.00  0.00     0.000 A 
ENDBRANCH 104 105
ENDBRANCH 103 104
ENDBRANCH 100 103
ENDBRANCH  98  99
ENDBRANCH  95  98
ENDBRANCH  92  94
ENDBRANCH  89  92
ENDBRANCH  87  88
BRANCH  87 111
ATOM    111  C   UNL A   1      29.345  28.517  23.213  1.00  0.00     0.015 C 
ATOM    112  C   UNL A   1      28.925  29.587  22.195  1.00  0.00     0.010 C 
ATOM    113  C   UNL A   1      28.131  27.633  23.444  1.00  0.00     0.010 C 
ENDBRANCH  87 111
ENDBRANCH   2  87
TORSDOF 24
ENDMDL
