MODEL 1
REMARK VINA RESULT:     -12.8      0.000      0.000
REMARK SMILES CCc1cccc(C)c1Nc1ccccc1CC(=O)NCCCCNC(=O)c1ccc(-c2c3nc(c(-c4c(F)c(F)c(F)c(F)c4F)c4ccc([nH]4)c(-c4c(F)c(F)c(F)c(F)c4F)c4nc(c(-c5c(F)c(F)c(F)c(F)c5F)c5ccc2[nH]5)C=C4)C=C3)cc1
REMARK SMILES IDX 21 1 20 2 18 3 19 4 17 6 16 7 11 8 12 9 13 10 15 11 14 12
REMARK SMILES IDX 10 13 9 15 3 16 4 17 5 18 7 19 6 20 8 21 2 22 1 23 22 24
REMARK SMILES IDX 23 25 24 26 25 27 26 28 27 30 28 31 29 32 90 33 30 34 89 35
REMARK SMILES IDX 31 36 32 37 33 38 83 39 34 40 88 41 82 42 84 43 35 44 87 45
REMARK SMILES IDX 81 46 80 47 36 49 68 50 48 51 67 52 49 53 52 54 66 55 85 56
REMARK SMILES IDX 50 57 51 58 65 60 86 61 53 62 37 63 38 64 46 65 39 66 40 67
REMARK SMILES IDX 44 68 47 69 41 70 42 71 45 72 43 73 69 74 70 75 78 76 71 77
REMARK SMILES IDX 72 78 76 79 79 80 73 81 74 82 77 83 75 84 54 85 55 86 63 87
REMARK SMILES IDX 56 88 57 89 61 90 64 91 58 92 59 93 62 94 60 95
REMARK H PARENT 20 5 10 14 25 29 84 48 52 59
REMARK Flexibility Score: inf
ROOT
ATOM      1  C   UNL A   1      32.330  29.125  25.836  1.00  0.00     0.116 C 
ENDROOT
BRANCH   1   2
ATOM      2  N   UNL A   1      31.453  27.991  26.065  1.00  0.00    -0.356 N 
ATOM      3  C   UNL A   1      31.703  26.652  26.144  1.00  0.00     0.224 C 
ATOM      4  O   UNL A   1      30.825  25.961  26.672  1.00  0.00    -0.275 OA
ATOM      5  H   UNL A   1      30.506  28.232  26.185  1.00  0.00     0.163 HD
BRANCH   3   6
ATOM      6  C   UNL A   1      33.035  26.042  25.757  1.00  0.00     0.137 C 
BRANCH   6   7
ATOM      7  C   UNL A   1      33.088  25.223  24.485  1.00  0.00    -0.015 A 
ATOM      8  C   UNL A   1      33.691  23.950  24.387  1.00  0.00     0.042 A 
ATOM      9  C   UNL A   1      33.751  23.325  23.128  1.00  0.00     0.026 A 
ATOM     10  C   UNL A   1      33.165  23.897  21.999  1.00  0.00     0.002 A 
ATOM     11  C   UNL A   1      32.546  25.808  23.319  1.00  0.00     0.006 A 
ATOM     12  C   UNL A   1      32.561  25.143  22.095  1.00  0.00     0.000 A 
BRANCH   8  13
ATOM     13  N   UNL A   1      34.410  23.332  25.434  1.00  0.00    -0.355 N 
ATOM     14  H   UNL A   1      34.216  23.692  26.330  1.00  0.00     0.167 HD
BRANCH  13  15
ATOM     15  C   UNL A   1      35.360  22.287  25.420  1.00  0.00     0.045 A 
ATOM     16  C   UNL A   1      34.964  20.931  25.322  1.00  0.00    -0.024 A 
ATOM     17  C   UNL A   1      35.934  19.968  24.946  1.00  0.00     0.006 A 
ATOM     18  C   UNL A   1      37.270  20.301  24.769  1.00  0.00     0.001 A 
ATOM     19  C   UNL A   1      36.751  22.559  25.464  1.00  0.00    -0.027 A 
ATOM     20  C   UNL A   1      37.686  21.583  25.078  1.00  0.00     0.005 A 
ATOM     21  C   UNL A   1      37.287  23.854  26.006  1.00  0.00     0.046 C 
BRANCH  16  22
ATOM     22  C   UNL A   1      33.612  20.316  25.647  1.00  0.00     0.034 C 
ATOM     23  C   UNL A   1      32.933  19.315  24.726  1.00  0.00     0.009 C 
ENDBRANCH  16  22
ENDBRANCH  13  15
ENDBRANCH   8  13
ENDBRANCH   6   7
ENDBRANCH   3   6
ENDBRANCH   1   2
BRANCH   1  24
ATOM     24  C   UNL A   1      31.707  30.501  26.106  1.00  0.00     0.023 C 
BRANCH  24  25
ATOM     25  C   UNL A   1      32.549  31.464  26.943  1.00  0.00     0.023 C 
BRANCH  25  26
ATOM     26  C   UNL A   1      33.666  30.828  27.745  1.00  0.00     0.116 C 
BRANCH  26  27
ATOM     27  N   UNL A   1      34.324  31.729  28.687  1.00  0.00    -0.352 N 
ATOM     28  C   UNL A   1      35.515  31.510  29.370  1.00  0.00     0.251 C 
ATOM     29  H   UNL A   1      33.873  32.587  28.859  1.00  0.00     0.163 HD
ATOM     30  O   UNL A   1      35.994  32.336  30.123  1.00  0.00    -0.269 OA
BRANCH  28  31
ATOM     31  C   UNL A   1      36.244  30.262  29.047  1.00  0.00     0.039 A 
ATOM     32  C   UNL A   1      36.626  29.456  30.121  1.00  0.00     0.014 A 
ATOM     33  C   UNL A   1      36.858  30.152  27.801  1.00  0.00     0.014 A 
ATOM     34  C   UNL A   1      37.809  28.733  30.024  1.00  0.00     0.010 A 
ATOM     35  C   UNL A   1      38.084  29.518  27.741  1.00  0.00     0.010 A 
ATOM     36  C   UNL A   1      38.596  28.881  28.880  1.00  0.00    -0.014 A 
BRANCH  36  37
ATOM     37  C   UNL A   1      40.012  28.522  28.853  1.00  0.00     0.031 A 
ATOM     38  C   UNL A   1      40.425  27.158  28.463  1.00  0.00     0.074 A 
ATOM     39  C   UNL A   1      40.957  29.441  29.157  1.00  0.00     0.049 A 
ATOM     40  N   UNL A   1      41.552  26.617  28.790  1.00  0.00    -0.248 NA
ATOM     41  C   UNL A   1      39.547  26.251  27.739  1.00  0.00     0.031 C 
ATOM     42  C   UNL A   1      42.397  29.326  28.933  1.00  0.00     0.029 A 
ATOM     43  N   UNL A   1      40.819  30.606  29.935  1.00  0.00    -0.354 N 
ATOM     44  C   UNL A   1      41.668  25.428  28.108  1.00  0.00     0.074 A 
ATOM     45  C   UNL A   1      40.353  25.200  27.564  1.00  0.00     0.031 C 
ATOM     46  C   UNL A   1      43.035  30.150  29.777  1.00  0.00     0.029 A 
ATOM     47  C   UNL A   1      42.033  30.732  30.650  1.00  0.00     0.049 A 
ATOM     48  H   UNL A   1      40.039  31.206  29.974  1.00  0.00     0.167 HD
ATOM     49  C   UNL A   1      42.905  24.857  27.993  1.00  0.00     0.037 A 
ATOM     50  C   UNL A   1      42.082  30.723  32.011  1.00  0.00     0.037 A 
ATOM     51  C   UNL A   1      43.874  25.542  28.856  1.00  0.00     0.049 A 
ATOM     52  C   UNL A   1      42.949  29.636  32.596  1.00  0.00     0.074 A 
ATOM     53  C   UNL A   1      44.883  26.461  28.612  1.00  0.00     0.029 A 
ATOM     54  N   UNL A   1      43.703  25.508  30.238  1.00  0.00    -0.354 N 
ATOM     55  N   UNL A   1      43.355  28.596  31.923  1.00  0.00    -0.248 NA
ATOM     56  C   UNL A   1      43.390  29.606  33.988  1.00  0.00     0.031 C 
ATOM     57  C   UNL A   1      45.291  27.008  29.855  1.00  0.00     0.029 A 
ATOM     58  C   UNL A   1      44.543  26.411  30.856  1.00  0.00     0.049 A 
ATOM     59  H   UNL A   1      43.068  24.921  30.708  1.00  0.00     0.167 HD
ATOM     60  C   UNL A   1      44.060  27.760  32.751  1.00  0.00     0.074 A 
ATOM     61  C   UNL A   1      44.078  28.451  34.026  1.00  0.00     0.031 C 
ATOM     62  C   UNL A   1      44.547  26.564  32.305  1.00  0.00     0.037 A 
BRANCH  49  63
ATOM     63  C   UNL A   1      43.325  23.855  26.920  1.00  0.00     0.064 A 
ATOM     64  C   UNL A   1      42.922  22.501  27.010  1.00  0.00     0.173 A 
ATOM     65  C   UNL A   1      44.188  24.117  25.838  1.00  0.00     0.173 A 
ATOM     66  F   UNL A   1      42.027  22.093  27.919  1.00  0.00    -0.203 F 
ATOM     67  C   UNL A   1      43.422  21.499  26.166  1.00  0.00     0.198 A 
ATOM     68  C   UNL A   1      44.706  23.117  25.009  1.00  0.00     0.198 A 
ATOM     69  F   UNL A   1      44.542  25.353  25.491  1.00  0.00    -0.203 F 
ATOM     70  F   UNL A   1      43.017  20.232  26.327  1.00  0.00    -0.200 F 
ATOM     71  C   UNL A   1      44.335  21.803  25.182  1.00  0.00     0.200 A 
ATOM     72  F   UNL A   1      45.569  23.446  24.038  1.00  0.00    -0.200 F 
ATOM     73  F   UNL A   1      44.837  20.847  24.390  1.00  0.00    -0.200 F 
ENDBRANCH  49  63
BRANCH  50  74
ATOM     74  C   UNL A   1      40.875  31.304  32.645  1.00  0.00     0.064 A 
ATOM     75  C   UNL A   1      40.758  32.706  32.672  1.00  0.00     0.173 A 
ATOM     76  C   UNL A   1      39.712  30.550  32.836  1.00  0.00     0.173 A 
ATOM     77  F   UNL A   1      41.845  33.472  32.487  1.00  0.00    -0.203 F 
ATOM     78  C   UNL A   1      39.515  33.326  32.765  1.00  0.00     0.198 A 
ATOM     79  C   UNL A   1      38.468  31.176  32.937  1.00  0.00     0.198 A 
ATOM     80  F   UNL A   1      39.759  29.210  32.795  1.00  0.00    -0.203 F 
ATOM     81  F   UNL A   1      39.427  34.661  32.671  1.00  0.00    -0.200 F 
ATOM     82  C   UNL A   1      38.367  32.558  32.866  1.00  0.00     0.200 A 
ATOM     83  F   UNL A   1      37.352  30.434  33.004  1.00  0.00    -0.200 F 
ATOM     84  F   UNL A   1      37.164  33.148  32.850  1.00  0.00    -0.200 F 
ENDBRANCH  50  74
BRANCH  62  85
ATOM     85  C   UNL A   1      45.144  25.461  33.151  1.00  0.00     0.064 A 
ATOM     86  C   UNL A   1      46.518  25.172  33.222  1.00  0.00     0.173 A 
ATOM     87  C   UNL A   1      44.328  24.734  34.055  1.00  0.00     0.173 A 
ATOM     88  F   UNL A   1      47.416  25.868  32.514  1.00  0.00    -0.203 F 
ATOM     89  C   UNL A   1      47.026  24.190  34.080  1.00  0.00     0.198 A 
ATOM     90  C   UNL A   1      44.846  23.798  34.950  1.00  0.00     0.198 A 
ATOM     91  F   UNL A   1      43.003  24.930  34.116  1.00  0.00    -0.203 F 
ATOM     92  F   UNL A   1      48.341  23.925  34.078  1.00  0.00    -0.200 F 
ATOM     93  C   UNL A   1      46.194  23.514  34.951  1.00  0.00     0.200 A 
ATOM     94  F   UNL A   1      44.031  23.191  35.824  1.00  0.00    -0.200 F 
ATOM     95  F   UNL A   1      46.693  22.609  35.804  1.00  0.00    -0.200 F 
ENDBRANCH  62  85
ENDBRANCH  36  37
ENDBRANCH  28  31
ENDBRANCH  26  27
ENDBRANCH  25  26
ENDBRANCH  24  25
ENDBRANCH   1  24
TORSDOF 15
ENDMDL
MODEL 2
REMARK VINA RESULT:     -12.8      1.382      2.217
REMARK SMILES CCc1cccc(C)c1Nc1ccccc1CC(=O)NCCCCNC(=O)c1ccc(-c2c3nc(c(-c4c(F)c(F)c(F)c(F)c4F)c4ccc([nH]4)c(-c4c(F)c(F)c(F)c(F)c4F)c4nc(c(-c5c(F)c(F)c(F)c(F)c5F)c5ccc2[nH]5)C=C4)C=C3)cc1
REMARK SMILES IDX 21 1 20 2 18 3 19 4 17 6 16 7 11 8 12 9 13 10 15 11 14 12
REMARK SMILES IDX 10 13 9 15 3 16 4 17 5 18 7 19 6 20 8 21 2 22 1 23 22 24
REMARK SMILES IDX 23 25 24 26 25 27 26 28 27 30 28 31 29 32 90 33 30 34 89 35
REMARK SMILES IDX 31 36 32 37 33 38 83 39 34 40 88 41 82 42 84 43 35 44 87 45
REMARK SMILES IDX 81 46 80 47 36 49 68 50 48 51 67 52 49 53 52 54 66 55 85 56
REMARK SMILES IDX 50 57 51 58 65 60 86 61 53 62 37 63 38 64 46 65 39 66 40 67
REMARK SMILES IDX 44 68 47 69 41 70 42 71 45 72 43 73 69 74 70 75 78 76 71 77
REMARK SMILES IDX 72 78 76 79 79 80 73 81 74 82 77 83 75 84 54 85 55 86 63 87
REMARK SMILES IDX 56 88 57 89 61 90 64 91 58 92 59 93 62 94 60 95
REMARK H PARENT 20 5 10 14 25 29 84 48 52 59
REMARK Flexibility Score: inf
ROOT
ATOM      1  C   UNL A   1      32.307  29.901  25.399  1.00  0.00     0.116 C 
ENDROOT
BRANCH   1   2
ATOM      2  N   UNL A   1      31.253  29.815  24.404  1.00  0.00    -0.356 N 
ATOM      3  C   UNL A   1      30.478  28.772  23.992  1.00  0.00     0.224 C 
ATOM      4  O   UNL A   1      29.448  29.065  23.373  1.00  0.00    -0.275 OA
ATOM      5  H   UNL A   1      31.064  30.665  23.943  1.00  0.00     0.163 HD
BRANCH   3   6
ATOM      6  C   UNL A   1      30.754  27.336  24.390  1.00  0.00     0.137 C 
BRANCH   6   7
ATOM      7  C   UNL A   1      31.548  26.482  23.424  1.00  0.00    -0.015 A 
ATOM      8  C   UNL A   1      32.536  25.553  23.815  1.00  0.00     0.042 A 
ATOM      9  C   UNL A   1      33.265  24.879  22.817  1.00  0.00     0.026 A 
ATOM     10  C   UNL A   1      32.981  25.052  21.463  1.00  0.00     0.002 A 
ATOM     11  C   UNL A   1      31.311  26.680  22.045  1.00  0.00     0.006 A 
ATOM     12  C   UNL A   1      32.002  25.956  21.076  1.00  0.00     0.000 A 
BRANCH   8  13
ATOM     13  N   UNL A   1      32.980  25.383  25.145  1.00  0.00    -0.355 N 
ATOM     14  H   UNL A   1      33.144  26.224  25.631  1.00  0.00     0.167 HD
BRANCH  13  15
ATOM     15  C   UNL A   1      33.231  24.216  25.900  1.00  0.00     0.045 A 
ATOM     16  C   UNL A   1      34.550  23.759  26.137  1.00  0.00    -0.024 A 
ATOM     17  C   UNL A   1      34.765  22.824  27.180  1.00  0.00     0.006 A 
ATOM     18  C   UNL A   1      33.716  22.275  27.904  1.00  0.00     0.001 A 
ATOM     19  C   UNL A   1      32.170  23.479  26.485  1.00  0.00    -0.027 A 
ATOM     20  C   UNL A   1      32.419  22.563  27.522  1.00  0.00     0.005 A 
ATOM     21  C   UNL A   1      30.763  23.571  25.967  1.00  0.00     0.046 C 
BRANCH  16  22
ATOM     22  C   UNL A   1      35.814  24.078  25.354  1.00  0.00     0.034 C 
ATOM     23  C   UNL A   1      37.169  23.501  25.732  1.00  0.00     0.009 C 
ENDBRANCH  16  22
ENDBRANCH  13  15
ENDBRANCH   8  13
ENDBRANCH   6   7
ENDBRANCH   3   6
ENDBRANCH   1   2
BRANCH   1  24
ATOM     24  C   UNL A   1      31.946  30.678  26.672  1.00  0.00     0.023 C 
BRANCH  24  25
ATOM     25  C   UNL A   1      33.053  31.557  27.255  1.00  0.00     0.023 C 
BRANCH  25  26
ATOM     26  C   UNL A   1      34.148  30.821  27.999  1.00  0.00     0.116 C 
BRANCH  26  27
ATOM     27  N   UNL A   1      34.828  31.617  29.018  1.00  0.00    -0.352 N 
ATOM     28  C   UNL A   1      35.985  31.285  29.713  1.00  0.00     0.251 C 
ATOM     29  H   UNL A   1      34.419  32.485  29.238  1.00  0.00     0.163 HD
ATOM     30  O   UNL A   1      36.487  32.028  30.533  1.00  0.00    -0.269 OA
BRANCH  28  31
ATOM     31  C   UNL A   1      36.653  30.022  29.321  1.00  0.00     0.039 A 
ATOM     32  C   UNL A   1      36.955  29.122  30.344  1.00  0.00     0.014 A 
ATOM     33  C   UNL A   1      37.300  29.965  28.088  1.00  0.00     0.014 A 
ATOM     34  C   UNL A   1      38.098  28.340  30.228  1.00  0.00     0.010 A 
ATOM     35  C   UNL A   1      38.490  29.267  28.018  1.00  0.00     0.010 A 
ATOM     36  C   UNL A   1      38.928  28.522  29.121  1.00  0.00    -0.014 A 
BRANCH  36  37
ATOM     37  C   UNL A   1      40.322  28.085  29.109  1.00  0.00     0.031 A 
ATOM     38  C   UNL A   1      40.669  26.725  28.644  1.00  0.00     0.074 A 
ATOM     39  C   UNL A   1      41.308  28.927  29.494  1.00  0.00     0.049 A 
ATOM     40  N   UNL A   1      41.755  26.101  28.965  1.00  0.00    -0.248 NA
ATOM     41  C   UNL A   1      39.765  25.917  27.842  1.00  0.00     0.031 C 
ATOM     42  C   UNL A   1      42.745  28.743  29.302  1.00  0.00     0.029 A 
ATOM     43  N   UNL A   1      41.212  30.047  30.341  1.00  0.00    -0.354 N 
ATOM     44  C   UNL A   1      41.824  24.951  28.213  1.00  0.00     0.074 A 
ATOM     45  C   UNL A   1      40.514  24.834  27.622  1.00  0.00     0.031 C 
ATOM     46  C   UNL A   1      43.403  29.475  30.212  1.00  0.00     0.029 A 
ATOM     47  C   UNL A   1      42.410  30.060  31.093  1.00  0.00     0.049 A 
ATOM     48  H   UNL A   1      40.466  30.688  30.397  1.00  0.00     0.167 HD
ATOM     49  C   UNL A   1      43.029  24.318  28.095  1.00  0.00     0.037 A 
ATOM     50  C   UNL A   1      42.418  29.963  32.452  1.00  0.00     0.037 A 
ATOM     51  C   UNL A   1      44.010  24.891  29.024  1.00  0.00     0.049 A 
ATOM     52  C   UNL A   1      43.205  28.795  32.990  1.00  0.00     0.074 A 
ATOM     53  C   UNL A   1      45.075  25.764  28.865  1.00  0.00     0.029 A 
ATOM     54  N   UNL A   1      43.796  24.783  30.396  1.00  0.00    -0.354 N 
ATOM     55  N   UNL A   1      43.571  27.776  32.264  1.00  0.00    -0.248 NA
ATOM     56  C   UNL A   1      43.602  28.653  34.388  1.00  0.00     0.031 C 
ATOM     57  C   UNL A   1      45.476  26.209  30.150  1.00  0.00     0.029 A 
ATOM     58  C   UNL A   1      44.666  25.596  31.092  1.00  0.00     0.049 A 
ATOM     59  H   UNL A   1      43.115  24.205  30.811  1.00  0.00     0.167 HD
ATOM     60  C   UNL A   1      44.204  26.851  33.055  1.00  0.00     0.074 A 
ATOM     61  C   UNL A   1      44.222  27.460  34.371  1.00  0.00     0.031 C 
ATOM     62  C   UNL A   1      44.636  25.659  32.547  1.00  0.00     0.037 A 
BRANCH  49  63
ATOM     63  C   UNL A   1      43.424  23.362  26.972  1.00  0.00     0.064 A 
ATOM     64  C   UNL A   1      42.945  22.030  26.966  1.00  0.00     0.173 A 
ATOM     65  C   UNL A   1      44.332  23.640  25.931  1.00  0.00     0.173 A 
ATOM     66  F   UNL A   1      42.003  21.618  27.825  1.00  0.00    -0.203 F 
ATOM     67  C   UNL A   1      43.413  21.055  26.074  1.00  0.00     0.198 A 
ATOM     68  C   UNL A   1      44.818  22.664  25.055  1.00  0.00     0.198 A 
ATOM     69  F   UNL A   1      44.764  24.873  25.671  1.00  0.00    -0.203 F 
ATOM     70  F   UNL A   1      42.934  19.805  26.144  1.00  0.00    -0.200 F 
ATOM     71  C   UNL A   1      44.370  21.366  25.135  1.00  0.00     0.200 A 
ATOM     72  F   UNL A   1      45.726  23.003  24.128  1.00  0.00    -0.200 F 
ATOM     73  F   UNL A   1      44.841  20.433  24.297  1.00  0.00    -0.200 F 
ENDBRANCH  49  63
BRANCH  50  74
ATOM     74  C   UNL A   1      41.227  30.573  33.090  1.00  0.00     0.064 A 
ATOM     75  C   UNL A   1      41.199  31.973  33.225  1.00  0.00     0.173 A 
ATOM     76  C   UNL A   1      40.011  29.886  33.182  1.00  0.00     0.173 A 
ATOM     77  F   UNL A   1      42.339  32.677  33.137  1.00  0.00    -0.203 F 
ATOM     78  C   UNL A   1      39.995  32.666  33.326  1.00  0.00     0.198 A 
ATOM     79  C   UNL A   1      38.807  30.584  33.290  1.00  0.00     0.198 A 
ATOM     80  F   UNL A   1      39.974  28.553  33.036  1.00  0.00    -0.203 F 
ATOM     81  F   UNL A   1      39.996  34.007  33.335  1.00  0.00    -0.200 F 
ATOM     82  C   UNL A   1      38.797  31.971  33.327  1.00  0.00     0.200 A 
ATOM     83  F   UNL A   1      37.644  29.915  33.261  1.00  0.00    -0.200 F 
ATOM     84  F   UNL A   1      37.636  32.640  33.317  1.00  0.00    -0.200 F 
ENDBRANCH  50  74
BRANCH  62  85
ATOM     85  C   UNL A   1      45.145  24.473  33.338  1.00  0.00     0.064 A 
ATOM     86  C   UNL A   1      44.397  23.313  33.598  1.00  0.00     0.173 A 
ATOM     87  C   UNL A   1      46.502  24.419  33.746  1.00  0.00     0.173 A 
ATOM     88  F   UNL A   1      43.139  23.180  33.159  1.00  0.00    -0.203 F 
ATOM     89  C   UNL A   1      44.942  22.213  34.270  1.00  0.00     0.198 A 
ATOM     90  C   UNL A   1      47.058  23.299  34.363  1.00  0.00     0.198 A 
ATOM     91  F   UNL A   1      47.339  25.445  33.535  1.00  0.00    -0.203 F 
ATOM     92  F   UNL A   1      44.172  21.147  34.530  1.00  0.00    -0.200 F 
ATOM     93  C   UNL A   1      46.273  22.201  34.641  1.00  0.00     0.200 A 
ATOM     94  F   UNL A   1      48.364  23.284  34.668  1.00  0.00    -0.200 F 
ATOM     95  F   UNL A   1      46.802  21.126  35.240  1.00  0.00    -0.200 F 
ENDBRANCH  62  85
ENDBRANCH  36  37
ENDBRANCH  28  31
ENDBRANCH  26  27
ENDBRANCH  25  26
ENDBRANCH  24  25
ENDBRANCH   1  24
TORSDOF 15
ENDMDL
MODEL 3
REMARK VINA RESULT:     -12.8      0.639      1.704
REMARK SMILES CCc1cccc(C)c1Nc1ccccc1CC(=O)NCCCCNC(=O)c1ccc(-c2c3nc(c(-c4c(F)c(F)c(F)c(F)c4F)c4ccc([nH]4)c(-c4c(F)c(F)c(F)c(F)c4F)c4nc(c(-c5c(F)c(F)c(F)c(F)c5F)c5ccc2[nH]5)C=C4)C=C3)cc1
REMARK SMILES IDX 21 1 20 2 18 3 19 4 17 6 16 7 11 8 12 9 13 10 15 11 14 12
REMARK SMILES IDX 10 13 9 15 3 16 4 17 5 18 7 19 6 20 8 21 2 22 1 23 22 24
REMARK SMILES IDX 23 25 24 26 25 27 26 28 27 30 28 31 29 32 90 33 30 34 89 35
REMARK SMILES IDX 31 36 32 37 33 38 83 39 34 40 88 41 82 42 84 43 35 44 87 45
REMARK SMILES IDX 81 46 80 47 36 49 68 50 48 51 67 52 49 53 52 54 66 55 85 56
REMARK SMILES IDX 50 57 51 58 65 60 86 61 53 62 37 63 38 64 46 65 39 66 40 67
REMARK SMILES IDX 44 68 47 69 41 70 42 71 45 72 43 73 69 74 70 75 78 76 71 77
REMARK SMILES IDX 72 78 76 79 79 80 73 81 74 82 77 83 75 84 54 85 55 86 63 87
REMARK SMILES IDX 56 88 57 89 61 90 64 91 58 92 59 93 62 94 60 95
REMARK H PARENT 20 5 10 14 25 29 84 48 52 59
REMARK Flexibility Score: inf
ROOT
ATOM      1  C   UNL A   1      32.034  28.242  27.302  1.00  0.00     0.116 C 
ENDROOT
BRANCH   1   2
ATOM      2  N   UNL A   1      31.361  26.982  27.040  1.00  0.00    -0.356 N 
ATOM      3  C   UNL A   1      31.806  25.811  26.502  1.00  0.00     0.224 C 
ATOM      4  O   UNL A   1      31.106  24.812  26.705  1.00  0.00    -0.275 OA
ATOM      5  H   UNL A   1      30.411  26.971  27.299  1.00  0.00     0.163 HD
BRANCH   3   6
ATOM      6  C   UNL A   1      33.154  25.680  25.822  1.00  0.00     0.137 C 
BRANCH   6   7
ATOM      7  C   UNL A   1      33.184  25.074  24.435  1.00  0.00    -0.015 A 
ATOM      8  C   UNL A   1      33.495  23.722  24.167  1.00  0.00     0.042 A 
ATOM      9  C   UNL A   1      33.574  23.300  22.827  1.00  0.00     0.026 A 
ATOM     10  C   UNL A   1      33.278  24.160  21.771  1.00  0.00     0.002 A 
ATOM     11  C   UNL A   1      32.938  25.942  23.348  1.00  0.00     0.006 A 
ATOM     12  C   UNL A   1      32.960  25.485  22.032  1.00  0.00     0.000 A 
BRANCH   8  13
ATOM     13  N   UNL A   1      33.919  22.799  25.148  1.00  0.00    -0.355 N 
ATOM     14  H   UNL A   1      33.316  22.721  25.922  1.00  0.00     0.167 HD
BRANCH  13  15
ATOM     15  C   UNL A   1      35.059  21.967  25.211  1.00  0.00     0.045 A 
ATOM     16  C   UNL A   1      34.967  20.570  25.001  1.00  0.00    -0.024 A 
ATOM     17  C   UNL A   1      36.152  19.849  24.713  1.00  0.00     0.006 A 
ATOM     18  C   UNL A   1      37.402  20.452  24.727  1.00  0.00     0.001 A 
ATOM     19  C   UNL A   1      36.349  22.508  25.449  1.00  0.00    -0.027 A 
ATOM     20  C   UNL A   1      37.504  21.766  25.145  1.00  0.00     0.005 A 
ATOM     21  C   UNL A   1      36.538  23.841  26.114  1.00  0.00     0.046 C 
BRANCH  16  22
ATOM     22  C   UNL A   1      33.741  19.677  25.120  1.00  0.00     0.034 C 
ATOM     23  C   UNL A   1      32.532  19.836  24.211  1.00  0.00     0.009 C 
ENDBRANCH  16  22
ENDBRANCH  13  15
ENDBRANCH   8  13
ENDBRANCH   6   7
ENDBRANCH   3   6
ENDBRANCH   1   2
BRANCH   1  24
ATOM     24  C   UNL A   1      31.508  29.445  26.509  1.00  0.00     0.023 C 
BRANCH  24  25
ATOM     25  C   UNL A   1      32.108  30.802  26.876  1.00  0.00     0.023 C 
BRANCH  25  26
ATOM     26  C   UNL A   1      33.616  30.830  27.027  1.00  0.00     0.116 C 
BRANCH  26  27
ATOM     27  N   UNL A   1      34.105  31.767  28.035  1.00  0.00    -0.352 N 
ATOM     28  C   UNL A   1      35.161  31.577  28.919  1.00  0.00     0.251 C 
ATOM     29  H   UNL A   1      33.634  32.629  28.095  1.00  0.00     0.163 HD
ATOM     30  O   UNL A   1      35.506  32.431  29.711  1.00  0.00    -0.269 OA
BRANCH  28  31
ATOM     31  C   UNL A   1      35.930  30.321  28.771  1.00  0.00     0.039 A 
ATOM     32  C   UNL A   1      36.279  29.650  29.945  1.00  0.00     0.014 A 
ATOM     33  C   UNL A   1      36.604  30.089  27.574  1.00  0.00     0.014 A 
ATOM     34  C   UNL A   1      37.480  28.952  29.982  1.00  0.00     0.010 A 
ATOM     35  C   UNL A   1      37.845  29.484  27.640  1.00  0.00     0.010 A 
ATOM     36  C   UNL A   1      38.317  28.992  28.865  1.00  0.00    -0.014 A 
BRANCH  36  37
ATOM     37  C   UNL A   1      39.740  28.670  28.941  1.00  0.00     0.031 A 
ATOM     38  C   UNL A   1      40.210  27.306  28.622  1.00  0.00     0.074 A 
ATOM     39  C   UNL A   1      40.640  29.622  29.278  1.00  0.00     0.049 A 
ATOM     40  N   UNL A   1      41.327  26.805  29.037  1.00  0.00    -0.248 NA
ATOM     41  C   UNL A   1      39.405  26.356  27.870  1.00  0.00     0.031 C 
ATOM     42  C   UNL A   1      42.094  29.539  29.152  1.00  0.00     0.029 A 
ATOM     43  N   UNL A   1      40.423  30.805  30.009  1.00  0.00    -0.354 N 
ATOM     44  C   UNL A   1      41.517  25.600  28.402  1.00  0.00     0.074 A 
ATOM     45  C   UNL A   1      40.245  25.322  27.780  1.00  0.00     0.031 C 
ATOM     46  C   UNL A   1      42.654  30.403  30.010  1.00  0.00     0.029 A 
ATOM     47  C   UNL A   1      41.584  30.984  30.797  1.00  0.00     0.049 A 
ATOM     48  H   UNL A   1      39.628  31.385  29.978  1.00  0.00     0.167 HD
ATOM     49  C   UNL A   1      42.771  25.059  28.385  1.00  0.00     0.037 A 
ATOM     50  C   UNL A   1      41.543  31.016  32.158  1.00  0.00     0.037 A 
ATOM     51  C   UNL A   1      43.665  25.793  29.288  1.00  0.00     0.049 A 
ATOM     52  C   UNL A   1      42.396  29.970  32.831  1.00  0.00     0.074 A 
ATOM     53  C   UNL A   1      44.665  26.731  29.082  1.00  0.00     0.029 A 
ATOM     54  N   UNL A   1      43.404  25.796  30.656  1.00  0.00    -0.354 N 
ATOM     55  N   UNL A   1      42.870  28.922  32.219  1.00  0.00    -0.248 NA
ATOM     56  C   UNL A   1      42.745  29.992  34.249  1.00  0.00     0.031 C 
ATOM     57  C   UNL A   1      44.976  27.325  30.331  1.00  0.00     0.029 A 
ATOM     58  C   UNL A   1      44.179  26.738  31.300  1.00  0.00     0.049 A 
ATOM     59  H   UNL A   1      42.754  25.206  31.101  1.00  0.00     0.167 HD
ATOM     60  C   UNL A   1      43.539  28.129  33.116  1.00  0.00     0.074 A 
ATOM     61  C   UNL A   1      43.456  28.857  34.368  1.00  0.00     0.031 C 
ATOM     62  C   UNL A   1      44.083  26.933  32.740  1.00  0.00     0.037 A 
BRANCH  49  63
ATOM     63  C   UNL A   1      43.285  24.037  27.373  1.00  0.00     0.064 A 
ATOM     64  C   UNL A   1      44.113  24.448  26.300  1.00  0.00     0.173 A 
ATOM     65  C   UNL A   1      42.941  22.672  27.331  1.00  0.00     0.173 A 
ATOM     66  F   UNL A   1      44.614  25.689  26.235  1.00  0.00    -0.203 F 
ATOM     67  C   UNL A   1      44.464  23.601  25.241  1.00  0.00     0.198 A 
ATOM     68  C   UNL A   1      43.272  21.830  26.264  1.00  0.00     0.198 A 
ATOM     69  F   UNL A   1      42.311  22.063  28.333  1.00  0.00    -0.203 F 
ATOM     70  F   UNL A   1      45.228  24.066  24.243  1.00  0.00    -0.200 F 
ATOM     71  C   UNL A   1      44.021  22.297  25.209  1.00  0.00     0.200 A 
ATOM     72  F   UNL A   1      42.854  20.556  26.275  1.00  0.00    -0.200 F 
ATOM     73  F   UNL A   1      44.332  21.490  24.186  1.00  0.00    -0.200 F 
ENDBRANCH  49  63
BRANCH  50  74
ATOM     74  C   UNL A   1      40.283  31.583  32.694  1.00  0.00     0.064 A 
ATOM     75  C   UNL A   1      40.110  32.977  32.626  1.00  0.00     0.173 A 
ATOM     76  C   UNL A   1      39.142  30.793  32.876  1.00  0.00     0.173 A 
ATOM     77  F   UNL A   1      41.174  33.776  32.445  1.00  0.00    -0.203 F 
ATOM     78  C   UNL A   1      38.840  33.549  32.618  1.00  0.00     0.198 A 
ATOM     79  C   UNL A   1      37.871  31.371  32.875  1.00  0.00     0.198 A 
ATOM     80  F   UNL A   1      39.244  29.457  32.923  1.00  0.00    -0.203 F 
ATOM     81  F   UNL A   1      38.704  34.870  32.434  1.00  0.00    -0.200 F 
ATOM     82  C   UNL A   1      37.719  32.741  32.711  1.00  0.00     0.200 A 
ATOM     83  F   UNL A   1      36.783  30.588  32.935  1.00  0.00    -0.200 F 
ATOM     84  F   UNL A   1      36.496  33.277  32.599  1.00  0.00    -0.200 F 
ENDBRANCH  50  74
BRANCH  62  85
ATOM     85  C   UNL A   1      44.651  25.872  33.657  1.00  0.00     0.064 A 
ATOM     86  C   UNL A   1      43.878  25.062  34.507  1.00  0.00     0.173 A 
ATOM     87  C   UNL A   1      46.027  25.537  33.594  1.00  0.00     0.173 A 
ATOM     88  F   UNL A   1      42.546  25.189  34.571  1.00  0.00    -0.203 F 
ATOM     89  C   UNL A   1      44.445  24.043  35.279  1.00  0.00     0.198 A 
ATOM     90  C   UNL A   1      46.578  24.482  34.321  1.00  0.00     0.198 A 
ATOM     91  F   UNL A   1      46.877  26.207  32.803  1.00  0.00    -0.203 F 
ATOM     92  F   UNL A   1      43.668  23.327  36.105  1.00  0.00    -0.200 F 
ATOM     93  C   UNL A   1      45.791  23.745  35.177  1.00  0.00     0.200 A 
ATOM     94  F   UNL A   1      47.875  24.174  34.169  1.00  0.00    -0.200 F 
ATOM     95  F   UNL A   1      46.319  22.736  35.883  1.00  0.00    -0.200 F 
ENDBRANCH  62  85
ENDBRANCH  36  37
ENDBRANCH  28  31
ENDBRANCH  26  27
ENDBRANCH  25  26
ENDBRANCH  24  25
ENDBRANCH   1  24
TORSDOF 15
ENDMDL
