MODEL 1
REMARK VINA RESULT:     -13.7      0.000      0.000
REMARK SMILES Cc1cccc([C@H](Cc2nc(C(C)(C)C)cs2)C(=O)NCCCCNC(=O)c2ccc(-c3c4nc(c(-c5c(F)c(F)c(F)c(F)c5F)c5ccc([nH]5)c(-c5c(F)c(F)c(F)c(F)c5F)c5nc(c(-c6c(F)c(F)c(F)c(F)c6F)c6ccc3[nH]6)C=C5)C=C4)cc2)c1
REMARK SMILES IDX 22 1 21 2 20 3 18 4 19 5 7 7 6 8 1 9 2 10 3 11 91 12 4 13
REMARK SMILES IDX 5 14 8 15 9 16 10 17 17 18 11 19 16 20 12 21 13 22 14 23
REMARK SMILES IDX 15 24 23 25 24 26 25 27 26 28 27 30 28 31 29 32 90 33 30 34
REMARK SMILES IDX 89 35 31 36 32 37 33 38 83 39 34 40 88 41 82 42 84 43 35 44
REMARK SMILES IDX 87 45 81 46 80 47 36 49 68 50 48 51 67 52 49 53 52 54 66 55
REMARK SMILES IDX 85 56 50 57 51 58 65 60 86 61 53 62 37 63 38 64 46 65 39 66
REMARK SMILES IDX 40 67 44 68 47 69 41 70 42 71 45 72 43 73 69 74 70 75 78 76
REMARK SMILES IDX 71 77 72 78 76 79 79 80 73 81 74 82 77 83 75 84 54 85 55 86
REMARK SMILES IDX 63 87 56 88 57 89 61 90 64 91 58 92 59 93 62 94 60 95
REMARK H PARENT 20 6 25 29 84 48 52 59
REMARK Flexibility Score: inf
ROOT
ATOM      1  C   UNL A   1      31.910  29.370  26.423  1.00  0.00     0.023 C 
ENDROOT
BRANCH   1   2
ATOM      2  C   UNL A   1      32.255  27.940  26.840  1.00  0.00     0.116 C 
BRANCH   2   3
ATOM      3  N   UNL A   1      31.118  27.043  26.928  1.00  0.00    -0.356 N 
ATOM      4  C   UNL A   1      30.638  26.107  26.064  1.00  0.00     0.227 C 
ATOM      5  O   UNL A   1      29.766  25.345  26.500  1.00  0.00    -0.274 OA
ATOM      6  H   UNL A   1      30.603  27.125  27.763  1.00  0.00     0.163 HD
BRANCH   4   7
ATOM      7  C   UNL A   1      31.119  25.966  24.608  1.00  0.00     0.115 C 
BRANCH   7   8
ATOM      8  C   UNL A   1      30.556  27.090  23.734  1.00  0.00    -0.035 A 
ATOM      9  C   UNL A   1      27.278  28.937  23.125  1.00  0.00     0.044 C 
ATOM     10  C   UNL A   1      28.729  28.559  23.049  1.00  0.00    -0.051 A 
ATOM     11  C   UNL A   1      29.647  29.430  22.457  1.00  0.00     0.003 A 
ATOM     12  C   UNL A   1      29.184  27.357  23.609  1.00  0.00     0.008 A 
ATOM     13  C   UNL A   1      31.005  29.127  22.471  1.00  0.00     0.001 A 
ATOM     14  C   UNL A   1      31.457  27.980  23.125  1.00  0.00     0.004 A 
ENDBRANCH   7   8
BRANCH   7  15
ATOM     15  C   UNL A   1      31.020  24.526  24.078  1.00  0.00     0.086 C 
BRANCH  15  16
ATOM     16  C   UNL A   1      32.090  23.594  24.591  1.00  0.00     0.094 A 
ATOM     17  N   UNL A   1      33.375  23.791  24.379  1.00  0.00    -0.246 NA
ATOM     18  S   UNL A   1      31.721  22.201  25.525  1.00  0.00    -0.127 S 
ATOM     19  C   UNL A   1      34.135  22.763  24.921  1.00  0.00     0.057 A 
ATOM     20  C   UNL A   1      33.380  21.781  25.539  1.00  0.00     0.091 A 
BRANCH  19  21
ATOM     21  C   UNL A   1      35.654  22.808  24.807  1.00  0.00     0.005 C 
ATOM     22  C   UNL A   1      36.068  22.955  23.329  1.00  0.00     0.017 C 
ATOM     23  C   UNL A   1      36.220  23.996  25.609  1.00  0.00     0.017 C 
ATOM     24  C   UNL A   1      36.300  21.515  25.350  1.00  0.00     0.017 C 
ENDBRANCH  19  21
ENDBRANCH  15  16
ENDBRANCH   7  15
ENDBRANCH   4   7
ENDBRANCH   2   3
ENDBRANCH   1   2
BRANCH   1  25
ATOM     25  C   UNL A   1      32.614  30.470  27.211  1.00  0.00     0.023 C 
BRANCH  25  26
ATOM     26  C   UNL A   1      34.082  30.189  27.492  1.00  0.00     0.116 C 
BRANCH  26  27
ATOM     27  N   UNL A   1      34.726  31.128  28.401  1.00  0.00    -0.352 N 
ATOM     28  C   UNL A   1      35.862  30.970  29.185  1.00  0.00     0.251 C 
ATOM     29  H   UNL A   1      34.290  32.008  28.470  1.00  0.00     0.163 HD
ATOM     30  O   UNL A   1      36.194  31.850  29.957  1.00  0.00    -0.269 OA
BRANCH  28  31
ATOM     31  C   UNL A   1      36.751  29.794  28.975  1.00  0.00     0.039 A 
ATOM     32  C   UNL A   1      37.000  28.953  30.069  1.00  0.00     0.014 A 
ATOM     33  C   UNL A   1      37.487  29.637  27.808  1.00  0.00     0.014 A 
ATOM     34  C   UNL A   1      38.152  28.167  30.082  1.00  0.00     0.010 A 
ATOM     35  C   UNL A   1      38.688  28.962  27.864  1.00  0.00     0.010 A 
ATOM     36  C   UNL A   1      39.057  28.287  29.030  1.00  0.00    -0.014 A 
BRANCH  36  37
ATOM     37  C   UNL A   1      40.454  27.871  29.106  1.00  0.00     0.031 A 
ATOM     38  C   UNL A   1      40.886  26.563  28.570  1.00  0.00     0.074 A 
ATOM     39  C   UNL A   1      41.375  28.776  29.509  1.00  0.00     0.049 A 
ATOM     40  N   UNL A   1      42.023  26.009  28.822  1.00  0.00    -0.248 NA
ATOM     41  C   UNL A   1      40.035  25.754  27.708  1.00  0.00     0.031 C 
ATOM     42  C   UNL A   1      42.824  28.705  29.344  1.00  0.00     0.029 A 
ATOM     43  N   UNL A   1      41.178  29.889  30.346  1.00  0.00    -0.354 N 
ATOM     44  C   UNL A   1      42.170  24.932  27.976  1.00  0.00     0.074 A 
ATOM     45  C   UNL A   1      40.883  24.792  27.334  1.00  0.00     0.031 C 
ATOM     46  C   UNL A   1      43.400  29.485  30.272  1.00  0.00     0.029 A 
ATOM     47  C   UNL A   1      42.344  29.957  31.149  1.00  0.00     0.049 A 
ATOM     48  H   UNL A   1      40.398  30.491  30.370  1.00  0.00     0.167 HD
ATOM     49  C   UNL A   1      43.401  24.355  27.840  1.00  0.00     0.037 A 
ATOM     50  C   UNL A   1      42.272  29.713  32.491  1.00  0.00     0.037 A 
ATOM     51  C   UNL A   1      44.362  24.929  28.783  1.00  0.00     0.049 A 
ATOM     52  C   UNL A   1      43.050  28.501  32.961  1.00  0.00     0.074 A 
ATOM     53  C   UNL A   1      45.355  25.892  28.695  1.00  0.00     0.029 A 
ATOM     54  N   UNL A   1      44.165  24.708  30.134  1.00  0.00    -0.354 N 
ATOM     55  N   UNL A   1      43.686  27.679  32.173  1.00  0.00    -0.248 NA
ATOM     56  C   UNL A   1      43.081  28.067  34.360  1.00  0.00     0.031 C 
ATOM     57  C   UNL A   1      45.714  26.281  30.018  1.00  0.00     0.029 A 
ATOM     58  C   UNL A   1      44.945  25.549  30.905  1.00  0.00     0.049 A 
ATOM     59  H   UNL A   1      43.547  24.037  30.501  1.00  0.00     0.167 HD
ATOM     60  C   UNL A   1      44.140  26.616  32.903  1.00  0.00     0.074 A 
ATOM     61  C   UNL A   1      43.747  26.904  34.270  1.00  0.00     0.031 C 
ATOM     62  C   UNL A   1      44.770  25.547  32.345  1.00  0.00     0.037 A 
BRANCH  49  63
ATOM     63  C   UNL A   1      43.798  23.431  26.708  1.00  0.00     0.064 A 
ATOM     64  C   UNL A   1      43.312  22.105  26.658  1.00  0.00     0.173 A 
ATOM     65  C   UNL A   1      44.690  23.762  25.671  1.00  0.00     0.173 A 
ATOM     66  F   UNL A   1      42.369  21.673  27.504  1.00  0.00    -0.203 F 
ATOM     67  C   UNL A   1      43.778  21.166  25.733  1.00  0.00     0.198 A 
ATOM     68  C   UNL A   1      45.203  22.809  24.783  1.00  0.00     0.198 A 
ATOM     69  F   UNL A   1      45.044  25.030  25.431  1.00  0.00    -0.203 F 
ATOM     70  F   UNL A   1      43.278  19.921  25.740  1.00  0.00    -0.200 F 
ATOM     71  C   UNL A   1      44.755  21.506  24.822  1.00  0.00     0.200 A 
ATOM     72  F   UNL A   1      46.129  23.171  23.884  1.00  0.00    -0.200 F 
ATOM     73  F   UNL A   1      45.237  20.596  23.966  1.00  0.00    -0.200 F 
ENDBRANCH  49  63
BRANCH  50  74
ATOM     74  C   UNL A   1      40.996  30.186  33.091  1.00  0.00     0.064 A 
ATOM     75  C   UNL A   1      40.796  31.574  33.228  1.00  0.00     0.173 A 
ATOM     76  C   UNL A   1      39.871  29.359  33.172  1.00  0.00     0.173 A 
ATOM     77  F   UNL A   1      41.844  32.411  33.168  1.00  0.00    -0.203 F 
ATOM     78  C   UNL A   1      39.517  32.116  33.311  1.00  0.00     0.198 A 
ATOM     79  C   UNL A   1      38.591  29.905  33.278  1.00  0.00     0.198 A 
ATOM     80  F   UNL A   1      39.992  28.032  33.030  1.00  0.00    -0.203 F 
ATOM     81  F   UNL A   1      39.354  33.446  33.316  1.00  0.00    -0.200 F 
ATOM     82  C   UNL A   1      38.412  31.280  33.308  1.00  0.00     0.200 A 
ATOM     83  F   UNL A   1      37.522  29.097  33.252  1.00  0.00    -0.200 F 
ATOM     84  F   UNL A   1      37.177  31.800  33.295  1.00  0.00    -0.200 F 
ENDBRANCH  50  74
BRANCH  62  85
ATOM     85  C   UNL A   1      45.280  24.402  33.158  1.00  0.00     0.064 A 
ATOM     86  C   UNL A   1      44.482  23.280  33.427  1.00  0.00     0.173 A 
ATOM     87  C   UNL A   1      46.536  24.454  33.793  1.00  0.00     0.173 A 
ATOM     88  F   UNL A   1      43.260  23.166  32.885  1.00  0.00    -0.203 F 
ATOM     89  C   UNL A   1      44.925  22.259  34.269  1.00  0.00     0.198 A 
ATOM     90  C   UNL A   1      46.955  23.456  34.668  1.00  0.00     0.198 A 
ATOM     91  F   UNL A   1      47.387  25.464  33.559  1.00  0.00    -0.203 F 
ATOM     92  F   UNL A   1      44.153  21.182  34.470  1.00  0.00    -0.200 F 
ATOM     93  C   UNL A   1      46.153  22.356  34.900  1.00  0.00     0.200 A 
ATOM     94  F   UNL A   1      48.141  23.567  35.283  1.00  0.00    -0.200 F 
ATOM     95  F   UNL A   1      46.566  21.386  35.728  1.00  0.00    -0.200 F 
ENDBRANCH  62  85
ENDBRANCH  36  37
ENDBRANCH  28  31
ENDBRANCH  26  27
ENDBRANCH  25  26
ENDBRANCH   1  25
TORSDOF 15
ENDMDL
MODEL 2
REMARK VINA RESULT:     -13.4      3.912     10.238
REMARK SMILES Cc1cccc([C@H](Cc2nc(C(C)(C)C)cs2)C(=O)NCCCCNC(=O)c2ccc(-c3c4nc(c(-c5c(F)c(F)c(F)c(F)c5F)c5ccc([nH]5)c(-c5c(F)c(F)c(F)c(F)c5F)c5nc(c(-c6c(F)c(F)c(F)c(F)c6F)c6ccc3[nH]6)C=C5)C=C4)cc2)c1
REMARK SMILES IDX 22 1 21 2 20 3 18 4 19 5 7 7 6 8 1 9 2 10 3 11 91 12 4 13
REMARK SMILES IDX 5 14 8 15 9 16 10 17 17 18 11 19 16 20 12 21 13 22 14 23
REMARK SMILES IDX 15 24 23 25 24 26 25 27 26 28 27 30 28 31 29 32 90 33 30 34
REMARK SMILES IDX 89 35 31 36 32 37 33 38 83 39 34 40 88 41 82 42 84 43 35 44
REMARK SMILES IDX 87 45 81 46 80 47 36 49 68 50 48 51 67 52 49 53 52 54 66 55
REMARK SMILES IDX 85 56 50 57 51 58 65 60 86 61 53 62 37 63 38 64 46 65 39 66
REMARK SMILES IDX 40 67 44 68 47 69 41 70 42 71 45 72 43 73 69 74 70 75 78 76
REMARK SMILES IDX 71 77 72 78 76 79 79 80 73 81 74 82 77 83 75 84 54 85 55 86
REMARK SMILES IDX 63 87 56 88 57 89 61 90 64 91 58 92 59 93 62 94 60 95
REMARK H PARENT 20 6 25 29 84 48 52 59
REMARK Flexibility Score: inf
ROOT
ATOM      1  C   UNL A   1      36.819  21.456  24.536  1.00  0.00     0.023 C 
ENDROOT
BRANCH   1   2
ATOM      2  C   UNL A   1      36.030  22.761  24.426  1.00  0.00     0.116 C 
BRANCH   2   3
ATOM      3  N   UNL A   1      35.345  22.950  23.161  1.00  0.00    -0.356 N 
ATOM      4  C   UNL A   1      34.028  23.134  22.867  1.00  0.00     0.227 C 
ATOM      5  O   UNL A   1      33.762  23.475  21.708  1.00  0.00    -0.274 OA
ATOM      6  H   UNL A   1      35.938  22.945  22.375  1.00  0.00     0.163 HD
BRANCH   4   7
ATOM      7  C   UNL A   1      32.892  22.937  23.888  1.00  0.00     0.115 C 
BRANCH   7   8
ATOM      8  C   UNL A   1      32.696  21.453  24.210  1.00  0.00    -0.035 A 
ATOM      9  C   UNL A   1      32.373  18.105  22.416  1.00  0.00     0.044 C 
ATOM     10  C   UNL A   1      32.498  19.119  23.517  1.00  0.00    -0.051 A 
ATOM     11  C   UNL A   1      32.784  18.705  24.819  1.00  0.00     0.003 A 
ATOM     12  C   UNL A   1      32.375  20.489  23.242  1.00  0.00     0.008 A 
ATOM     13  C   UNL A   1      32.994  19.647  25.821  1.00  0.00     0.001 A 
ATOM     14  C   UNL A   1      32.976  21.009  25.513  1.00  0.00     0.004 A 
ENDBRANCH   7   8
BRANCH   7  15
ATOM     15  C   UNL A   1      31.642  23.773  23.566  1.00  0.00     0.086 C 
BRANCH  15  16
ATOM     16  C   UNL A   1      31.825  25.262  23.726  1.00  0.00     0.094 A 
ATOM     17  N   UNL A   1      32.068  25.834  24.888  1.00  0.00    -0.246 NA
ATOM     18  S   UNL A   1      31.758  26.342  22.393  1.00  0.00    -0.127 S 
ATOM     19  C   UNL A   1      32.149  27.214  24.759  1.00  0.00     0.057 A 
ATOM     20  C   UNL A   1      31.949  27.664  23.465  1.00  0.00     0.091 A 
BRANCH  19  21
ATOM     21  C   UNL A   1      32.447  28.070  25.984  1.00  0.00     0.005 C 
ATOM     22  C   UNL A   1      31.624  27.571  27.189  1.00  0.00     0.017 C 
ATOM     23  C   UNL A   1      33.946  28.004  26.336  1.00  0.00     0.017 C 
ATOM     24  C   UNL A   1      32.079  29.550  25.743  1.00  0.00     0.017 C 
ENDBRANCH  19  21
ENDBRANCH  15  16
ENDBRANCH   7  15
ENDBRANCH   4   7
ENDBRANCH   2   3
ENDBRANCH   1   2
BRANCH   1  25
ATOM     25  C   UNL A   1      37.992  21.480  25.511  1.00  0.00     0.023 C 
BRANCH  25  26
ATOM     26  C   UNL A   1      38.592  22.860  25.727  1.00  0.00     0.116 C 
BRANCH  26  27
ATOM     27  N   UNL A   1      39.938  22.867  26.282  1.00  0.00    -0.352 N 
ATOM     28  C   UNL A   1      40.698  23.928  26.760  1.00  0.00     0.251 C 
ATOM     29  H   UNL A   1      40.376  21.987  26.326  1.00  0.00     0.163 HD
ATOM     30  O   UNL A   1      41.850  23.743  27.103  1.00  0.00    -0.269 OA
BRANCH  28  31
ATOM     31  C   UNL A   1      40.059  25.254  26.990  1.00  0.00     0.039 A 
ATOM     32  C   UNL A   1      40.582  26.363  26.310  1.00  0.00     0.014 A 
ATOM     33  C   UNL A   1      39.122  25.446  27.996  1.00  0.00     0.014 A 
ATOM     34  C   UNL A   1      40.377  27.643  26.824  1.00  0.00     0.010 A 
ATOM     35  C   UNL A   1      39.018  26.690  28.581  1.00  0.00     0.010 A 
ATOM     36  C   UNL A   1      39.708  27.777  28.038  1.00  0.00    -0.014 A 
BRANCH  36  37
ATOM     37  C   UNL A   1      39.787  28.963  28.886  1.00  0.00     0.031 A 
ATOM     38  C   UNL A   1      38.769  30.030  28.796  1.00  0.00     0.074 A 
ATOM     39  C   UNL A   1      40.704  28.983  29.880  1.00  0.00     0.049 A 
ATOM     40  N   UNL A   1      38.897  31.209  29.303  1.00  0.00    -0.248 NA
ATOM     41  C   UNL A   1      37.509  29.848  28.087  1.00  0.00     0.031 C 
ATOM     42  C   UNL A   1      40.747  29.878  31.034  1.00  0.00     0.029 A 
ATOM     43  N   UNL A   1      41.928  28.291  29.936  1.00  0.00    -0.354 N 
ATOM     44  C   UNL A   1      37.676  31.840  29.230  1.00  0.00     0.074 A 
ATOM     45  C   UNL A   1      36.858  30.964  28.422  1.00  0.00     0.031 C 
ATOM     46  C   UNL A   1      42.008  29.932  31.489  1.00  0.00     0.029 A 
ATOM     47  C   UNL A   1      42.833  29.193  30.550  1.00  0.00     0.049 A 
ATOM     48  H   UNL A   1      42.115  27.378  29.617  1.00  0.00     0.167 HD
ATOM     49  C   UNL A   1      37.471  32.980  29.955  1.00  0.00     0.037 A 
ATOM     50  C   UNL A   1      43.871  29.720  29.836  1.00  0.00     0.037 A 
ATOM     51  C   UNL A   1      38.706  33.426  30.601  1.00  0.00     0.049 A 
ATOM     52  C   UNL A   1      43.824  31.223  29.656  1.00  0.00     0.074 A 
ATOM     53  C   UNL A   1      39.235  33.305  31.876  1.00  0.00     0.029 A 
ATOM     54  N   UNL A   1      39.745  33.862  29.799  1.00  0.00    -0.354 N 
ATOM     55  N   UNL A   1      42.847  31.987  30.063  1.00  0.00    -0.248 NA
ATOM     56  C   UNL A   1      44.837  31.969  28.906  1.00  0.00     0.031 C 
ATOM     57  C   UNL A   1      40.622  33.628  31.814  1.00  0.00     0.029 A 
ATOM     58  C   UNL A   1      40.929  33.950  30.504  1.00  0.00     0.049 A 
ATOM     59  H   UNL A   1      39.652  34.081  28.844  1.00  0.00     0.167 HD
ATOM     60  C   UNL A   1      43.047  33.258  29.602  1.00  0.00     0.074 A 
ATOM     61  C   UNL A   1      44.310  33.205  28.889  1.00  0.00     0.031 C 
ATOM     62  C   UNL A   1      42.151  34.265  29.790  1.00  0.00     0.037 A 
BRANCH  49  63
ATOM     63  C   UNL A   1      36.111  33.570  30.264  1.00  0.00     0.064 A 
ATOM     64  C   UNL A   1      35.321  34.134  29.237  1.00  0.00     0.173 A 
ATOM     65  C   UNL A   1      35.545  33.663  31.550  1.00  0.00     0.173 A 
ATOM     66  F   UNL A   1      35.665  34.023  27.949  1.00  0.00    -0.203 F 
ATOM     67  C   UNL A   1      34.141  34.838  29.495  1.00  0.00     0.198 A 
ATOM     68  C   UNL A   1      34.397  34.419  31.817  1.00  0.00     0.198 A 
ATOM     69  F   UNL A   1      36.038  32.970  32.583  1.00  0.00    -0.203 F 
ATOM     70  F   UNL A   1      33.438  35.352  28.475  1.00  0.00    -0.200 F 
ATOM     71  C   UNL A   1      33.701  35.017  30.789  1.00  0.00     0.200 A 
ATOM     72  F   UNL A   1      33.970  34.552  33.080  1.00  0.00    -0.200 F 
ATOM     73  F   UNL A   1      32.596  35.731  31.042  1.00  0.00    -0.200 F 
ENDBRANCH  49  63
BRANCH  50  74
ATOM     74  C   UNL A   1      44.423  28.764  28.839  1.00  0.00     0.064 A 
ATOM     75  C   UNL A   1      45.187  27.677  29.306  1.00  0.00     0.173 A 
ATOM     76  C   UNL A   1      43.919  28.688  27.537  1.00  0.00     0.173 A 
ATOM     77  F   UNL A   1      45.703  27.705  30.546  1.00  0.00    -0.203 F 
ATOM     78  C   UNL A   1      45.327  26.514  28.554  1.00  0.00     0.198 A 
ATOM     79  C   UNL A   1      44.081  27.529  26.776  1.00  0.00     0.198 A 
ATOM     80  F   UNL A   1      43.168  29.681  27.040  1.00  0.00    -0.203 F 
ATOM     81  F   UNL A   1      45.955  25.452  29.078  1.00  0.00    -0.200 F 
ATOM     82  C   UNL A   1      44.749  26.432  27.299  1.00  0.00     0.200 A 
ATOM     83  F   UNL A   1      43.501  27.441  25.571  1.00  0.00    -0.200 F 
ATOM     84  F   UNL A   1      44.802  25.284  26.609  1.00  0.00    -0.200 F 
ENDBRANCH  50  74
BRANCH  62  85
ATOM     85  C   UNL A   1      42.393  35.655  29.297  1.00  0.00     0.064 A 
ATOM     86  C   UNL A   1      41.832  36.117  28.098  1.00  0.00     0.173 A 
ATOM     87  C   UNL A   1      43.293  36.519  29.951  1.00  0.00     0.173 A 
ATOM     88  F   UNL A   1      40.987  35.344  27.398  1.00  0.00    -0.203 F 
ATOM     89  C   UNL A   1      42.140  37.380  27.591  1.00  0.00     0.198 A 
ATOM     90  C   UNL A   1      43.633  37.760  29.419  1.00  0.00     0.198 A 
ATOM     91  F   UNL A   1      43.842  36.184  31.128  1.00  0.00    -0.203 F 
ATOM     92  F   UNL A   1      41.553  37.805  26.464  1.00  0.00    -0.200 F 
ATOM     93  C   UNL A   1      43.050  38.193  28.244  1.00  0.00     0.200 A 
ATOM     94  F   UNL A   1      44.525  38.533  30.053  1.00  0.00    -0.200 F 
ATOM     95  F   UNL A   1      43.363  39.396  27.742  1.00  0.00    -0.200 F 
ENDBRANCH  62  85
ENDBRANCH  36  37
ENDBRANCH  28  31
ENDBRANCH  26  27
ENDBRANCH  25  26
ENDBRANCH   1  25
TORSDOF 15
ENDMDL
MODEL 3
REMARK VINA RESULT:     -13.1      3.833     10.300
REMARK SMILES Cc1cccc([C@H](Cc2nc(C(C)(C)C)cs2)C(=O)NCCCCNC(=O)c2ccc(-c3c4nc(c(-c5c(F)c(F)c(F)c(F)c5F)c5ccc([nH]5)c(-c5c(F)c(F)c(F)c(F)c5F)c5nc(c(-c6c(F)c(F)c(F)c(F)c6F)c6ccc3[nH]6)C=C5)C=C4)cc2)c1
REMARK SMILES IDX 22 1 21 2 20 3 18 4 19 5 7 7 6 8 1 9 2 10 3 11 91 12 4 13
REMARK SMILES IDX 5 14 8 15 9 16 10 17 17 18 11 19 16 20 12 21 13 22 14 23
REMARK SMILES IDX 15 24 23 25 24 26 25 27 26 28 27 30 28 31 29 32 90 33 30 34
REMARK SMILES IDX 89 35 31 36 32 37 33 38 83 39 34 40 88 41 82 42 84 43 35 44
REMARK SMILES IDX 87 45 81 46 80 47 36 49 68 50 48 51 67 52 49 53 52 54 66 55
REMARK SMILES IDX 85 56 50 57 51 58 65 60 86 61 53 62 37 63 38 64 46 65 39 66
REMARK SMILES IDX 40 67 44 68 47 69 41 70 42 71 45 72 43 73 69 74 70 75 78 76
REMARK SMILES IDX 71 77 72 78 76 79 79 80 73 81 74 82 77 83 75 84 54 85 55 86
REMARK SMILES IDX 63 87 56 88 57 89 61 90 64 91 58 92 59 93 62 94 60 95
REMARK H PARENT 20 6 25 29 84 48 52 59
REMARK Flexibility Score: inf
ROOT
ATOM      1  C   UNL A   1      36.297  21.948  24.798  1.00  0.00     0.023 C 
ENDROOT
BRANCH   1   2
ATOM      2  C   UNL A   1      35.734  23.294  24.340  1.00  0.00     0.116 C 
BRANCH   2   3
ATOM      3  N   UNL A   1      35.043  23.260  23.066  1.00  0.00    -0.356 N 
ATOM      4  C   UNL A   1      33.717  23.214  22.759  1.00  0.00     0.227 C 
ATOM      5  O   UNL A   1      33.415  23.403  21.575  1.00  0.00    -0.274 OA
ATOM      6  H   UNL A   1      35.638  23.273  22.282  1.00  0.00     0.163 HD
BRANCH   4   7
ATOM      7  C   UNL A   1      32.612  22.941  23.797  1.00  0.00     0.115 C 
BRANCH   7   8
ATOM      8  C   UNL A   1      32.522  21.447  24.120  1.00  0.00    -0.035 A 
ATOM      9  C   UNL A   1      32.518  18.079  22.336  1.00  0.00     0.044 C 
ATOM     10  C   UNL A   1      32.528  19.103  23.434  1.00  0.00    -0.051 A 
ATOM     11  C   UNL A   1      32.802  18.716  24.747  1.00  0.00     0.003 A 
ATOM     12  C   UNL A   1      32.308  20.458  23.148  1.00  0.00     0.008 A 
ATOM     13  C   UNL A   1      32.906  19.674  25.750  1.00  0.00     0.001 A 
ATOM     14  C   UNL A   1      32.792  21.029  25.435  1.00  0.00     0.004 A 
ENDBRANCH   7   8
BRANCH   7  15
ATOM     15  C   UNL A   1      31.304  23.690  23.495  1.00  0.00     0.086 C 
BRANCH  15  16
ATOM     16  C   UNL A   1      31.176  25.029  24.179  1.00  0.00     0.094 A 
ATOM     17  N   UNL A   1      31.242  26.175  23.533  1.00  0.00    -0.246 NA
ATOM     18  S   UNL A   1      30.907  25.172  25.869  1.00  0.00    -0.127 S 
ATOM     19  C   UNL A   1      31.139  27.249  24.406  1.00  0.00     0.057 A 
ATOM     20  C   UNL A   1      31.004  26.876  25.732  1.00  0.00     0.091 A 
BRANCH  19  21
ATOM     21  C   UNL A   1      31.169  28.671  23.859  1.00  0.00     0.005 C 
ATOM     22  C   UNL A   1      31.411  29.673  25.006  1.00  0.00     0.017 C 
ATOM     23  C   UNL A   1      32.290  28.822  22.812  1.00  0.00     0.017 C 
ATOM     24  C   UNL A   1      29.832  29.045  23.182  1.00  0.00     0.017 C 
ENDBRANCH  19  21
ENDBRANCH  15  16
ENDBRANCH   7  15
ENDBRANCH   4   7
ENDBRANCH   2   3
ENDBRANCH   1   2
BRANCH   1  25
ATOM     25  C   UNL A   1      37.809  21.902  24.993  1.00  0.00     0.023 C 
BRANCH  25  26
ATOM     26  C   UNL A   1      38.316  22.780  26.127  1.00  0.00     0.116 C 
BRANCH  26  27
ATOM     27  N   UNL A   1      39.762  22.799  26.292  1.00  0.00    -0.352 N 
ATOM     28  C   UNL A   1      40.617  23.870  26.523  1.00  0.00     0.251 C 
ATOM     29  H   UNL A   1      40.201  21.921  26.231  1.00  0.00     0.163 HD
ATOM     30  O   UNL A   1      41.821  23.693  26.542  1.00  0.00    -0.269 OA
BRANCH  28  31
ATOM     31  C   UNL A   1      40.057  25.200  26.894  1.00  0.00     0.039 A 
ATOM     32  C   UNL A   1      40.508  26.324  26.187  1.00  0.00     0.014 A 
ATOM     33  C   UNL A   1      39.283  25.371  28.034  1.00  0.00     0.014 A 
ATOM     34  C   UNL A   1      40.417  27.586  26.773  1.00  0.00     0.010 A 
ATOM     35  C   UNL A   1      39.302  26.592  28.675  1.00  0.00     0.010 A 
ATOM     36  C   UNL A   1      39.936  27.685  28.077  1.00  0.00    -0.014 A 
BRANCH  36  37
ATOM     37  C   UNL A   1      40.173  28.833  28.947  1.00  0.00     0.031 A 
ATOM     38  C   UNL A   1      39.147  29.882  29.116  1.00  0.00     0.074 A 
ATOM     39  C   UNL A   1      41.272  28.827  29.736  1.00  0.00     0.049 A 
ATOM     40  N   UNL A   1      39.362  31.039  29.644  1.00  0.00    -0.248 NA
ATOM     41  C   UNL A   1      37.771  29.706  28.668  1.00  0.00     0.031 C 
ATOM     42  C   UNL A   1      41.538  29.669  30.899  1.00  0.00     0.029 A 
ATOM     43  N   UNL A   1      42.489  28.158  29.510  1.00  0.00    -0.354 N 
ATOM     44  C   UNL A   1      38.144  31.648  29.849  1.00  0.00     0.074 A 
ATOM     45  C   UNL A   1      37.189  30.793  29.182  1.00  0.00     0.031 C 
ATOM     46  C   UNL A   1      42.864  29.728  31.092  1.00  0.00     0.029 A 
ATOM     47  C   UNL A   1      43.490  29.049  29.972  1.00  0.00     0.049 A 
ATOM     48  H   UNL A   1      42.618  27.264  29.116  1.00  0.00     0.167 HD
ATOM     49  C   UNL A   1      38.078  32.749  30.655  1.00  0.00     0.037 A 
ATOM     50  C   UNL A   1      44.357  29.628  29.089  1.00  0.00     0.037 A 
ATOM     51  C   UNL A   1      39.414  33.191  31.059  1.00  0.00     0.049 A 
ATOM     52  C   UNL A   1      44.258  31.137  28.996  1.00  0.00     0.074 A 
ATOM     53  C   UNL A   1      40.191  33.023  32.194  1.00  0.00     0.029 A 
ATOM     54  N   UNL A   1      40.264  33.683  30.086  1.00  0.00    -0.354 N 
ATOM     55  N   UNL A   1      43.375  31.861  29.627  1.00  0.00    -0.248 NA
ATOM     56  C   UNL A   1      45.090  31.937  28.093  1.00  0.00     0.031 C 
ATOM     57  C   UNL A   1      41.533  33.376  31.868  1.00  0.00     0.029 A 
ATOM     58  C   UNL A   1      41.565  33.764  30.541  1.00  0.00     0.049 A 
ATOM     59  H   UNL A   1      39.978  33.944  29.181  1.00  0.00     0.167 HD
ATOM     60  C   UNL A   1      43.464  33.156  29.197  1.00  0.00     0.074 A 
ATOM     61  C   UNL A   1      44.557  33.161  28.243  1.00  0.00     0.031 C 
ATOM     62  C   UNL A   1      42.614  34.136  29.611  1.00  0.00     0.037 A 
BRANCH  49  63
ATOM     63  C   UNL A   1      36.803  33.298  31.261  1.00  0.00     0.064 A 
ATOM     64  C   UNL A   1      35.831  33.921  30.447  1.00  0.00     0.173 A 
ATOM     65  C   UNL A   1      36.495  33.292  32.634  1.00  0.00     0.173 A 
ATOM     66  F   UNL A   1      35.921  33.906  29.111  1.00  0.00    -0.203 F 
ATOM     67  C   UNL A   1      34.722  34.589  30.975  1.00  0.00     0.198 A 
ATOM     68  C   UNL A   1      35.419  34.010  33.169  1.00  0.00     0.198 A 
ATOM     69  F   UNL A   1      37.176  32.535  33.501  1.00  0.00    -0.203 F 
ATOM     70  F   UNL A   1      33.836  35.164  30.149  1.00  0.00    -0.200 F 
ATOM     71  C   UNL A   1      34.538  34.670  32.340  1.00  0.00     0.200 A 
ATOM     72  F   UNL A   1      35.242  34.048  34.497  1.00  0.00    -0.200 F 
ATOM     73  F   UNL A   1      33.503  35.349  32.850  1.00  0.00    -0.200 F 
ENDBRANCH  49  63
BRANCH  50  74
ATOM     74  C   UNL A   1      44.705  28.730  27.956  1.00  0.00     0.064 A 
ATOM     75  C   UNL A   1      45.569  27.646  28.204  1.00  0.00     0.173 A 
ATOM     76  C   UNL A   1      43.941  28.695  26.785  1.00  0.00     0.173 A 
ATOM     77  F   UNL A   1      46.333  27.637  29.309  1.00  0.00    -0.203 F 
ATOM     78  C   UNL A   1      45.570  26.520  27.386  1.00  0.00     0.198 A 
ATOM     79  C   UNL A   1      43.962  27.573  25.955  1.00  0.00     0.198 A 
ATOM     80  F   UNL A   1      43.085  29.686  26.502  1.00  0.00    -0.203 F 
ATOM     81  F   UNL A   1      46.313  25.454  27.718  1.00  0.00    -0.200 F 
ATOM     82  C   UNL A   1      44.745  26.473  26.276  1.00  0.00     0.200 A 
ATOM     83  F   UNL A   1      43.145  27.519  24.894  1.00  0.00    -0.200 F 
ATOM     84  F   UNL A   1      44.674  25.357  25.538  1.00  0.00    -0.200 F 
ENDBRANCH  50  74
BRANCH  62  85
ATOM     85  C   UNL A   1      42.736  35.550  29.147  1.00  0.00     0.064 A 
ATOM     86  C   UNL A   1      43.378  36.525  29.926  1.00  0.00     0.173 A 
ATOM     87  C   UNL A   1      42.107  35.994  27.969  1.00  0.00     0.173 A 
ATOM     88  F   UNL A   1      43.978  36.191  31.079  1.00  0.00    -0.203 F 
ATOM     89  C   UNL A   1      43.403  37.865  29.537  1.00  0.00     0.198 A 
ATOM     90  C   UNL A   1      42.094  37.338  27.607  1.00  0.00     0.198 A 
ATOM     91  F   UNL A   1      41.509  35.128  27.136  1.00  0.00    -0.203 F 
ATOM     92  F   UNL A   1      44.061  38.762  30.284  1.00  0.00    -0.200 F 
ATOM     93  C   UNL A   1      42.749  38.272  28.387  1.00  0.00     0.200 A 
ATOM     94  F   UNL A   1      41.446  37.722  26.498  1.00  0.00    -0.200 F 
ATOM     95  F   UNL A   1      42.753  39.563  28.028  1.00  0.00    -0.200 F 
ENDBRANCH  62  85
ENDBRANCH  36  37
ENDBRANCH  28  31
ENDBRANCH  26  27
ENDBRANCH  25  26
ENDBRANCH   1  25
TORSDOF 15
ENDMDL
