MODEL 1
REMARK VINA RESULT:     -13.0      0.000      0.000
REMARK SMILES CC1(C)CCC[C@@H]1Nc1cccc(F)c1C(=O)NCCCCNC(=O)c1ccc(-c2c3nc(c(-c4c(F)c(F)c(F)c(F)c4F)c4ccc([nH]4)c(-c4c(F)c(F)c(F)c(F)c4F)c4nc(c(-c5c(F)c(F)c(F)c(F)c5F)c5ccc2[nH]5)C=C4)C=C3)cc1
REMARK SMILES IDX 20 1 19 2 18 3 16 4 17 5 15 7 9 8 10 9 11 10 13 11 12 12
REMARK SMILES IDX 14 13 8 14 7 16 1 17 2 18 3 19 4 20 5 21 6 22 21 23 22 24
REMARK SMILES IDX 23 25 24 26 25 28 26 29 27 30 88 31 28 32 87 33 29 34 30 35
REMARK SMILES IDX 31 36 81 37 32 38 86 39 80 40 82 41 33 42 85 43 79 44 78 45
REMARK SMILES IDX 34 47 66 48 46 49 65 50 47 51 50 52 64 53 83 54 48 55 49 56
REMARK SMILES IDX 63 58 84 59 51 60 35 61 36 62 44 63 37 64 38 65 42 66 45 67
REMARK SMILES IDX 39 68 40 69 43 70 41 71 67 72 68 73 76 74 69 75 70 76 74 77
REMARK SMILES IDX 77 78 71 79 72 80 75 81 73 82 52 83 53 84 61 85 54 86 55 87
REMARK SMILES IDX 59 88 62 89 56 90 57 91 60 92 58 93
REMARK H PARENT 18 6 8 15 23 27 82 46 50 57
REMARK Flexibility Score: inf
ROOT
ATOM      1  C   UNL A   1      31.625  30.555  26.492  1.00  0.00     0.023 C 
ENDROOT
BRANCH   1   2
ATOM      2  C   UNL A   1      33.066  30.087  26.300  1.00  0.00     0.116 C 
BRANCH   2   3
ATOM      3  N   UNL A   1      33.430  29.842  24.917  1.00  0.00    -0.352 N 
ATOM      4  C   UNL A   1      32.971  28.928  23.994  1.00  0.00     0.256 C 
ATOM      5  O   UNL A   1      33.492  28.978  22.877  1.00  0.00    -0.269 OA
ATOM      6  H   UNL A   1      34.133  30.439  24.575  1.00  0.00     0.163 HD
BRANCH   4   7
ATOM      7  C   UNL A   1      31.968  27.860  24.298  1.00  0.00     0.098 A 
ATOM      8  C   UNL A   1      30.686  27.898  23.683  1.00  0.00     0.050 A 
ATOM      9  C   UNL A   1      29.804  26.817  23.883  1.00  0.00     0.027 A 
ATOM     10  C   UNL A   1      30.138  25.753  24.718  1.00  0.00     0.005 A 
ATOM     11  C   UNL A   1      32.223  26.846  25.225  1.00  0.00     0.138 A 
ATOM     12  C   UNL A   1      31.337  25.787  25.416  1.00  0.00     0.040 A 
ATOM     13  F   UNL A   1      33.307  26.878  26.014  1.00  0.00    -0.206 F 
BRANCH   8  14
ATOM     14  N   UNL A   1      30.234  29.022  22.963  1.00  0.00    -0.381 N 
ATOM     15  H   UNL A   1      30.558  29.202  22.051  1.00  0.00     0.160 HD
BRANCH  14  16
ATOM     16  C   UNL A   1      29.267  29.912  23.613  1.00  0.00     0.084 C 
ATOM     17  C   UNL A   1      26.985  28.867  23.150  1.00  0.00     0.013 C 
ATOM     18  C   UNL A   1      27.929  30.032  22.839  1.00  0.00    -0.015 C 
ATOM     19  C   UNL A   1      28.093  30.151  21.312  1.00  0.00     0.013 C 
ATOM     20  C   UNL A   1      27.372  31.349  23.412  1.00  0.00     0.008 C 
ATOM     21  C   UNL A   1      28.580  32.273  23.514  1.00  0.00     0.003 C 
ATOM     22  C   UNL A   1      29.789  31.358  23.702  1.00  0.00     0.025 C 
ENDBRANCH  14  16
ENDBRANCH   8  14
ENDBRANCH   4   7
ENDBRANCH   2   3
ENDBRANCH   1   2
BRANCH   1  23
ATOM     23  C   UNL A   1      31.415  32.021  26.867  1.00  0.00     0.023 C 
BRANCH  23  24
ATOM     24  C   UNL A   1      32.661  32.819  27.236  1.00  0.00     0.116 C 
BRANCH  24  25
ATOM     25  N   UNL A   1      32.383  34.175  27.683  1.00  0.00    -0.352 N 
ATOM     26  C   UNL A   1      33.014  34.959  28.621  1.00  0.00     0.251 C 
ATOM     27  H   UNL A   1      31.615  34.603  27.239  1.00  0.00     0.163 HD
ATOM     28  O   UNL A   1      32.557  36.062  28.896  1.00  0.00    -0.269 OA
BRANCH  26  29
ATOM     29  C   UNL A   1      34.213  34.467  29.341  1.00  0.00     0.039 A 
ATOM     30  C   UNL A   1      34.034  33.842  30.580  1.00  0.00     0.014 A 
ATOM     31  C   UNL A   1      35.498  34.612  28.817  1.00  0.00     0.014 A 
ATOM     32  C   UNL A   1      35.129  33.279  31.241  1.00  0.00     0.010 A 
ATOM     33  C   UNL A   1      36.578  33.982  29.437  1.00  0.00     0.010 A 
ATOM     34  C   UNL A   1      36.402  33.297  30.648  1.00  0.00    -0.014 A 
BRANCH  34  35
ATOM     35  C   UNL A   1      37.540  32.564  31.265  1.00  0.00     0.031 A 
ATOM     36  C   UNL A   1      38.032  32.917  32.640  1.00  0.00     0.074 A 
ATOM     37  C   UNL A   1      38.167  31.605  30.555  1.00  0.00     0.049 A 
ATOM     38  N   UNL A   1      39.026  32.401  33.318  1.00  0.00    -0.248 NA
ATOM     39  C   UNL A   1      37.334  34.009  33.337  1.00  0.00     0.031 C 
ATOM     40  C   UNL A   1      37.824  31.209  29.187  1.00  0.00     0.029 A 
ATOM     41  N   UNL A   1      39.223  30.789  30.879  1.00  0.00    -0.354 N 
ATOM     42  C   UNL A   1      39.075  33.106  34.514  1.00  0.00     0.074 A 
ATOM     43  C   UNL A   1      38.047  34.123  34.447  1.00  0.00     0.031 C 
ATOM     44  C   UNL A   1      38.626  30.202  28.806  1.00  0.00     0.029 A 
ATOM     45  C   UNL A   1      39.565  29.906  29.885  1.00  0.00     0.049 A 
ATOM     46  H   UNL A   1      39.691  30.834  31.744  1.00  0.00     0.167 HD
ATOM     47  C   UNL A   1      39.885  32.905  35.580  1.00  0.00     0.037 A 
ATOM     48  C   UNL A   1      40.524  28.962  29.843  1.00  0.00     0.037 A 
ATOM     49  C   UNL A   1      40.890  31.877  35.655  1.00  0.00     0.049 A 
ATOM     50  C   UNL A   1      41.410  28.759  31.040  1.00  0.00     0.074 A 
ATOM     51  C   UNL A   1      41.715  31.555  36.719  1.00  0.00     0.029 A 
ATOM     52  N   UNL A   1      41.209  31.003  34.625  1.00  0.00    -0.354 N 
ATOM     53  N   UNL A   1      41.402  29.389  32.190  1.00  0.00    -0.248 NA
ATOM     54  C   UNL A   1      42.437  27.712  30.936  1.00  0.00     0.031 C 
ATOM     55  C   UNL A   1      42.564  30.519  36.319  1.00  0.00     0.029 A 
ATOM     56  C   UNL A   1      42.235  30.160  35.022  1.00  0.00     0.049 A 
ATOM     57  H   UNL A   1      40.771  30.985  33.744  1.00  0.00     0.167 HD
ATOM     58  C   UNL A   1      42.409  28.809  32.950  1.00  0.00     0.074 A 
ATOM     59  C   UNL A   1      42.992  27.760  32.141  1.00  0.00     0.031 C 
ATOM     60  C   UNL A   1      42.814  29.125  34.204  1.00  0.00     0.037 A 
BRANCH  47  61
ATOM     61  C   UNL A   1      39.711  33.801  36.772  1.00  0.00     0.064 A 
ATOM     62  C   UNL A   1      38.879  33.421  37.835  1.00  0.00     0.173 A 
ATOM     63  C   UNL A   1      40.310  35.069  36.826  1.00  0.00     0.173 A 
ATOM     64  F   UNL A   1      38.278  32.222  37.830  1.00  0.00    -0.203 F 
ATOM     65  C   UNL A   1      38.642  34.284  38.902  1.00  0.00     0.198 A 
ATOM     66  C   UNL A   1      40.092  35.918  37.908  1.00  0.00     0.198 A 
ATOM     67  F   UNL A   1      41.121  35.476  35.838  1.00  0.00    -0.203 F 
ATOM     68  F   UNL A   1      37.816  33.914  39.892  1.00  0.00    -0.200 F 
ATOM     69  C   UNL A   1      39.251  35.530  38.940  1.00  0.00     0.200 A 
ATOM     70  F   UNL A   1      40.700  37.112  37.953  1.00  0.00    -0.200 F 
ATOM     71  F   UNL A   1      39.028  36.357  39.970  1.00  0.00    -0.200 F 
ENDBRANCH  47  61
BRANCH  48  72
ATOM     72  C   UNL A   1      40.665  28.109  28.634  1.00  0.00     0.064 A 
ATOM     73  C   UNL A   1      41.446  28.511  27.541  1.00  0.00     0.173 A 
ATOM     74  C   UNL A   1      39.991  26.883  28.539  1.00  0.00     0.173 A 
ATOM     75  F   UNL A   1      42.106  29.677  27.580  1.00  0.00    -0.203 F 
ATOM     76  C   UNL A   1      41.533  27.728  26.392  1.00  0.00     0.198 A 
ATOM     77  C   UNL A   1      40.100  26.088  27.401  1.00  0.00     0.198 A 
ATOM     78  F   UNL A   1      39.249  26.447  29.567  1.00  0.00    -0.203 F 
ATOM     79  F   UNL A   1      42.260  28.151  25.348  1.00  0.00    -0.200 F 
ATOM     80  C   UNL A   1      40.863  26.515  26.324  1.00  0.00     0.200 A 
ATOM     81  F   UNL A   1      39.471  24.906  27.349  1.00  0.00    -0.200 F 
ATOM     82  F   UNL A   1      40.957  25.757  25.222  1.00  0.00    -0.200 F 
ENDBRANCH  48  72
BRANCH  60  83
ATOM     83  C   UNL A   1      43.945  28.327  34.785  1.00  0.00     0.064 A 
ATOM     84  C   UNL A   1      43.692  27.148  35.504  1.00  0.00     0.173 A 
ATOM     85  C   UNL A   1      45.274  28.763  34.685  1.00  0.00     0.173 A 
ATOM     86  F   UNL A   1      42.437  26.692  35.635  1.00  0.00    -0.203 F 
ATOM     87  C   UNL A   1      44.728  26.442  36.108  1.00  0.00     0.198 A 
ATOM     88  C   UNL A   1      46.311  28.038  35.267  1.00  0.00     0.198 A 
ATOM     89  F   UNL A   1      45.569  29.877  33.998  1.00  0.00    -0.203 F 
ATOM     90  F   UNL A   1      44.459  25.335  36.815  1.00  0.00    -0.200 F 
ATOM     91  C   UNL A   1      46.036  26.884  35.984  1.00  0.00     0.200 A 
ATOM     92  F   UNL A   1      47.577  28.453  35.123  1.00  0.00    -0.200 F 
ATOM     93  F   UNL A   1      47.034  26.194  36.554  1.00  0.00    -0.200 F 
ENDBRANCH  60  83
ENDBRANCH  34  35
ENDBRANCH  26  29
ENDBRANCH  24  25
ENDBRANCH  23  24
ENDBRANCH   1  23
TORSDOF 13
ENDMDL
MODEL 2
REMARK VINA RESULT:     -12.9      0.440      7.442
REMARK SMILES CC1(C)CCC[C@@H]1Nc1cccc(F)c1C(=O)NCCCCNC(=O)c1ccc(-c2c3nc(c(-c4c(F)c(F)c(F)c(F)c4F)c4ccc([nH]4)c(-c4c(F)c(F)c(F)c(F)c4F)c4nc(c(-c5c(F)c(F)c(F)c(F)c5F)c5ccc2[nH]5)C=C4)C=C3)cc1
REMARK SMILES IDX 20 1 19 2 18 3 16 4 17 5 15 7 9 8 10 9 11 10 13 11 12 12
REMARK SMILES IDX 14 13 8 14 7 16 1 17 2 18 3 19 4 20 5 21 6 22 21 23 22 24
REMARK SMILES IDX 23 25 24 26 25 28 26 29 27 30 88 31 28 32 87 33 29 34 30 35
REMARK SMILES IDX 31 36 81 37 32 38 86 39 80 40 82 41 33 42 85 43 79 44 78 45
REMARK SMILES IDX 34 47 66 48 46 49 65 50 47 51 50 52 64 53 83 54 48 55 49 56
REMARK SMILES IDX 63 58 84 59 51 60 35 61 36 62 44 63 37 64 38 65 42 66 45 67
REMARK SMILES IDX 39 68 40 69 43 70 41 71 67 72 68 73 76 74 69 75 70 76 74 77
REMARK SMILES IDX 77 78 71 79 72 80 75 81 73 82 52 83 53 84 61 85 54 86 55 87
REMARK SMILES IDX 59 88 62 89 56 90 57 91 60 92 58 93
REMARK H PARENT 18 6 8 15 23 27 82 46 50 57
REMARK Flexibility Score: inf
ROOT
ATOM      1  C   UNL A   1      31.697  30.469  26.497  1.00  0.00     0.023 C 
ENDROOT
BRANCH   1   2
ATOM      2  C   UNL A   1      33.134  30.010  26.259  1.00  0.00     0.116 C 
BRANCH   2   3
ATOM      3  N   UNL A   1      33.458  29.782  24.863  1.00  0.00    -0.352 N 
ATOM      4  C   UNL A   1      32.962  28.890  23.938  1.00  0.00     0.256 C 
ATOM      5  O   UNL A   1      33.455  28.950  22.808  1.00  0.00    -0.269 OA
ATOM      6  H   UNL A   1      34.162  30.374  24.512  1.00  0.00     0.163 HD
BRANCH   4   7
ATOM      7  C   UNL A   1      31.952  27.832  24.250  1.00  0.00     0.098 A 
ATOM      8  C   UNL A   1      30.659  27.891  23.659  1.00  0.00     0.050 A 
ATOM      9  C   UNL A   1      29.768  26.820  23.865  1.00  0.00     0.027 A 
ATOM     10  C   UNL A   1      30.102  25.745  24.686  1.00  0.00     0.005 A 
ATOM     11  C   UNL A   1      32.210  26.808  25.165  1.00  0.00     0.138 A 
ATOM     12  C   UNL A   1      31.313  25.758  25.364  1.00  0.00     0.040 A 
ATOM     13  F   UNL A   1      33.307  26.820  25.936  1.00  0.00    -0.206 F 
BRANCH   8  14
ATOM     14  N   UNL A   1      30.210  29.026  22.954  1.00  0.00    -0.381 N 
ATOM     15  H   UNL A   1      30.541  29.224  22.050  1.00  0.00     0.160 HD
BRANCH  14  16
ATOM     16  C   UNL A   1      29.232  29.899  23.611  1.00  0.00     0.084 C 
ATOM     17  C   UNL A   1      26.962  28.834  23.135  1.00  0.00     0.013 C 
ATOM     18  C   UNL A   1      27.894  30.012  22.836  1.00  0.00    -0.015 C 
ATOM     19  C   UNL A   1      28.059  30.146  21.310  1.00  0.00     0.013 C 
ATOM     20  C   UNL A   1      27.322  31.318  23.420  1.00  0.00     0.008 C 
ATOM     21  C   UNL A   1      28.520  32.254  23.532  1.00  0.00     0.003 C 
ATOM     22  C   UNL A   1      29.738  31.350  23.714  1.00  0.00     0.025 C 
ENDBRANCH  14  16
ENDBRANCH   8  14
ENDBRANCH   4   7
ENDBRANCH   2   3
ENDBRANCH   1   2
BRANCH   1  23
ATOM     23  C   UNL A   1      31.481  31.955  26.778  1.00  0.00     0.023 C 
BRANCH  23  24
ATOM     24  C   UNL A   1      32.692  32.745  27.264  1.00  0.00     0.116 C 
BRANCH  24  25
ATOM     25  N   UNL A   1      32.390  34.116  27.643  1.00  0.00    -0.352 N 
ATOM     26  C   UNL A   1      32.983  34.943  28.569  1.00  0.00     0.251 C 
ATOM     27  H   UNL A   1      31.634  34.519  27.157  1.00  0.00     0.163 HD
ATOM     28  O   UNL A   1      32.510  36.053  28.781  1.00  0.00    -0.269 OA
BRANCH  26  29
ATOM     29  C   UNL A   1      34.161  34.491  29.348  1.00  0.00     0.039 A 
ATOM     30  C   UNL A   1      33.947  33.942  30.616  1.00  0.00     0.014 A 
ATOM     31  C   UNL A   1      35.460  34.601  28.849  1.00  0.00     0.014 A 
ATOM     32  C   UNL A   1      35.022  33.417  31.338  1.00  0.00     0.010 A 
ATOM     33  C   UNL A   1      36.521  34.006  29.534  1.00  0.00     0.010 A 
ATOM     34  C   UNL A   1      36.310  33.395  30.779  1.00  0.00    -0.014 A 
BRANCH  34  35
ATOM     35  C   UNL A   1      37.429  32.697  31.468  1.00  0.00     0.031 A 
ATOM     36  C   UNL A   1      38.137  31.544  30.815  1.00  0.00     0.074 A 
ATOM     37  C   UNL A   1      37.771  33.074  32.716  1.00  0.00     0.049 A 
ATOM     38  N   UNL A   1      39.113  30.804  31.280  1.00  0.00    -0.248 NA
ATOM     39  C   UNL A   1      37.677  31.152  29.473  1.00  0.00     0.031 C 
ATOM     40  C   UNL A   1      37.121  34.139  33.482  1.00  0.00     0.029 A 
ATOM     41  N   UNL A   1      38.747  32.607  33.562  1.00  0.00    -0.354 N 
ATOM     42  C   UNL A   1      39.377  29.862  30.296  1.00  0.00     0.074 A 
ATOM     43  C   UNL A   1      38.424  30.086  29.229  1.00  0.00     0.031 C 
ATOM     44  C   UNL A   1      37.740  34.270  34.666  1.00  0.00     0.029 A 
ATOM     45  C   UNL A   1      38.805  33.275  34.760  1.00  0.00     0.049 A 
ATOM     46  H   UNL A   1      39.349  31.863  33.330  1.00  0.00     0.167 HD
ATOM     47  C   UNL A   1      40.344  28.914  30.272  1.00  0.00     0.037 A 
ATOM     48  C   UNL A   1      39.623  33.110  35.817  1.00  0.00     0.037 A 
ATOM     49  C   UNL A   1      41.308  28.709  31.321  1.00  0.00     0.049 A 
ATOM     50  C   UNL A   1      40.688  32.051  35.764  1.00  0.00     0.074 A 
ATOM     51  C   UNL A   1      42.365  27.817  31.357  1.00  0.00     0.029 A 
ATOM     52  N   UNL A   1      41.332  29.404  32.522  1.00  0.00    -0.354 N 
ATOM     53  N   UNL A   1      40.970  31.210  34.799  1.00  0.00    -0.248 NA
ATOM     54  C   UNL A   1      41.552  31.919  36.946  1.00  0.00     0.031 C 
ATOM     55  C   UNL A   1      43.001  27.938  32.596  1.00  0.00     0.029 A 
ATOM     56  C   UNL A   1      42.371  28.942  33.314  1.00  0.00     0.049 A 
ATOM     57  H   UNL A   1      40.704  30.120  32.773  1.00  0.00     0.167 HD
ATOM     58  C   UNL A   1      42.047  30.459  35.249  1.00  0.00     0.074 A 
ATOM     59  C   UNL A   1      42.386  30.960  36.564  1.00  0.00     0.031 C 
ATOM     60  C   UNL A   1      42.693  29.442  34.627  1.00  0.00     0.037 A 
BRANCH  47  61
ATOM     61  C   UNL A   1      40.431  28.031  29.060  1.00  0.00     0.064 A 
ATOM     62  C   UNL A   1      41.176  28.426  27.941  1.00  0.00     0.173 A 
ATOM     63  C   UNL A   1      39.713  26.828  28.981  1.00  0.00     0.173 A 
ATOM     64  F   UNL A   1      41.875  29.571  27.962  1.00  0.00    -0.203 F 
ATOM     65  C   UNL A   1      41.189  27.656  26.780  1.00  0.00     0.198 A 
ATOM     66  C   UNL A   1      39.750  26.046  27.830  1.00  0.00     0.198 A 
ATOM     67  F   UNL A   1      38.992  26.402  30.029  1.00  0.00    -0.203 F 
ATOM     68  F   UNL A   1      41.882  28.070  25.710  1.00  0.00    -0.200 F 
ATOM     69  C   UNL A   1      40.480  26.465  26.727  1.00  0.00     0.200 A 
ATOM     70  F   UNL A   1      39.083  24.884  27.788  1.00  0.00    -0.200 F 
ATOM     71  F   UNL A   1      40.499  25.721  25.613  1.00  0.00    -0.200 F 
ENDBRANCH  47  61
BRANCH  48  72
ATOM     72  C   UNL A   1      39.488  34.001  36.998  1.00  0.00     0.064 A 
ATOM     73  C   UNL A   1      40.111  35.257  37.043  1.00  0.00     0.173 A 
ATOM     74  C   UNL A   1      38.752  33.596  38.121  1.00  0.00     0.173 A 
ATOM     75  F   UNL A   1      40.831  35.688  35.997  1.00  0.00    -0.203 F 
ATOM     76  C   UNL A   1      40.019  36.065  38.174  1.00  0.00     0.198 A 
ATOM     77  C   UNL A   1      38.638  34.418  39.240  1.00  0.00     0.198 A 
ATOM     78  F   UNL A   1      38.121  32.414  38.116  1.00  0.00    -0.203 F 
ATOM     79  F   UNL A   1      40.652  37.247  38.206  1.00  0.00    -0.200 F 
ATOM     80  C   UNL A   1      39.279  35.647  39.271  1.00  0.00     0.200 A 
ATOM     81  F   UNL A   1      37.903  34.020  40.288  1.00  0.00    -0.200 F 
ATOM     82  F   UNL A   1      39.182  36.430  40.354  1.00  0.00    -0.200 F 
ENDBRANCH  48  72
BRANCH  60  83
ATOM     83  C   UNL A   1      43.834  28.799  35.358  1.00  0.00     0.064 A 
ATOM     84  C   UNL A   1      45.149  29.254  35.173  1.00  0.00     0.173 A 
ATOM     85  C   UNL A   1      43.635  27.691  36.194  1.00  0.00     0.173 A 
ATOM     86  F   UNL A   1      45.394  30.307  34.377  1.00  0.00    -0.203 F 
ATOM     87  C   UNL A   1      46.221  28.617  35.790  1.00  0.00     0.198 A 
ATOM     88  C   UNL A   1      44.707  27.073  36.833  1.00  0.00     0.198 A 
ATOM     89  F   UNL A   1      42.396  27.225  36.413  1.00  0.00    -0.203 F 
ATOM     90  F   UNL A   1      47.471  29.051  35.575  1.00  0.00    -0.200 F 
ATOM     91  C   UNL A   1      45.999  27.532  36.624  1.00  0.00     0.200 A 
ATOM     92  F   UNL A   1      44.488  26.041  37.658  1.00  0.00    -0.200 F 
ATOM     93  F   UNL A   1      47.031  26.928  37.230  1.00  0.00    -0.200 F 
ENDBRANCH  60  83
ENDBRANCH  34  35
ENDBRANCH  26  29
ENDBRANCH  24  25
ENDBRANCH  23  24
ENDBRANCH   1  23
TORSDOF 13
ENDMDL
MODEL 3
REMARK VINA RESULT:     -12.6      1.604      3.401
REMARK SMILES CC1(C)CCC[C@@H]1Nc1cccc(F)c1C(=O)NCCCCNC(=O)c1ccc(-c2c3nc(c(-c4c(F)c(F)c(F)c(F)c4F)c4ccc([nH]4)c(-c4c(F)c(F)c(F)c(F)c4F)c4nc(c(-c5c(F)c(F)c(F)c(F)c5F)c5ccc2[nH]5)C=C4)C=C3)cc1
REMARK SMILES IDX 20 1 19 2 18 3 16 4 17 5 15 7 9 8 10 9 11 10 13 11 12 12
REMARK SMILES IDX 14 13 8 14 7 16 1 17 2 18 3 19 4 20 5 21 6 22 21 23 22 24
REMARK SMILES IDX 23 25 24 26 25 28 26 29 27 30 88 31 28 32 87 33 29 34 30 35
REMARK SMILES IDX 31 36 81 37 32 38 86 39 80 40 82 41 33 42 85 43 79 44 78 45
REMARK SMILES IDX 34 47 66 48 46 49 65 50 47 51 50 52 64 53 83 54 48 55 49 56
REMARK SMILES IDX 63 58 84 59 51 60 35 61 36 62 44 63 37 64 38 65 42 66 45 67
REMARK SMILES IDX 39 68 40 69 43 70 41 71 67 72 68 73 76 74 69 75 70 76 74 77
REMARK SMILES IDX 77 78 71 79 72 80 75 81 73 82 52 83 53 84 61 85 54 86 55 87
REMARK SMILES IDX 59 88 62 89 56 90 57 91 60 92 58 93
REMARK H PARENT 18 6 8 15 23 27 82 46 50 57
REMARK Flexibility Score: inf
ROOT
ATOM      1  C   UNL A   1      31.675  30.493  25.833  1.00  0.00     0.023 C 
ENDROOT
BRANCH   1   2
ATOM      2  C   UNL A   1      32.967  29.752  26.167  1.00  0.00     0.116 C 
BRANCH   2   3
ATOM      3  N   UNL A   1      33.577  29.084  25.032  1.00  0.00    -0.352 N 
ATOM      4  C   UNL A   1      33.319  27.870  24.432  1.00  0.00     0.256 C 
ATOM      5  O   UNL A   1      34.026  27.584  23.462  1.00  0.00    -0.269 OA
ATOM      6  H   UNL A   1      34.308  29.592  24.612  1.00  0.00     0.163 HD
BRANCH   4   7
ATOM      7  C   UNL A   1      32.318  26.881  24.937  1.00  0.00     0.098 A 
ATOM      8  C   UNL A   1      32.759  25.658  25.515  1.00  0.00     0.050 A 
ATOM      9  C   UNL A   1      31.808  24.800  26.099  1.00  0.00     0.027 A 
ATOM     10  C   UNL A   1      30.446  25.093  26.062  1.00  0.00     0.005 A 
ATOM     11  C   UNL A   1      30.942  27.086  24.805  1.00  0.00     0.138 A 
ATOM     12  C   UNL A   1      30.012  26.222  25.383  1.00  0.00     0.040 A 
ATOM     13  F   UNL A   1      30.454  28.093  24.066  1.00  0.00    -0.206 F 
BRANCH   8  14
ATOM     14  N   UNL A   1      34.102  25.236  25.436  1.00  0.00    -0.381 N 
ATOM     15  H   UNL A   1      34.831  25.798  25.783  1.00  0.00     0.160 HD
BRANCH  14  16
ATOM     16  C   UNL A   1      34.377  23.933  24.823  1.00  0.00     0.084 C 
ATOM     17  C   UNL A   1      34.779  22.347  26.783  1.00  0.00     0.013 C 
ATOM     18  C   UNL A   1      35.419  23.094  25.608  1.00  0.00    -0.015 C 
ATOM     19  C   UNL A   1      36.620  23.907  26.126  1.00  0.00     0.013 C 
ATOM     20  C   UNL A   1      35.881  22.104  24.523  1.00  0.00     0.008 C 
ATOM     21  C   UNL A   1      35.990  22.939  23.253  1.00  0.00     0.003 C 
ATOM     22  C   UNL A   1      34.985  24.078  23.416  1.00  0.00     0.025 C 
ENDBRANCH  14  16
ENDBRANCH   8  14
ENDBRANCH   4   7
ENDBRANCH   2   3
ENDBRANCH   1   2
BRANCH   1  23
ATOM     23  C   UNL A   1      31.421  31.810  26.564  1.00  0.00     0.023 C 
BRANCH  23  24
ATOM     24  C   UNL A   1      32.638  32.507  27.163  1.00  0.00     0.116 C 
BRANCH  24  25
ATOM     25  N   UNL A   1      32.388  33.878  27.580  1.00  0.00    -0.352 N 
ATOM     26  C   UNL A   1      33.035  34.669  28.501  1.00  0.00     0.251 C 
ATOM     27  H   UNL A   1      31.629  34.312  27.126  1.00  0.00     0.163 HD
ATOM     28  O   UNL A   1      32.602  35.788  28.751  1.00  0.00    -0.269 OA
BRANCH  26  29
ATOM     29  C   UNL A   1      34.224  34.168  29.232  1.00  0.00     0.039 A 
ATOM     30  C   UNL A   1      34.021  33.395  30.379  1.00  0.00     0.014 A 
ATOM     31  C   UNL A   1      35.523  34.449  28.806  1.00  0.00     0.014 A 
ATOM     32  C   UNL A   1      35.114  32.825  31.038  1.00  0.00     0.010 A 
ATOM     33  C   UNL A   1      36.608  33.816  29.415  1.00  0.00     0.010 A 
ATOM     34  C   UNL A   1      36.413  32.986  30.528  1.00  0.00    -0.014 A 
BRANCH  34  35
ATOM     35  C   UNL A   1      37.562  32.254  31.126  1.00  0.00     0.031 A 
ATOM     36  C   UNL A   1      38.056  32.586  32.505  1.00  0.00     0.074 A 
ATOM     37  C   UNL A   1      38.197  31.317  30.395  1.00  0.00     0.049 A 
ATOM     38  N   UNL A   1      39.058  32.069  33.170  1.00  0.00    -0.248 NA
ATOM     39  C   UNL A   1      37.347  33.656  33.227  1.00  0.00     0.031 C 
ATOM     40  C   UNL A   1      37.853  30.943  29.021  1.00  0.00     0.029 A 
ATOM     41  N   UNL A   1      39.264  30.507  30.699  1.00  0.00    -0.354 N 
ATOM     42  C   UNL A   1      39.104  32.751  34.378  1.00  0.00     0.074 A 
ATOM     43  C   UNL A   1      38.064  33.756  34.336  1.00  0.00     0.031 C 
ATOM     44  C   UNL A   1      38.665  29.954  28.617  1.00  0.00     0.029 A 
ATOM     45  C   UNL A   1      39.612  29.648  29.686  1.00  0.00     0.049 A 
ATOM     46  H   UNL A   1      39.735  30.541  31.563  1.00  0.00     0.167 HD
ATOM     47  C   UNL A   1      39.921  32.539  35.437  1.00  0.00     0.037 A 
ATOM     48  C   UNL A   1      40.582  28.716  29.622  1.00  0.00     0.037 A 
ATOM     49  C   UNL A   1      40.938  31.521  35.488  1.00  0.00     0.049 A 
ATOM     50  C   UNL A   1      41.475  28.500  30.811  1.00  0.00     0.074 A 
ATOM     51  C   UNL A   1      41.771  31.188  36.542  1.00  0.00     0.029 A 
ATOM     52  N   UNL A   1      41.263  30.671  34.441  1.00  0.00    -0.354 N 
ATOM     53  N   UNL A   1      41.464  29.108  31.973  1.00  0.00    -0.248 NA
ATOM     54  C   UNL A   1      42.514  27.468  30.683  1.00  0.00     0.031 C 
ATOM     55  C   UNL A   1      42.631  30.171  36.119  1.00  0.00     0.029 A 
ATOM     56  C   UNL A   1      42.300  29.833  34.816  1.00  0.00     0.049 A 
ATOM     57  H   UNL A   1      40.821  30.666  33.561  1.00  0.00     0.167 HD
ATOM     58  C   UNL A   1      42.481  28.525  32.718  1.00  0.00     0.074 A 
ATOM     59  C   UNL A   1      43.073  27.499  31.886  1.00  0.00     0.031 C 
ATOM     60  C   UNL A   1      42.888  28.821  33.976  1.00  0.00     0.037 A 
BRANCH  47  61
ATOM     61  C   UNL A   1      39.741  33.409  36.648  1.00  0.00     0.064 A 
ATOM     62  C   UNL A   1      38.830  33.055  37.653  1.00  0.00     0.173 A 
ATOM     63  C   UNL A   1      40.417  34.633  36.774  1.00  0.00     0.173 A 
ATOM     64  F   UNL A   1      38.154  31.899  37.577  1.00  0.00    -0.203 F 
ATOM     65  C   UNL A   1      38.592  33.900  38.734  1.00  0.00     0.198 A 
ATOM     66  C   UNL A   1      40.197  35.462  37.870  1.00  0.00     0.198 A 
ATOM     67  F   UNL A   1      41.305  35.013  35.843  1.00  0.00    -0.203 F 
ATOM     68  F   UNL A   1      37.692  33.557  39.667  1.00  0.00    -0.200 F 
ATOM     69  C   UNL A   1      39.278  35.101  38.844  1.00  0.00     0.200 A 
ATOM     70  F   UNL A   1      40.877  36.611  37.986  1.00  0.00    -0.200 F 
ATOM     71  F   UNL A   1      39.054  35.910  39.888  1.00  0.00    -0.200 F 
ENDBRANCH  47  61
BRANCH  48  72
ATOM     72  C   UNL A   1      40.728  27.889  28.396  1.00  0.00     0.064 A 
ATOM     73  C   UNL A   1      40.101  26.640  28.276  1.00  0.00     0.173 A 
ATOM     74  C   UNL A   1      41.525  28.325  27.328  1.00  0.00     0.173 A 
ATOM     75  F   UNL A   1      39.332  26.176  29.271  1.00  0.00    -0.203 F 
ATOM     76  C   UNL A   1      40.282  25.851  27.143  1.00  0.00     0.198 A 
ATOM     77  C   UNL A   1      41.684  27.546  26.184  1.00  0.00     0.198 A 
ATOM     78  F   UNL A   1      42.127  29.521  27.388  1.00  0.00    -0.203 F 
ATOM     79  F   UNL A   1      39.700  24.645  27.067  1.00  0.00    -0.200 F 
ATOM     80  C   UNL A   1      41.071  26.305  26.096  1.00  0.00     0.200 A 
ATOM     81  F   UNL A   1      42.427  28.000  25.165  1.00  0.00    -0.200 F 
ATOM     82  F   UNL A   1      41.235  25.549  25.001  1.00  0.00    -0.200 F 
ENDBRANCH  48  72
BRANCH  60  83
ATOM     83  C   UNL A   1      44.031  28.026  34.538  1.00  0.00     0.064 A 
ATOM     84  C   UNL A   1      43.794  26.836  35.243  1.00  0.00     0.173 A 
ATOM     85  C   UNL A   1      45.355  28.474  34.430  1.00  0.00     0.173 A 
ATOM     86  F   UNL A   1      42.544  26.368  35.381  1.00  0.00    -0.203 F 
ATOM     87  C   UNL A   1      44.841  26.131  35.829  1.00  0.00     0.198 A 
ATOM     88  C   UNL A   1      46.403  27.750  34.994  1.00  0.00     0.198 A 
ATOM     89  F   UNL A   1      45.635  29.599  33.755  1.00  0.00    -0.203 F 
ATOM     90  F   UNL A   1      44.588  25.013  36.525  1.00  0.00    -0.200 F 
ATOM     91  C   UNL A   1      46.144  26.585  35.699  1.00  0.00     0.200 A 
ATOM     92  F   UNL A   1      47.665  28.177  34.844  1.00  0.00    -0.200 F 
ATOM     93  F   UNL A   1      47.154  25.897  36.251  1.00  0.00    -0.200 F 
ENDBRANCH  60  83
ENDBRANCH  34  35
ENDBRANCH  26  29
ENDBRANCH  24  25
ENDBRANCH  23  24
ENDBRANCH   1  23
TORSDOF 13
ENDMDL
