MODEL 1
REMARK VINA RESULT:     -10.5      0.000      0.000
REMARK SMILES CCCNC(=O)[C@H](C)[NH2+][C@H](C)[C@@H](C)C(=O)NCCCCNC(=O)c1ccc(-c2c3nc(c(-c4c(F)c(F)c(F)c(F)c4F)c4ccc([nH]4)c(-c4c(F)c(F)c(F)c(F)c4F)c4nc(c(-c5c(F)c(F)c(F)c(F)c5F)c5ccc2[nH]5)C=C4)C=C3)cc1
REMARK SMILES IDX 14 1 15 2 16 3 12 5 13 6 10 7 11 8 9 9 7 12 8 13 5 14 4 15
REMARK SMILES IDX 6 17 3 18 2 19 1 20 17 21 18 22 19 23 20 24 21 25 22 26
REMARK SMILES IDX 23 28 24 29 25 30 86 31 26 32 85 33 27 34 28 35 29 36 79 37
REMARK SMILES IDX 30 38 84 39 78 40 80 41 31 42 83 43 77 44 76 45 32 47 64 48
REMARK SMILES IDX 44 49 63 50 45 51 48 52 62 53 81 54 46 55 47 56 61 58 82 59
REMARK SMILES IDX 49 60 33 61 34 62 42 63 35 64 36 65 40 66 43 67 37 68 38 69
REMARK SMILES IDX 41 70 39 71 65 72 66 73 74 74 67 75 68 76 72 77 75 78 69 79
REMARK SMILES IDX 70 80 73 81 71 82 50 83 51 84 59 85 52 86 53 87 57 88 60 89
REMARK SMILES IDX 54 90 55 91 58 92 56 93
REMARK H PARENT 16 4 9 10 9 11 4 16 21 27 80 46 48 57
REMARK Flexibility Score: inf
ROOT
ATOM      1  C   UNL A   1      33.285  29.716  27.225  1.00  0.00     0.228 C 
ATOM      2  O   UNL A   1      33.075  28.559  27.612  1.00  0.00    -0.275 OA
ATOM      3  N   UNL A   1      34.097  30.462  28.021  1.00  0.00    -0.356 N 
ATOM      4  H   UNL A   1      34.314  30.030  28.879  1.00  0.00     0.163 HD
ENDROOT
BRANCH   1   5
ATOM      5  C   UNL A   1      32.650  30.194  25.913  1.00  0.00     0.133 C 
ATOM      6  C   UNL A   1      31.402  31.052  26.158  1.00  0.00     0.024 C 
BRANCH   5   7
ATOM      7  C   UNL A   1      32.401  29.164  24.773  1.00  0.00     0.192 C 
ATOM      8  C   UNL A   1      33.740  28.548  24.325  1.00  0.00     0.076 C 
BRANCH   7   9
ATOM      9  N   UNL A   1      31.464  28.111  25.086  1.00  0.00    -0.333 N 
ATOM     10  H   UNL A   1      31.849  27.605  25.884  1.00  0.00     0.347 HD
ATOM     11  H   UNL A   1      30.588  28.614  25.222  1.00  0.00     0.347 HD
BRANCH   9  12
ATOM     12  C   UNL A   1      31.115  27.103  24.078  1.00  0.00     0.269 C 
ATOM     13  C   UNL A   1      29.945  26.330  24.725  1.00  0.00     0.086 C 
BRANCH  12  14
ATOM     14  C   UNL A   1      30.624  27.608  22.689  1.00  0.00     0.277 C 
ATOM     15  N   UNL A   1      29.892  28.740  22.493  1.00  0.00    -0.351 N 
ATOM     16  H   UNL A   1      30.301  29.390  21.876  1.00  0.00     0.163 HD
ATOM     17  O   UNL A   1      31.029  27.085  21.640  1.00  0.00    -0.268 OA
BRANCH  15  18
ATOM     18  C   UNL A   1      28.612  29.154  23.037  1.00  0.00     0.116 C 
BRANCH  18  19
ATOM     19  C   UNL A   1      28.022  30.394  22.375  1.00  0.00     0.018 C 
ATOM     20  C   UNL A   1      27.654  31.442  23.419  1.00  0.00     0.006 C 
ENDBRANCH  18  19
ENDBRANCH  15  18
ENDBRANCH  12  14
ENDBRANCH   9  12
ENDBRANCH   7   9
ENDBRANCH   5   7
ENDBRANCH   1   5
BRANCH   3  21
ATOM     21  C   UNL A   1      34.706  31.768  27.858  1.00  0.00     0.116 C 
BRANCH  21  22
ATOM     22  C   UNL A   1      34.359  32.740  28.989  1.00  0.00     0.023 C 
BRANCH  22  23
ATOM     23  C   UNL A   1      33.428  33.888  28.621  1.00  0.00     0.023 C 
BRANCH  23  24
ATOM     24  C   UNL A   1      33.819  35.215  29.246  1.00  0.00     0.116 C 
BRANCH  24  25
ATOM     25  N   UNL A   1      32.800  35.773  30.130  1.00  0.00    -0.352 N 
ATOM     26  C   UNL A   1      32.770  35.749  31.507  1.00  0.00     0.251 C 
ATOM     27  H   UNL A   1      32.043  36.221  29.688  1.00  0.00     0.163 HD
ATOM     28  O   UNL A   1      31.822  36.216  32.128  1.00  0.00    -0.269 OA
BRANCH  26  29
ATOM     29  C   UNL A   1      33.878  35.085  32.224  1.00  0.00     0.039 A 
ATOM     30  C   UNL A   1      33.690  33.784  32.697  1.00  0.00     0.014 A 
ATOM     31  C   UNL A   1      35.127  35.701  32.313  1.00  0.00     0.014 A 
ATOM     32  C   UNL A   1      34.788  33.062  33.168  1.00  0.00     0.010 A 
ATOM     33  C   UNL A   1      36.232  34.951  32.697  1.00  0.00     0.010 A 
ATOM     34  C   UNL A   1      36.075  33.620  33.116  1.00  0.00    -0.014 A 
BRANCH  34  35
ATOM     35  C   UNL A   1      37.282  32.833  33.478  1.00  0.00     0.031 A 
ATOM     36  C   UNL A   1      37.998  33.113  34.768  1.00  0.00     0.074 A 
ATOM     37  C   UNL A   1      37.784  31.936  32.605  1.00  0.00     0.049 A 
ATOM     38  N   UNL A   1      39.130  32.627  35.211  1.00  0.00    -0.248 NA
ATOM     39  C   UNL A   1      37.375  34.099  35.665  1.00  0.00     0.031 C 
ATOM     40  C   UNL A   1      37.213  31.612  31.297  1.00  0.00     0.029 A 
ATOM     41  N   UNL A   1      38.902  31.142  32.684  1.00  0.00    -0.354 N 
ATOM     42  C   UNL A   1      39.361  33.262  36.423  1.00  0.00     0.074 A 
ATOM     43  C   UNL A   1      38.286  34.209  36.621  1.00  0.00     0.031 C 
ATOM     44  C   UNL A   1      37.968  30.670  30.708  1.00  0.00     0.029 A 
ATOM     45  C   UNL A   1      39.098  30.353  31.576  1.00  0.00     0.049 A 
ATOM     46  H   UNL A   1      39.506  31.139  33.462  1.00  0.00     0.167 HD
ATOM     47  C   UNL A   1      40.366  33.054  37.307  1.00  0.00     0.037 A 
ATOM     48  C   UNL A   1      40.081  29.477  31.293  1.00  0.00     0.037 A 
ATOM     49  C   UNL A   1      41.414  32.086  37.127  1.00  0.00     0.049 A 
ATOM     50  C   UNL A   1      41.186  29.265  32.293  1.00  0.00     0.074 A 
ATOM     51  C   UNL A   1      42.444  31.758  37.991  1.00  0.00     0.029 A 
ATOM     52  N   UNL A   1      41.562  31.285  36.004  1.00  0.00    -0.354 N 
ATOM     53  N   UNL A   1      41.361  29.827  33.464  1.00  0.00    -0.248 NA
ATOM     54  C   UNL A   1      42.229  28.295  31.932  1.00  0.00     0.031 C 
ATOM     55  C   UNL A   1      43.235  30.782  37.376  1.00  0.00     0.029 A 
ATOM     56  C   UNL A   1      42.675  30.473  36.148  1.00  0.00     0.049 A 
ATOM     57  H   UNL A   1      40.965  31.292  35.222  1.00  0.00     0.167 HD
ATOM     58  C   UNL A   1      42.514  29.259  33.990  1.00  0.00     0.074 A 
ATOM     59  C   UNL A   1      42.990  28.299  33.017  1.00  0.00     0.031 C 
ATOM     60  C   UNL A   1      43.123  29.511  35.174  1.00  0.00     0.037 A 
BRANCH  47  61
ATOM     61  C   UNL A   1      40.367  33.883  38.557  1.00  0.00     0.064 A 
ATOM     62  C   UNL A   1      39.658  33.483  39.701  1.00  0.00     0.173 A 
ATOM     63  C   UNL A   1      41.104  35.075  38.624  1.00  0.00     0.173 A 
ATOM     64  F   UNL A   1      38.927  32.359  39.683  1.00  0.00    -0.203 F 
ATOM     65  C   UNL A   1      39.662  34.263  40.854  1.00  0.00     0.198 A 
ATOM     66  C   UNL A   1      41.130  35.836  39.790  1.00  0.00     0.198 A 
ATOM     67  F   UNL A   1      41.801  35.500  37.560  1.00  0.00    -0.203 F 
ATOM     68  F   UNL A   1      38.936  33.887  41.916  1.00  0.00    -0.200 F 
ATOM     69  C   UNL A   1      40.404  35.434  40.900  1.00  0.00     0.200 A 
ATOM     70  F   UNL A   1      41.855  36.962  39.836  1.00  0.00    -0.200 F 
ATOM     71  F   UNL A   1      40.410  36.180  42.013  1.00  0.00    -0.200 F 
ENDBRANCH  47  61
BRANCH  48  72
ATOM     72  C   UNL A   1      40.055  28.712  30.020  1.00  0.00     0.064 A 
ATOM     73  C   UNL A   1      39.441  27.453  29.955  1.00  0.00     0.173 A 
ATOM     74  C   UNL A   1      40.653  29.207  28.852  1.00  0.00     0.173 A 
ATOM     75  F   UNL A   1      38.876  26.928  31.052  1.00  0.00    -0.203 F 
ATOM     76  C   UNL A   1      39.446  26.709  28.778  1.00  0.00     0.198 A 
ATOM     77  C   UNL A   1      40.634  28.473  27.668  1.00  0.00     0.198 A 
ATOM     78  F   UNL A   1      41.252  30.406  28.861  1.00  0.00    -0.203 F 
ATOM     79  F   UNL A   1      38.893  25.489  28.757  1.00  0.00    -0.200 F 
ATOM     80  C   UNL A   1      40.038  27.221  27.633  1.00  0.00     0.200 A 
ATOM     81  F   UNL A   1      41.198  28.975  26.561  1.00  0.00    -0.200 F 
ATOM     82  F   UNL A   1      40.042  26.504  26.501  1.00  0.00    -0.200 F 
ENDBRANCH  48  72
BRANCH  60  83
ATOM     83  C   UNL A   1      44.349  28.712  35.502  1.00  0.00     0.064 A 
ATOM     84  C   UNL A   1      44.265  27.462  36.132  1.00  0.00     0.173 A 
ATOM     85  C   UNL A   1      45.619  29.183  35.135  1.00  0.00     0.173 A 
ATOM     86  F   UNL A   1      43.074  26.978  36.516  1.00  0.00    -0.203 F 
ATOM     87  C   UNL A   1      45.412  26.719  36.398  1.00  0.00     0.198 A 
ATOM     88  C   UNL A   1      46.761  28.424  35.378  1.00  0.00     0.198 A 
ATOM     89  F   UNL A   1      45.751  30.370  34.525  1.00  0.00    -0.203 F 
ATOM     90  F   UNL A   1      45.313  25.544  37.035  1.00  0.00    -0.200 F 
ATOM     91  C   UNL A   1      46.656  27.196  36.014  1.00  0.00     0.200 A 
ATOM     92  F   UNL A   1      47.961  28.880  34.996  1.00  0.00    -0.200 F 
ATOM     93  F   UNL A   1      47.757  26.473  36.261  1.00  0.00    -0.200 F 
ENDBRANCH  60  83
ENDBRANCH  34  35
ENDBRANCH  26  29
ENDBRANCH  24  25
ENDBRANCH  23  24
ENDBRANCH  22  23
ENDBRANCH  21  22
ENDBRANCH   3  21
TORSDOF 17
ENDMDL
MODEL 2
REMARK VINA RESULT:     -10.4      1.817      3.248
REMARK SMILES CCCNC(=O)[C@H](C)[NH2+][C@H](C)[C@@H](C)C(=O)NCCCCNC(=O)c1ccc(-c2c3nc(c(-c4c(F)c(F)c(F)c(F)c4F)c4ccc([nH]4)c(-c4c(F)c(F)c(F)c(F)c4F)c4nc(c(-c5c(F)c(F)c(F)c(F)c5F)c5ccc2[nH]5)C=C4)C=C3)cc1
REMARK SMILES IDX 14 1 15 2 16 3 12 5 13 6 10 7 11 8 9 9 7 12 8 13 5 14 4 15
REMARK SMILES IDX 6 17 3 18 2 19 1 20 17 21 18 22 19 23 20 24 21 25 22 26
REMARK SMILES IDX 23 28 24 29 25 30 86 31 26 32 85 33 27 34 28 35 29 36 79 37
REMARK SMILES IDX 30 38 84 39 78 40 80 41 31 42 83 43 77 44 76 45 32 47 64 48
REMARK SMILES IDX 44 49 63 50 45 51 48 52 62 53 81 54 46 55 47 56 61 58 82 59
REMARK SMILES IDX 49 60 33 61 34 62 42 63 35 64 36 65 40 66 43 67 37 68 38 69
REMARK SMILES IDX 41 70 39 71 65 72 66 73 74 74 67 75 68 76 72 77 75 78 69 79
REMARK SMILES IDX 70 80 73 81 71 82 50 83 51 84 59 85 52 86 53 87 57 88 60 89
REMARK SMILES IDX 54 90 55 91 58 92 56 93
REMARK H PARENT 16 4 9 10 9 11 4 16 21 27 80 46 48 57
REMARK Flexibility Score: inf
ROOT
ATOM      1  C   UNL A   1      33.749  28.276  24.611  1.00  0.00     0.228 C 
ATOM      2  O   UNL A   1      34.147  28.192  23.443  1.00  0.00    -0.275 OA
ATOM      3  N   UNL A   1      33.739  29.530  25.139  1.00  0.00    -0.356 N 
ATOM      4  H   UNL A   1      34.175  30.202  24.567  1.00  0.00     0.163 HD
ENDROOT
BRANCH   1   5
ATOM      5  C   UNL A   1      33.293  27.006  25.341  1.00  0.00     0.133 C 
ATOM      6  C   UNL A   1      34.137  25.786  24.951  1.00  0.00     0.024 C 
BRANCH   5   7
ATOM      7  C   UNL A   1      31.778  26.649  25.366  1.00  0.00     0.192 C 
ATOM      8  C   UNL A   1      31.258  26.681  26.816  1.00  0.00     0.076 C 
BRANCH   7   9
ATOM      9  N   UNL A   1      30.936  27.475  24.532  1.00  0.00    -0.333 N 
ATOM     10  H   UNL A   1      30.098  27.681  25.076  1.00  0.00     0.347 HD
ATOM     11  H   UNL A   1      31.546  28.255  24.288  1.00  0.00     0.347 HD
BRANCH   9  12
ATOM     12  C   UNL A   1      30.480  26.989  23.224  1.00  0.00     0.269 C 
ATOM     13  C   UNL A   1      30.437  28.265  22.355  1.00  0.00     0.086 C 
BRANCH  12  14
ATOM     14  C   UNL A   1      31.380  25.956  22.482  1.00  0.00     0.277 C 
ATOM     15  N   UNL A   1      31.142  24.614  22.439  1.00  0.00    -0.351 N 
ATOM     16  H   UNL A   1      31.060  24.243  21.531  1.00  0.00     0.163 HD
ATOM     17  O   UNL A   1      32.290  26.328  21.727  1.00  0.00    -0.268 OA
BRANCH  15  18
ATOM     18  C   UNL A   1      30.990  23.639  23.501  1.00  0.00     0.116 C 
BRANCH  18  19
ATOM     19  C   UNL A   1      32.224  22.779  23.743  1.00  0.00     0.018 C 
ATOM     20  C   UNL A   1      32.210  21.545  22.848  1.00  0.00     0.006 C 
ENDBRANCH  18  19
ENDBRANCH  15  18
ENDBRANCH  12  14
ENDBRANCH   9  12
ENDBRANCH   7   9
ENDBRANCH   5   7
ENDBRANCH   1   5
BRANCH   3  21
ATOM     21  C   UNL A   1      33.214  30.073  26.377  1.00  0.00     0.116 C 
BRANCH  21  22
ATOM     22  C   UNL A   1      31.859  30.765  26.206  1.00  0.00     0.023 C 
BRANCH  22  23
ATOM     23  C   UNL A   1      31.566  31.906  27.172  1.00  0.00     0.023 C 
BRANCH  23  24
ATOM     24  C   UNL A   1      32.752  32.823  27.409  1.00  0.00     0.116 C 
BRANCH  24  25
ATOM     25  N   UNL A   1      32.381  34.210  27.678  1.00  0.00    -0.352 N 
ATOM     26  C   UNL A   1      32.985  35.094  28.543  1.00  0.00     0.251 C 
ATOM     27  H   UNL A   1      31.605  34.553  27.180  1.00  0.00     0.163 HD
ATOM     28  O   UNL A   1      32.537  36.223  28.711  1.00  0.00    -0.269 OA
BRANCH  26  29
ATOM     29  C   UNL A   1      34.152  34.632  29.322  1.00  0.00     0.039 A 
ATOM     30  C   UNL A   1      33.944  34.094  30.594  1.00  0.00     0.014 A 
ATOM     31  C   UNL A   1      35.423  34.615  28.743  1.00  0.00     0.014 A 
ATOM     32  C   UNL A   1      34.995  33.447  31.245  1.00  0.00     0.010 A 
ATOM     33  C   UNL A   1      36.441  33.894  29.352  1.00  0.00     0.010 A 
ATOM     34  C   UNL A   1      36.234  33.291  30.603  1.00  0.00    -0.014 A 
BRANCH  34  35
ATOM     35  C   UNL A   1      37.329  32.488  31.206  1.00  0.00     0.031 A 
ATOM     36  C   UNL A   1      37.837  32.829  32.578  1.00  0.00     0.074 A 
ATOM     37  C   UNL A   1      37.926  31.520  30.484  1.00  0.00     0.049 A 
ATOM     38  N   UNL A   1      38.859  32.336  33.230  1.00  0.00    -0.248 NA
ATOM     39  C   UNL A   1      37.121  33.894  33.299  1.00  0.00     0.031 C 
ATOM     40  C   UNL A   1      37.562  31.128  29.121  1.00  0.00     0.029 A 
ATOM     41  N   UNL A   1      38.980  30.695  30.794  1.00  0.00    -0.354 N 
ATOM     42  C   UNL A   1      38.918  33.041  34.423  1.00  0.00     0.074 A 
ATOM     43  C   UNL A   1      37.868  34.036  34.383  1.00  0.00     0.031 C 
ATOM     44  C   UNL A   1      38.360  30.124  28.723  1.00  0.00     0.029 A 
ATOM     45  C   UNL A   1      39.318  29.827  29.783  1.00  0.00     0.049 A 
ATOM     46  H   UNL A   1      39.449  30.722  31.659  1.00  0.00     0.167 HD
ATOM     47  C   UNL A   1      39.755  32.859  35.472  1.00  0.00     0.037 A 
ATOM     48  C   UNL A   1      40.295  28.902  29.720  1.00  0.00     0.037 A 
ATOM     49  C   UNL A   1      40.774  31.846  35.527  1.00  0.00     0.049 A 
ATOM     50  C   UNL A   1      41.211  28.719  30.899  1.00  0.00     0.074 A 
ATOM     51  C   UNL A   1      41.634  31.541  36.567  1.00  0.00     0.029 A 
ATOM     52  N   UNL A   1      41.067  30.968  34.493  1.00  0.00    -0.354 N 
ATOM     53  N   UNL A   1      41.218  29.351  32.048  1.00  0.00    -0.248 NA
ATOM     54  C   UNL A   1      42.255  27.692  30.774  1.00  0.00     0.031 C 
ATOM     55  C   UNL A   1      42.470  30.500  36.151  1.00  0.00     0.029 A 
ATOM     56  C   UNL A   1      42.105  30.129  34.868  1.00  0.00     0.049 A 
ATOM     57  H   UNL A   1      40.606  30.943  33.624  1.00  0.00     0.167 HD
ATOM     58  C   UNL A   1      42.243  28.781  32.790  1.00  0.00     0.074 A 
ATOM     59  C   UNL A   1      42.828  27.743  31.968  1.00  0.00     0.031 C 
ATOM     60  C   UNL A   1      42.662  29.090  34.041  1.00  0.00     0.037 A 
BRANCH  47  61
ATOM     61  C   UNL A   1      39.589  33.769  36.653  1.00  0.00     0.064 A 
ATOM     62  C   UNL A   1      40.200  35.031  36.697  1.00  0.00     0.173 A 
ATOM     63  C   UNL A   1      38.791  33.387  37.742  1.00  0.00     0.173 A 
ATOM     64  F   UNL A   1      40.985  35.436  35.688  1.00  0.00    -0.203 F 
ATOM     65  C   UNL A   1      40.043  35.865  37.801  1.00  0.00     0.198 A 
ATOM     66  C   UNL A   1      38.611  34.236  38.830  1.00  0.00     0.198 A 
ATOM     67  F   UNL A   1      38.182  32.192  37.748  1.00  0.00    -0.203 F 
ATOM     68  F   UNL A   1      40.678  37.044  37.843  1.00  0.00    -0.200 F 
ATOM     69  C   UNL A   1      39.243  35.470  38.863  1.00  0.00     0.200 A 
ATOM     70  F   UNL A   1      37.830  33.857  39.852  1.00  0.00    -0.200 F 
ATOM     71  F   UNL A   1      39.089  36.276  39.922  1.00  0.00    -0.200 F 
ENDBRANCH  47  61
BRANCH  48  72
ATOM     72  C   UNL A   1      40.442  28.055  28.508  1.00  0.00     0.064 A 
ATOM     73  C   UNL A   1      39.833  26.794  28.439  1.00  0.00     0.173 A 
ATOM     74  C   UNL A   1      41.204  28.472  27.407  1.00  0.00     0.173 A 
ATOM     75  F   UNL A   1      39.114  26.341  29.477  1.00  0.00    -0.203 F 
ATOM     76  C   UNL A   1      39.997  25.974  27.324  1.00  0.00     0.198 A 
ATOM     77  C   UNL A   1      41.346  27.663  26.282  1.00  0.00     0.198 A 
ATOM     78  F   UNL A   1      41.805  29.671  27.423  1.00  0.00    -0.203 F 
ATOM     79  F   UNL A   1      39.442  24.755  27.305  1.00  0.00    -0.200 F 
ATOM     80  C   UNL A   1      40.750  26.411  26.244  1.00  0.00     0.200 A 
ATOM     81  F   UNL A   1      42.065  28.092  25.236  1.00  0.00    -0.200 F 
ATOM     82  F   UNL A   1      40.908  25.622  25.174  1.00  0.00    -0.200 F 
ENDBRANCH  48  72
BRANCH  60  83
ATOM     83  C   UNL A   1      43.782  28.274  34.615  1.00  0.00     0.064 A 
ATOM     84  C   UNL A   1      45.122  28.663  34.473  1.00  0.00     0.173 A 
ATOM     85  C   UNL A   1      43.506  27.116  35.357  1.00  0.00     0.173 A 
ATOM     86  F   UNL A   1      45.436  29.754  33.758  1.00  0.00    -0.203 F 
ATOM     87  C   UNL A   1      46.147  27.911  35.041  1.00  0.00     0.198 A 
ATOM     88  C   UNL A   1      44.531  26.382  35.946  1.00  0.00     0.198 A 
ATOM     89  F   UNL A   1      42.240  26.706  35.526  1.00  0.00    -0.203 F 
ATOM     90  F   UNL A   1      47.422  28.279  34.862  1.00  0.00    -0.200 F 
ATOM     91  C   UNL A   1      45.851  26.777  35.783  1.00  0.00     0.200 A 
ATOM     92  F   UNL A   1      44.244  25.294  36.674  1.00  0.00    -0.200 F 
ATOM     93  F   UNL A   1      46.838  26.062  36.338  1.00  0.00    -0.200 F 
ENDBRANCH  60  83
ENDBRANCH  34  35
ENDBRANCH  26  29
ENDBRANCH  24  25
ENDBRANCH  23  24
ENDBRANCH  22  23
ENDBRANCH  21  22
ENDBRANCH   3  21
TORSDOF 17
ENDMDL
MODEL 3
REMARK VINA RESULT:     -10.3      6.559     12.014
REMARK SMILES CCCNC(=O)[C@H](C)[NH2+][C@H](C)[C@@H](C)C(=O)NCCCCNC(=O)c1ccc(-c2c3nc(c(-c4c(F)c(F)c(F)c(F)c4F)c4ccc([nH]4)c(-c4c(F)c(F)c(F)c(F)c4F)c4nc(c(-c5c(F)c(F)c(F)c(F)c5F)c5ccc2[nH]5)C=C4)C=C3)cc1
REMARK SMILES IDX 14 1 15 2 16 3 12 5 13 6 10 7 11 8 9 9 7 12 8 13 5 14 4 15
REMARK SMILES IDX 6 17 3 18 2 19 1 20 17 21 18 22 19 23 20 24 21 25 22 26
REMARK SMILES IDX 23 28 24 29 25 30 86 31 26 32 85 33 27 34 28 35 29 36 79 37
REMARK SMILES IDX 30 38 84 39 78 40 80 41 31 42 83 43 77 44 76 45 32 47 64 48
REMARK SMILES IDX 44 49 63 50 45 51 48 52 62 53 81 54 46 55 47 56 61 58 82 59
REMARK SMILES IDX 49 60 33 61 34 62 42 63 35 64 36 65 40 66 43 67 37 68 38 69
REMARK SMILES IDX 41 70 39 71 65 72 66 73 74 74 67 75 68 76 72 77 75 78 69 79
REMARK SMILES IDX 70 80 73 81 71 82 50 83 51 84 59 85 52 86 53 87 57 88 60 89
REMARK SMILES IDX 54 90 55 91 58 92 56 93
REMARK H PARENT 16 4 9 10 9 11 4 16 21 27 80 46 48 57
REMARK Flexibility Score: inf
ROOT
ATOM      1  C   UNL A   1      35.259  22.965  26.080  1.00  0.00     0.228 C 
ATOM      2  O   UNL A   1      34.458  23.218  26.988  1.00  0.00    -0.275 OA
ATOM      3  N   UNL A   1      36.540  22.733  26.476  1.00  0.00    -0.356 N 
ATOM      4  H   UNL A   1      36.700  22.925  27.428  1.00  0.00     0.163 HD
ENDROOT
BRANCH   1   5
ATOM      5  C   UNL A   1      34.758  22.913  24.631  1.00  0.00     0.133 C 
ATOM      6  C   UNL A   1      34.775  24.296  23.968  1.00  0.00     0.024 C 
BRANCH   5   7
ATOM      7  C   UNL A   1      33.433  22.161  24.314  1.00  0.00     0.192 C 
ATOM      8  C   UNL A   1      33.648  20.642  24.455  1.00  0.00     0.076 C 
BRANCH   7   9
ATOM      9  N   UNL A   1      32.292  22.563  25.103  1.00  0.00    -0.333 N 
ATOM     10  H   UNL A   1      31.523  21.946  24.841  1.00  0.00     0.347 HD
ATOM     11  H   UNL A   1      32.640  22.506  26.059  1.00  0.00     0.347 HD
BRANCH   9  12
ATOM     12  C   UNL A   1      31.777  23.935  25.019  1.00  0.00     0.269 C 
ATOM     13  C   UNL A   1      30.716  23.859  23.899  1.00  0.00     0.086 C 
BRANCH  12  14
ATOM     14  C   UNL A   1      31.076  24.523  26.280  1.00  0.00     0.277 C 
ATOM     15  N   UNL A   1      30.711  25.828  26.423  1.00  0.00    -0.351 N 
ATOM     16  H   UNL A   1      29.753  25.967  26.606  1.00  0.00     0.163 HD
ATOM     17  O   UNL A   1      30.645  23.781  27.175  1.00  0.00    -0.268 OA
BRANCH  15  18
ATOM     18  C   UNL A   1      31.490  27.049  26.353  1.00  0.00     0.116 C 
BRANCH  18  19
ATOM     19  C   UNL A   1      32.993  26.827  26.233  1.00  0.00     0.018 C 
ATOM     20  C   UNL A   1      33.590  27.725  25.156  1.00  0.00     0.006 C 
ENDBRANCH  18  19
ENDBRANCH  15  18
ENDBRANCH  12  14
ENDBRANCH   9  12
ENDBRANCH   7   9
ENDBRANCH   5   7
ENDBRANCH   1   5
BRANCH   3  21
ATOM     21  C   UNL A   1      37.718  22.261  25.773  1.00  0.00     0.116 C 
BRANCH  21  22
ATOM     22  C   UNL A   1      37.427  21.094  24.825  1.00  0.00     0.023 C 
BRANCH  22  23
ATOM     23  C   UNL A   1      38.298  19.858  25.002  1.00  0.00     0.023 C 
BRANCH  23  24
ATOM     24  C   UNL A   1      39.552  20.108  25.820  1.00  0.00     0.116 C 
BRANCH  24  25
ATOM     25  N   UNL A   1      40.470  18.974  25.855  1.00  0.00    -0.352 N 
ATOM     26  C   UNL A   1      41.823  18.987  26.114  1.00  0.00     0.251 C 
ATOM     27  H   UNL A   1      40.073  18.092  25.670  1.00  0.00     0.163 HD
ATOM     28  O   UNL A   1      42.489  17.959  26.063  1.00  0.00    -0.269 OA
BRANCH  26  29
ATOM     29  C   UNL A   1      42.474  20.284  26.393  1.00  0.00     0.039 A 
ATOM     30  C   UNL A   1      43.013  21.009  25.328  1.00  0.00     0.014 A 
ATOM     31  C   UNL A   1      42.433  20.830  27.677  1.00  0.00     0.014 A 
ATOM     32  C   UNL A   1      43.422  22.328  25.535  1.00  0.00     0.010 A 
ATOM     33  C   UNL A   1      42.757  22.168  27.860  1.00  0.00     0.010 A 
ATOM     34  C   UNL A   1      43.241  22.934  26.788  1.00  0.00    -0.014 A 
BRANCH  34  35
ATOM     35  C   UNL A   1      43.535  24.374  27.007  1.00  0.00     0.031 A 
ATOM     36  C   UNL A   1      44.916  24.903  26.747  1.00  0.00     0.074 A 
ATOM     37  C   UNL A   1      42.588  25.180  27.527  1.00  0.00     0.049 A 
ATOM     38  N   UNL A   1      45.409  26.091  26.989  1.00  0.00    -0.248 NA
ATOM     39  C   UNL A   1      45.886  23.957  26.170  1.00  0.00     0.031 C 
ATOM     40  C   UNL A   1      41.225  24.776  27.874  1.00  0.00     0.029 A 
ATOM     41  N   UNL A   1      42.635  26.509  27.869  1.00  0.00    -0.354 N 
ATOM     42  C   UNL A   1      46.743  26.028  26.614  1.00  0.00     0.074 A 
ATOM     43  C   UNL A   1      47.001  24.671  26.183  1.00  0.00     0.031 C 
ATOM     44  C   UNL A   1      40.558  25.838  28.354  1.00  0.00     0.029 A 
ATOM     45  C   UNL A   1      41.456  26.988  28.388  1.00  0.00     0.049 A 
ATOM     46  H   UNL A   1      43.439  27.067  27.753  1.00  0.00     0.167 HD
ATOM     47  C   UNL A   1      47.666  27.019  26.603  1.00  0.00     0.037 A 
ATOM     48  C   UNL A   1      41.140  28.215  28.845  1.00  0.00     0.037 A 
ATOM     49  C   UNL A   1      47.399  28.376  26.996  1.00  0.00     0.049 A 
ATOM     50  C   UNL A   1      42.184  29.299  28.821  1.00  0.00     0.074 A 
ATOM     51  C   UNL A   1      48.249  29.468  26.965  1.00  0.00     0.029 A 
ATOM     52  N   UNL A   1      46.184  28.829  27.489  1.00  0.00    -0.354 N 
ATOM     53  N   UNL A   1      43.426  29.243  28.406  1.00  0.00    -0.248 NA
ATOM     54  C   UNL A   1      41.781  30.619  29.328  1.00  0.00     0.031 C 
ATOM     55  C   UNL A   1      47.559  30.573  27.471  1.00  0.00     0.029 A 
ATOM     56  C   UNL A   1      46.267  30.181  27.779  1.00  0.00     0.049 A 
ATOM     57  H   UNL A   1      45.382  28.273  27.614  1.00  0.00     0.167 HD
ATOM     58  C   UNL A   1      43.942  30.521  28.574  1.00  0.00     0.074 A 
ATOM     59  C   UNL A   1      42.875  31.335  29.117  1.00  0.00     0.031 C 
ATOM     60  C   UNL A   1      45.188  30.979  28.303  1.00  0.00     0.037 A 
BRANCH  47  61
ATOM     61  C   UNL A   1      49.047  26.671  26.134  1.00  0.00     0.064 A 
ATOM     62  C   UNL A   1      49.453  26.908  24.811  1.00  0.00     0.173 A 
ATOM     63  C   UNL A   1      49.984  26.118  27.020  1.00  0.00     0.173 A 
ATOM     64  F   UNL A   1      48.590  27.421  23.923  1.00  0.00    -0.203 F 
ATOM     65  C   UNL A   1      50.737  26.576  24.386  1.00  0.00     0.198 A 
ATOM     66  C   UNL A   1      51.276  25.815  26.598  1.00  0.00     0.198 A 
ATOM     67  F   UNL A   1      49.648  25.874  28.295  1.00  0.00    -0.203 F 
ATOM     68  F   UNL A   1      51.085  26.764  23.106  1.00  0.00    -0.200 F 
ATOM     69  C   UNL A   1      51.649  26.037  25.281  1.00  0.00     0.200 A 
ATOM     70  F   UNL A   1      52.160  25.304  27.466  1.00  0.00    -0.200 F 
ATOM     71  F   UNL A   1      52.885  25.723  24.870  1.00  0.00    -0.200 F 
ENDBRANCH  47  61
BRANCH  48  72
ATOM     72  C   UNL A   1      39.768  28.497  29.339  1.00  0.00     0.064 A 
ATOM     73  C   UNL A   1      38.789  29.010  28.475  1.00  0.00     0.173 A 
ATOM     74  C   UNL A   1      39.408  28.280  30.676  1.00  0.00     0.173 A 
ATOM     75  F   UNL A   1      39.092  29.257  27.192  1.00  0.00    -0.203 F 
ATOM     76  C   UNL A   1      37.510  29.316  28.936  1.00  0.00     0.198 A 
ATOM     77  C   UNL A   1      38.121  28.561  31.130  1.00  0.00     0.198 A 
ATOM     78  F   UNL A   1      40.306  27.788  31.541  1.00  0.00    -0.203 F 
ATOM     79  F   UNL A   1      36.609  29.849  28.100  1.00  0.00    -0.200 F 
ATOM     80  C   UNL A   1      37.175  29.086  30.262  1.00  0.00     0.200 A 
ATOM     81  F   UNL A   1      37.797  28.329  32.409  1.00  0.00    -0.200 F 
ATOM     82  F   UNL A   1      35.945  29.381  30.704  1.00  0.00    -0.200 F 
ENDBRANCH  48  72
BRANCH  60  83
ATOM     83  C   UNL A   1      45.458  32.433  28.552  1.00  0.00     0.064 A 
ATOM     84  C   UNL A   1      45.182  33.408  27.582  1.00  0.00     0.173 A 
ATOM     85  C   UNL A   1      45.951  32.858  29.795  1.00  0.00     0.173 A 
ATOM     86  F   UNL A   1      44.725  33.047  26.374  1.00  0.00    -0.203 F 
ATOM     87  C   UNL A   1      45.407  34.757  27.843  1.00  0.00     0.198 A 
ATOM     88  C   UNL A   1      46.149  34.210  30.061  1.00  0.00     0.198 A 
ATOM     89  F   UNL A   1      46.225  31.965  30.756  1.00  0.00    -0.203 F 
ATOM     90  F   UNL A   1      45.173  35.668  26.890  1.00  0.00    -0.200 F 
ATOM     91  C   UNL A   1      45.882  35.157  29.083  1.00  0.00     0.200 A 
ATOM     92  F   UNL A   1      46.595  34.597  31.263  1.00  0.00    -0.200 F 
ATOM     93  F   UNL A   1      46.087  36.457  29.335  1.00  0.00    -0.200 F 
ENDBRANCH  60  83
ENDBRANCH  34  35
ENDBRANCH  26  29
ENDBRANCH  24  25
ENDBRANCH  23  24
ENDBRANCH  22  23
ENDBRANCH  21  22
ENDBRANCH   3  21
TORSDOF 17
ENDMDL
