MODEL 1
REMARK VINA RESULT:     -12.9      0.000      0.000
REMARK SMILES N#Cc1ccc(C(F)(F)F)nc1N1CCOC[C@H]1C(=O)NCCCCNC(=O)c1ccc(-c2c3nc(c(-c4c(F)c(F)c(F)c(F)c4F)c4ccc([nH]4)c(-c4c(F)c(F)c(F)c(F)c4F)c4nc(c(-c5c(F)c(F)c(F)c(F)c5F)c5ccc2[nH]5)C=C4)C=C3)cc1
REMARK SMILES IDX 23 1 22 2 21 3 19 4 20 5 18 7 13 8 14 9 15 10 17 11 16 12
REMARK SMILES IDX 12 13 3 14 4 15 5 16 11 17 6 18 2 19 1 20 7 21 8 22 9 23
REMARK SMILES IDX 10 24 24 25 25 26 26 27 27 28 28 30 29 31 30 32 91 33 31 34
REMARK SMILES IDX 90 35 32 36 33 37 34 38 84 39 35 40 89 41 83 42 85 43 36 44
REMARK SMILES IDX 88 45 82 46 81 47 37 49 69 50 49 51 68 52 50 53 53 54 67 55
REMARK SMILES IDX 86 56 51 57 52 58 66 60 87 61 54 62 38 63 39 64 47 65 40 66
REMARK SMILES IDX 41 67 45 68 48 69 42 70 43 71 46 72 44 73 70 74 71 75 79 76
REMARK SMILES IDX 72 77 73 78 77 79 80 80 74 81 75 82 78 83 76 84 55 85 56 86
REMARK SMILES IDX 64 87 57 88 58 89 62 90 65 91 59 92 60 93 63 94 61 95
REMARK H PARENT 21 6 26 29 85 48 53 59
REMARK Flexibility Score: inf
ROOT
ATOM      1  C   UNL A   1      31.454  30.399  25.397  1.00  0.00     0.023 C 
ENDROOT
BRANCH   1   2
ATOM      2  C   UNL A   1      32.788  29.732  25.743  1.00  0.00     0.116 C 
BRANCH   2   3
ATOM      3  N   UNL A   1      33.585  29.485  24.563  1.00  0.00    -0.354 N 
ATOM      4  C   UNL A   1      33.671  28.453  23.680  1.00  0.00     0.245 C 
ATOM      5  O   UNL A   1      34.458  28.659  22.741  1.00  0.00    -0.273 OA
ATOM      6  H   UNL A   1      34.197  30.226  24.349  1.00  0.00     0.163 HD
BRANCH   4   7
ATOM      7  C   UNL A   1      32.833  27.149  23.694  1.00  0.00     0.199 C 
ATOM      8  N   UNL A   1      31.738  27.021  22.701  1.00  0.00    -0.339 N 
ATOM      9  C   UNL A   1      32.098  26.511  21.385  1.00  0.00     0.147 C 
ATOM     10  C   UNL A   1      32.948  25.244  21.503  1.00  0.00     0.181 C 
ATOM     11  C   UNL A   1      33.707  25.875  23.677  1.00  0.00     0.195 C 
ATOM     12  O   UNL A   1      34.082  25.419  22.366  1.00  0.00    -0.377 OA
BRANCH   8  13
ATOM     13  C   UNL A   1      30.452  27.446  22.967  1.00  0.00     0.148 A 
ATOM     14  C   UNL A   1      29.546  26.689  23.733  1.00  0.00     0.095 A 
ATOM     15  C   UNL A   1      28.206  27.072  23.811  1.00  0.00     0.025 A 
ATOM     16  C   UNL A   1      27.794  28.238  23.191  1.00  0.00     0.035 A 
ATOM     17  N   UNL A   1      30.054  28.622  22.425  1.00  0.00    -0.225 NA
ATOM     18  C   UNL A   1      28.742  29.018  22.533  1.00  0.00     0.146 A 
BRANCH  14  19
ATOM     19  C   UNL A   1      29.948  25.544  24.497  1.00  0.00     0.103 C 
ATOM     20  N   UNL A   1      30.296  24.616  25.098  1.00  0.00    -0.192 NA
ENDBRANCH  14  19
BRANCH  18  21
ATOM     21  C   UNL A   1      28.292  30.343  21.919  1.00  0.00     0.433 C 
ATOM     22  F   UNL A   1      29.298  31.255  21.806  1.00  0.00    -0.165 F 
ATOM     23  F   UNL A   1      27.745  30.208  20.679  1.00  0.00    -0.165 F 
ATOM     24  F   UNL A   1      27.329  30.969  22.668  1.00  0.00    -0.165 F 
ENDBRANCH  18  21
ENDBRANCH   8  13
ENDBRANCH   4   7
ENDBRANCH   2   3
ENDBRANCH   1   2
BRANCH   1  25
ATOM     25  C   UNL A   1      31.188  31.695  26.140  1.00  0.00     0.023 C 
BRANCH  25  26
ATOM     26  C   UNL A   1      32.390  32.213  26.907  1.00  0.00     0.116 C 
BRANCH  26  27
ATOM     27  N   UNL A   1      32.260  33.592  27.362  1.00  0.00    -0.352 N 
ATOM     28  C   UNL A   1      33.092  34.267  28.226  1.00  0.00     0.251 C 
ATOM     29  H   UNL A   1      31.490  34.098  27.012  1.00  0.00     0.163 HD
ATOM     30  O   UNL A   1      32.820  35.392  28.629  1.00  0.00    -0.269 OA
BRANCH  28  31
ATOM     31  C   UNL A   1      34.311  33.575  28.685  1.00  0.00     0.039 A 
ATOM     32  C   UNL A   1      35.556  34.156  28.457  1.00  0.00     0.014 A 
ATOM     33  C   UNL A   1      34.192  32.411  29.447  1.00  0.00     0.014 A 
ATOM     34  C   UNL A   1      36.686  33.582  29.037  1.00  0.00     0.010 A 
ATOM     35  C   UNL A   1      35.292  31.933  30.138  1.00  0.00     0.010 A 
ATOM     36  C   UNL A   1      36.559  32.482  29.904  1.00  0.00    -0.014 A 
BRANCH  36  37
ATOM     37  C   UNL A   1      37.748  31.834  30.506  1.00  0.00     0.031 A 
ATOM     38  C   UNL A   1      38.178  32.230  31.895  1.00  0.00     0.074 A 
ATOM     39  C   UNL A   1      38.447  30.917  29.810  1.00  0.00     0.049 A 
ATOM     40  N   UNL A   1      39.190  31.802  32.605  1.00  0.00    -0.248 NA
ATOM     41  C   UNL A   1      37.382  33.274  32.567  1.00  0.00     0.031 C 
ATOM     42  C   UNL A   1      38.161  30.490  28.440  1.00  0.00     0.029 A 
ATOM     43  N   UNL A   1      39.542  30.171  30.167  1.00  0.00    -0.354 N 
ATOM     44  C   UNL A   1      39.148  32.524  33.791  1.00  0.00     0.074 A 
ATOM     45  C   UNL A   1      38.079  33.486  33.669  1.00  0.00     0.031 C 
ATOM     46  C   UNL A   1      39.024  29.521  28.091  1.00  0.00     0.029 A 
ATOM     47  C   UNL A   1      39.950  29.291  29.195  1.00  0.00     0.049 A 
ATOM     48  H   UNL A   1      39.992  30.259  31.039  1.00  0.00     0.167 HD
ATOM     49  C   UNL A   1      39.901  32.369  34.905  1.00  0.00     0.037 A 
ATOM     50  C   UNL A   1      40.960  28.400  29.203  1.00  0.00     0.037 A 
ATOM     51  C   UNL A   1      40.954  31.399  35.028  1.00  0.00     0.049 A 
ATOM     52  C   UNL A   1      41.806  28.274  30.443  1.00  0.00     0.074 A 
ATOM     53  C   UNL A   1      41.764  31.138  36.117  1.00  0.00     0.029 A 
ATOM     54  N   UNL A   1      41.342  30.528  34.019  1.00  0.00    -0.354 N 
ATOM     55  N   UNL A   1      41.716  28.917  31.583  1.00  0.00    -0.248 NA
ATOM     56  C   UNL A   1      42.888  27.283  30.400  1.00  0.00     0.031 C 
ATOM     57  C   UNL A   1      42.684  30.152  35.747  1.00  0.00     0.029 A 
ATOM     58  C   UNL A   1      42.394  29.741  34.456  1.00  0.00     0.049 A 
ATOM     59  H   UNL A   1      40.931  30.479  33.126  1.00  0.00     0.167 HD
ATOM     60  C   UNL A   1      42.694  28.375  32.407  1.00  0.00     0.074 A 
ATOM     61  C   UNL A   1      43.351  27.337  31.639  1.00  0.00     0.031 C 
ATOM     62  C   UNL A   1      43.023  28.700  33.682  1.00  0.00     0.037 A 
BRANCH  49  63
ATOM     63  C   UNL A   1      39.598  33.262  36.075  1.00  0.00     0.064 A 
ATOM     64  C   UNL A   1      38.669  32.896  37.063  1.00  0.00     0.173 A 
ATOM     65  C   UNL A   1      40.257  34.492  36.222  1.00  0.00     0.173 A 
ATOM     66  F   UNL A   1      37.996  31.740  36.963  1.00  0.00    -0.203 F 
ATOM     67  C   UNL A   1      38.388  33.741  38.133  1.00  0.00     0.198 A 
ATOM     68  C   UNL A   1      40.003  35.315  37.315  1.00  0.00     0.198 A 
ATOM     69  F   UNL A   1      41.153  34.893  35.308  1.00  0.00    -0.203 F 
ATOM     70  F   UNL A   1      37.451  33.396  39.027  1.00  0.00    -0.200 F 
ATOM     71  C   UNL A   1      39.062  34.945  38.264  1.00  0.00     0.200 A 
ATOM     72  F   UNL A   1      40.666  36.472  37.448  1.00  0.00    -0.200 F 
ATOM     73  F   UNL A   1      38.798  35.752  39.300  1.00  0.00    -0.200 F 
ENDBRANCH  49  63
BRANCH  50  74
ATOM     74  C   UNL A   1      41.213  27.531  28.020  1.00  0.00     0.064 A 
ATOM     75  C   UNL A   1      40.682  26.235  27.948  1.00  0.00     0.173 A 
ATOM     76  C   UNL A   1      42.031  27.956  26.964  1.00  0.00     0.173 A 
ATOM     77  F   UNL A   1      39.904  25.773  28.940  1.00  0.00    -0.203 F 
ATOM     78  C   UNL A   1      40.997  25.383  26.892  1.00  0.00     0.198 A 
ATOM     79  C   UNL A   1      42.313  27.116  25.887  1.00  0.00     0.198 A 
ATOM     80  F   UNL A   1      42.559  29.189  26.974  1.00  0.00    -0.203 F 
ATOM     81  F   UNL A   1      40.538  24.123  26.892  1.00  0.00    -0.200 F 
ATOM     82  C   UNL A   1      41.811  25.825  25.861  1.00  0.00     0.200 A 
ATOM     83  F   UNL A   1      43.085  27.555  24.884  1.00  0.00    -0.200 F 
ATOM     84  F   UNL A   1      42.121  25.003  24.850  1.00  0.00    -0.200 F 
ENDBRANCH  50  74
BRANCH  62  85
ATOM     85  C   UNL A   1      44.088  27.875  34.350  1.00  0.00     0.064 A 
ATOM     86  C   UNL A   1      45.439  28.253  34.350  1.00  0.00     0.173 A 
ATOM     87  C   UNL A   1      43.745  26.681  35.004  1.00  0.00     0.173 A 
ATOM     88  F   UNL A   1      45.824  29.382  33.734  1.00  0.00    -0.203 F 
ATOM     89  C   UNL A   1      46.411  27.438  34.922  1.00  0.00     0.198 A 
ATOM     90  C   UNL A   1      44.714  25.892  35.618  1.00  0.00     0.198 A 
ATOM     91  F   UNL A   1      42.466  26.277  35.053  1.00  0.00    -0.203 F 
ATOM     92  F   UNL A   1      47.705  27.776  34.829  1.00  0.00    -0.200 F 
ATOM     93  C   UNL A   1      46.047  26.261  35.559  1.00  0.00     0.200 A 
ATOM     94  F   UNL A   1      44.355  24.769  36.255  1.00  0.00    -0.200 F 
ATOM     95  F   UNL A   1      46.985  25.476  36.107  1.00  0.00    -0.200 F 
ENDBRANCH  62  85
ENDBRANCH  36  37
ENDBRANCH  28  31
ENDBRANCH  26  27
ENDBRANCH  25  26
ENDBRANCH   1  25
TORSDOF 14
ENDMDL
MODEL 2
REMARK VINA RESULT:     -12.6      0.363      1.998
REMARK SMILES N#Cc1ccc(C(F)(F)F)nc1N1CCOC[C@H]1C(=O)NCCCCNC(=O)c1ccc(-c2c3nc(c(-c4c(F)c(F)c(F)c(F)c4F)c4ccc([nH]4)c(-c4c(F)c(F)c(F)c(F)c4F)c4nc(c(-c5c(F)c(F)c(F)c(F)c5F)c5ccc2[nH]5)C=C4)C=C3)cc1
REMARK SMILES IDX 23 1 22 2 21 3 19 4 20 5 18 7 13 8 14 9 15 10 17 11 16 12
REMARK SMILES IDX 12 13 3 14 4 15 5 16 11 17 6 18 2 19 1 20 7 21 8 22 9 23
REMARK SMILES IDX 10 24 24 25 25 26 26 27 27 28 28 30 29 31 30 32 91 33 31 34
REMARK SMILES IDX 90 35 32 36 33 37 34 38 84 39 35 40 89 41 83 42 85 43 36 44
REMARK SMILES IDX 88 45 82 46 81 47 37 49 69 50 49 51 68 52 50 53 53 54 67 55
REMARK SMILES IDX 86 56 51 57 52 58 66 60 87 61 54 62 38 63 39 64 47 65 40 66
REMARK SMILES IDX 41 67 45 68 48 69 42 70 43 71 46 72 44 73 70 74 71 75 79 76
REMARK SMILES IDX 72 77 73 78 77 79 80 80 74 81 75 82 78 83 76 84 55 85 56 86
REMARK SMILES IDX 64 87 57 88 58 89 62 90 65 91 59 92 60 93 63 94 61 95
REMARK H PARENT 21 6 26 29 85 48 53 59
REMARK Flexibility Score: inf
ROOT
ATOM      1  C   UNL A   1      31.656  30.549  25.771  1.00  0.00     0.023 C 
ENDROOT
BRANCH   1   2
ATOM      2  C   UNL A   1      32.994  29.816  25.895  1.00  0.00     0.116 C 
BRANCH   2   3
ATOM      3  N   UNL A   1      33.621  29.627  24.606  1.00  0.00    -0.354 N 
ATOM      4  C   UNL A   1      33.585  28.637  23.674  1.00  0.00     0.245 C 
ATOM      5  O   UNL A   1      34.236  28.890  22.647  1.00  0.00    -0.273 OA
ATOM      6  H   UNL A   1      34.199  30.380  24.346  1.00  0.00     0.163 HD
BRANCH   4   7
ATOM      7  C   UNL A   1      32.755  27.329  23.742  1.00  0.00     0.199 C 
ATOM      8  N   UNL A   1      31.673  27.146  22.744  1.00  0.00    -0.339 N 
ATOM      9  C   UNL A   1      32.052  26.575  21.459  1.00  0.00     0.147 C 
ATOM     10  C   UNL A   1      32.908  25.320  21.649  1.00  0.00     0.181 C 
ATOM     11  C   UNL A   1      33.638  26.062  23.798  1.00  0.00     0.195 C 
ATOM     12  O   UNL A   1      34.030  25.545  22.515  1.00  0.00    -0.377 OA
BRANCH   8  13
ATOM     13  C   UNL A   1      30.381  27.574  22.974  1.00  0.00     0.148 A 
ATOM     14  C   UNL A   1      29.459  26.831  23.735  1.00  0.00     0.095 A 
ATOM     15  C   UNL A   1      28.118  27.214  23.778  1.00  0.00     0.025 A 
ATOM     16  C   UNL A   1      27.718  28.368  23.126  1.00  0.00     0.035 A 
ATOM     17  N   UNL A   1      29.994  28.739  22.400  1.00  0.00    -0.225 NA
ATOM     18  C   UNL A   1      28.680  29.135  22.473  1.00  0.00     0.146 A 
BRANCH  14  19
ATOM     19  C   UNL A   1      29.847  25.703  24.531  1.00  0.00     0.103 C 
ATOM     20  N   UNL A   1      30.186  24.801  25.174  1.00  0.00    -0.192 NA
ENDBRANCH  14  19
BRANCH  18  21
ATOM     21  C   UNL A   1      28.242  30.447  21.823  1.00  0.00     0.433 C 
ATOM     22  F   UNL A   1      27.272  31.099  22.523  1.00  0.00    -0.165 F 
ATOM     23  F   UNL A   1      29.262  31.334  21.650  1.00  0.00    -0.165 F 
ATOM     24  F   UNL A   1      27.713  30.264  20.572  1.00  0.00    -0.165 F 
ENDBRANCH  18  21
ENDBRANCH   8  13
ENDBRANCH   4   7
ENDBRANCH   2   3
ENDBRANCH   1   2
BRANCH   1  25
ATOM     25  C   UNL A   1      31.475  31.697  26.746  1.00  0.00     0.023 C 
BRANCH  25  26
ATOM     26  C   UNL A   1      32.671  32.627  26.819  1.00  0.00     0.116 C 
BRANCH  26  27
ATOM     27  N   UNL A   1      32.404  33.894  27.489  1.00  0.00    -0.352 N 
ATOM     28  C   UNL A   1      33.103  34.445  28.540  1.00  0.00     0.251 C 
ATOM     29  H   UNL A   1      31.639  34.414  27.153  1.00  0.00     0.163 HD
ATOM     30  O   UNL A   1      32.717  35.463  29.100  1.00  0.00    -0.269 OA
BRANCH  28  31
ATOM     31  C   UNL A   1      34.317  33.744  28.998  1.00  0.00     0.039 A 
ATOM     32  C   UNL A   1      35.570  34.263  28.678  1.00  0.00     0.014 A 
ATOM     33  C   UNL A   1      34.194  32.641  29.846  1.00  0.00     0.014 A 
ATOM     34  C   UNL A   1      36.704  33.693  29.252  1.00  0.00     0.010 A 
ATOM     35  C   UNL A   1      35.307  32.175  30.525  1.00  0.00     0.010 A 
ATOM     36  C   UNL A   1      36.579  32.662  30.201  1.00  0.00    -0.014 A 
BRANCH  36  37
ATOM     37  C   UNL A   1      37.772  32.017  30.799  1.00  0.00     0.031 A 
ATOM     38  C   UNL A   1      38.217  32.429  32.179  1.00  0.00     0.074 A 
ATOM     39  C   UNL A   1      38.460  31.088  30.107  1.00  0.00     0.049 A 
ATOM     40  N   UNL A   1      39.235  32.006  32.884  1.00  0.00    -0.248 NA
ATOM     41  C   UNL A   1      37.432  33.484  32.844  1.00  0.00     0.031 C 
ATOM     42  C   UNL A   1      38.158  30.645  28.746  1.00  0.00     0.029 A 
ATOM     43  N   UNL A   1      39.555  30.343  30.463  1.00  0.00    -0.354 N 
ATOM     44  C   UNL A   1      39.207  32.742  34.060  1.00  0.00     0.074 A 
ATOM     45  C   UNL A   1      38.141  33.708  33.937  1.00  0.00     0.031 C 
ATOM     46  C   UNL A   1      39.014  29.668  28.401  1.00  0.00     0.029 A 
ATOM     47  C   UNL A   1      39.951  29.449  29.498  1.00  0.00     0.049 A 
ATOM     48  H   UNL A   1      40.014  30.439  31.329  1.00  0.00     0.167 HD
ATOM     49  C   UNL A   1      39.970  32.598  35.169  1.00  0.00     0.037 A 
ATOM     50  C   UNL A   1      40.956  28.553  29.507  1.00  0.00     0.037 A 
ATOM     51  C   UNL A   1      41.021  31.626  35.294  1.00  0.00     0.049 A 
ATOM     52  C   UNL A   1      41.815  28.440  30.741  1.00  0.00     0.074 A 
ATOM     53  C   UNL A   1      41.840  31.375  36.378  1.00  0.00     0.029 A 
ATOM     54  N   UNL A   1      41.395  30.741  34.292  1.00  0.00    -0.354 N 
ATOM     55  N   UNL A   1      41.739  29.098  31.874  1.00  0.00    -0.248 NA
ATOM     56  C   UNL A   1      42.893  27.444  30.700  1.00  0.00     0.031 C 
ATOM     57  C   UNL A   1      42.753  30.381  36.012  1.00  0.00     0.029 A 
ATOM     58  C   UNL A   1      42.449  29.955  34.729  1.00  0.00     0.049 A 
ATOM     59  H   UNL A   1      40.975  30.682  33.405  1.00  0.00     0.167 HD
ATOM     60  C   UNL A   1      42.723  28.561  32.695  1.00  0.00     0.074 A 
ATOM     61  C   UNL A   1      43.368  27.511  31.933  1.00  0.00     0.031 C 
ATOM     62  C   UNL A   1      43.065  28.902  33.962  1.00  0.00     0.037 A 
BRANCH  49  63
ATOM     63  C   UNL A   1      39.683  33.508  36.330  1.00  0.00     0.064 A 
ATOM     64  C   UNL A   1      40.280  34.775  36.441  1.00  0.00     0.173 A 
ATOM     65  C   UNL A   1      38.787  33.118  37.337  1.00  0.00     0.173 A 
ATOM     66  F   UNL A   1      41.158  35.192  35.517  1.00  0.00    -0.203 F 
ATOM     67  C   UNL A   1      40.016  35.600  37.531  1.00  0.00     0.198 A 
ATOM     68  C   UNL A   1      38.495  33.963  38.403  1.00  0.00     0.198 A 
ATOM     69  F   UNL A   1      38.189  31.918  37.284  1.00  0.00    -0.203 F 
ATOM     70  F   UNL A   1      40.646  36.777  37.645  1.00  0.00    -0.200 F 
ATOM     71  C   UNL A   1      39.116  35.199  38.506  1.00  0.00     0.200 A 
ATOM     72  F   UNL A   1      37.614  33.579  39.337  1.00  0.00    -0.200 F 
ATOM     73  F   UNL A   1      38.855  35.998  39.548  1.00  0.00    -0.200 F 
ENDBRANCH  49  63
BRANCH  50  74
ATOM     74  C   UNL A   1      41.195  27.668  28.333  1.00  0.00     0.064 A 
ATOM     75  C   UNL A   1      42.094  28.036  27.322  1.00  0.00     0.173 A 
ATOM     76  C   UNL A   1      40.493  26.466  28.172  1.00  0.00     0.173 A 
ATOM     77  F   UNL A   1      42.781  29.186  27.420  1.00  0.00    -0.203 F 
ATOM     78  C   UNL A   1      42.247  27.261  26.174  1.00  0.00     0.198 A 
ATOM     79  C   UNL A   1      40.676  25.670  27.041  1.00  0.00     0.198 A 
ATOM     80  F   UNL A   1      39.627  26.059  29.111  1.00  0.00    -0.203 F 
ATOM     81  F   UNL A   1      43.055  27.679  25.190  1.00  0.00    -0.200 F 
ATOM     82  C   UNL A   1      41.539  26.078  26.035  1.00  0.00     0.200 A 
ATOM     83  F   UNL A   1      40.004  24.518  26.921  1.00  0.00    -0.200 F 
ATOM     84  F   UNL A   1      41.678  25.337  24.928  1.00  0.00    -0.200 F 
ENDBRANCH  50  74
BRANCH  62  85
ATOM     85  C   UNL A   1      44.134  28.080  34.630  1.00  0.00     0.064 A 
ATOM     86  C   UNL A   1      43.840  26.920  35.360  1.00  0.00     0.173 A 
ATOM     87  C   UNL A   1      45.481  28.467  34.533  1.00  0.00     0.173 A 
ATOM     88  F   UNL A   1      42.570  26.507  35.490  1.00  0.00    -0.203 F 
ATOM     89  C   UNL A   1      44.843  26.215  36.019  1.00  0.00     0.198 A 
ATOM     90  C   UNL A   1      46.487  27.732  35.153  1.00  0.00     0.198 A 
ATOM     91  F   UNL A   1      45.824  29.559  33.833  1.00  0.00    -0.203 F 
ATOM     92  F   UNL A   1      44.526  25.161  36.785  1.00  0.00    -0.200 F 
ATOM     93  C   UNL A   1      46.165  26.619  35.911  1.00  0.00     0.200 A 
ATOM     94  F   UNL A   1      47.766  28.111  35.025  1.00  0.00    -0.200 F 
ATOM     95  F   UNL A   1      47.129  25.940  36.549  1.00  0.00    -0.200 F 
ENDBRANCH  62  85
ENDBRANCH  36  37
ENDBRANCH  28  31
ENDBRANCH  26  27
ENDBRANCH  25  26
ENDBRANCH   1  25
TORSDOF 14
ENDMDL
MODEL 3
REMARK VINA RESULT:     -12.4      5.567     10.894
REMARK SMILES N#Cc1ccc(C(F)(F)F)nc1N1CCOC[C@H]1C(=O)NCCCCNC(=O)c1ccc(-c2c3nc(c(-c4c(F)c(F)c(F)c(F)c4F)c4ccc([nH]4)c(-c4c(F)c(F)c(F)c(F)c4F)c4nc(c(-c5c(F)c(F)c(F)c(F)c5F)c5ccc2[nH]5)C=C4)C=C3)cc1
REMARK SMILES IDX 23 1 22 2 21 3 19 4 20 5 18 7 13 8 14 9 15 10 17 11 16 12
REMARK SMILES IDX 12 13 3 14 4 15 5 16 11 17 6 18 2 19 1 20 7 21 8 22 9 23
REMARK SMILES IDX 10 24 24 25 25 26 26 27 27 28 28 30 29 31 30 32 91 33 31 34
REMARK SMILES IDX 90 35 32 36 33 37 34 38 84 39 35 40 89 41 83 42 85 43 36 44
REMARK SMILES IDX 88 45 82 46 81 47 37 49 69 50 49 51 68 52 50 53 53 54 67 55
REMARK SMILES IDX 86 56 51 57 52 58 66 60 87 61 54 62 38 63 39 64 47 65 40 66
REMARK SMILES IDX 41 67 45 68 48 69 42 70 43 71 46 72 44 73 70 74 71 75 79 76
REMARK SMILES IDX 72 77 73 78 77 79 80 80 74 81 75 82 78 83 76 84 55 85 56 86
REMARK SMILES IDX 64 87 57 88 58 89 62 90 65 91 59 92 60 93 63 94 61 95
REMARK H PARENT 21 6 26 29 85 48 53 59
REMARK Flexibility Score: inf
ROOT
ATOM      1  C   UNL A   1      36.135  20.361  25.006  1.00  0.00     0.023 C 
ENDROOT
BRANCH   1   2
ATOM      2  C   UNL A   1      36.324  21.788  25.530  1.00  0.00     0.116 C 
BRANCH   2   3
ATOM      3  N   UNL A   1      35.530  22.032  26.713  1.00  0.00    -0.354 N 
ATOM      4  C   UNL A   1      34.334  22.639  26.939  1.00  0.00     0.245 C 
ATOM      5  O   UNL A   1      33.960  22.587  28.123  1.00  0.00    -0.273 OA
ATOM      6  H   UNL A   1      35.945  21.681  27.534  1.00  0.00     0.163 HD
BRANCH   4   7
ATOM      7  C   UNL A   1      33.398  23.269  25.876  1.00  0.00     0.199 C 
ATOM      8  N   UNL A   1      32.235  22.469  25.419  1.00  0.00    -0.339 N 
ATOM      9  C   UNL A   1      31.020  22.558  26.217  1.00  0.00     0.147 C 
ATOM     10  C   UNL A   1      30.663  24.018  26.509  1.00  0.00     0.181 C 
ATOM     11  C   UNL A   1      32.938  24.695  26.252  1.00  0.00     0.195 C 
ATOM     12  O   UNL A   1      31.760  24.751  27.075  1.00  0.00    -0.377 OA
BRANCH   8  13
ATOM     13  C   UNL A   1      32.313  21.607  24.344  1.00  0.00     0.148 A 
ATOM     14  C   UNL A   1      32.084  22.024  23.019  1.00  0.00     0.095 A 
ATOM     15  C   UNL A   1      31.988  21.079  21.996  1.00  0.00     0.025 A 
ATOM     16  C   UNL A   1      32.192  19.741  22.283  1.00  0.00     0.035 A 
ATOM     17  N   UNL A   1      32.582  20.304  24.601  1.00  0.00    -0.225 NA
ATOM     18  C   UNL A   1      32.523  19.379  23.587  1.00  0.00     0.146 A 
BRANCH  14  19
ATOM     19  C   UNL A   1      31.992  23.406  22.649  1.00  0.00     0.103 C 
ATOM     20  N   UNL A   1      31.939  24.519  22.332  1.00  0.00    -0.192 NA
ENDBRANCH  14  19
BRANCH  18  21
ATOM     21  C   UNL A   1      32.824  17.909  23.877  1.00  0.00     0.433 C 
ATOM     22  F   UNL A   1      31.954  17.344  24.760  1.00  0.00    -0.165 F 
ATOM     23  F   UNL A   1      32.816  17.124  22.764  1.00  0.00    -0.165 F 
ATOM     24  F   UNL A   1      34.063  17.726  24.434  1.00  0.00    -0.165 F 
ENDBRANCH  18  21
ENDBRANCH   8  13
ENDBRANCH   4   7
ENDBRANCH   2   3
ENDBRANCH   1   2
BRANCH   1  25
ATOM     25  C   UNL A   1      37.423  19.578  24.836  1.00  0.00     0.023 C 
BRANCH  25  26
ATOM     26  C   UNL A   1      38.592  20.157  25.610  1.00  0.00     0.116 C 
BRANCH  26  27
ATOM     27  N   UNL A   1      39.721  19.245  25.758  1.00  0.00    -0.352 N 
ATOM     28  C   UNL A   1      41.007  19.565  26.130  1.00  0.00     0.251 C 
ATOM     29  H   UNL A   1      39.542  18.295  25.573  1.00  0.00     0.163 HD
ATOM     30  O   UNL A   1      41.904  18.731  26.111  1.00  0.00    -0.269 OA
BRANCH  28  31
ATOM     31  C   UNL A   1      41.282  20.961  26.518  1.00  0.00     0.039 A 
ATOM     32  C   UNL A   1      41.444  21.278  27.865  1.00  0.00     0.014 A 
ATOM     33  C   UNL A   1      41.495  21.919  25.525  1.00  0.00     0.014 A 
ATOM     34  C   UNL A   1      41.867  22.560  28.211  1.00  0.00     0.010 A 
ATOM     35  C   UNL A   1      42.054  23.140  25.864  1.00  0.00     0.010 A 
ATOM     36  C   UNL A   1      42.201  23.492  27.212  1.00  0.00    -0.014 A 
BRANCH  36  37
ATOM     37  C   UNL A   1      42.620  24.872  27.555  1.00  0.00     0.031 A 
ATOM     38  C   UNL A   1      44.038  25.301  27.275  1.00  0.00     0.074 A 
ATOM     39  C   UNL A   1      41.748  25.724  28.127  1.00  0.00     0.049 A 
ATOM     40  N   UNL A   1      44.618  26.451  27.505  1.00  0.00    -0.248 NA
ATOM     41  C   UNL A   1      44.937  24.290  26.689  1.00  0.00     0.031 C 
ATOM     42  C   UNL A   1      40.367  25.409  28.494  1.00  0.00     0.029 A 
ATOM     43  N   UNL A   1      41.897  27.037  28.494  1.00  0.00    -0.354 N 
ATOM     44  C   UNL A   1      45.936  26.294  27.096  1.00  0.00     0.074 A 
ATOM     45  C   UNL A   1      46.101  24.916  26.700  1.00  0.00     0.031 C 
ATOM     46  C   UNL A   1      39.779  26.513  28.985  1.00  0.00     0.029 A 
ATOM     47  C   UNL A   1      40.754  27.598  29.009  1.00  0.00     0.049 A 
ATOM     48  H   UNL A   1      42.743  27.531  28.398  1.00  0.00     0.167 HD
ATOM     49  C   UNL A   1      46.913  27.226  27.010  1.00  0.00     0.037 A 
ATOM     50  C   UNL A   1      40.525  28.851  29.447  1.00  0.00     0.037 A 
ATOM     51  C   UNL A   1      46.741  28.601  27.390  1.00  0.00     0.049 A 
ATOM     52  C   UNL A   1      41.643  29.859  29.375  1.00  0.00     0.074 A 
ATOM     53  C   UNL A   1      47.654  29.636  27.323  1.00  0.00     0.029 A 
ATOM     54  N   UNL A   1      45.569  29.131  27.913  1.00  0.00    -0.354 N 
ATOM     55  N   UNL A   1      42.867  29.717  28.925  1.00  0.00    -0.248 NA
ATOM     56  C   UNL A   1      41.338  31.211  29.859  1.00  0.00     0.031 C 
ATOM     57  C   UNL A   1      47.055  30.780  27.862  1.00  0.00     0.029 A 
ATOM     58  C   UNL A   1      45.744  30.477  28.189  1.00  0.00     0.049 A 
ATOM     59  H   UNL A   1      44.739  28.625  28.064  1.00  0.00     0.167 HD
ATOM     60  C   UNL A   1      43.460  30.969  29.026  1.00  0.00     0.074 A 
ATOM     61  C   UNL A   1      42.452  31.861  29.561  1.00  0.00     0.031 C 
ATOM     62  C   UNL A   1      44.722  31.352  28.706  1.00  0.00     0.037 A 
BRANCH  49  63
ATOM     63  C   UNL A   1      48.246  26.785  26.474  1.00  0.00     0.064 A 
ATOM     64  C   UNL A   1      48.606  26.989  25.132  1.00  0.00     0.173 A 
ATOM     65  C   UNL A   1      49.182  26.165  27.314  1.00  0.00     0.173 A 
ATOM     66  F   UNL A   1      47.743  27.560  24.278  1.00  0.00    -0.203 F 
ATOM     67  C   UNL A   1      49.839  26.561  24.646  1.00  0.00     0.198 A 
ATOM     68  C   UNL A   1      50.429  25.775  26.834  1.00  0.00     0.198 A 
ATOM     69  F   UNL A   1      48.892  25.943  28.605  1.00  0.00    -0.203 F 
ATOM     70  F   UNL A   1      50.133  26.711  23.347  1.00  0.00    -0.200 F 
ATOM     71  C   UNL A   1      50.754  25.964  25.499  1.00  0.00     0.200 A 
ATOM     72  F   UNL A   1      51.318  25.211  27.664  1.00  0.00    -0.200 F 
ATOM     73  F   UNL A   1      51.943  25.561  25.032  1.00  0.00    -0.200 F 
ENDBRANCH  49  63
BRANCH  50  74
ATOM     74  C   UNL A   1      39.183  29.241  29.962  1.00  0.00     0.064 A 
ATOM     75  C   UNL A   1      38.225  29.820  29.116  1.00  0.00     0.173 A 
ATOM     76  C   UNL A   1      38.849  29.093  31.315  1.00  0.00     0.173 A 
ATOM     77  F   UNL A   1      38.500  29.999  27.814  1.00  0.00    -0.203 F 
ATOM     78  C   UNL A   1      37.007  30.278  29.612  1.00  0.00     0.198 A 
ATOM     79  C   UNL A   1      37.613  29.516  31.803  1.00  0.00     0.198 A 
ATOM     80  F   UNL A   1      39.722  28.538  32.168  1.00  0.00    -0.203 F 
ATOM     81  F   UNL A   1      36.144  30.898  28.795  1.00  0.00    -0.200 F 
ATOM     82  C   UNL A   1      36.701  30.124  30.955  1.00  0.00     0.200 A 
ATOM     83  F   UNL A   1      37.314  29.347  33.098  1.00  0.00    -0.200 F 
ATOM     84  F   UNL A   1      35.533  30.572  31.434  1.00  0.00    -0.200 F 
ENDBRANCH  50  74
BRANCH  62  85
ATOM     85  C   UNL A   1      45.056  32.811  28.854  1.00  0.00     0.064 A 
ATOM     86  C   UNL A   1      45.655  33.328  30.012  1.00  0.00     0.173 A 
ATOM     87  C   UNL A   1      44.769  33.707  27.811  1.00  0.00     0.173 A 
ATOM     88  F   UNL A   1      45.946  32.518  31.042  1.00  0.00    -0.203 F 
ATOM     89  C   UNL A   1      45.896  34.692  30.146  1.00  0.00     0.198 A 
ATOM     90  C   UNL A   1      45.056  35.063  27.929  1.00  0.00     0.198 A 
ATOM     91  F   UNL A   1      44.212  33.267  26.673  1.00  0.00    -0.203 F 
ATOM     92  F   UNL A   1      46.386  35.174  31.297  1.00  0.00    -0.200 F 
ATOM     93  C   UNL A   1      45.601  35.558  29.103  1.00  0.00     0.200 A 
ATOM     94  F   UNL A   1      44.793  35.892  26.910  1.00  0.00    -0.200 F 
ATOM     95  F   UNL A   1      45.831  36.872  29.235  1.00  0.00    -0.200 F 
ENDBRANCH  62  85
ENDBRANCH  36  37
ENDBRANCH  28  31
ENDBRANCH  26  27
ENDBRANCH  25  26
ENDBRANCH   1  25
TORSDOF 14
ENDMDL
