MODEL 1
REMARK VINA RESULT:     -11.1      0.000      0.000
REMARK SMILES Cc1ccc([C@H]2C[C@]2([NH3+])C(=O)NCCCCNC(=O)c2ccc(-c3c4nc(c(-c5c(F)c(F)c(F)c(F)c5F)c5ccc([nH]5)c(-c5c(F)c(F)c(F)c(F)c5F)c5nc(c(-c6c(F)c(F)c(F)c(F)c6F)c6ccc3[nH]6)C=C5)C=C4)cc2)cc1C
REMARK SMILES IDX 15 1 14 2 13 3 12 4 10 5 11 6 8 8 6 9 7 10 5 11 1 12 2 13
REMARK SMILES IDX 3 14 84 15 4 16 83 17 85 18 9 19 16 23 17 24 18 25 19 27
REMARK SMILES IDX 20 28 21 29 82 30 22 31 81 32 23 33 24 34 25 35 75 36 26 37
REMARK SMILES IDX 80 38 74 39 76 40 27 41 79 42 73 43 72 44 28 46 60 47 40 48
REMARK SMILES IDX 59 49 41 50 44 51 58 52 77 53 42 54 43 55 57 57 78 58 45 59
REMARK SMILES IDX 29 60 30 61 38 62 31 63 32 64 36 65 39 66 33 67 34 68 37 69
REMARK SMILES IDX 35 70 61 71 62 72 70 73 63 74 64 75 68 76 71 77 65 78 66 79
REMARK SMILES IDX 69 80 67 81 46 82 47 83 55 84 48 85 49 86 53 87 56 88 50 89
REMARK SMILES IDX 51 90 54 91 52 92
REMARK H PARENT 12 7 9 20 9 21 9 22 17 26 76 45 44 56
REMARK Flexibility Score: inf
ROOT
ATOM      1  C   UNL A   1      32.943  35.077  28.662  1.00  0.00     0.023 C 
ENDROOT
BRANCH   1   2
ATOM      2  C   UNL A   1      33.711  36.346  29.032  1.00  0.00     0.023 C 
BRANCH   2   3
ATOM      3  C   UNL A   1      33.303  37.005  30.347  1.00  0.00     0.116 C 
BRANCH   3   4
ATOM      4  N   UNL A   1      32.253  36.294  31.043  1.00  0.00    -0.351 N 
ATOM      5  C   UNL A   1      32.321  35.545  32.193  1.00  0.00     0.281 C 
ATOM      6  O   UNL A   1      31.285  35.085  32.668  1.00  0.00    -0.268 OA
ATOM      7  H   UNL A   1      31.360  36.355  30.633  1.00  0.00     0.163 HD
BRANCH   5   8
ATOM      8  C   UNL A   1      33.667  35.271  32.839  1.00  0.00     0.181 C 
ATOM      9  C   UNL A   1      34.610  34.378  32.041  1.00  0.00     0.097 C 
ATOM     10  C   UNL A   1      33.975  33.859  33.301  1.00  0.00     0.095 C 
BRANCH   9  11
ATOM     11  C   UNL A   1      36.107  34.543  31.954  1.00  0.00    -0.038 A 
ATOM     12  C   UNL A   1      40.459  34.459  31.874  1.00  0.00     0.044 C 
ATOM     13  C   UNL A   1      38.958  34.526  31.861  1.00  0.00    -0.048 A 
ATOM     14  C   UNL A   1      38.275  34.649  33.078  1.00  0.00     0.004 A 
ATOM     15  C   UNL A   1      38.212  34.444  30.672  1.00  0.00    -0.048 A 
ATOM     16  C   UNL A   1      36.878  34.658  33.120  1.00  0.00     0.004 A 
ATOM     17  C   UNL A   1      36.804  34.445  30.741  1.00  0.00     0.008 A 
ATOM     18  C   UNL A   1      38.846  34.324  29.312  1.00  0.00     0.044 C 
ENDBRANCH   9  11
BRANCH   8  19
ATOM     19  N   UNL A   1      34.118  36.306  33.804  1.00  0.00    -0.344 N 
ATOM     20  H   UNL A   1      33.412  36.422  34.532  1.00  0.00     0.345 HD
ATOM     21  H   UNL A   1      34.252  37.191  33.316  1.00  0.00     0.345 HD
ATOM     22  H   UNL A   1      34.999  36.014  34.229  1.00  0.00     0.345 HD
ENDBRANCH   8  19
ENDBRANCH   5   8
ENDBRANCH   3   4
ENDBRANCH   2   3
ENDBRANCH   1   2
BRANCH   1  23
ATOM     23  C   UNL A   1      33.785  33.818  28.489  1.00  0.00     0.116 C 
BRANCH  23  24
ATOM     24  N   UNL A   1      33.143  32.802  27.670  1.00  0.00    -0.352 N 
ATOM     25  C   UNL A   1      33.579  31.543  27.327  1.00  0.00     0.251 C 
ATOM     26  H   UNL A   1      32.262  33.053  27.306  1.00  0.00     0.163 HD
ATOM     27  O   UNL A   1      32.941  30.870  26.524  1.00  0.00    -0.269 OA
BRANCH  25  28
ATOM     28  C   UNL A   1      34.840  31.013  27.891  1.00  0.00     0.039 A 
ATOM     29  C   UNL A   1      35.937  31.871  28.011  1.00  0.00     0.014 A 
ATOM     30  C   UNL A   1      34.941  29.685  28.314  1.00  0.00     0.014 A 
ATOM     31  C   UNL A   1      37.103  31.424  28.637  1.00  0.00     0.010 A 
ATOM     32  C   UNL A   1      36.076  29.263  29.004  1.00  0.00     0.010 A 
ATOM     33  C   UNL A   1      37.165  30.131  29.182  1.00  0.00    -0.014 A 
BRANCH  33  34
ATOM     34  C   UNL A   1      38.346  29.677  29.961  1.00  0.00     0.031 A 
ATOM     35  C   UNL A   1      38.578  30.186  31.357  1.00  0.00     0.074 A 
ATOM     36  C   UNL A   1      39.253  28.865  29.383  1.00  0.00     0.049 A 
ATOM     37  N   UNL A   1      39.590  29.969  32.160  1.00  0.00    -0.248 NA
ATOM     38  C   UNL A   1      37.551  31.078  31.914  1.00  0.00     0.031 C 
ATOM     39  C   UNL A   1      39.171  28.341  28.018  1.00  0.00     0.029 A 
ATOM     40  N   UNL A   1      40.430  28.348  29.865  1.00  0.00    -0.354 N 
ATOM     41  C   UNL A   1      39.328  30.709  33.305  1.00  0.00     0.074 A 
ATOM     42  C   UNL A   1      38.089  31.419  33.075  1.00  0.00     0.031 C 
ATOM     43  C   UNL A   1      40.238  27.564  27.780  1.00  0.00     0.029 A 
ATOM     44  C   UNL A   1      41.102  27.565  28.957  1.00  0.00     0.049 A 
ATOM     45  H   UNL A   1      40.763  28.522  30.774  1.00  0.00     0.167 HD
ATOM     46  C   UNL A   1      40.043  30.770  34.454  1.00  0.00     0.037 A 
ATOM     47  C   UNL A   1      42.284  26.928  29.056  1.00  0.00     0.037 A 
ATOM     48  C   UNL A   1      41.261  30.039  34.691  1.00  0.00     0.049 A 
ATOM     49  C   UNL A   1      43.066  27.024  30.339  1.00  0.00     0.074 A 
ATOM     50  C   UNL A   1      42.016  29.974  35.850  1.00  0.00     0.029 A 
ATOM     51  N   UNL A   1      41.905  29.250  33.750  1.00  0.00    -0.354 N 
ATOM     52  N   UNL A   1      42.767  27.661  31.444  1.00  0.00    -0.248 NA
ATOM     53  C   UNL A   1      44.351  26.311  30.387  1.00  0.00     0.031 C 
ATOM     54  C   UNL A   1      43.142  29.185  35.595  1.00  0.00     0.029 A 
ATOM     55  C   UNL A   1      43.065  28.719  34.293  1.00  0.00     0.049 A 
ATOM     56  H   UNL A   1      41.586  29.090  32.833  1.00  0.00     0.167 HD
ATOM     57  C   UNL A   1      43.811  27.412  32.324  1.00  0.00     0.074 A 
ATOM     58  C   UNL A   1      44.744  26.548  31.631  1.00  0.00     0.031 C 
ATOM     59  C   UNL A   1      43.984  27.860  33.590  1.00  0.00     0.037 A 
BRANCH  46  60
ATOM     60  C   UNL A   1      39.524  31.654  35.549  1.00  0.00     0.064 A 
ATOM     61  C   UNL A   1      38.543  31.212  36.449  1.00  0.00     0.173 A 
ATOM     62  C   UNL A   1      40.042  32.946  35.727  1.00  0.00     0.173 A 
ATOM     63  F   UNL A   1      38.008  29.989  36.315  1.00  0.00    -0.203 F 
ATOM     64  C   UNL A   1      38.077  32.040  37.466  1.00  0.00     0.198 A 
ATOM     65  C   UNL A   1      39.596  33.761  36.765  1.00  0.00     0.198 A 
ATOM     66  F   UNL A   1      40.987  33.417  34.900  1.00  0.00    -0.203 F 
ATOM     67  F   UNL A   1      37.104  31.612  38.283  1.00  0.00    -0.200 F 
ATOM     68  C   UNL A   1      38.609  33.310  37.628  1.00  0.00     0.200 A 
ATOM     69  F   UNL A   1      40.121  34.983  36.928  1.00  0.00    -0.200 F 
ATOM     70  F   UNL A   1      38.165  34.103  38.613  1.00  0.00    -0.200 F 
ENDBRANCH  46  60
BRANCH  47  71
ATOM     71  C   UNL A   1      42.798  26.129  27.913  1.00  0.00     0.064 A 
ATOM     72  C   UNL A   1      43.624  26.713  26.943  1.00  0.00     0.173 A 
ATOM     73  C   UNL A   1      42.471  24.774  27.762  1.00  0.00     0.173 A 
ATOM     74  F   UNL A   1      43.947  28.012  27.032  1.00  0.00    -0.203 F 
ATOM     75  C   UNL A   1      44.089  25.977  25.855  1.00  0.00     0.198 A 
ATOM     76  C   UNL A   1      42.959  24.032  26.689  1.00  0.00     0.198 A 
ATOM     77  F   UNL A   1      41.687  24.167  28.665  1.00  0.00    -0.203 F 
ATOM     78  F   UNL A   1      44.840  26.571  24.918  1.00  0.00    -0.200 F 
ATOM     79  C   UNL A   1      43.761  24.636  25.732  1.00  0.00     0.200 A 
ATOM     80  F   UNL A   1      42.650  22.732  26.580  1.00  0.00    -0.200 F 
ATOM     81  F   UNL A   1      44.210  23.927  24.687  1.00  0.00    -0.200 F 
ENDBRANCH  47  71
BRANCH  59  82
ATOM     82  C   UNL A   1      45.218  27.414  34.319  1.00  0.00     0.064 A 
ATOM     83  C   UNL A   1      46.385  28.191  34.327  1.00  0.00     0.173 A 
ATOM     84  C   UNL A   1      45.218  26.220  35.056  1.00  0.00     0.173 A 
ATOM     85  F   UNL A   1      46.441  29.333  33.624  1.00  0.00    -0.203 F 
ATOM     86  C   UNL A   1      47.513  27.781  35.033  1.00  0.00     0.198 A 
ATOM     87  C   UNL A   1      46.337  25.827  35.784  1.00  0.00     0.198 A 
ATOM     88  F   UNL A   1      44.124  25.442  35.083  1.00  0.00    -0.203 F 
ATOM     89  F   UNL A   1      48.631  28.519  34.994  1.00  0.00    -0.200 F 
ATOM     90  C   UNL A   1      47.485  26.605  35.767  1.00  0.00     0.200 A 
ATOM     91  F   UNL A   1      46.304  24.697  36.503  1.00  0.00    -0.200 F 
ATOM     92  F   UNL A   1      48.568  26.217  36.455  1.00  0.00    -0.200 F 
ENDBRANCH  59  82
ENDBRANCH  33  34
ENDBRANCH  25  28
ENDBRANCH  23  24
ENDBRANCH   1  23
TORSDOF 13
ENDMDL
MODEL 2
REMARK VINA RESULT:     -10.9      0.326      2.020
REMARK SMILES Cc1ccc([C@H]2C[C@]2([NH3+])C(=O)NCCCCNC(=O)c2ccc(-c3c4nc(c(-c5c(F)c(F)c(F)c(F)c5F)c5ccc([nH]5)c(-c5c(F)c(F)c(F)c(F)c5F)c5nc(c(-c6c(F)c(F)c(F)c(F)c6F)c6ccc3[nH]6)C=C5)C=C4)cc2)cc1C
REMARK SMILES IDX 15 1 14 2 13 3 12 4 10 5 11 6 8 8 6 9 7 10 5 11 1 12 2 13
REMARK SMILES IDX 3 14 84 15 4 16 83 17 85 18 9 19 16 23 17 24 18 25 19 27
REMARK SMILES IDX 20 28 21 29 82 30 22 31 81 32 23 33 24 34 25 35 75 36 26 37
REMARK SMILES IDX 80 38 74 39 76 40 27 41 79 42 73 43 72 44 28 46 60 47 40 48
REMARK SMILES IDX 59 49 41 50 44 51 58 52 77 53 42 54 43 55 57 57 78 58 45 59
REMARK SMILES IDX 29 60 30 61 38 62 31 63 32 64 36 65 39 66 33 67 34 68 37 69
REMARK SMILES IDX 35 70 61 71 62 72 70 73 63 74 64 75 68 76 71 77 65 78 66 79
REMARK SMILES IDX 69 80 67 81 46 82 47 83 55 84 48 85 49 86 53 87 56 88 50 89
REMARK SMILES IDX 51 90 54 91 52 92
REMARK H PARENT 12 7 9 20 9 21 9 22 17 26 76 45 44 56
REMARK Flexibility Score: inf
ROOT
ATOM      1  C   UNL A   1      34.329  35.149  28.241  1.00  0.00     0.023 C 
ENDROOT
BRANCH   1   2
ATOM      2  C   UNL A   1      33.483  36.364  28.623  1.00  0.00     0.023 C 
BRANCH   2   3
ATOM      3  C   UNL A   1      33.478  36.725  30.105  1.00  0.00     0.116 C 
BRANCH   3   4
ATOM      4  N   UNL A   1      32.453  36.038  30.860  1.00  0.00    -0.351 N 
ATOM      5  C   UNL A   1      32.528  35.453  32.101  1.00  0.00     0.281 C 
ATOM      6  O   UNL A   1      31.509  34.986  32.604  1.00  0.00    -0.268 OA
ATOM      7  H   UNL A   1      31.574  35.980  30.421  1.00  0.00     0.163 HD
BRANCH   5   8
ATOM      8  C   UNL A   1      33.865  35.364  32.816  1.00  0.00     0.181 C 
ATOM      9  C   UNL A   1      34.844  34.341  32.254  1.00  0.00     0.097 C 
ATOM     10  C   UNL A   1      34.191  34.099  33.587  1.00  0.00     0.095 C 
BRANCH   9  11
ATOM     11  C   UNL A   1      36.339  34.519  32.159  1.00  0.00    -0.038 A 
ATOM     12  C   UNL A   1      40.691  34.471  32.035  1.00  0.00     0.044 C 
ATOM     13  C   UNL A   1      39.189  34.528  32.039  1.00  0.00    -0.048 A 
ATOM     14  C   UNL A   1      38.517  34.601  33.266  1.00  0.00     0.004 A 
ATOM     15  C   UNL A   1      38.432  34.483  30.855  1.00  0.00    -0.048 A 
ATOM     16  C   UNL A   1      37.120  34.597  33.321  1.00  0.00     0.004 A 
ATOM     17  C   UNL A   1      37.025  34.472  30.937  1.00  0.00     0.008 A 
ATOM     18  C   UNL A   1      39.054  34.419  29.486  1.00  0.00     0.044 C 
ENDBRANCH   9  11
BRANCH   8  19
ATOM     19  N   UNL A   1      34.272  36.599  33.534  1.00  0.00    -0.344 N 
ATOM     20  H   UNL A   1      34.531  37.316  32.856  1.00  0.00     0.345 HD
ATOM     21  H   UNL A   1      35.069  36.396  34.136  1.00  0.00     0.345 HD
ATOM     22  H   UNL A   1      33.493  36.934  34.102  1.00  0.00     0.345 HD
ENDBRANCH   8  19
ENDBRANCH   5   8
ENDBRANCH   3   4
ENDBRANCH   2   3
ENDBRANCH   1   2
BRANCH   1  23
ATOM     23  C   UNL A   1      33.899  33.820  28.853  1.00  0.00     0.116 C 
BRANCH  23  24
ATOM     24  N   UNL A   1      33.308  32.905  27.890  1.00  0.00    -0.352 N 
ATOM     25  C   UNL A   1      33.774  31.698  27.423  1.00  0.00     0.251 C 
ATOM     26  H   UNL A   1      32.443  33.193  27.515  1.00  0.00     0.163 HD
ATOM     27  O   UNL A   1      33.183  31.120  26.517  1.00  0.00    -0.269 OA
BRANCH  25  28
ATOM     28  C   UNL A   1      35.013  31.112  27.981  1.00  0.00     0.039 A 
ATOM     29  C   UNL A   1      36.165  31.901  28.038  1.00  0.00     0.014 A 
ATOM     30  C   UNL A   1      35.039  29.800  28.461  1.00  0.00     0.014 A 
ATOM     31  C   UNL A   1      37.316  31.407  28.656  1.00  0.00     0.010 A 
ATOM     32  C   UNL A   1      36.162  29.335  29.144  1.00  0.00     0.010 A 
ATOM     33  C   UNL A   1      37.308  30.137  29.258  1.00  0.00    -0.014 A 
BRANCH  33  34
ATOM     34  C   UNL A   1      38.478  29.642  30.029  1.00  0.00     0.031 A 
ATOM     35  C   UNL A   1      38.737  30.142  31.423  1.00  0.00     0.074 A 
ATOM     36  C   UNL A   1      39.351  28.797  29.446  1.00  0.00     0.049 A 
ATOM     37  N   UNL A   1      39.746  29.890  32.220  1.00  0.00    -0.248 NA
ATOM     38  C   UNL A   1      37.746  31.070  31.986  1.00  0.00     0.031 C 
ATOM     39  C   UNL A   1      39.242  28.277  28.082  1.00  0.00     0.029 A 
ATOM     40  N   UNL A   1      40.513  28.239  29.920  1.00  0.00    -0.354 N 
ATOM     41  C   UNL A   1      39.518  30.639  33.366  1.00  0.00     0.074 A 
ATOM     42  C   UNL A   1      38.304  31.393  33.144  1.00  0.00     0.031 C 
ATOM     43  C   UNL A   1      40.280  27.462  27.836  1.00  0.00     0.029 A 
ATOM     44  C   UNL A   1      41.150  27.432  29.008  1.00  0.00     0.049 A 
ATOM     45  H   UNL A   1      40.858  28.402  30.827  1.00  0.00     0.167 HD
ATOM     46  C   UNL A   1      40.242  30.674  34.511  1.00  0.00     0.037 A 
ATOM     47  C   UNL A   1      42.310  26.754  29.100  1.00  0.00     0.037 A 
ATOM     48  C   UNL A   1      41.435  29.901  34.740  1.00  0.00     0.049 A 
ATOM     49  C   UNL A   1      43.103  26.823  30.378  1.00  0.00     0.074 A 
ATOM     50  C   UNL A   1      42.194  29.809  35.894  1.00  0.00     0.029 A 
ATOM     51  N   UNL A   1      42.044  29.089  33.795  1.00  0.00    -0.354 N 
ATOM     52  N   UNL A   1      42.834  27.470  31.484  1.00  0.00    -0.248 NA
ATOM     53  C   UNL A   1      44.362  26.064  30.418  1.00  0.00     0.031 C 
ATOM     54  C   UNL A   1      43.290  28.981  35.632  1.00  0.00     0.029 A 
ATOM     55  C   UNL A   1      43.188  28.518  34.331  1.00  0.00     0.049 A 
ATOM     56  H   UNL A   1      41.714  28.940  32.880  1.00  0.00     0.167 HD
ATOM     57  C   UNL A   1      43.875  27.184  32.357  1.00  0.00     0.074 A 
ATOM     58  C   UNL A   1      44.772  26.287  31.659  1.00  0.00     0.031 C 
ATOM     59  C   UNL A   1      44.071  27.626  33.622  1.00  0.00     0.037 A 
BRANCH  46  60
ATOM     60  C   UNL A   1      39.762  31.577  35.609  1.00  0.00     0.064 A 
ATOM     61  C   UNL A   1      40.334  32.840  35.825  1.00  0.00     0.173 A 
ATOM     62  C   UNL A   1      38.691  31.194  36.429  1.00  0.00     0.173 A 
ATOM     63  F   UNL A   1      41.368  33.249  35.074  1.00  0.00    -0.203 F 
ATOM     64  C   UNL A   1      39.872  33.672  36.841  1.00  0.00     0.198 A 
ATOM     65  C   UNL A   1      38.211  32.041  37.425  1.00  0.00     0.198 A 
ATOM     66  F   UNL A   1      38.102  30.000  36.261  1.00  0.00    -0.203 F 
ATOM     67  F   UNL A   1      40.467  34.852  37.060  1.00  0.00    -0.200 F 
ATOM     68  C   UNL A   1      38.807  33.275  37.635  1.00  0.00     0.200 A 
ATOM     69  F   UNL A   1      37.172  31.661  38.182  1.00  0.00    -0.200 F 
ATOM     70  F   UNL A   1      38.359  34.081  38.608  1.00  0.00    -0.200 F 
ENDBRANCH  46  60
BRANCH  47  71
ATOM     71  C   UNL A   1      42.787  25.937  27.954  1.00  0.00     0.064 A 
ATOM     72  C   UNL A   1      42.396  24.598  27.814  1.00  0.00     0.173 A 
ATOM     73  C   UNL A   1      43.646  26.471  26.983  1.00  0.00     0.173 A 
ATOM     74  F   UNL A   1      41.593  24.036  28.730  1.00  0.00    -0.203 F 
ATOM     75  C   UNL A   1      42.860  23.819  26.757  1.00  0.00     0.198 A 
ATOM     76  C   UNL A   1      44.087  25.698  25.910  1.00  0.00     0.198 A 
ATOM     77  F   UNL A   1      44.047  27.747  27.068  1.00  0.00    -0.203 F 
ATOM     78  F   UNL A   1      42.507  22.529  26.672  1.00  0.00    -0.200 F 
ATOM     79  C   UNL A   1      43.701  24.371  25.803  1.00  0.00     0.200 A 
ATOM     80  F   UNL A   1      44.889  26.240  24.983  1.00  0.00    -0.200 F 
ATOM     81  F   UNL A   1      44.145  23.623  24.784  1.00  0.00    -0.200 F 
ENDBRANCH  47  71
BRANCH  59  82
ATOM     82  C   UNL A   1      45.294  27.136  34.343  1.00  0.00     0.064 A 
ATOM     83  C   UNL A   1      45.279  25.947  35.084  1.00  0.00     0.173 A 
ATOM     84  C   UNL A   1      46.505  27.839  34.251  1.00  0.00     0.173 A 
ATOM     85  F   UNL A   1      44.141  25.247  35.216  1.00  0.00    -0.203 F 
ATOM     86  C   UNL A   1      46.428  25.487  35.722  1.00  0.00     0.198 A 
ATOM     87  C   UNL A   1      47.659  27.361  34.866  1.00  0.00     0.198 A 
ATOM     88  F   UNL A   1      46.572  28.981  33.550  1.00  0.00    -0.203 F 
ATOM     89  F   UNL A   1      46.380  24.369  36.460  1.00  0.00    -0.200 F 
ATOM     90  C   UNL A   1      47.618  26.189  35.605  1.00  0.00     0.200 A 
ATOM     91  F   UNL A   1      48.810  28.035  34.741  1.00  0.00    -0.200 F 
ATOM     92  F   UNL A   1      48.726  25.739  36.211  1.00  0.00    -0.200 F 
ENDBRANCH  59  82
ENDBRANCH  33  34
ENDBRANCH  25  28
ENDBRANCH  23  24
ENDBRANCH   1  23
TORSDOF 13
ENDMDL
MODEL 3
REMARK VINA RESULT:     -10.8      3.334      9.722
REMARK SMILES Cc1ccc([C@H]2C[C@]2([NH3+])C(=O)NCCCCNC(=O)c2ccc(-c3c4nc(c(-c5c(F)c(F)c(F)c(F)c5F)c5ccc([nH]5)c(-c5c(F)c(F)c(F)c(F)c5F)c5nc(c(-c6c(F)c(F)c(F)c(F)c6F)c6ccc3[nH]6)C=C5)C=C4)cc2)cc1C
REMARK SMILES IDX 15 1 14 2 13 3 12 4 10 5 11 6 8 8 6 9 7 10 5 11 1 12 2 13
REMARK SMILES IDX 3 14 84 15 4 16 83 17 85 18 9 19 16 23 17 24 18 25 19 27
REMARK SMILES IDX 20 28 21 29 82 30 22 31 81 32 23 33 24 34 25 35 75 36 26 37
REMARK SMILES IDX 80 38 74 39 76 40 27 41 79 42 73 43 72 44 28 46 60 47 40 48
REMARK SMILES IDX 59 49 41 50 44 51 58 52 77 53 42 54 43 55 57 57 78 58 45 59
REMARK SMILES IDX 29 60 30 61 38 62 31 63 32 64 36 65 39 66 33 67 34 68 37 69
REMARK SMILES IDX 35 70 61 71 62 72 70 73 63 74 64 75 68 76 71 77 65 78 66 79
REMARK SMILES IDX 69 80 67 81 46 82 47 83 55 84 48 85 49 86 53 87 56 88 50 89
REMARK SMILES IDX 51 90 54 91 52 92
REMARK H PARENT 12 7 9 20 9 21 9 22 17 26 76 45 44 56
REMARK Flexibility Score: inf
ROOT
ATOM      1  C   UNL A   1      31.596  32.102  26.502  1.00  0.00     0.023 C 
ENDROOT
BRANCH   1   2
ATOM      2  C   UNL A   1      31.494  30.586  26.671  1.00  0.00     0.023 C 
BRANCH   2   3
ATOM      3  C   UNL A   1      32.268  29.754  25.652  1.00  0.00     0.116 C 
BRANCH   3   4
ATOM      4  N   UNL A   1      32.087  28.329  25.819  1.00  0.00    -0.351 N 
ATOM      5  C   UNL A   1      31.540  27.412  24.955  1.00  0.00     0.281 C 
ATOM      6  O   UNL A   1      31.554  26.221  25.260  1.00  0.00    -0.268 OA
ATOM      7  H   UNL A   1      32.400  27.962  26.678  1.00  0.00     0.163 HD
BRANCH   5   8
ATOM      8  C   UNL A   1      30.903  27.880  23.658  1.00  0.00     0.181 C 
ATOM      9  C   UNL A   1      29.629  28.701  23.811  1.00  0.00     0.097 C 
ATOM     10  C   UNL A   1      29.557  27.303  23.263  1.00  0.00     0.095 C 
BRANCH   9  11
ATOM     11  C   UNL A   1      29.238  29.878  22.951  1.00  0.00    -0.038 A 
ATOM     12  C   UNL A   1      27.560  33.165  20.642  1.00  0.00     0.044 C 
ATOM     13  C   UNL A   1      28.186  32.060  21.444  1.00  0.00    -0.048 A 
ATOM     14  C   UNL A   1      28.084  30.743  20.978  1.00  0.00     0.004 A 
ATOM     15  C   UNL A   1      28.850  32.297  22.660  1.00  0.00    -0.048 A 
ATOM     16  C   UNL A   1      28.601  29.676  21.718  1.00  0.00     0.004 A 
ATOM     17  C   UNL A   1      29.355  31.204  23.394  1.00  0.00     0.008 A 
ATOM     18  C   UNL A   1      29.028  33.672  23.244  1.00  0.00     0.044 C 
ENDBRANCH   9  11
BRANCH   8  19
ATOM     19  N   UNL A   1      31.840  28.000  22.512  1.00  0.00    -0.344 N 
ATOM     20  H   UNL A   1      31.937  28.983  22.254  1.00  0.00     0.345 HD
ATOM     21  H   UNL A   1      31.475  27.475  21.718  1.00  0.00     0.345 HD
ATOM     22  H   UNL A   1      32.752  27.626  22.776  1.00  0.00     0.345 HD
ENDBRANCH   8  19
ENDBRANCH   5   8
ENDBRANCH   3   4
ENDBRANCH   2   3
ENDBRANCH   1   2
BRANCH   1  23
ATOM     23  C   UNL A   1      32.687  32.789  27.316  1.00  0.00     0.116 C 
BRANCH  23  24
ATOM     24  N   UNL A   1      32.372  34.168  27.657  1.00  0.00    -0.352 N 
ATOM     25  C   UNL A   1      32.952  34.999  28.587  1.00  0.00     0.251 C 
ATOM     26  H   UNL A   1      31.631  34.566  27.144  1.00  0.00     0.163 HD
ATOM     27  O   UNL A   1      32.467  36.103  28.811  1.00  0.00    -0.269 OA
BRANCH  25  28
ATOM     28  C   UNL A   1      34.137  34.549  29.351  1.00  0.00     0.039 A 
ATOM     29  C   UNL A   1      33.950  34.008  30.626  1.00  0.00     0.014 A 
ATOM     30  C   UNL A   1      35.423  34.643  28.813  1.00  0.00     0.014 A 
ATOM     31  C   UNL A   1      35.039  33.479  31.323  1.00  0.00     0.010 A 
ATOM     32  C   UNL A   1      36.495  34.048  29.475  1.00  0.00     0.010 A 
ATOM     33  C   UNL A   1      36.313  33.451  30.732  1.00  0.00    -0.014 A 
BRANCH  33  34
ATOM     34  C   UNL A   1      37.460  32.783  31.401  1.00  0.00     0.031 A 
ATOM     35  C   UNL A   1      38.143  31.612  30.750  1.00  0.00     0.074 A 
ATOM     36  C   UNL A   1      37.838  33.182  32.631  1.00  0.00     0.049 A 
ATOM     37  N   UNL A   1      39.103  30.851  31.213  1.00  0.00    -0.248 NA
ATOM     38  C   UNL A   1      37.665  31.229  29.413  1.00  0.00     0.031 C 
ATOM     39  C   UNL A   1      37.224  34.271  33.393  1.00  0.00     0.029 A 
ATOM     40  N   UNL A   1      38.820  32.708  33.466  1.00  0.00    -0.354 N 
ATOM     41  C   UNL A   1      39.331  29.893  30.234  1.00  0.00     0.074 A 
ATOM     42  C   UNL A   1      38.377  30.137  29.174  1.00  0.00     0.031 C 
ATOM     43  C   UNL A   1      37.855  34.394  34.571  1.00  0.00     0.029 A 
ATOM     44  C   UNL A   1      38.890  33.370  34.668  1.00  0.00     0.049 A 
ATOM     45  H   UNL A   1      39.417  31.963  33.226  1.00  0.00     0.167 HD
ATOM     46  C   UNL A   1      40.268  28.916  30.210  1.00  0.00     0.037 A 
ATOM     47  C   UNL A   1      39.689  33.167  35.733  1.00  0.00     0.037 A 
ATOM     48  C   UNL A   1      41.235  28.693  31.253  1.00  0.00     0.049 A 
ATOM     49  C   UNL A   1      40.712  32.064  35.686  1.00  0.00     0.074 A 
ATOM     50  C   UNL A   1      42.274  27.778  31.285  1.00  0.00     0.029 A 
ATOM     51  N   UNL A   1      41.279  29.390  32.451  1.00  0.00    -0.354 N 
ATOM     52  N   UNL A   1      40.972  31.217  34.721  1.00  0.00    -0.248 NA
ATOM     53  C   UNL A   1      41.554  31.889  36.879  1.00  0.00     0.031 C 
ATOM     54  C   UNL A   1      42.916  27.888  32.522  1.00  0.00     0.029 A 
ATOM     55  C   UNL A   1      42.309  28.903  33.242  1.00  0.00     0.049 A 
ATOM     56  H   UNL A   1      40.670  30.121  32.703  1.00  0.00     0.167 HD
ATOM     57  C   UNL A   1      42.016  30.425  35.178  1.00  0.00     0.074 A 
ATOM     58  C   UNL A   1      42.356  30.903  36.501  1.00  0.00     0.031 C 
ATOM     59  C   UNL A   1      42.635  29.391  34.559  1.00  0.00     0.037 A 
BRANCH  46  60
ATOM     60  C   UNL A   1      40.298  28.012  29.012  1.00  0.00     0.064 A 
ATOM     61  C   UNL A   1      41.035  28.337  27.864  1.00  0.00     0.173 A 
ATOM     62  C   UNL A   1      39.614  26.787  29.027  1.00  0.00     0.173 A 
ATOM     63  F   UNL A   1      41.699  29.501  27.796  1.00  0.00    -0.203 F 
ATOM     64  C   UNL A   1      41.063  27.484  26.764  1.00  0.00     0.198 A 
ATOM     65  C   UNL A   1      39.667  25.922  27.936  1.00  0.00     0.198 A 
ATOM     66  F   UNL A   1      38.899  26.423  30.102  1.00  0.00    -0.203 F 
ATOM     67  F   UNL A   1      41.735  27.839  25.660  1.00  0.00    -0.200 F 
ATOM     68  C   UNL A   1      40.385  26.275  26.804  1.00  0.00     0.200 A 
ATOM     69  F   UNL A   1      39.023  24.748  27.982  1.00  0.00    -0.200 F 
ATOM     70  F   UNL A   1      40.419  25.452  25.747  1.00  0.00    -0.200 F 
ENDBRANCH  46  60
BRANCH  47  71
ATOM     71  C   UNL A   1      39.567  34.037  36.931  1.00  0.00     0.064 A 
ATOM     72  C   UNL A   1      40.218  35.278  36.988  1.00  0.00     0.173 A 
ATOM     73  C   UNL A   1      38.807  33.648  38.043  1.00  0.00     0.173 A 
ATOM     74  F   UNL A   1      40.975  35.684  35.958  1.00  0.00    -0.203 F 
ATOM     75  C   UNL A   1      40.128  36.087  38.118  1.00  0.00     0.198 A 
ATOM     76  C   UNL A   1      38.695  34.471  39.162  1.00  0.00     0.198 A 
ATOM     77  F   UNL A   1      38.162  32.473  38.038  1.00  0.00    -0.203 F 
ATOM     78  F   UNL A   1      40.797  37.247  38.164  1.00  0.00    -0.200 F 
ATOM     79  C   UNL A   1      39.363  35.686  39.202  1.00  0.00     0.200 A 
ATOM     80  F   UNL A   1      37.944  34.085  40.203  1.00  0.00    -0.200 F 
ATOM     81  F   UNL A   1      39.275  36.466  40.288  1.00  0.00    -0.200 F 
ENDBRANCH  47  71
BRANCH  59  82
ATOM     82  C   UNL A   1      43.755  28.715  35.295  1.00  0.00     0.064 A 
ATOM     83  C   UNL A   1      43.518  27.636  36.158  1.00  0.00     0.173 A 
ATOM     84  C   UNL A   1      45.084  29.120  35.098  1.00  0.00     0.173 A 
ATOM     85  F   UNL A   1      42.263  27.222  36.393  1.00  0.00    -0.203 F 
ATOM     86  C   UNL A   1      44.569  26.999  36.811  1.00  0.00     0.198 A 
ATOM     87  C   UNL A   1      46.135  28.461  35.730  1.00  0.00     0.198 A 
ATOM     88  F   UNL A   1      45.364  30.145  34.278  1.00  0.00    -0.203 F 
ATOM     89  F   UNL A   1      44.316  25.996  37.664  1.00  0.00    -0.200 F 
ATOM     90  C   UNL A   1      45.876  27.405  36.590  1.00  0.00     0.200 A 
ATOM     91  F   UNL A   1      47.397  28.848  35.504  1.00  0.00    -0.200 F 
ATOM     92  F   UNL A   1      46.888  26.783  37.211  1.00  0.00    -0.200 F 
ENDBRANCH  59  82
ENDBRANCH  33  34
ENDBRANCH  25  28
ENDBRANCH  23  24
ENDBRANCH   1  23
TORSDOF 13
ENDMDL
