MODEL 1
REMARK VINA RESULT:     -12.7      0.000      0.000
REMARK SMILES Cc1cc(C(=O)N[C@H](CC(C)C)C(=O)NCCCCNC(=O)c2ccc(-c3c4nc(c(-c5c(F)c(F)c(F)c(F)c5F)c5ccc([nH]5)c(-c5c(F)c(F)c(F)c(F)c5F)c5nc(c(-c6c(F)c(F)c(F)c(F)c6F)c6ccc3[nH]6)C=C5)C=C4)cc2)sc1Br
REMARK SMILES IDX 17 1 16 2 15 3 13 4 14 5 8 7 7 8 5 9 6 10 4 12 1 13 2 14
REMARK SMILES IDX 3 15 87 16 86 17 88 18 9 19 10 20 11 21 12 22 18 23 19 24
REMARK SMILES IDX 20 25 21 26 22 28 23 29 24 30 85 31 25 32 84 33 26 34 27 35
REMARK SMILES IDX 28 36 78 37 29 38 83 39 77 40 79 41 30 42 82 43 76 44 75 45
REMARK SMILES IDX 31 47 63 48 43 49 62 50 44 51 47 52 61 53 80 54 45 55 46 56
REMARK SMILES IDX 60 58 81 59 48 60 32 61 33 62 41 63 34 64 35 65 39 66 42 67
REMARK SMILES IDX 36 68 37 69 40 70 38 71 64 72 65 73 73 74 66 75 67 76 71 77
REMARK SMILES IDX 74 78 68 79 69 80 72 81 70 82 49 83 50 84 58 85 51 86 52 87
REMARK SMILES IDX 56 88 59 89 53 90 54 91 57 92 55 93
REMARK H PARENT 15 6 7 11 20 27 79 46 47 57
REMARK Flexibility Score: inf
ROOT
ATOM      1  C   UNL A   1      32.888  29.729  25.120  1.00  0.00     0.023 C 
ENDROOT
BRANCH   1   2
ATOM      2  C   UNL A   1      31.361  29.675  25.126  1.00  0.00     0.116 C 
BRANCH   2   3
ATOM      3  N   UNL A   1      30.844  29.898  23.790  1.00  0.00    -0.354 N 
ATOM      4  C   UNL A   1      30.764  29.053  22.728  1.00  0.00     0.242 C 
ATOM      5  O   UNL A   1      30.337  29.517  21.665  1.00  0.00    -0.273 OA
ATOM      6  H   UNL A   1      30.496  30.805  23.625  1.00  0.00     0.163 HD
BRANCH   4   7
ATOM      7  C   UNL A   1      31.308  27.616  22.786  1.00  0.00     0.171 C 
BRANCH   7   8
ATOM      8  N   UNL A   1      32.269  27.153  21.763  1.00  0.00    -0.340 N 
ATOM      9  C   UNL A   1      32.940  25.966  21.519  1.00  0.00     0.262 C 
ATOM     10  O   UNL A   1      33.296  25.820  20.346  1.00  0.00    -0.268 OA
ATOM     11  H   UNL A   1      32.480  27.849  21.101  1.00  0.00     0.164 HD
BRANCH   9  12
ATOM     12  C   UNL A   1      33.336  25.049  22.582  1.00  0.00     0.093 A 
ATOM     13  C   UNL A   1      35.749  24.076  25.223  1.00  0.00     0.046 C 
ATOM     14  C   UNL A   1      34.590  24.074  24.289  1.00  0.00    -0.025 A 
ATOM     15  C   UNL A   1      33.915  25.241  23.820  1.00  0.00     0.030 A 
ATOM     16  C   UNL A   1      33.857  23.004  23.850  1.00  0.00     0.074 A 
ATOM     17  S   UNL A   1      33.030  23.348  22.406  1.00  0.00    -0.123 S 
ATOM     18  Br  UNL A   1      33.775  21.397  24.802  1.00  0.00    -0.039 Br
ENDBRANCH   9  12
ENDBRANCH   7   8
BRANCH   7  19
ATOM     19  C   UNL A   1      29.996  26.790  22.725  1.00  0.00     0.038 C 
BRANCH  19  20
ATOM     20  C   UNL A   1      29.565  25.979  23.948  1.00  0.00    -0.015 C 
ATOM     21  C   UNL A   1      30.476  26.228  25.148  1.00  0.00     0.007 C 
ATOM     22  C   UNL A   1      28.128  26.406  24.291  1.00  0.00     0.007 C 
ENDBRANCH  19  20
ENDBRANCH   7  19
ENDBRANCH   4   7
ENDBRANCH   2   3
ENDBRANCH   1   2
BRANCH   1  23
ATOM     23  C   UNL A   1      33.554  28.958  26.269  1.00  0.00     0.023 C 
BRANCH  23  24
ATOM     24  C   UNL A   1      33.731  29.778  27.539  1.00  0.00     0.116 C 
BRANCH  24  25
ATOM     25  N   UNL A   1      34.064  31.173  27.261  1.00  0.00    -0.352 N 
ATOM     26  C   UNL A   1      35.176  31.881  27.685  1.00  0.00     0.251 C 
ATOM     27  H   UNL A   1      33.421  31.670  26.707  1.00  0.00     0.163 HD
ATOM     28  O   UNL A   1      35.170  33.097  27.734  1.00  0.00    -0.269 OA
BRANCH  26  29
ATOM     29  C   UNL A   1      36.390  31.125  28.048  1.00  0.00     0.039 A 
ATOM     30  C   UNL A   1      36.593  29.804  27.630  1.00  0.00     0.014 A 
ATOM     31  C   UNL A   1      37.328  31.770  28.842  1.00  0.00     0.014 A 
ATOM     32  C   UNL A   1      37.788  29.161  27.966  1.00  0.00     0.010 A 
ATOM     33  C   UNL A   1      38.545  31.185  29.058  1.00  0.00     0.010 A 
ATOM     34  C   UNL A   1      38.767  29.865  28.679  1.00  0.00    -0.014 A 
BRANCH  34  35
ATOM     35  C   UNL A   1      40.091  29.313  28.958  1.00  0.00     0.031 A 
ATOM     36  C   UNL A   1      40.359  29.032  30.400  1.00  0.00     0.074 A 
ATOM     37  C   UNL A   1      40.863  28.791  27.974  1.00  0.00     0.049 A 
ATOM     38  N   UNL A   1      41.303  29.515  31.138  1.00  0.00    -0.248 NA
ATOM     39  C   UNL A   1      39.403  28.195  31.149  1.00  0.00     0.031 C 
ATOM     40  C   UNL A   1      40.554  28.672  26.542  1.00  0.00     0.029 A 
ATOM     41  N   UNL A   1      42.031  28.096  28.073  1.00  0.00    -0.354 N 
ATOM     42  C   UNL A   1      41.178  28.912  32.389  1.00  0.00     0.074 A 
ATOM     43  C   UNL A   1      39.903  28.246  32.386  1.00  0.00     0.031 C 
ATOM     44  C   UNL A   1      41.371  27.755  25.973  1.00  0.00     0.029 A 
ATOM     45  C   UNL A   1      42.361  27.338  26.947  1.00  0.00     0.049 A 
ATOM     46  H   UNL A   1      42.599  28.127  28.876  1.00  0.00     0.167 HD
ATOM     47  C   UNL A   1      42.238  28.832  33.243  1.00  0.00     0.037 A 
ATOM     48  C   UNL A   1      43.347  26.403  26.862  1.00  0.00     0.037 A 
ATOM     49  C   UNL A   1      43.303  29.710  32.822  1.00  0.00     0.049 A 
ATOM     50  C   UNL A   1      44.267  26.654  28.003  1.00  0.00     0.074 A 
ATOM     51  C   UNL A   1      43.401  31.073  32.612  1.00  0.00     0.029 A 
ATOM     52  N   UNL A   1      44.371  29.155  32.158  1.00  0.00    -0.354 N 
ATOM     53  N   UNL A   1      45.029  27.710  28.092  1.00  0.00    -0.248 NA
ATOM     54  C   UNL A   1      43.993  25.973  29.261  1.00  0.00     0.031 C 
ATOM     55  C   UNL A   1      44.187  31.202  31.429  1.00  0.00     0.029 A 
ATOM     56  C   UNL A   1      44.594  29.925  31.044  1.00  0.00     0.049 A 
ATOM     57  H   UNL A   1      44.879  28.357  32.430  1.00  0.00     0.167 HD
ATOM     58  C   UNL A   1      44.957  28.079  29.426  1.00  0.00     0.074 A 
ATOM     59  C   UNL A   1      44.382  26.925  30.115  1.00  0.00     0.031 C 
ATOM     60  C   UNL A   1      45.073  29.389  29.794  1.00  0.00     0.037 A 
BRANCH  47  61
ATOM     61  C   UNL A   1      42.481  27.725  34.243  1.00  0.00     0.064 A 
ATOM     62  C   UNL A   1      43.038  26.509  33.792  1.00  0.00     0.173 A 
ATOM     63  C   UNL A   1      41.920  27.690  35.536  1.00  0.00     0.173 A 
ATOM     64  F   UNL A   1      43.598  26.422  32.575  1.00  0.00    -0.203 F 
ATOM     65  C   UNL A   1      42.948  25.330  34.537  1.00  0.00     0.198 A 
ATOM     66  C   UNL A   1      41.882  26.523  36.301  1.00  0.00     0.198 A 
ATOM     67  F   UNL A   1      41.289  28.741  36.069  1.00  0.00    -0.203 F 
ATOM     68  F   UNL A   1      43.369  24.173  34.008  1.00  0.00    -0.200 F 
ATOM     69  C   UNL A   1      42.361  25.337  35.788  1.00  0.00     0.200 A 
ATOM     70  F   UNL A   1      41.298  26.547  37.508  1.00  0.00    -0.200 F 
ATOM     71  F   UNL A   1      42.213  24.198  36.477  1.00  0.00    -0.200 F 
ENDBRANCH  47  61
BRANCH  48  72
ATOM     72  C   UNL A   1      43.457  25.176  26.030  1.00  0.00     0.064 A 
ATOM     73  C   UNL A   1      44.575  24.954  25.206  1.00  0.00     0.173 A 
ATOM     74  C   UNL A   1      42.618  24.065  26.232  1.00  0.00     0.173 A 
ATOM     75  F   UNL A   1      45.445  25.948  24.968  1.00  0.00    -0.203 F 
ATOM     76  C   UNL A   1      44.858  23.695  24.661  1.00  0.00     0.198 A 
ATOM     77  C   UNL A   1      42.907  22.803  25.704  1.00  0.00     0.198 A 
ATOM     78  F   UNL A   1      41.533  24.160  27.005  1.00  0.00    -0.203 F 
ATOM     79  F   UNL A   1      45.962  23.517  23.922  1.00  0.00    -0.200 F 
ATOM     80  C   UNL A   1      44.035  22.615  24.929  1.00  0.00     0.200 A 
ATOM     81  F   UNL A   1      42.121  21.759  26.003  1.00  0.00    -0.200 F 
ATOM     82  F   UNL A   1      44.344  21.394  24.470  1.00  0.00    -0.200 F 
ENDBRANCH  48  72
BRANCH  60  83
ATOM     83  C   UNL A   1      45.491  30.385  28.744  1.00  0.00     0.064 A 
ATOM     84  C   UNL A   1      44.592  31.103  27.933  1.00  0.00     0.173 A 
ATOM     85  C   UNL A   1      46.841  30.741  28.659  1.00  0.00     0.173 A 
ATOM     86  F   UNL A   1      43.274  30.911  28.027  1.00  0.00    -0.203 F 
ATOM     87  C   UNL A   1      45.026  32.087  27.049  1.00  0.00     0.198 A 
ATOM     88  C   UNL A   1      47.271  31.754  27.804  1.00  0.00     0.198 A 
ATOM     89  F   UNL A   1      47.745  30.140  29.449  1.00  0.00    -0.203 F 
ATOM     90  F   UNL A   1      44.139  32.741  26.284  1.00  0.00    -0.200 F 
ATOM     91  C   UNL A   1      46.366  32.418  26.991  1.00  0.00     0.200 A 
ATOM     92  F   UNL A   1      48.563  32.108  27.792  1.00  0.00    -0.200 F 
ATOM     93  F   UNL A   1      46.783  33.395  26.175  1.00  0.00    -0.200 F 
ENDBRANCH  60  83
ENDBRANCH  34  35
ENDBRANCH  26  29
ENDBRANCH  24  25
ENDBRANCH  23  24
ENDBRANCH   1  23
TORSDOF 15
ENDMDL
MODEL 2
REMARK VINA RESULT:     -12.6      3.606      8.868
REMARK SMILES Cc1cc(C(=O)N[C@H](CC(C)C)C(=O)NCCCCNC(=O)c2ccc(-c3c4nc(c(-c5c(F)c(F)c(F)c(F)c5F)c5ccc([nH]5)c(-c5c(F)c(F)c(F)c(F)c5F)c5nc(c(-c6c(F)c(F)c(F)c(F)c6F)c6ccc3[nH]6)C=C5)C=C4)cc2)sc1Br
REMARK SMILES IDX 17 1 16 2 15 3 13 4 14 5 8 7 7 8 5 9 6 10 4 12 1 13 2 14
REMARK SMILES IDX 3 15 87 16 86 17 88 18 9 19 10 20 11 21 12 22 18 23 19 24
REMARK SMILES IDX 20 25 21 26 22 28 23 29 24 30 85 31 25 32 84 33 26 34 27 35
REMARK SMILES IDX 28 36 78 37 29 38 83 39 77 40 79 41 30 42 82 43 76 44 75 45
REMARK SMILES IDX 31 47 63 48 43 49 62 50 44 51 47 52 61 53 80 54 45 55 46 56
REMARK SMILES IDX 60 58 81 59 48 60 32 61 33 62 41 63 34 64 35 65 39 66 42 67
REMARK SMILES IDX 36 68 37 69 40 70 38 71 64 72 65 73 73 74 66 75 67 76 71 77
REMARK SMILES IDX 74 78 68 79 69 80 72 81 70 82 49 83 50 84 58 85 51 86 52 87
REMARK SMILES IDX 56 88 59 89 53 90 54 91 57 92 55 93
REMARK H PARENT 15 6 7 11 20 27 79 46 47 57
REMARK Flexibility Score: inf
ROOT
ATOM      1  C   UNL A   1      38.350  23.757  26.132  1.00  0.00     0.023 C 
ENDROOT
BRANCH   1   2
ATOM      2  C   UNL A   1      36.829  23.878  26.061  1.00  0.00     0.116 C 
BRANCH   2   3
ATOM      3  N   UNL A   1      36.207  22.613  26.402  1.00  0.00    -0.354 N 
ATOM      4  C   UNL A   1      34.905  22.229  26.331  1.00  0.00     0.242 C 
ATOM      5  O   UNL A   1      34.622  21.102  26.752  1.00  0.00    -0.273 OA
ATOM      6  H   UNL A   1      36.825  21.924  26.740  1.00  0.00     0.163 HD
BRANCH   4   7
ATOM      7  C   UNL A   1      33.793  23.191  25.878  1.00  0.00     0.171 C 
BRANCH   7   8
ATOM      8  N   UNL A   1      32.553  23.305  26.673  1.00  0.00    -0.340 N 
ATOM      9  C   UNL A   1      31.455  24.149  26.656  1.00  0.00     0.262 C 
ATOM     10  O   UNL A   1      30.438  23.665  27.163  1.00  0.00    -0.268 OA
ATOM     11  H   UNL A   1      32.492  22.622  27.378  1.00  0.00     0.164 HD
BRANCH   9  12
ATOM     12  C   UNL A   1      31.534  25.540  26.226  1.00  0.00     0.093 A 
ATOM     13  C   UNL A   1      31.801  29.136  27.089  1.00  0.00     0.046 C 
ATOM     14  C   UNL A   1      31.656  27.867  26.325  1.00  0.00    -0.025 A 
ATOM     15  C   UNL A   1      32.258  26.624  26.683  1.00  0.00     0.030 A 
ATOM     16  C   UNL A   1      31.093  27.680  25.091  1.00  0.00     0.074 A 
ATOM     17  S   UNL A   1      30.625  26.066  24.843  1.00  0.00    -0.123 S 
ATOM     18  Br  UNL A   1      30.934  29.069  23.850  1.00  0.00    -0.039 Br
ENDBRANCH   9  12
ENDBRANCH   7   8
BRANCH   7  19
ATOM     19  C   UNL A   1      33.489  22.658  24.453  1.00  0.00     0.038 C 
BRANCH  19  20
ATOM     20  C   UNL A   1      34.007  23.431  23.239  1.00  0.00    -0.015 C 
ATOM     21  C   UNL A   1      33.026  23.382  22.071  1.00  0.00     0.007 C 
ATOM     22  C   UNL A   1      34.212  24.888  23.684  1.00  0.00     0.007 C 
ENDBRANCH  19  20
ENDBRANCH   7  19
ENDBRANCH   4   7
ENDBRANCH   2   3
ENDBRANCH   1   2
BRANCH   1  23
ATOM     23  C   UNL A   1      38.869  22.314  26.211  1.00  0.00     0.023 C 
BRANCH  23  24
ATOM     24  C   UNL A   1      40.064  22.141  27.138  1.00  0.00     0.116 C 
BRANCH  24  25
ATOM     25  N   UNL A   1      41.310  21.921  26.409  1.00  0.00    -0.352 N 
ATOM     26  C   UNL A   1      42.173  22.874  25.895  1.00  0.00     0.251 C 
ATOM     27  H   UNL A   1      41.568  20.982  26.265  1.00  0.00     0.163 HD
ATOM     28  O   UNL A   1      42.947  22.605  24.997  1.00  0.00    -0.269 OA
BRANCH  26  29
ATOM     29  C   UNL A   1      42.155  24.225  26.488  1.00  0.00     0.039 A 
ATOM     30  C   UNL A   1      41.580  25.317  25.828  1.00  0.00     0.014 A 
ATOM     31  C   UNL A   1      42.751  24.382  27.732  1.00  0.00     0.014 A 
ATOM     32  C   UNL A   1      41.551  26.560  26.468  1.00  0.00     0.010 A 
ATOM     33  C   UNL A   1      42.606  25.563  28.405  1.00  0.00     0.010 A 
ATOM     34  C   UNL A   1      42.064  26.673  27.766  1.00  0.00    -0.014 A 
BRANCH  34  35
ATOM     35  C   UNL A   1      41.957  27.899  28.553  1.00  0.00     0.031 A 
ATOM     36  C   UNL A   1      42.993  28.930  28.247  1.00  0.00     0.074 A 
ATOM     37  C   UNL A   1      40.830  28.204  29.242  1.00  0.00     0.049 A 
ATOM     38  N   UNL A   1      43.851  29.455  29.058  1.00  0.00    -0.248 NA
ATOM     39  C   UNL A   1      43.174  29.360  26.848  1.00  0.00     0.031 C 
ATOM     40  C   UNL A   1      39.580  27.433  29.328  1.00  0.00     0.029 A 
ATOM     41  N   UNL A   1      40.497  29.359  29.883  1.00  0.00    -0.354 N 
ATOM     42  C   UNL A   1      44.560  30.407  28.326  1.00  0.00     0.074 A 
ATOM     43  C   UNL A   1      44.219  30.186  26.946  1.00  0.00     0.031 C 
ATOM     44  C   UNL A   1      38.579  28.235  29.759  1.00  0.00     0.029 A 
ATOM     45  C   UNL A   1      39.132  29.523  30.131  1.00  0.00     0.049 A 
ATOM     46  H   UNL A   1      41.169  30.028  30.152  1.00  0.00     0.167 HD
ATOM     47  C   UNL A   1      45.199  31.440  28.946  1.00  0.00     0.037 A 
ATOM     48  C   UNL A   1      38.519  30.659  30.560  1.00  0.00     0.037 A 
ATOM     49  C   UNL A   1      45.310  31.199  30.363  1.00  0.00     0.049 A 
ATOM     50  C   UNL A   1      39.584  31.526  31.132  1.00  0.00     0.074 A 
ATOM     51  C   UNL A   1      45.890  30.204  31.128  1.00  0.00     0.029 A 
ATOM     52  N   UNL A   1      44.424  31.837  31.197  1.00  0.00    -0.354 N 
ATOM     53  N   UNL A   1      40.225  31.242  32.232  1.00  0.00    -0.248 NA
ATOM     54  C   UNL A   1      40.257  32.456  30.236  1.00  0.00     0.031 C 
ATOM     55  C   UNL A   1      44.959  29.967  32.182  1.00  0.00     0.029 A 
ATOM     56  C   UNL A   1      43.920  30.887  32.049  1.00  0.00     0.049 A 
ATOM     57  H   UNL A   1      44.195  32.794  31.185  1.00  0.00     0.167 HD
ATOM     58  C   UNL A   1      41.541  31.587  31.966  1.00  0.00     0.074 A 
ATOM     59  C   UNL A   1      41.487  32.412  30.760  1.00  0.00     0.031 C 
ATOM     60  C   UNL A   1      42.572  30.916  32.560  1.00  0.00     0.037 A 
BRANCH  47  61
ATOM     61  C   UNL A   1      45.409  32.820  28.364  1.00  0.00     0.064 A 
ATOM     62  C   UNL A   1      44.283  33.569  27.960  1.00  0.00     0.173 A 
ATOM     63  C   UNL A   1      46.653  33.306  27.910  1.00  0.00     0.173 A 
ATOM     64  F   UNL A   1      43.046  33.199  28.330  1.00  0.00    -0.203 F 
ATOM     65  C   UNL A   1      44.389  34.656  27.088  1.00  0.00     0.198 A 
ATOM     66  C   UNL A   1      46.759  34.426  27.085  1.00  0.00     0.198 A 
ATOM     67  F   UNL A   1      47.801  32.663  28.148  1.00  0.00    -0.203 F 
ATOM     68  F   UNL A   1      43.280  35.249  26.624  1.00  0.00    -0.200 F 
ATOM     69  C   UNL A   1      45.627  35.078  26.643  1.00  0.00     0.200 A 
ATOM     70  F   UNL A   1      47.969  34.813  26.654  1.00  0.00    -0.200 F 
ATOM     71  F   UNL A   1      45.729  36.076  25.757  1.00  0.00    -0.200 F 
ENDBRANCH  47  61
BRANCH  48  72
ATOM     72  C   UNL A   1      37.143  31.172  30.326  1.00  0.00     0.064 A 
ATOM     73  C   UNL A   1      36.302  31.515  31.400  1.00  0.00     0.173 A 
ATOM     74  C   UNL A   1      36.719  31.605  29.056  1.00  0.00     0.173 A 
ATOM     75  F   UNL A   1      36.630  31.162  32.651  1.00  0.00    -0.203 F 
ATOM     76  C   UNL A   1      35.142  32.279  31.220  1.00  0.00     0.198 A 
ATOM     77  C   UNL A   1      35.572  32.384  28.876  1.00  0.00     0.198 A 
ATOM     78  F   UNL A   1      37.446  31.344  27.967  1.00  0.00    -0.203 F 
ATOM     79  F   UNL A   1      34.396  32.625  32.278  1.00  0.00    -0.200 F 
ATOM     80  C   UNL A   1      34.789  32.732  29.960  1.00  0.00     0.200 A 
ATOM     81  F   UNL A   1      35.264  32.845  27.655  1.00  0.00    -0.200 F 
ATOM     82  F   UNL A   1      33.721  33.525  29.796  1.00  0.00    -0.200 F 
ENDBRANCH  48  72
BRANCH  60  83
ATOM     83  C   UNL A   1      42.241  29.944  33.662  1.00  0.00     0.064 A 
ATOM     84  C   UNL A   1      41.922  28.589  33.451  1.00  0.00     0.173 A 
ATOM     85  C   UNL A   1      42.404  30.356  34.989  1.00  0.00     0.173 A 
ATOM     86  F   UNL A   1      41.857  28.079  32.220  1.00  0.00    -0.203 F 
ATOM     87  C   UNL A   1      41.726  27.708  34.511  1.00  0.00     0.198 A 
ATOM     88  C   UNL A   1      42.247  29.465  36.049  1.00  0.00     0.198 A 
ATOM     89  F   UNL A   1      42.769  31.619  35.259  1.00  0.00    -0.203 F 
ATOM     90  F   UNL A   1      41.410  26.427  34.270  1.00  0.00    -0.200 F 
ATOM     91  C   UNL A   1      41.896  28.146  35.811  1.00  0.00     0.200 A 
ATOM     92  F   UNL A   1      42.467  29.881  37.303  1.00  0.00    -0.200 F 
ATOM     93  F   UNL A   1      41.752  27.291  36.832  1.00  0.00    -0.200 F 
ENDBRANCH  60  83
ENDBRANCH  34  35
ENDBRANCH  26  29
ENDBRANCH  24  25
ENDBRANCH  23  24
ENDBRANCH   1  23
TORSDOF 15
ENDMDL
MODEL 3
REMARK VINA RESULT:     -12.5      1.555      1.906
REMARK SMILES Cc1cc(C(=O)N[C@H](CC(C)C)C(=O)NCCCCNC(=O)c2ccc(-c3c4nc(c(-c5c(F)c(F)c(F)c(F)c5F)c5ccc([nH]5)c(-c5c(F)c(F)c(F)c(F)c5F)c5nc(c(-c6c(F)c(F)c(F)c(F)c6F)c6ccc3[nH]6)C=C5)C=C4)cc2)sc1Br
REMARK SMILES IDX 17 1 16 2 15 3 13 4 14 5 8 7 7 8 5 9 6 10 4 12 1 13 2 14
REMARK SMILES IDX 3 15 87 16 86 17 88 18 9 19 10 20 11 21 12 22 18 23 19 24
REMARK SMILES IDX 20 25 21 26 22 28 23 29 24 30 85 31 25 32 84 33 26 34 27 35
REMARK SMILES IDX 28 36 78 37 29 38 83 39 77 40 79 41 30 42 82 43 76 44 75 45
REMARK SMILES IDX 31 47 63 48 43 49 62 50 44 51 47 52 61 53 80 54 45 55 46 56
REMARK SMILES IDX 60 58 81 59 48 60 32 61 33 62 41 63 34 64 35 65 39 66 42 67
REMARK SMILES IDX 36 68 37 69 40 70 38 71 64 72 65 73 73 74 66 75 67 76 71 77
REMARK SMILES IDX 74 78 68 79 69 80 72 81 70 82 49 83 50 84 58 85 51 86 52 87
REMARK SMILES IDX 56 88 59 89 53 90 54 91 57 92 55 93
REMARK H PARENT 15 6 7 11 20 27 79 46 47 57
REMARK Flexibility Score: inf
ROOT
ATOM      1  C   UNL A   1      34.968  29.510  27.311  1.00  0.00     0.023 C 
ENDROOT
BRANCH   1   2
ATOM      2  C   UNL A   1      34.302  28.454  26.429  1.00  0.00     0.116 C 
BRANCH   2   3
ATOM      3  N   UNL A   1      33.623  29.085  25.313  1.00  0.00    -0.354 N 
ATOM      4  C   UNL A   1      33.030  28.533  24.223  1.00  0.00     0.242 C 
ATOM      5  O   UNL A   1      32.575  29.305  23.372  1.00  0.00    -0.273 OA
ATOM      6  H   UNL A   1      33.587  30.069  25.352  1.00  0.00     0.163 HD
BRANCH   4   7
ATOM      7  C   UNL A   1      33.038  27.016  23.969  1.00  0.00     0.171 C 
BRANCH   7   8
ATOM      8  N   UNL A   1      33.377  26.497  22.627  1.00  0.00    -0.340 N 
ATOM      9  C   UNL A   1      33.342  25.251  22.023  1.00  0.00     0.262 C 
ATOM     10  O   UNL A   1      33.271  25.290  20.791  1.00  0.00    -0.268 OA
ATOM     11  H   UNL A   1      33.703  27.201  22.022  1.00  0.00     0.164 HD
BRANCH   9  12
ATOM     12  C   UNL A   1      33.536  24.009  22.762  1.00  0.00     0.093 A 
ATOM     13  C   UNL A   1      32.166  21.356  24.960  1.00  0.00     0.046 C 
ATOM     14  C   UNL A   1      33.097  22.184  24.145  1.00  0.00    -0.025 A 
ATOM     15  C   UNL A   1      32.734  22.904  22.968  1.00  0.00     0.030 A 
ATOM     16  C   UNL A   1      34.460  22.277  24.247  1.00  0.00     0.074 A 
ATOM     17  S   UNL A   1      35.054  23.707  23.549  1.00  0.00    -0.123 S 
ATOM     18  Br  UNL A   1      35.491  20.928  25.029  1.00  0.00    -0.039 Br
ENDBRANCH   9  12
ENDBRANCH   7   8
BRANCH   7  19
ATOM     19  C   UNL A   1      31.585  26.634  24.358  1.00  0.00     0.038 C 
BRANCH  19  20
ATOM     20  C   UNL A   1      31.344  25.397  25.225  1.00  0.00    -0.015 C 
ATOM     21  C   UNL A   1      32.487  25.157  26.207  1.00  0.00     0.007 C 
ATOM     22  C   UNL A   1      30.037  25.635  25.999  1.00  0.00     0.007 C 
ENDBRANCH  19  20
ENDBRANCH   7  19
ENDBRANCH   4   7
ENDBRANCH   2   3
ENDBRANCH   1   2
BRANCH   1  23
ATOM     23  C   UNL A   1      34.243  30.863  27.336  1.00  0.00     0.023 C 
BRANCH  23  24
ATOM     24  C   UNL A   1      35.132  32.028  27.751  1.00  0.00     0.116 C 
BRANCH  24  25
ATOM     25  N   UNL A   1      34.750  32.589  29.044  1.00  0.00    -0.352 N 
ATOM     26  C   UNL A   1      35.125  32.152  30.304  1.00  0.00     0.251 C 
ATOM     27  H   UNL A   1      34.154  33.372  29.018  1.00  0.00     0.163 HD
ATOM     28  O   UNL A   1      34.467  32.426  31.289  1.00  0.00    -0.269 OA
BRANCH  26  29
ATOM     29  C   UNL A   1      36.368  31.367  30.429  1.00  0.00     0.039 A 
ATOM     30  C   UNL A   1      36.354  29.975  30.580  1.00  0.00     0.014 A 
ATOM     31  C   UNL A   1      37.567  32.066  30.410  1.00  0.00     0.014 A 
ATOM     32  C   UNL A   1      37.568  29.286  30.642  1.00  0.00     0.010 A 
ATOM     33  C   UNL A   1      38.747  31.379  30.342  1.00  0.00     0.010 A 
ATOM     34  C   UNL A   1      38.767  29.999  30.515  1.00  0.00    -0.014 A 
BRANCH  34  35
ATOM     35  C   UNL A   1      40.071  29.344  30.441  1.00  0.00     0.031 A 
ATOM     36  C   UNL A   1      40.716  29.083  31.762  1.00  0.00     0.074 A 
ATOM     37  C   UNL A   1      40.493  28.731  29.308  1.00  0.00     0.049 A 
ATOM     38  N   UNL A   1      41.864  29.504  32.180  1.00  0.00    -0.248 NA
ATOM     39  C   UNL A   1      39.953  28.352  32.791  1.00  0.00     0.031 C 
ATOM     40  C   UNL A   1      39.782  28.597  28.028  1.00  0.00     0.029 A 
ATOM     41  N   UNL A   1      41.586  27.942  29.111  1.00  0.00    -0.354 N 
ATOM     42  C   UNL A   1      42.054  28.950  33.446  1.00  0.00     0.074 A 
ATOM     43  C   UNL A   1      40.785  28.395  33.835  1.00  0.00     0.031 C 
ATOM     44  C   UNL A   1      40.335  27.599  27.301  1.00  0.00     0.029 A 
ATOM     45  C   UNL A   1      41.527  27.127  27.979  1.00  0.00     0.049 A 
ATOM     46  H   UNL A   1      42.359  27.947  29.721  1.00  0.00     0.167 HD
ATOM     47  C   UNL A   1      43.303  28.805  33.971  1.00  0.00     0.037 A 
ATOM     48  C   UNL A   1      42.377  26.110  27.669  1.00  0.00     0.037 A 
ATOM     49  C   UNL A   1      44.267  29.576  33.225  1.00  0.00     0.049 A 
ATOM     50  C   UNL A   1      43.599  26.313  28.492  1.00  0.00     0.074 A 
ATOM     51  C   UNL A   1      44.402  30.919  32.926  1.00  0.00     0.029 A 
ATOM     52  N   UNL A   1      45.059  28.914  32.318  1.00  0.00    -0.354 N 
ATOM     53  N   UNL A   1      44.430  27.303  28.310  1.00  0.00    -0.248 NA
ATOM     54  C   UNL A   1      43.643  25.694  29.810  1.00  0.00     0.031 C 
ATOM     55  C   UNL A   1      44.828  30.947  31.565  1.00  0.00     0.029 A 
ATOM     56  C   UNL A   1      45.013  29.630  31.148  1.00  0.00     0.049 A 
ATOM     57  H   UNL A   1      45.563  28.084  32.477  1.00  0.00     0.167 HD
ATOM     58  C   UNL A   1      44.766  27.714  29.590  1.00  0.00     0.074 A 
ATOM     59  C   UNL A   1      44.326  26.634  30.470  1.00  0.00     0.031 C 
ATOM     60  C   UNL A   1      45.078  29.020  29.843  1.00  0.00     0.037 A 
BRANCH  47  61
ATOM     61  C   UNL A   1      43.738  27.709  34.919  1.00  0.00     0.064 A 
ATOM     62  C   UNL A   1      43.558  26.364  34.533  1.00  0.00     0.173 A 
ATOM     63  C   UNL A   1      44.029  27.913  36.284  1.00  0.00     0.173 A 
ATOM     64  F   UNL A   1      43.273  26.048  33.260  1.00  0.00    -0.203 F 
ATOM     65  C   UNL A   1      43.570  25.318  35.461  1.00  0.00     0.198 A 
ATOM     66  C   UNL A   1      44.096  26.861  37.197  1.00  0.00     0.198 A 
ATOM     67  F   UNL A   1      44.151  29.136  36.813  1.00  0.00    -0.203 F 
ATOM     68  F   UNL A   1      43.259  24.075  35.069  1.00  0.00    -0.200 F 
ATOM     69  C   UNL A   1      43.830  25.570  36.795  1.00  0.00     0.200 A 
ATOM     70  F   UNL A   1      44.339  27.126  38.489  1.00  0.00    -0.200 F 
ATOM     71  F   UNL A   1      43.778  24.582  37.697  1.00  0.00    -0.200 F 
ENDBRANCH  47  61
BRANCH  48  72
ATOM     72  C   UNL A   1      42.156  24.854  26.903  1.00  0.00     0.064 A 
ATOM     73  C   UNL A   1      43.009  24.487  25.847  1.00  0.00     0.173 A 
ATOM     74  C   UNL A   1      41.287  23.848  27.363  1.00  0.00     0.173 A 
ATOM     75  F   UNL A   1      43.887  25.372  25.352  1.00  0.00    -0.203 F 
ATOM     76  C   UNL A   1      43.022  23.190  25.319  1.00  0.00     0.198 A 
ATOM     77  C   UNL A   1      41.310  22.547  26.851  1.00  0.00     0.198 A 
ATOM     78  F   UNL A   1      40.441  24.084  28.370  1.00  0.00    -0.203 F 
ATOM     79  F   UNL A   1      43.887  22.871  24.346  1.00  0.00    -0.200 F 
ATOM     80  C   UNL A   1      42.188  22.214  25.837  1.00  0.00     0.200 A 
ATOM     81  F   UNL A   1      40.522  21.605  27.388  1.00  0.00    -0.200 F 
ATOM     82  F   UNL A   1      42.251  20.954  25.385  1.00  0.00    -0.200 F 
ENDBRANCH  48  72
BRANCH  60  83
ATOM     83  C   UNL A   1      45.254  29.946  28.668  1.00  0.00     0.064 A 
ATOM     84  C   UNL A   1      44.212  30.696  28.090  1.00  0.00     0.173 A 
ATOM     85  C   UNL A   1      46.549  30.204  28.207  1.00  0.00     0.173 A 
ATOM     86  F   UNL A   1      42.960  30.601  28.543  1.00  0.00    -0.203 F 
ATOM     87  C   UNL A   1      44.447  31.616  27.072  1.00  0.00     0.198 A 
ATOM     88  C   UNL A   1      46.790  31.153  27.216  1.00  0.00     0.198 A 
ATOM     89  F   UNL A   1      47.596  29.569  28.757  1.00  0.00    -0.203 F 
ATOM     90  F   UNL A   1      43.426  32.303  26.538  1.00  0.00    -0.200 F 
ATOM     91  C   UNL A   1      45.739  31.850  26.640  1.00  0.00     0.200 A 
ATOM     92  F   UNL A   1      48.048  31.415  26.839  1.00  0.00    -0.200 F 
ATOM     93  F   UNL A   1      45.975  32.765  25.692  1.00  0.00    -0.200 F 
ENDBRANCH  60  83
ENDBRANCH  34  35
ENDBRANCH  26  29
ENDBRANCH  24  25
ENDBRANCH  23  24
ENDBRANCH   1  23
TORSDOF 15
ENDMDL
