MODEL 1
REMARK VINA RESULT:     -13.5      0.000      0.000
REMARK SMILES CCOC(=O)c1c(NC(=O)[C@H]2CCCC[C@@H]2C(=O)NCCCCNC(=O)c2ccc(-c3c4nc(c(-c5c(F)c(F)c(F)c(F)c5F)c5ccc([nH]5)c(-c5c(F)c(F)c(F)c(F)c5F)c5nc(c(-c6c(F)c(F)c(F)c(F)c6F)c6ccc3[nH]6)C=C5)C=C4)cc2)sc2c1CC[C@H](C)C2
REMARK SMILES IDX 20 1 19 2 17 3 18 4 16 6 11 7 12 8 13 9 15 10 14 11 9 12
REMARK SMILES IDX 8 13 10 15 7 16 6 17 92 18 90 19 91 20 93 21 97 22 94 23
REMARK SMILES IDX 95 24 96 25 4 26 5 27 3 28 2 29 1 30 21 31 22 32 23 33 24 34
REMARK SMILES IDX 25 35 26 37 27 38 28 39 89 40 29 41 88 42 30 43 31 44 32 45
REMARK SMILES IDX 82 46 33 47 87 48 81 49 83 50 34 51 86 52 80 53 79 54 35 56
REMARK SMILES IDX 67 57 47 58 66 59 48 60 51 61 65 62 84 63 49 64 50 65 64 67
REMARK SMILES IDX 85 68 52 69 36 70 37 71 45 72 38 73 39 74 43 75 46 76 40 77
REMARK SMILES IDX 41 78 44 79 42 80 68 81 69 82 77 83 70 84 71 85 75 86 78 87
REMARK SMILES IDX 72 88 73 89 76 90 74 91 53 92 54 93 62 94 55 95 56 96 60 97
REMARK SMILES IDX 63 98 57 99 58 100 61 101 59 102
REMARK H PARENT 19 5 8 14 24 36 83 55 51 66
REMARK Flexibility Score: inf
ROOT
ATOM      1  C   UNL A   1      35.745  24.000  24.630  1.00  0.00     0.116 C 
ENDROOT
BRANCH   1   2
ATOM      2  N   UNL A   1      34.537  24.377  23.918  1.00  0.00    -0.356 N 
ATOM      3  C   UNL A   1      33.779  23.449  23.264  1.00  0.00     0.223 C 
ATOM      4  O   UNL A   1      33.929  23.388  22.042  1.00  0.00    -0.275 OA
ATOM      5  H   UNL A   1      34.257  25.321  23.908  1.00  0.00     0.163 HD
BRANCH   3   6
ATOM      6  C   UNL A   1      32.751  22.563  23.997  1.00  0.00     0.091 C 
ATOM      7  C   UNL A   1      32.503  22.900  25.497  1.00  0.00     0.091 C 
ATOM      8  C   UNL A   1      33.145  21.974  26.555  1.00  0.00     0.014 C 
ATOM      9  C   UNL A   1      33.329  20.524  26.141  1.00  0.00     0.001 C 
ATOM     10  C   UNL A   1      32.916  21.069  23.760  1.00  0.00     0.014 C 
ATOM     11  C   UNL A   1      33.895  20.436  24.738  1.00  0.00     0.001 C 
BRANCH   7  12
ATOM     12  C   UNL A   1      31.014  23.020  25.752  1.00  0.00     0.228 C 
ATOM     13  N   UNL A   1      30.415  24.235  25.886  1.00  0.00    -0.317 N 
ATOM     14  H   UNL A   1      29.485  24.198  26.206  1.00  0.00     0.170 HD
ATOM     15  O   UNL A   1      30.287  22.022  25.764  1.00  0.00    -0.274 OA
BRANCH  13  16
ATOM     16  C   UNL A   1      30.888  25.506  25.651  1.00  0.00     0.110 A 
ATOM     17  C   UNL A   1      30.664  26.618  24.841  1.00  0.00     0.098 A 
ATOM     18  C   UNL A   1      31.429  27.751  25.369  1.00  0.00    -0.017 A 
ATOM     19  S   UNL A   1      32.195  25.733  26.735  1.00  0.00    -0.122 S 
ATOM     20  C   UNL A   1      32.231  27.389  26.435  1.00  0.00     0.011 A 
ATOM     21  C   UNL A   1      31.382  29.180  24.910  1.00  0.00     0.038 C 
ATOM     22  C   UNL A   1      33.127  28.280  27.230  1.00  0.00     0.050 C 
ATOM     23  C   UNL A   1      32.605  29.981  25.410  1.00  0.00     0.008 C 
ATOM     24  C   UNL A   1      32.869  29.764  26.917  1.00  0.00    -0.009 C 
ATOM     25  C   UNL A   1      34.055  30.597  27.404  1.00  0.00     0.008 C 
BRANCH  17  26
ATOM     26  C   UNL A   1      29.909  26.660  23.573  1.00  0.00     0.341 C 
ATOM     27  O   UNL A   1      28.733  26.341  23.510  1.00  0.00    -0.246 OA
BRANCH  26  28
ATOM     28  O   UNL A   1      30.629  27.078  22.481  1.00  0.00    -0.462 OA
BRANCH  28  29
ATOM     29  C   UNL A   1      31.658  26.197  21.977  1.00  0.00     0.230 C 
ATOM     30  C   UNL A   1      33.008  26.885  22.010  1.00  0.00     0.049 C 
ENDBRANCH  28  29
ENDBRANCH  26  28
ENDBRANCH  17  26
ENDBRANCH  13  16
ENDBRANCH   7  12
ENDBRANCH   3   6
ENDBRANCH   1   2
BRANCH   1  31
ATOM     31  C   UNL A   1      36.538  22.903  23.907  1.00  0.00     0.023 C 
BRANCH  31  32
ATOM     32  C   UNL A   1      37.393  21.989  24.795  1.00  0.00     0.023 C 
BRANCH  32  33
ATOM     33  C   UNL A   1      38.135  22.714  25.906  1.00  0.00     0.116 C 
BRANCH  33  34
ATOM     34  N   UNL A   1      39.355  22.019  26.334  1.00  0.00    -0.352 N 
ATOM     35  C   UNL A   1      40.587  22.563  26.661  1.00  0.00     0.251 C 
ATOM     36  H   UNL A   1      39.290  21.039  26.396  1.00  0.00     0.163 HD
ATOM     37  O   UNL A   1      41.603  21.889  26.685  1.00  0.00    -0.269 OA
BRANCH  35  38
ATOM     38  C   UNL A   1      40.623  23.984  27.031  1.00  0.00     0.039 A 
ATOM     39  C   UNL A   1      39.731  24.934  26.527  1.00  0.00     0.014 A 
ATOM     40  C   UNL A   1      41.587  24.329  27.970  1.00  0.00     0.014 A 
ATOM     41  C   UNL A   1      39.811  26.237  27.016  1.00  0.00     0.010 A 
ATOM     42  C   UNL A   1      41.481  25.509  28.630  1.00  0.00     0.010 A 
ATOM     43  C   UNL A   1      40.701  26.504  28.064  1.00  0.00    -0.014 A 
BRANCH  43  44
ATOM     44  C   UNL A   1      40.862  27.808  28.676  1.00  0.00     0.031 A 
ATOM     45  C   UNL A   1      41.994  28.587  28.124  1.00  0.00     0.074 A 
ATOM     46  C   UNL A   1      39.860  28.331  29.421  1.00  0.00     0.049 A 
ATOM     47  N   UNL A   1      43.096  28.900  28.717  1.00  0.00    -0.248 NA
ATOM     48  C   UNL A   1      41.989  28.898  26.684  1.00  0.00     0.031 C 
ATOM     49  C   UNL A   1      38.544  27.743  29.724  1.00  0.00     0.029 A 
ATOM     50  N   UNL A   1      39.764  29.563  29.986  1.00  0.00    -0.354 N 
ATOM     51  C   UNL A   1      43.822  29.648  27.795  1.00  0.00     0.074 A 
ATOM     52  C   UNL A   1      43.215  29.396  26.518  1.00  0.00     0.031 C 
ATOM     53  C   UNL A   1      37.720  28.689  30.226  1.00  0.00     0.029 A 
ATOM     54  C   UNL A   1      38.488  29.899  30.437  1.00  0.00     0.049 A 
ATOM     55  H   UNL A   1      40.535  30.170  30.070  1.00  0.00     0.167 HD
ATOM     56  C   UNL A   1      44.660  30.637  28.218  1.00  0.00     0.037 A 
ATOM     57  C   UNL A   1      38.106  31.103  30.932  1.00  0.00     0.037 A 
ATOM     58  C   UNL A   1      44.877  30.522  29.642  1.00  0.00     0.049 A 
ATOM     59  C   UNL A   1      39.347  31.819  31.320  1.00  0.00     0.074 A 
ATOM     60  C   UNL A   1      45.467  29.596  30.477  1.00  0.00     0.029 A 
ATOM     61  N   UNL A   1      44.072  31.299  30.439  1.00  0.00    -0.354 N 
ATOM     62  N   UNL A   1      40.127  31.426  32.290  1.00  0.00    -0.248 NA
ATOM     63  C   UNL A   1      39.972  32.672  30.322  1.00  0.00     0.031 C 
ATOM     64  C   UNL A   1      44.666  29.595  31.659  1.00  0.00     0.029 A 
ATOM     65  C   UNL A   1      43.676  30.570  31.527  1.00  0.00     0.049 A 
ATOM     66  H   UNL A   1      43.821  32.234  30.257  1.00  0.00     0.167 HD
ATOM     67  C   UNL A   1      41.415  31.611  31.806  1.00  0.00     0.074 A 
ATOM     68  C   UNL A   1      41.256  32.470  30.633  1.00  0.00     0.031 C 
ATOM     69  C   UNL A   1      42.432  30.800  32.227  1.00  0.00     0.037 A 
BRANCH  56  70
ATOM     70  C   UNL A   1      44.909  31.949  27.494  1.00  0.00     0.064 A 
ATOM     71  C   UNL A   1      46.146  32.116  26.831  1.00  0.00     0.173 A 
ATOM     72  C   UNL A   1      44.167  33.137  27.678  1.00  0.00     0.173 A 
ATOM     73  F   UNL A   1      46.931  31.059  26.570  1.00  0.00    -0.203 F 
ATOM     74  C   UNL A   1      46.655  33.377  26.511  1.00  0.00     0.198 A 
ATOM     75  C   UNL A   1      44.660  34.390  27.314  1.00  0.00     0.198 A 
ATOM     76  F   UNL A   1      42.987  33.166  28.300  1.00  0.00    -0.203 F 
ATOM     77  F   UNL A   1      47.896  33.487  26.020  1.00  0.00    -0.200 F 
ATOM     78  C   UNL A   1      45.919  34.515  26.771  1.00  0.00     0.200 A 
ATOM     79  F   UNL A   1      43.930  35.484  27.579  1.00  0.00    -0.200 F 
ATOM     80  F   UNL A   1      46.434  35.729  26.540  1.00  0.00    -0.200 F 
ENDBRANCH  56  70
BRANCH  57  81
ATOM     81  C   UNL A   1      36.799  31.787  30.802  1.00  0.00     0.064 A 
ATOM     82  C   UNL A   1      35.974  32.026  31.913  1.00  0.00     0.173 A 
ATOM     83  C   UNL A   1      36.466  32.472  29.618  1.00  0.00     0.173 A 
ATOM     84  F   UNL A   1      36.254  31.454  33.094  1.00  0.00    -0.203 F 
ATOM     85  C   UNL A   1      34.887  32.907  31.846  1.00  0.00     0.198 A 
ATOM     86  C   UNL A   1      35.384  33.352  29.551  1.00  0.00     0.198 A 
ATOM     87  F   UNL A   1      37.246  32.375  28.531  1.00  0.00    -0.203 F 
ATOM     88  F   UNL A   1      34.152  33.150  32.941  1.00  0.00    -0.200 F 
ATOM     89  C   UNL A   1      34.598  33.576  30.668  1.00  0.00     0.200 A 
ATOM     90  F   UNL A   1      35.145  34.029  28.418  1.00  0.00    -0.200 F 
ATOM     91  F   UNL A   1      33.598  34.467  30.618  1.00  0.00    -0.200 F 
ENDBRANCH  57  81
BRANCH  69  92
ATOM     92  C   UNL A   1      42.160  29.926  33.423  1.00  0.00     0.064 A 
ATOM     93  C   UNL A   1      41.728  28.590  33.349  1.00  0.00     0.173 A 
ATOM     94  C   UNL A   1      42.475  30.428  34.691  1.00  0.00     0.173 A 
ATOM     95  F   UNL A   1      41.498  28.004  32.170  1.00  0.00    -0.203 F 
ATOM     96  C   UNL A   1      41.577  27.811  34.495  1.00  0.00     0.198 A 
ATOM     97  C   UNL A   1      42.358  29.638  35.831  1.00  0.00     0.198 A 
ATOM     98  F   UNL A   1      42.946  31.679  34.816  1.00  0.00    -0.203 F 
ATOM     99  F   UNL A   1      41.152  26.541  34.396  1.00  0.00    -0.200 F 
ATOM    100  C   UNL A   1      41.899  28.335  35.735  1.00  0.00     0.200 A 
ATOM    101  F   UNL A   1      42.719  30.134  37.022  1.00  0.00    -0.200 F 
ATOM    102  F   UNL A   1      41.791  27.576  36.835  1.00  0.00    -0.200 F 
ENDBRANCH  69  92
ENDBRANCH  43  44
ENDBRANCH  35  38
ENDBRANCH  33  34
ENDBRANCH  32  33
ENDBRANCH  31  32
ENDBRANCH   1  31
TORSDOF 16
ENDMDL
MODEL 2
REMARK VINA RESULT:     -13.2      2.949      8.619
REMARK SMILES CCOC(=O)c1c(NC(=O)[C@H]2CCCC[C@@H]2C(=O)NCCCCNC(=O)c2ccc(-c3c4nc(c(-c5c(F)c(F)c(F)c(F)c5F)c5ccc([nH]5)c(-c5c(F)c(F)c(F)c(F)c5F)c5nc(c(-c6c(F)c(F)c(F)c(F)c6F)c6ccc3[nH]6)C=C5)C=C4)cc2)sc2c1CC[C@H](C)C2
REMARK SMILES IDX 20 1 19 2 17 3 18 4 16 6 11 7 12 8 13 9 15 10 14 11 9 12
REMARK SMILES IDX 8 13 10 15 7 16 6 17 92 18 90 19 91 20 93 21 97 22 94 23
REMARK SMILES IDX 95 24 96 25 4 26 5 27 3 28 2 29 1 30 21 31 22 32 23 33 24 34
REMARK SMILES IDX 25 35 26 37 27 38 28 39 89 40 29 41 88 42 30 43 31 44 32 45
REMARK SMILES IDX 82 46 33 47 87 48 81 49 83 50 34 51 86 52 80 53 79 54 35 56
REMARK SMILES IDX 67 57 47 58 66 59 48 60 51 61 65 62 84 63 49 64 50 65 64 67
REMARK SMILES IDX 85 68 52 69 36 70 37 71 45 72 38 73 39 74 43 75 46 76 40 77
REMARK SMILES IDX 41 78 44 79 42 80 68 81 69 82 77 83 70 84 71 85 75 86 78 87
REMARK SMILES IDX 72 88 73 89 76 90 74 91 53 92 54 93 62 94 55 95 56 96 60 97
REMARK SMILES IDX 63 98 57 99 58 100 61 101 59 102
REMARK H PARENT 19 5 8 14 24 36 83 55 51 66
REMARK Flexibility Score: inf
ROOT
ATOM      1  C   UNL A   1      31.901  27.739  27.252  1.00  0.00     0.116 C 
ENDROOT
BRANCH   1   2
ATOM      2  N   UNL A   1      31.759  26.425  26.651  1.00  0.00    -0.356 N 
ATOM      3  C   UNL A   1      30.735  26.142  25.795  1.00  0.00     0.223 C 
ATOM      4  O   UNL A   1      29.784  25.520  26.272  1.00  0.00    -0.275 OA
ATOM      5  H   UNL A   1      32.416  25.723  26.865  1.00  0.00     0.163 HD
BRANCH   3   6
ATOM      6  C   UNL A   1      30.783  26.525  24.302  1.00  0.00     0.091 C 
ATOM      7  C   UNL A   1      32.169  26.393  23.605  1.00  0.00     0.091 C 
ATOM      8  C   UNL A   1      32.962  27.692  23.337  1.00  0.00     0.014 C 
ATOM      9  C   UNL A   1      32.128  28.941  23.101  1.00  0.00     0.001 C 
ATOM     10  C   UNL A   1      30.085  27.833  23.959  1.00  0.00     0.014 C 
ATOM     11  C   UNL A   1      31.006  29.034  24.115  1.00  0.00     0.001 C 
BRANCH   7  12
ATOM     12  C   UNL A   1      32.020  25.606  22.319  1.00  0.00     0.228 C 
ATOM     13  N   UNL A   1      32.695  24.441  22.121  1.00  0.00    -0.317 N 
ATOM     14  H   UNL A   1      32.653  24.096  21.200  1.00  0.00     0.170 HD
ATOM     15  O   UNL A   1      31.219  25.955  21.447  1.00  0.00    -0.274 OA
BRANCH  13  16
ATOM     16  C   UNL A   1      33.426  23.662  22.989  1.00  0.00     0.110 A 
ATOM     17  C   UNL A   1      33.435  22.396  23.571  1.00  0.00     0.098 A 
ATOM     18  C   UNL A   1      34.732  22.180  24.216  1.00  0.00    -0.017 A 
ATOM     19  S   UNL A   1      34.743  24.631  23.499  1.00  0.00    -0.122 S 
ATOM     20  C   UNL A   1      35.534  23.304  24.168  1.00  0.00     0.011 A 
ATOM     21  C   UNL A   1      35.244  20.913  24.841  1.00  0.00     0.038 C 
ATOM     22  C   UNL A   1      36.922  23.445  24.703  1.00  0.00     0.050 C 
ATOM     23  C   UNL A   1      36.452  21.180  25.766  1.00  0.00     0.008 C 
ATOM     24  C   UNL A   1      37.514  22.080  25.097  1.00  0.00    -0.009 C 
ATOM     25  C   UNL A   1      38.721  22.298  26.010  1.00  0.00     0.008 C 
BRANCH  17  26
ATOM     26  C   UNL A   1      32.302  21.454  23.674  1.00  0.00     0.341 C 
ATOM     27  O   UNL A   1      31.815  20.920  22.692  1.00  0.00    -0.246 OA
BRANCH  26  28
ATOM     28  O   UNL A   1      31.843  21.233  24.949  1.00  0.00    -0.462 OA
BRANCH  28  29
ATOM     29  C   UNL A   1      31.243  22.345  25.649  1.00  0.00     0.230 C 
ATOM     30  C   UNL A   1      32.070  22.718  26.863  1.00  0.00     0.049 C 
ENDBRANCH  28  29
ENDBRANCH  26  28
ENDBRANCH  17  26
ENDBRANCH  13  16
ENDBRANCH   7  12
ENDBRANCH   3   6
ENDBRANCH   1   2
BRANCH   1  31
ATOM     31  C   UNL A   1      33.284  28.356  27.000  1.00  0.00     0.023 C 
BRANCH  31  32
ATOM     32  C   UNL A   1      33.345  29.889  26.970  1.00  0.00     0.023 C 
BRANCH  32  33
ATOM     33  C   UNL A   1      34.711  30.467  27.305  1.00  0.00     0.116 C 
BRANCH  33  34
ATOM     34  N   UNL A   1      34.642  31.635  28.193  1.00  0.00    -0.352 N 
ATOM     35  C   UNL A   1      35.280  31.834  29.406  1.00  0.00     0.251 C 
ATOM     36  H   UNL A   1      34.067  32.372  27.885  1.00  0.00     0.163 HD
ATOM     37  O   UNL A   1      34.905  32.680  30.199  1.00  0.00    -0.269 OA
BRANCH  35  38
ATOM     38  C   UNL A   1      36.467  31.017  29.690  1.00  0.00     0.039 A 
ATOM     39  C   UNL A   1      36.404  29.677  30.083  1.00  0.00     0.014 A 
ATOM     40  C   UNL A   1      37.687  31.652  29.494  1.00  0.00     0.014 A 
ATOM     41  C   UNL A   1      37.600  28.980  30.244  1.00  0.00     0.010 A 
ATOM     42  C   UNL A   1      38.815  30.907  29.385  1.00  0.00     0.010 A 
ATOM     43  C   UNL A   1      38.797  29.620  29.896  1.00  0.00    -0.014 A 
BRANCH  43  44
ATOM     44  C   UNL A   1      40.103  28.999  29.992  1.00  0.00     0.031 A 
ATOM     45  C   UNL A   1      40.605  28.886  31.380  1.00  0.00     0.074 A 
ATOM     46  C   UNL A   1      40.605  28.318  28.936  1.00  0.00     0.049 A 
ATOM     47  N   UNL A   1      41.594  29.521  31.913  1.00  0.00    -0.248 NA
ATOM     48  C   UNL A   1      39.804  28.120  32.351  1.00  0.00     0.031 C 
ATOM     49  C   UNL A   1      39.988  28.092  27.617  1.00  0.00     0.029 A 
ATOM     50  N   UNL A   1      41.745  27.582  28.853  1.00  0.00    -0.354 N 
ATOM     51  C   UNL A   1      41.681  29.057  33.222  1.00  0.00     0.074 A 
ATOM     52  C   UNL A   1      40.428  28.409  33.494  1.00  0.00     0.031 C 
ATOM     53  C   UNL A   1      40.653  27.117  26.958  1.00  0.00     0.029 A 
ATOM     54  C   UNL A   1      41.830  26.767  27.725  1.00  0.00     0.049 A 
ATOM     55  H   UNL A   1      42.454  27.622  29.535  1.00  0.00     0.167 HD
ATOM     56  C   UNL A   1      42.889  28.986  33.850  1.00  0.00     0.037 A 
ATOM     57  C   UNL A   1      42.806  25.859  27.465  1.00  0.00     0.037 A 
ATOM     58  C   UNL A   1      43.877  29.728  33.099  1.00  0.00     0.049 A 
ATOM     59  C   UNL A   1      43.955  26.206  28.337  1.00  0.00     0.074 A 
ATOM     60  C   UNL A   1      44.070  31.052  32.766  1.00  0.00     0.029 A 
ATOM     61  N   UNL A   1      44.644  28.996  32.225  1.00  0.00    -0.354 N 
ATOM     62  N   UNL A   1      44.646  27.307  28.207  1.00  0.00    -0.248 NA
ATOM     63  C   UNL A   1      44.021  25.580  29.647  1.00  0.00     0.031 C 
ATOM     64  C   UNL A   1      44.612  31.031  31.445  1.00  0.00     0.029 A 
ATOM     65  C   UNL A   1      44.798  29.701  31.063  1.00  0.00     0.049 A 
ATOM     66  H   UNL A   1      45.024  28.107  32.407  1.00  0.00     0.167 HD
ATOM     67  C   UNL A   1      44.872  27.740  29.506  1.00  0.00     0.074 A 
ATOM     68  C   UNL A   1      44.551  26.587  30.348  1.00  0.00     0.031 C 
ATOM     69  C   UNL A   1      45.000  29.074  29.775  1.00  0.00     0.037 A 
BRANCH  56  70
ATOM     70  C   UNL A   1      43.306  27.911  34.838  1.00  0.00     0.064 A 
ATOM     71  C   UNL A   1      43.780  28.323  36.105  1.00  0.00     0.173 A 
ATOM     72  C   UNL A   1      43.568  26.562  34.515  1.00  0.00     0.173 A 
ATOM     73  F   UNL A   1      43.570  29.574  36.540  1.00  0.00    -0.203 F 
ATOM     74  C   UNL A   1      44.568  27.496  36.909  1.00  0.00     0.198 A 
ATOM     75  C   UNL A   1      44.316  25.726  35.344  1.00  0.00     0.198 A 
ATOM     76  F   UNL A   1      43.208  26.010  33.354  1.00  0.00    -0.203 F 
ATOM     77  F   UNL A   1      45.115  27.987  38.029  1.00  0.00    -0.200 F 
ATOM     78  C   UNL A   1      44.852  26.204  36.518  1.00  0.00     0.200 A 
ATOM     79  F   UNL A   1      44.583  24.473  34.943  1.00  0.00    -0.200 F 
ATOM     80  F   UNL A   1      45.671  25.434  37.246  1.00  0.00    -0.200 F 
ENDBRANCH  56  70
BRANCH  57  81
ATOM     81  C   UNL A   1      42.698  24.557  26.768  1.00  0.00     0.064 A 
ATOM     82  C   UNL A   1      43.319  24.327  25.529  1.00  0.00     0.173 A 
ATOM     83  C   UNL A   1      42.218  23.420  27.447  1.00  0.00     0.173 A 
ATOM     84  F   UNL A   1      43.852  25.350  24.844  1.00  0.00    -0.203 F 
ATOM     85  C   UNL A   1      43.459  23.035  25.006  1.00  0.00     0.198 A 
ATOM     86  C   UNL A   1      42.360  22.133  26.926  1.00  0.00     0.198 A 
ATOM     87  F   UNL A   1      41.690  23.532  28.675  1.00  0.00    -0.203 F 
ATOM     88  F   UNL A   1      44.103  22.849  23.844  1.00  0.00    -0.200 F 
ATOM     89  C   UNL A   1      42.988  21.939  25.709  1.00  0.00     0.200 A 
ATOM     90  F   UNL A   1      41.941  21.077  27.640  1.00  0.00    -0.200 F 
ATOM     91  F   UNL A   1      43.176  20.697  25.240  1.00  0.00    -0.200 F 
ENDBRANCH  57  81
BRANCH  69  92
ATOM     92  C   UNL A   1      45.179  29.995  28.597  1.00  0.00     0.064 A 
ATOM     93  C   UNL A   1      44.126  30.636  27.922  1.00  0.00     0.173 A 
ATOM     94  C   UNL A   1      46.483  30.340  28.223  1.00  0.00     0.173 A 
ATOM     95  F   UNL A   1      42.854  30.437  28.281  1.00  0.00    -0.203 F 
ATOM     96  C   UNL A   1      44.369  31.544  26.892  1.00  0.00     0.198 A 
ATOM     97  C   UNL A   1      46.725  31.273  27.220  1.00  0.00     0.198 A 
ATOM     98  F   UNL A   1      47.528  29.802  28.871  1.00  0.00    -0.203 F 
ATOM     99  F   UNL A   1      43.343  32.133  26.257  1.00  0.00    -0.200 F 
ATOM    100  C   UNL A   1      45.670  31.867  26.547  1.00  0.00     0.200 A 
ATOM    101  F   UNL A   1      47.985  31.619  26.925  1.00  0.00    -0.200 F 
ATOM    102  F   UNL A   1      45.907  32.768  25.583  1.00  0.00    -0.200 F 
ENDBRANCH  69  92
ENDBRANCH  43  44
ENDBRANCH  35  38
ENDBRANCH  33  34
ENDBRANCH  32  33
ENDBRANCH  31  32
ENDBRANCH   1  31
TORSDOF 16
ENDMDL
MODEL 3
REMARK VINA RESULT:     -13.0      1.629      2.177
REMARK SMILES CCOC(=O)c1c(NC(=O)[C@H]2CCCC[C@@H]2C(=O)NCCCCNC(=O)c2ccc(-c3c4nc(c(-c5c(F)c(F)c(F)c(F)c5F)c5ccc([nH]5)c(-c5c(F)c(F)c(F)c(F)c5F)c5nc(c(-c6c(F)c(F)c(F)c(F)c6F)c6ccc3[nH]6)C=C5)C=C4)cc2)sc2c1CC[C@H](C)C2
REMARK SMILES IDX 20 1 19 2 17 3 18 4 16 6 11 7 12 8 13 9 15 10 14 11 9 12
REMARK SMILES IDX 8 13 10 15 7 16 6 17 92 18 90 19 91 20 93 21 97 22 94 23
REMARK SMILES IDX 95 24 96 25 4 26 5 27 3 28 2 29 1 30 21 31 22 32 23 33 24 34
REMARK SMILES IDX 25 35 26 37 27 38 28 39 89 40 29 41 88 42 30 43 31 44 32 45
REMARK SMILES IDX 82 46 33 47 87 48 81 49 83 50 34 51 86 52 80 53 79 54 35 56
REMARK SMILES IDX 67 57 47 58 66 59 48 60 51 61 65 62 84 63 49 64 50 65 64 67
REMARK SMILES IDX 85 68 52 69 36 70 37 71 45 72 38 73 39 74 43 75 46 76 40 77
REMARK SMILES IDX 41 78 44 79 42 80 68 81 69 82 77 83 70 84 71 85 75 86 78 87
REMARK SMILES IDX 72 88 73 89 76 90 74 91 53 92 54 93 62 94 55 95 56 96 60 97
REMARK SMILES IDX 63 98 57 99 58 100 61 101 59 102
REMARK H PARENT 19 5 8 14 24 36 83 55 51 66
REMARK Flexibility Score: inf
ROOT
ATOM      1  C   UNL A   1      36.917  22.636  24.248  1.00  0.00     0.116 C 
ENDROOT
BRANCH   1   2
ATOM      2  N   UNL A   1      35.627  22.887  24.866  1.00  0.00    -0.356 N 
ATOM      3  C   UNL A   1      34.861  23.957  24.503  1.00  0.00     0.223 C 
ATOM      4  O   UNL A   1      34.896  24.931  25.257  1.00  0.00    -0.275 OA
ATOM      5  H   UNL A   1      35.297  22.273  25.562  1.00  0.00     0.163 HD
BRANCH   3   6
ATOM      6  C   UNL A   1      33.956  23.932  23.254  1.00  0.00     0.091 C 
ATOM      7  C   UNL A   1      32.828  25.004  23.204  1.00  0.00     0.091 C 
ATOM      8  C   UNL A   1      31.385  24.540  23.508  1.00  0.00     0.014 C 
ATOM      9  C   UNL A   1      31.061  23.102  23.139  1.00  0.00     0.001 C 
ATOM     10  C   UNL A   1      33.458  22.550  22.857  1.00  0.00     0.014 C 
ATOM     11  C   UNL A   1      32.173  22.172  23.579  1.00  0.00     0.001 C 
BRANCH   7  12
ATOM     12  C   UNL A   1      32.868  25.723  21.871  1.00  0.00     0.228 C 
ATOM     13  N   UNL A   1      32.545  27.041  21.769  1.00  0.00    -0.317 N 
ATOM     14  H   UNL A   1      32.449  27.368  20.845  1.00  0.00     0.170 HD
ATOM     15  O   UNL A   1      33.274  25.156  20.852  1.00  0.00    -0.274 OA
BRANCH  13  16
ATOM     16  C   UNL A   1      32.331  27.996  22.737  1.00  0.00     0.110 A 
ATOM     17  C   UNL A   1      31.319  28.781  23.286  1.00  0.00     0.098 A 
ATOM     18  C   UNL A   1      31.814  29.398  24.519  1.00  0.00    -0.017 A 
ATOM     19  S   UNL A   1      33.854  28.282  23.464  1.00  0.00    -0.122 S 
ATOM     20  C   UNL A   1      33.152  29.130  24.738  1.00  0.00     0.011 A 
ATOM     21  C   UNL A   1      31.033  30.204  25.517  1.00  0.00     0.038 C 
ATOM     22  C   UNL A   1      33.982  29.575  25.896  1.00  0.00     0.050 C 
ATOM     23  C   UNL A   1      31.960  31.021  26.444  1.00  0.00     0.008 C 
ATOM     24  C   UNL A   1      33.112  30.167  27.018  1.00  0.00    -0.009 C 
ATOM     25  C   UNL A   1      33.994  30.980  27.967  1.00  0.00     0.008 C 
BRANCH  17  26
ATOM     26  C   UNL A   1      30.003  29.087  22.688  1.00  0.00     0.341 C 
ATOM     27  O   UNL A   1      29.142  28.234  22.550  1.00  0.00    -0.246 OA
BRANCH  26  28
ATOM     28  O   UNL A   1      29.830  30.392  22.300  1.00  0.00    -0.462 OA
BRANCH  28  29
ATOM     29  C   UNL A   1      28.585  30.742  21.656  1.00  0.00     0.230 C 
ATOM     30  C   UNL A   1      28.430  32.248  21.580  1.00  0.00     0.049 C 
ENDBRANCH  28  29
ENDBRANCH  26  28
ENDBRANCH  17  26
ENDBRANCH  13  16
ENDBRANCH   7  12
ENDBRANCH   3   6
ENDBRANCH   1   2
BRANCH   1  31
ATOM     31  C   UNL A   1      38.010  22.312  25.276  1.00  0.00     0.023 C 
BRANCH  31  32
ATOM     32  C   UNL A   1      38.445  23.468  26.186  1.00  0.00     0.023 C 
BRANCH  32  33
ATOM     33  C   UNL A   1      39.504  23.091  27.211  1.00  0.00     0.116 C 
BRANCH  33  34
ATOM     34  N   UNL A   1      40.805  22.776  26.607  1.00  0.00    -0.352 N 
ATOM     35  C   UNL A   1      41.768  23.651  26.132  1.00  0.00     0.251 C 
ATOM     36  H   UNL A   1      41.020  21.819  26.530  1.00  0.00     0.163 HD
ATOM     37  O   UNL A   1      42.647  23.287  25.368  1.00  0.00    -0.269 OA
BRANCH  35  38
ATOM     38  C   UNL A   1      41.727  25.036  26.619  1.00  0.00     0.039 A 
ATOM     39  C   UNL A   1      41.089  26.074  25.936  1.00  0.00     0.014 A 
ATOM     40  C   UNL A   1      42.331  25.250  27.852  1.00  0.00     0.014 A 
ATOM     41  C   UNL A   1      41.045  27.330  26.538  1.00  0.00     0.010 A 
ATOM     42  C   UNL A   1      42.049  26.383  28.543  1.00  0.00     0.010 A 
ATOM     43  C   UNL A   1      41.540  27.463  27.842  1.00  0.00    -0.014 A 
BRANCH  43  44
ATOM     44  C   UNL A   1      41.530  28.706  28.588  1.00  0.00     0.031 A 
ATOM     45  C   UNL A   1      42.645  29.615  28.240  1.00  0.00     0.074 A 
ATOM     46  C   UNL A   1      40.417  29.078  29.262  1.00  0.00     0.049 A 
ATOM     47  N   UNL A   1      43.651  29.943  28.978  1.00  0.00    -0.248 NA
ATOM     48  C   UNL A   1      42.764  30.070  26.843  1.00  0.00     0.031 C 
ATOM     49  C   UNL A   1      39.129  28.370  29.361  1.00  0.00     0.029 A 
ATOM     50  N   UNL A   1      40.163  30.236  29.926  1.00  0.00    -0.354 N 
ATOM     51  C   UNL A   1      44.406  30.831  28.216  1.00  0.00     0.074 A 
ATOM     52  C   UNL A   1      43.956  30.668  26.861  1.00  0.00     0.031 C 
ATOM     53  C   UNL A   1      38.183  29.200  29.855  1.00  0.00     0.029 A 
ATOM     54  C   UNL A   1      38.824  30.433  30.262  1.00  0.00     0.049 A 
ATOM     55  H   UNL A   1      40.869  30.884  30.152  1.00  0.00     0.167 HD
ATOM     56  C   UNL A   1      45.112  31.829  28.820  1.00  0.00     0.037 A 
ATOM     57  C   UNL A   1      38.297  31.551  30.823  1.00  0.00     0.037 A 
ATOM     58  C   UNL A   1      45.189  31.585  30.242  1.00  0.00     0.049 A 
ATOM     59  C   UNL A   1      39.428  32.310  31.411  1.00  0.00     0.074 A 
ATOM     60  C   UNL A   1      45.763  30.623  31.047  1.00  0.00     0.029 A 
ATOM     61  N   UNL A   1      44.246  32.218  31.014  1.00  0.00    -0.354 N 
ATOM     62  N   UNL A   1      40.134  31.876  32.420  1.00  0.00    -0.248 NA
ATOM     63  C   UNL A   1      40.082  33.302  30.573  1.00  0.00     0.031 C 
ATOM     64  C   UNL A   1      44.848  30.444  32.127  1.00  0.00     0.029 A 
ATOM     65  C   UNL A   1      43.801  31.356  31.978  1.00  0.00     0.049 A 
ATOM     66  H   UNL A   1      43.940  33.146  30.894  1.00  0.00     0.167 HD
ATOM     67  C   UNL A   1      41.446  32.200  32.101  1.00  0.00     0.074 A 
ATOM     68  C   UNL A   1      41.339  33.161  31.004  1.00  0.00     0.031 C 
ATOM     69  C   UNL A   1      42.476  31.424  32.555  1.00  0.00     0.037 A 
BRANCH  56  70
ATOM     70  C   UNL A   1      45.327  33.222  28.254  1.00  0.00     0.064 A 
ATOM     71  C   UNL A   1      46.654  33.697  28.149  1.00  0.00     0.173 A 
ATOM     72  C   UNL A   1      44.328  34.210  28.116  1.00  0.00     0.173 A 
ATOM     73  F   UNL A   1      47.693  32.853  28.234  1.00  0.00    -0.203 F 
ATOM     74  C   UNL A   1      46.951  35.060  28.058  1.00  0.00     0.198 A 
ATOM     75  C   UNL A   1      44.630  35.565  27.978  1.00  0.00     0.198 A 
ATOM     76  F   UNL A   1      43.024  33.942  28.205  1.00  0.00    -0.203 F 
ATOM     77  F   UNL A   1      48.227  35.465  28.113  1.00  0.00    -0.200 F 
ATOM     78  C   UNL A   1      45.938  35.994  27.993  1.00  0.00     0.200 A 
ATOM     79  F   UNL A   1      43.630  36.457  27.920  1.00  0.00    -0.200 F 
ATOM     80  F   UNL A   1      46.216  37.304  27.985  1.00  0.00    -0.200 F 
ENDBRANCH  56  70
BRANCH  57  81
ATOM     81  C   UNL A   1      36.958  32.150  30.613  1.00  0.00     0.064 A 
ATOM     82  C   UNL A   1      35.984  32.159  31.624  1.00  0.00     0.173 A 
ATOM     83  C   UNL A   1      36.713  32.980  29.502  1.00  0.00     0.173 A 
ATOM     84  F   UNL A   1      36.167  31.438  32.741  1.00  0.00    -0.203 F 
ATOM     85  C   UNL A   1      34.838  32.959  31.534  1.00  0.00     0.198 A 
ATOM     86  C   UNL A   1      35.572  33.779  29.413  1.00  0.00     0.198 A 
ATOM     87  F   UNL A   1      37.628  33.104  28.528  1.00  0.00    -0.203 F 
ATOM     88  F   UNL A   1      33.954  32.981  32.542  1.00  0.00    -0.200 F 
ATOM     89  C   UNL A   1      34.637  33.775  30.433  1.00  0.00     0.200 A 
ATOM     90  F   UNL A   1      35.415  34.599  28.363  1.00  0.00    -0.200 F 
ATOM     91  F   UNL A   1      33.573  34.588  30.373  1.00  0.00    -0.200 F 
ENDBRANCH  57  81
BRANCH  69  92
ATOM     92  C   UNL A   1      42.154  30.416  33.626  1.00  0.00     0.064 A 
ATOM     93  C   UNL A   1      41.785  29.083  33.377  1.00  0.00     0.173 A 
ATOM     94  C   UNL A   1      42.353  30.787  34.961  1.00  0.00     0.173 A 
ATOM     95  F   UNL A   1      41.668  28.621  32.128  1.00  0.00    -0.203 F 
ATOM     96  C   UNL A   1      41.583  28.178  34.419  1.00  0.00     0.198 A 
ATOM     97  C   UNL A   1      42.187  29.874  35.998  1.00  0.00     0.198 A 
ATOM     98  F   UNL A   1      42.760  32.031  35.255  1.00  0.00    -0.203 F 
ATOM     99  F   UNL A   1      41.220  26.913  34.152  1.00  0.00    -0.200 F 
ATOM    100  C   UNL A   1      41.791  28.574  35.729  1.00  0.00     0.200 A 
ATOM    101  F   UNL A   1      42.438  30.249  37.259  1.00  0.00    -0.200 F 
ATOM    102  F   UNL A   1      41.635  27.696  36.730  1.00  0.00    -0.200 F 
ENDBRANCH  69  92
ENDBRANCH  43  44
ENDBRANCH  35  38
ENDBRANCH  33  34
ENDBRANCH  32  33
ENDBRANCH  31  32
ENDBRANCH   1  31
TORSDOF 16
ENDMDL
