MODEL 1
REMARK VINA RESULT:     -13.0      0.000      0.000
REMARK SMILES C[C@@H]1[NH2+]CC[C@H]1C(=O)NCc1cccc(C(=O)NCCCCNC(=O)c2ccc(-c3c4nc(c(-c5c(F)c(F)c(F)c(F)c5F)c5ccc([nH]5)c(-c5c(F)c(F)c(F)c(F)c5F)c5nc(c(-c6c(F)c(F)c(F)c(F)c6F)c6ccc3[nH]6)C=C5)C=C4)cc2)c1
REMARK SMILES IDX 20 1 19 2 18 3 16 4 17 5 15 7 11 8 12 9 89 10 13 11 14 12
REMARK SMILES IDX 10 13 9 14 7 15 8 16 6 18 1 19 2 20 3 21 4 22 5 25 21 26
REMARK SMILES IDX 22 27 23 28 24 29 25 31 26 32 27 33 88 34 28 35 87 36 29 37
REMARK SMILES IDX 30 38 31 39 81 40 32 41 86 42 80 43 82 44 33 45 85 46 79 47
REMARK SMILES IDX 78 48 34 50 66 51 46 52 65 53 47 54 50 55 64 56 83 57 48 58
REMARK SMILES IDX 49 59 63 61 84 62 51 63 35 64 36 65 44 66 37 67 38 68 42 69
REMARK SMILES IDX 45 70 39 71 40 72 43 73 41 74 67 75 68 76 76 77 69 78 70 79
REMARK SMILES IDX 74 80 77 81 71 82 72 83 75 84 73 85 52 86 53 87 61 88 54 89
REMARK SMILES IDX 55 90 59 91 62 92 56 93 57 94 60 95 58 96
REMARK H PARENT 18 6 9 17 3 23 3 24 23 30 82 49 50 60
REMARK Flexibility Score: inf
ROOT
ATOM      1  C   UNL A   1      31.437  30.696  26.397  1.00  0.00     0.023 C 
ENDROOT
BRANCH   1   2
ATOM      2  C   UNL A   1      32.818  30.060  26.438  1.00  0.00     0.116 C 
BRANCH   2   3
ATOM      3  N   UNL A   1      33.406  29.735  25.146  1.00  0.00    -0.352 N 
ATOM      4  C   UNL A   1      32.901  29.032  24.065  1.00  0.00     0.251 C 
ATOM      5  O   UNL A   1      33.600  28.923  23.058  1.00  0.00    -0.269 OA
ATOM      6  H   UNL A   1      34.322  30.072  25.020  1.00  0.00     0.163 HD
BRANCH   4   7
ATOM      7  C   UNL A   1      31.588  28.329  24.122  1.00  0.00     0.040 A 
ATOM      8  C   UNL A   1      30.381  26.240  24.339  1.00  0.00    -0.028 A 
ATOM      9  C   UNL A   1      29.286  26.814  23.682  1.00  0.00     0.005 A 
ATOM     10  C   UNL A   1      31.446  27.071  24.700  1.00  0.00     0.019 A 
ATOM     11  C   UNL A   1      29.317  28.157  23.303  1.00  0.00     0.001 A 
ATOM     12  C   UNL A   1      30.488  28.898  23.473  1.00  0.00     0.014 A 
BRANCH   8  13
ATOM     13  C   UNL A   1      30.475  24.736  24.465  1.00  0.00     0.151 C 
BRANCH  13  14
ATOM     14  N   UNL A   1      30.268  24.250  25.817  1.00  0.00    -0.352 N 
ATOM     15  C   UNL A   1      30.904  23.289  26.533  1.00  0.00     0.229 C 
ATOM     16  O   UNL A   1      30.409  22.979  27.619  1.00  0.00    -0.275 OA
ATOM     17  H   UNL A   1      29.536  24.698  26.299  1.00  0.00     0.163 HD
BRANCH  15  18
ATOM     18  C   UNL A   1      32.184  22.635  26.046  1.00  0.00     0.142 C 
ATOM     19  C   UNL A   1      34.405  22.874  27.244  1.00  0.00     0.076 C 
ATOM     20  C   UNL A   1      33.078  22.124  27.175  1.00  0.00     0.192 C 
ATOM     21  N   UNL A   1      33.348  20.701  26.916  1.00  0.00    -0.343 N 
ATOM     22  C   UNL A   1      32.918  20.392  25.554  1.00  0.00     0.261 C 
ATOM     23  H   UNL A   1      32.829  20.125  27.581  1.00  0.00     0.346 HD
ATOM     24  H   UNL A   1      34.343  20.507  27.022  1.00  0.00     0.346 HD
ATOM     25  C   UNL A   1      31.921  21.452  25.128  1.00  0.00     0.081 C 
ENDBRANCH  15  18
ENDBRANCH  13  14
ENDBRANCH   8  13
ENDBRANCH   4   7
ENDBRANCH   2   3
ENDBRANCH   1   2
BRANCH   1  26
ATOM     26  C   UNL A   1      31.387  32.209  26.506  1.00  0.00     0.023 C 
BRANCH  26  27
ATOM     27  C   UNL A   1      32.547  32.856  27.247  1.00  0.00     0.116 C 
BRANCH  27  28
ATOM     28  N   UNL A   1      32.310  34.239  27.632  1.00  0.00    -0.352 N 
ATOM     29  C   UNL A   1      32.947  35.001  28.588  1.00  0.00     0.251 C 
ATOM     30  H   UNL A   1      31.593  34.698  27.138  1.00  0.00     0.163 HD
ATOM     31  O   UNL A   1      32.552  36.126  28.848  1.00  0.00    -0.269 OA
BRANCH  29  32
ATOM     32  C   UNL A   1      34.096  34.433  29.332  1.00  0.00     0.039 A 
ATOM     33  C   UNL A   1      33.857  33.781  30.544  1.00  0.00     0.014 A 
ATOM     34  C   UNL A   1      35.396  34.532  28.835  1.00  0.00     0.014 A 
ATOM     35  C   UNL A   1      34.915  33.171  31.221  1.00  0.00     0.010 A 
ATOM     36  C   UNL A   1      36.429  33.838  29.454  1.00  0.00     0.010 A 
ATOM     37  C   UNL A   1      36.205  33.168  30.665  1.00  0.00    -0.014 A 
BRANCH  37  38
ATOM     38  C   UNL A   1      37.344  32.517  31.360  1.00  0.00     0.031 A 
ATOM     39  C   UNL A   1      38.073  31.381  30.694  1.00  0.00     0.074 A 
ATOM     40  C   UNL A   1      37.688  32.906  32.604  1.00  0.00     0.049 A 
ATOM     41  N   UNL A   1      39.054  30.643  31.148  1.00  0.00    -0.248 NA
ATOM     42  C   UNL A   1      37.615  31.001  29.347  1.00  0.00     0.031 C 
ATOM     43  C   UNL A   1      37.025  33.955  33.378  1.00  0.00     0.029 A 
ATOM     44  N   UNL A   1      38.683  32.457  33.436  1.00  0.00    -0.354 N 
ATOM     45  C   UNL A   1      39.312  29.707  30.156  1.00  0.00     0.074 A 
ATOM     46  C   UNL A   1      38.342  29.922  29.105  1.00  0.00     0.031 C 
ATOM     47  C   UNL A   1      37.648  34.090  34.559  1.00  0.00     0.029 A 
ATOM     48  C   UNL A   1      38.733  33.116  34.641  1.00  0.00     0.049 A 
ATOM     49  H   UNL A   1      39.301  31.730  33.194  1.00  0.00     0.167 HD
ATOM     50  C   UNL A   1      40.291  28.772  30.106  1.00  0.00     0.037 A 
ATOM     51  C   UNL A   1      39.562  32.952  35.689  1.00  0.00     0.037 A 
ATOM     52  C   UNL A   1      41.276  28.583  31.137  1.00  0.00     0.049 A 
ATOM     53  C   UNL A   1      40.652  31.915  35.604  1.00  0.00     0.074 A 
ATOM     54  C   UNL A   1      42.341  27.701  31.164  1.00  0.00     0.029 A 
ATOM     55  N   UNL A   1      41.316  29.297  32.327  1.00  0.00    -0.354 N 
ATOM     56  N   UNL A   1      40.929  31.082  34.631  1.00  0.00    -0.248 NA
ATOM     57  C   UNL A   1      41.555  31.810  36.758  1.00  0.00     0.031 C 
ATOM     58  C   UNL A   1      42.999  27.849  32.388  1.00  0.00     0.029 A 
ATOM     59  C   UNL A   1      42.381  28.866  33.100  1.00  0.00     0.049 A 
ATOM     60  H   UNL A   1      40.682  30.004  32.583  1.00  0.00     0.167 HD
ATOM     61  C   UNL A   1      42.060  30.385  35.036  1.00  0.00     0.074 A 
ATOM     62  C   UNL A   1      42.422  30.900  36.339  1.00  0.00     0.031 C 
ATOM     63  C   UNL A   1      42.740  29.407  34.386  1.00  0.00     0.037 A 
BRANCH  50  64
ATOM     64  C   UNL A   1      40.345  27.890  28.891  1.00  0.00     0.064 A 
ATOM     65  C   UNL A   1      41.109  28.235  27.764  1.00  0.00     0.173 A 
ATOM     66  C   UNL A   1      39.645  26.676  28.860  1.00  0.00     0.173 A 
ATOM     67  F   UNL A   1      41.788  29.391  27.735  1.00  0.00    -0.203 F 
ATOM     68  C   UNL A   1      41.138  27.415  26.639  1.00  0.00     0.198 A 
ATOM     69  C   UNL A   1      39.706  25.840  27.747  1.00  0.00     0.198 A 
ATOM     70  F   UNL A   1      38.904  26.294  29.911  1.00  0.00    -0.203 F 
ATOM     71  F   UNL A   1      41.827  27.795  25.552  1.00  0.00    -0.200 F 
ATOM     72  C   UNL A   1      40.444  26.215  26.634  1.00  0.00     0.200 A 
ATOM     73  F   UNL A   1      39.045  24.674  27.749  1.00  0.00    -0.200 F 
ATOM     74  F   UNL A   1      40.479  25.423  25.554  1.00  0.00    -0.200 F 
ENDBRANCH  50  64
BRANCH  51  75
ATOM     75  C   UNL A   1      39.425  33.814  36.892  1.00  0.00     0.064 A 
ATOM     76  C   UNL A   1      38.689  33.384  38.006  1.00  0.00     0.173 A 
ATOM     77  C   UNL A   1      40.010  35.087  36.951  1.00  0.00     0.173 A 
ATOM     78  F   UNL A   1      38.095  32.182  37.992  1.00  0.00    -0.203 F 
ATOM     79  C   UNL A   1      38.520  34.205  39.120  1.00  0.00     0.198 A 
ATOM     80  C   UNL A   1      39.866  35.895  38.078  1.00  0.00     0.198 A 
ATOM     81  F   UNL A   1      40.728  35.545  35.915  1.00  0.00    -0.203 F 
ATOM     82  F   UNL A   1      37.769  33.789  40.148  1.00  0.00    -0.200 F 
ATOM     83  C   UNL A   1      39.113  35.458  39.157  1.00  0.00     0.200 A 
ATOM     84  F   UNL A   1      40.453  37.099  38.116  1.00  0.00    -0.200 F 
ATOM     85  F   UNL A   1      38.952  36.246  40.228  1.00  0.00    -0.200 F 
ENDBRANCH  51  75
BRANCH  63  86
ATOM     86  C   UNL A   1      43.982  28.877  35.043  1.00  0.00     0.064 A 
ATOM     87  C   UNL A   1      45.229  29.500  34.889  1.00  0.00     0.173 A 
ATOM     88  C   UNL A   1      43.911  27.744  35.868  1.00  0.00     0.173 A 
ATOM     89  F   UNL A   1      45.353  30.578  34.101  1.00  0.00    -0.203 F 
ATOM     90  C   UNL A   1      46.365  28.987  35.509  1.00  0.00     0.198 A 
ATOM     91  C   UNL A   1      45.042  27.255  36.514  1.00  0.00     0.198 A 
ATOM     92  F   UNL A   1      42.741  27.116  36.058  1.00  0.00    -0.203 F 
ATOM     93  F   UNL A   1      47.557  29.565  35.301  1.00  0.00    -0.200 F 
ATOM     94  C   UNL A   1      46.270  27.871  36.326  1.00  0.00     0.200 A 
ATOM     95  F   UNL A   1      44.945  26.186  37.316  1.00  0.00    -0.200 F 
ATOM     96  F   UNL A   1      47.365  27.382  36.926  1.00  0.00    -0.200 F 
ENDBRANCH  63  86
ENDBRANCH  37  38
ENDBRANCH  29  32
ENDBRANCH  27  28
ENDBRANCH  26  27
ENDBRANCH   1  26
TORSDOF 14
ENDMDL
MODEL 2
REMARK VINA RESULT:     -12.9      1.800      7.683
REMARK SMILES C[C@@H]1[NH2+]CC[C@H]1C(=O)NCc1cccc(C(=O)NCCCCNC(=O)c2ccc(-c3c4nc(c(-c5c(F)c(F)c(F)c(F)c5F)c5ccc([nH]5)c(-c5c(F)c(F)c(F)c(F)c5F)c5nc(c(-c6c(F)c(F)c(F)c(F)c6F)c6ccc3[nH]6)C=C5)C=C4)cc2)c1
REMARK SMILES IDX 20 1 19 2 18 3 16 4 17 5 15 7 11 8 12 9 89 10 13 11 14 12
REMARK SMILES IDX 10 13 9 14 7 15 8 16 6 18 1 19 2 20 3 21 4 22 5 25 21 26
REMARK SMILES IDX 22 27 23 28 24 29 25 31 26 32 27 33 88 34 28 35 87 36 29 37
REMARK SMILES IDX 30 38 31 39 81 40 32 41 86 42 80 43 82 44 33 45 85 46 79 47
REMARK SMILES IDX 78 48 34 50 66 51 46 52 65 53 47 54 50 55 64 56 83 57 48 58
REMARK SMILES IDX 49 59 63 61 84 62 51 63 35 64 36 65 44 66 37 67 38 68 42 69
REMARK SMILES IDX 45 70 39 71 40 72 43 73 41 74 67 75 68 76 76 77 69 78 70 79
REMARK SMILES IDX 74 80 77 81 71 82 72 83 75 84 73 85 52 86 53 87 61 88 54 89
REMARK SMILES IDX 55 90 59 91 62 92 56 93 57 94 60 95 58 96
REMARK H PARENT 18 6 9 17 3 23 3 24 23 30 82 49 50 60
REMARK Flexibility Score: inf
ROOT
ATOM      1  C   UNL A   1      31.446  30.851  26.103  1.00  0.00     0.023 C 
ENDROOT
BRANCH   1   2
ATOM      2  C   UNL A   1      31.806  29.849  27.189  1.00  0.00     0.116 C 
BRANCH   2   3
ATOM      3  N   UNL A   1      33.229  29.648  27.421  1.00  0.00    -0.352 N 
ATOM      4  C   UNL A   1      34.179  28.939  26.705  1.00  0.00     0.251 C 
ATOM      5  O   UNL A   1      35.343  28.952  27.101  1.00  0.00    -0.269 OA
ATOM      6  H   UNL A   1      33.576  30.092  28.228  1.00  0.00     0.163 HD
BRANCH   4   7
ATOM      7  C   UNL A   1      33.816  28.090  25.535  1.00  0.00     0.040 A 
ATOM      8  C   UNL A   1      33.763  25.887  24.530  1.00  0.00    -0.028 A 
ATOM      9  C   UNL A   1      33.733  26.475  23.259  1.00  0.00     0.005 A 
ATOM     10  C   UNL A   1      33.626  26.716  25.647  1.00  0.00     0.019 A 
ATOM     11  C   UNL A   1      33.681  27.864  23.128  1.00  0.00     0.001 A 
ATOM     12  C   UNL A   1      33.778  28.672  24.264  1.00  0.00     0.014 A 
BRANCH   8  13
ATOM     13  C   UNL A   1      34.133  24.427  24.670  1.00  0.00     0.151 C 
BRANCH  13  14
ATOM     14  N   UNL A   1      34.956  23.927  23.583  1.00  0.00    -0.352 N 
ATOM     15  C   UNL A   1      35.921  22.974  23.554  1.00  0.00     0.229 C 
ATOM     16  O   UNL A   1      36.568  22.864  22.510  1.00  0.00    -0.275 OA
ATOM     17  H   UNL A   1      34.782  24.356  22.714  1.00  0.00     0.163 HD
BRANCH  15  18
ATOM     18  C   UNL A   1      36.188  22.059  24.736  1.00  0.00     0.142 C 
ATOM     19  C   UNL A   1      34.358  21.215  26.272  1.00  0.00     0.076 C 
ATOM     20  C   UNL A   1      35.098  21.010  24.954  1.00  0.00     0.192 C 
ATOM     21  N   UNL A   1      35.751  19.692  24.973  1.00  0.00    -0.343 N 
ATOM     22  C   UNL A   1      37.194  19.895  25.073  1.00  0.00     0.261 C 
ATOM     23  H   UNL A   1      35.532  19.185  24.114  1.00  0.00     0.346 HD
ATOM     24  H   UNL A   1      35.417  19.146  25.768  1.00  0.00     0.346 HD
ATOM     25  C   UNL A   1      37.500  21.304  24.604  1.00  0.00     0.081 C 
ENDBRANCH  15  18
ENDBRANCH  13  14
ENDBRANCH   8  13
ENDBRANCH   4   7
ENDBRANCH   2   3
ENDBRANCH   1   2
BRANCH   1  26
ATOM     26  C   UNL A   1      31.305  32.298  26.538  1.00  0.00     0.023 C 
BRANCH  26  27
ATOM     27  C   UNL A   1      32.547  32.926  27.152  1.00  0.00     0.116 C 
BRANCH  27  28
ATOM     28  N   UNL A   1      32.345  34.275  27.658  1.00  0.00    -0.352 N 
ATOM     29  C   UNL A   1      33.027  34.948  28.650  1.00  0.00     0.251 C 
ATOM     30  H   UNL A   1      31.617  34.781  27.231  1.00  0.00     0.163 HD
ATOM     31  O   UNL A   1      32.658  36.052  29.016  1.00  0.00    -0.269 OA
BRANCH  29  32
ATOM     32  C   UNL A   1      34.193  34.307  29.302  1.00  0.00     0.039 A 
ATOM     33  C   UNL A   1      33.969  33.357  30.301  1.00  0.00     0.014 A 
ATOM     34  C   UNL A   1      35.497  34.631  28.923  1.00  0.00     0.014 A 
ATOM     35  C   UNL A   1      35.052  32.685  30.872  1.00  0.00     0.010 A 
ATOM     36  C   UNL A   1      36.565  33.889  29.416  1.00  0.00     0.010 A 
ATOM     37  C   UNL A   1      36.357  32.924  30.411  1.00  0.00    -0.014 A 
BRANCH  37  38
ATOM     38  C   UNL A   1      37.523  32.214  30.995  1.00  0.00     0.031 A 
ATOM     39  C   UNL A   1      38.006  32.581  32.373  1.00  0.00     0.074 A 
ATOM     40  C   UNL A   1      38.179  31.285  30.272  1.00  0.00     0.049 A 
ATOM     41  N   UNL A   1      39.035  32.125  33.041  1.00  0.00    -0.248 NA
ATOM     42  C   UNL A   1      37.249  33.626  33.082  1.00  0.00     0.031 C 
ATOM     43  C   UNL A   1      37.845  30.881  28.907  1.00  0.00     0.029 A 
ATOM     44  N   UNL A   1      39.271  30.515  30.589  1.00  0.00    -0.354 N 
ATOM     45  C   UNL A   1      39.057  32.840  34.232  1.00  0.00     0.074 A 
ATOM     46  C   UNL A   1      37.984  33.807  34.168  1.00  0.00     0.031 C 
ATOM     47  C   UNL A   1      38.692  29.917  28.513  1.00  0.00     0.029 A 
ATOM     48  C   UNL A   1      39.651  29.658  29.585  1.00  0.00     0.049 A 
ATOM     49  H   UNL A   1      39.737  30.571  31.454  1.00  0.00     0.167 HD
ATOM     50  C   UNL A   1      39.876  32.684  35.300  1.00  0.00     0.037 A 
ATOM     51  C   UNL A   1      40.658  28.765  29.537  1.00  0.00     0.037 A 
ATOM     52  C   UNL A   1      40.920  31.697  35.374  1.00  0.00     0.049 A 
ATOM     53  C   UNL A   1      41.546  28.599  30.742  1.00  0.00     0.074 A 
ATOM     54  C   UNL A   1      41.773  31.419  36.427  1.00  0.00     0.029 A 
ATOM     55  N   UNL A   1      41.250  30.822  34.349  1.00  0.00    -0.354 N 
ATOM     56  N   UNL A   1      41.514  29.233  31.889  1.00  0.00    -0.248 NA
ATOM     57  C   UNL A   1      42.600  27.579  30.651  1.00  0.00     0.031 C 
ATOM     58  C   UNL A   1      42.648  30.407  36.024  1.00  0.00     0.029 A 
ATOM     59  C   UNL A   1      42.303  30.011  34.742  1.00  0.00     0.049 A 
ATOM     60  H   UNL A   1      40.803  30.783  33.473  1.00  0.00     0.167 HD
ATOM     61  C   UNL A   1      42.511  28.662  32.669  1.00  0.00     0.074 A 
ATOM     62  C   UNL A   1      43.125  27.625  31.867  1.00  0.00     0.031 C 
ATOM     63  C   UNL A   1      42.885  28.967  33.937  1.00  0.00     0.037 A 
BRANCH  50  64
ATOM     64  C   UNL A   1      39.664  33.596  36.474  1.00  0.00     0.064 A 
ATOM     65  C   UNL A   1      38.840  33.233  37.551  1.00  0.00     0.173 A 
ATOM     66  C   UNL A   1      40.311  34.839  36.536  1.00  0.00     0.173 A 
ATOM     67  F   UNL A   1      38.188  32.060  37.538  1.00  0.00    -0.203 F 
ATOM     68  C   UNL A   1      38.642  34.095  38.626  1.00  0.00     0.198 A 
ATOM     69  C   UNL A   1      40.139  35.684  37.629  1.00  0.00     0.198 A 
ATOM     70  F   UNL A   1      41.115  35.235  35.537  1.00  0.00    -0.203 F 
ATOM     71  F   UNL A   1      37.803  33.750  39.614  1.00  0.00    -0.200 F 
ATOM     72  C   UNL A   1      39.298  35.316  38.669  1.00  0.00     0.200 A 
ATOM     73  F   UNL A   1      40.785  36.858  37.676  1.00  0.00    -0.200 F 
ATOM     74  F   UNL A   1      39.112  36.142  39.707  1.00  0.00    -0.200 F 
ENDBRANCH  50  64
BRANCH  51  75
ATOM     75  C   UNL A   1      40.856  27.928  28.325  1.00  0.00     0.064 A 
ATOM     76  C   UNL A   1      40.268  26.658  28.222  1.00  0.00     0.173 A 
ATOM     77  C   UNL A   1      41.646  28.367  27.252  1.00  0.00     0.173 A 
ATOM     78  F   UNL A   1      39.518  26.185  29.229  1.00  0.00    -0.203 F 
ATOM     79  C   UNL A   1      40.485  25.851  27.108  1.00  0.00     0.198 A 
ATOM     80  C   UNL A   1      41.837  27.570  26.124  1.00  0.00     0.198 A 
ATOM     81  F   UNL A   1      42.226  29.575  27.296  1.00  0.00    -0.203 F 
ATOM     82  F   UNL A   1      39.953  24.622  27.061  1.00  0.00    -0.200 F 
ATOM     83  C   UNL A   1      41.265  26.309  26.058  1.00  0.00     0.200 A 
ATOM     84  F   UNL A   1      42.580  28.023  25.105  1.00  0.00    -0.200 F 
ATOM     85  F   UNL A   1      41.472  25.533  24.986  1.00  0.00    -0.200 F 
ENDBRANCH  51  75
BRANCH  63  86
ATOM     86  C   UNL A   1      43.963  28.127  34.560  1.00  0.00     0.064 A 
ATOM     87  C   UNL A   1      43.679  26.924  35.222  1.00  0.00     0.173 A 
ATOM     88  C   UNL A   1      45.306  28.521  34.458  1.00  0.00     0.173 A 
ATOM     89  F   UNL A   1      42.410  26.510  35.357  1.00  0.00    -0.203 F 
ATOM     90  C   UNL A   1      44.697  26.164  35.791  1.00  0.00     0.198 A 
ATOM     91  C   UNL A   1      46.325  27.741  34.999  1.00  0.00     0.198 A 
ATOM     92  F   UNL A   1      45.633  29.657  33.826  1.00  0.00    -0.203 F 
ATOM     93  F   UNL A   1      44.397  25.048  36.470  1.00  0.00    -0.200 F 
ATOM     94  C   UNL A   1      46.018  26.569  35.673  1.00  0.00     0.200 A 
ATOM     95  F   UNL A   1      47.602  28.125  34.869  1.00  0.00    -0.200 F 
ATOM     96  F   UNL A   1      46.998  25.833  36.217  1.00  0.00    -0.200 F 
ENDBRANCH  63  86
ENDBRANCH  37  38
ENDBRANCH  29  32
ENDBRANCH  27  28
ENDBRANCH  26  27
ENDBRANCH   1  26
TORSDOF 14
ENDMDL
MODEL 3
REMARK VINA RESULT:     -12.9      0.770      7.360
REMARK SMILES C[C@@H]1[NH2+]CC[C@H]1C(=O)NCc1cccc(C(=O)NCCCCNC(=O)c2ccc(-c3c4nc(c(-c5c(F)c(F)c(F)c(F)c5F)c5ccc([nH]5)c(-c5c(F)c(F)c(F)c(F)c5F)c5nc(c(-c6c(F)c(F)c(F)c(F)c6F)c6ccc3[nH]6)C=C5)C=C4)cc2)c1
REMARK SMILES IDX 20 1 19 2 18 3 16 4 17 5 15 7 11 8 12 9 89 10 13 11 14 12
REMARK SMILES IDX 10 13 9 14 7 15 8 16 6 18 1 19 2 20 3 21 4 22 5 25 21 26
REMARK SMILES IDX 22 27 23 28 24 29 25 31 26 32 27 33 88 34 28 35 87 36 29 37
REMARK SMILES IDX 30 38 31 39 81 40 32 41 86 42 80 43 82 44 33 45 85 46 79 47
REMARK SMILES IDX 78 48 34 50 66 51 46 52 65 53 47 54 50 55 64 56 83 57 48 58
REMARK SMILES IDX 49 59 63 61 84 62 51 63 35 64 36 65 44 66 37 67 38 68 42 69
REMARK SMILES IDX 45 70 39 71 40 72 43 73 41 74 67 75 68 76 76 77 69 78 70 79
REMARK SMILES IDX 74 80 77 81 71 82 72 83 75 84 73 85 52 86 53 87 61 88 54 89
REMARK SMILES IDX 55 90 59 91 62 92 56 93 57 94 60 95 58 96
REMARK H PARENT 18 6 9 17 3 23 3 24 23 30 82 49 50 60
REMARK Flexibility Score: inf
ROOT
ATOM      1  C   UNL A   1      31.374  31.004  26.304  1.00  0.00     0.023 C 
ENDROOT
BRANCH   1   2
ATOM      2  C   UNL A   1      32.693  30.289  26.549  1.00  0.00     0.116 C 
BRANCH   2   3
ATOM      3  N   UNL A   1      33.415  29.863  25.358  1.00  0.00    -0.352 N 
ATOM      4  C   UNL A   1      33.005  29.134  24.254  1.00  0.00     0.251 C 
ATOM      5  O   UNL A   1      33.815  28.932  23.351  1.00  0.00    -0.269 OA
ATOM      6  H   UNL A   1      34.359  30.141  25.334  1.00  0.00     0.163 HD
BRANCH   4   7
ATOM      7  C   UNL A   1      31.654  28.510  24.176  1.00  0.00     0.040 A 
ATOM      8  C   UNL A   1      30.312  26.495  24.236  1.00  0.00    -0.028 A 
ATOM      9  C   UNL A   1      29.317  27.144  23.495  1.00  0.00     0.005 A 
ATOM     10  C   UNL A   1      31.386  27.254  24.711  1.00  0.00     0.019 A 
ATOM     11  C   UNL A   1      29.461  28.489  23.150  1.00  0.00     0.001 A 
ATOM     12  C   UNL A   1      30.653  29.156  23.443  1.00  0.00     0.014 A 
BRANCH   8  13
ATOM     13  C   UNL A   1      30.306  24.986  24.336  1.00  0.00     0.151 C 
BRANCH  13  14
ATOM     14  N   UNL A   1      30.272  24.493  25.701  1.00  0.00    -0.352 N 
ATOM     15  C   UNL A   1      31.109  23.667  26.379  1.00  0.00     0.229 C 
ATOM     16  O   UNL A   1      30.744  23.293  27.496  1.00  0.00    -0.275 OA
ATOM     17  H   UNL A   1      29.505  24.815  26.228  1.00  0.00     0.163 HD
BRANCH  15  18
ATOM     18  C   UNL A   1      32.449  23.235  25.812  1.00  0.00     0.142 C 
ATOM     19  C   UNL A   1      34.268  24.874  25.157  1.00  0.00     0.076 C 
ATOM     20  C   UNL A   1      33.620  24.090  26.295  1.00  0.00     0.192 C 
ATOM     21  N   UNL A   1      34.621  23.180  26.876  1.00  0.00    -0.343 N 
ATOM     22  C   UNL A   1      34.262  21.811  26.515  1.00  0.00     0.261 C 
ATOM     23  H   UNL A   1      34.627  23.280  27.892  1.00  0.00     0.346 HD
ATOM     24  H   UNL A   1      35.549  23.406  26.520  1.00  0.00     0.346 HD
ATOM     25  C   UNL A   1      32.790  21.794  26.155  1.00  0.00     0.081 C 
ENDBRANCH  15  18
ENDBRANCH  13  14
ENDBRANCH   8  13
ENDBRANCH   4   7
ENDBRANCH   2   3
ENDBRANCH   1   2
BRANCH   1  26
ATOM     26  C   UNL A   1      31.370  32.506  26.521  1.00  0.00     0.023 C 
BRANCH  26  27
ATOM     27  C   UNL A   1      32.557  33.065  27.291  1.00  0.00     0.116 C 
BRANCH  27  28
ATOM     28  N   UNL A   1      32.350  34.408  27.812  1.00  0.00    -0.352 N 
ATOM     29  C   UNL A   1      33.031  35.073  28.809  1.00  0.00     0.251 C 
ATOM     30  H   UNL A   1      31.620  34.916  27.390  1.00  0.00     0.163 HD
ATOM     31  O   UNL A   1      32.659  36.172  29.187  1.00  0.00    -0.269 OA
BRANCH  29  32
ATOM     32  C   UNL A   1      34.201  34.430  29.453  1.00  0.00     0.039 A 
ATOM     33  C   UNL A   1      33.989  33.595  30.553  1.00  0.00     0.014 A 
ATOM     34  C   UNL A   1      35.494  34.637  28.970  1.00  0.00     0.014 A 
ATOM     35  C   UNL A   1      35.069  32.918  31.125  1.00  0.00     0.010 A 
ATOM     36  C   UNL A   1      36.549  33.884  29.471  1.00  0.00     0.010 A 
ATOM     37  C   UNL A   1      36.353  33.033  30.568  1.00  0.00    -0.014 A 
BRANCH  37  38
ATOM     38  C   UNL A   1      37.515  32.314  31.150  1.00  0.00     0.031 A 
ATOM     39  C   UNL A   1      38.004  32.680  32.526  1.00  0.00     0.074 A 
ATOM     40  C   UNL A   1      38.160  31.377  30.429  1.00  0.00     0.049 A 
ATOM     41  N   UNL A   1      39.030  32.217  33.193  1.00  0.00    -0.248 NA
ATOM     42  C   UNL A   1      37.259  33.734  33.234  1.00  0.00     0.031 C 
ATOM     43  C   UNL A   1      37.819  30.972  29.065  1.00  0.00     0.029 A 
ATOM     44  N   UNL A   1      39.245  30.598  30.745  1.00  0.00    -0.354 N 
ATOM     45  C   UNL A   1      39.062  32.935  34.382  1.00  0.00     0.074 A 
ATOM     46  C   UNL A   1      37.998  33.911  34.318  1.00  0.00     0.031 C 
ATOM     47  C   UNL A   1      38.657  29.999  28.673  1.00  0.00     0.029 A 
ATOM     48  C   UNL A   1      39.616  29.735  29.742  1.00  0.00     0.049 A 
ATOM     49  H   UNL A   1      39.714  30.652  31.609  1.00  0.00     0.167 HD
ATOM     50  C   UNL A   1      39.881  32.774  35.448  1.00  0.00     0.037 A 
ATOM     51  C   UNL A   1      40.614  28.833  29.694  1.00  0.00     0.037 A 
ATOM     52  C   UNL A   1      40.917  31.778  35.522  1.00  0.00     0.049 A 
ATOM     53  C   UNL A   1      41.503  28.662  30.898  1.00  0.00     0.074 A 
ATOM     54  C   UNL A   1      41.770  31.496  36.574  1.00  0.00     0.029 A 
ATOM     55  N   UNL A   1      41.237  30.897  34.499  1.00  0.00    -0.354 N 
ATOM     56  N   UNL A   1      41.480  29.299  32.043  1.00  0.00    -0.248 NA
ATOM     57  C   UNL A   1      42.548  27.633  30.807  1.00  0.00     0.031 C 
ATOM     58  C   UNL A   1      42.635  30.474  36.172  1.00  0.00     0.029 A 
ATOM     59  C   UNL A   1      42.283  30.078  34.891  1.00  0.00     0.049 A 
ATOM     60  H   UNL A   1      40.787  30.860  33.625  1.00  0.00     0.167 HD
ATOM     61  C   UNL A   1      42.474  28.722  32.822  1.00  0.00     0.074 A 
ATOM     62  C   UNL A   1      43.076  27.677  32.021  1.00  0.00     0.031 C 
ATOM     63  C   UNL A   1      42.853  29.027  34.088  1.00  0.00     0.037 A 
BRANCH  50  64
ATOM     64  C   UNL A   1      39.682  33.692  36.620  1.00  0.00     0.064 A 
ATOM     65  C   UNL A   1      40.288  34.957  36.678  1.00  0.00     0.173 A 
ATOM     66  C   UNL A   1      38.855  33.314  37.688  1.00  0.00     0.173 A 
ATOM     67  F   UNL A   1      41.099  35.364  35.689  1.00  0.00    -0.203 F 
ATOM     68  C   UNL A   1      40.106  35.791  37.778  1.00  0.00     0.198 A 
ATOM     69  C   UNL A   1      38.646  34.165  38.771  1.00  0.00     0.198 A 
ATOM     70  F   UNL A   1      38.246  32.118  37.683  1.00  0.00    -0.203 F 
ATOM     71  F   UNL A   1      40.744  36.969  37.837  1.00  0.00    -0.200 F 
ATOM     72  C   UNL A   1      39.279  35.398  38.819  1.00  0.00     0.200 A 
ATOM     73  F   UNL A   1      37.835  33.791  39.769  1.00  0.00    -0.200 F 
ATOM     74  F   UNL A   1      39.098  36.205  39.873  1.00  0.00    -0.200 F 
ENDBRANCH  50  64
BRANCH  51  75
ATOM     75  C   UNL A   1      40.802  27.991  28.484  1.00  0.00     0.064 A 
ATOM     76  C   UNL A   1      41.615  28.423  27.425  1.00  0.00     0.173 A 
ATOM     77  C   UNL A   1      40.166  26.748  28.350  1.00  0.00     0.173 A 
ATOM     78  F   UNL A   1      42.231  29.612  27.497  1.00  0.00    -0.203 F 
ATOM     79  C   UNL A   1      41.762  27.659  26.270  1.00  0.00     0.198 A 
ATOM     80  C   UNL A   1      40.338  25.970  27.206  1.00  0.00     0.198 A 
ATOM     81  F   UNL A   1      39.383  26.285  29.334  1.00  0.00    -0.203 F 
ATOM     82  F   UNL A   1      42.502  28.121  25.253  1.00  0.00    -0.200 F 
ATOM     83  C   UNL A   1      41.127  26.431  26.163  1.00  0.00     0.200 A 
ATOM     84  F   UNL A   1      39.735  24.777  27.112  1.00  0.00    -0.200 F 
ATOM     85  F   UNL A   1      41.269  25.696  25.052  1.00  0.00    -0.200 F 
ENDBRANCH  51  75
BRANCH  63  86
ATOM     86  C   UNL A   1      43.926  28.179  34.711  1.00  0.00     0.064 A 
ATOM     87  C   UNL A   1      45.283  28.521  34.632  1.00  0.00     0.173 A 
ATOM     88  C   UNL A   1      43.579  27.022  35.427  1.00  0.00     0.173 A 
ATOM     89  F   UNL A   1      45.668  29.610  33.949  1.00  0.00    -0.203 F 
ATOM     90  C   UNL A   1      46.258  27.718  35.218  1.00  0.00     0.198 A 
ATOM     91  C   UNL A   1      44.553  26.240  36.040  1.00  0.00     0.198 A 
ATOM     92  F   UNL A   1      42.294  26.656  35.541  1.00  0.00    -0.203 F 
ATOM     93  F   UNL A   1      47.554  28.032  35.080  1.00  0.00    -0.200 F 
ATOM     94  C   UNL A   1      45.892  26.583  35.926  1.00  0.00     0.200 A 
ATOM     95  F   UNL A   1      44.196  25.154  36.739  1.00  0.00    -0.200 F 
ATOM     96  F   UNL A   1      46.832  25.813  36.494  1.00  0.00    -0.200 F 
ENDBRANCH  63  86
ENDBRANCH  37  38
ENDBRANCH  29  32
ENDBRANCH  27  28
ENDBRANCH  26  27
ENDBRANCH   1  26
TORSDOF 14
ENDMDL
