MODEL 1
REMARK VINA RESULT:     -12.7      0.000      0.000
REMARK SMILES O=C(C[C@@H]1CN(c2nc3ccccc3s2)CCO1)NCCCCNC(=O)c1ccc(-c2c3nc(c(-c4c(F)c(F)c(F)c(F)c4F)c4ccc([nH]4)c(-c4c(F)c(F)c(F)c(F)c4F)c4nc(c(-c5c(F)c(F)c(F)c(F)c5F)c5ccc2[nH]5)C=C4)C=C3)cc1
REMARK SMILES IDX 21 1 20 2 19 3 1 4 2 5 3 7 4 8 5 9 18 10 6 11 17 12 16 13
REMARK SMILES IDX 7 14 8 15 15 16 9 17 14 18 10 19 13 20 11 21 12 22 22 23
REMARK SMILES IDX 23 24 24 25 25 26 26 28 27 29 28 30 89 31 29 32 88 33 30 34
REMARK SMILES IDX 31 35 32 36 82 37 33 38 87 39 81 40 83 41 34 42 86 43 80 44
REMARK SMILES IDX 79 45 35 47 67 48 47 49 66 50 48 51 51 52 65 53 84 54 49 55
REMARK SMILES IDX 50 56 64 58 85 59 52 60 36 61 37 62 45 63 38 64 39 65 43 66
REMARK SMILES IDX 46 67 40 68 41 69 44 70 42 71 68 72 69 73 77 74 70 75 71 76
REMARK SMILES IDX 75 77 78 78 72 79 73 80 76 81 74 82 53 83 54 84 62 85 55 86
REMARK SMILES IDX 56 87 60 88 63 89 57 90 58 91 61 92 59 93
REMARK H PARENT 19 6 24 27 83 46 51 57
REMARK Flexibility Score: inf
ROOT
ATOM      1  C   UNL A   1      36.694  20.328  25.051  1.00  0.00     0.023 C 
ENDROOT
BRANCH   1   2
ATOM      2  C   UNL A   1      36.605  21.825  25.343  1.00  0.00     0.116 C 
BRANCH   2   3
ATOM      3  N   UNL A   1      35.490  22.456  24.670  1.00  0.00    -0.356 N 
ATOM      4  O   UNL A   1      36.616  22.962  22.734  1.00  0.00    -0.275 OA
ATOM      5  C   UNL A   1      35.573  22.934  23.382  1.00  0.00     0.222 C 
ATOM      6  H   UNL A   1      34.637  22.548  25.153  1.00  0.00     0.163 HD
BRANCH   5   7
ATOM      7  C   UNL A   1      34.294  23.540  22.844  1.00  0.00     0.133 C 
BRANCH   7   8
ATOM      8  C   UNL A   1      33.621  24.624  23.700  1.00  0.00     0.147 C 
ATOM      9  C   UNL A   1      33.173  25.805  22.808  1.00  0.00     0.151 C 
ATOM     10  O   UNL A   1      34.492  25.098  24.750  1.00  0.00    -0.374 OA
ATOM     11  N   UNL A   1      32.606  26.857  23.643  1.00  0.00    -0.343 N 
ATOM     12  C   UNL A   1      33.830  26.076  25.576  1.00  0.00     0.182 C 
ATOM     13  C   UNL A   1      33.435  27.311  24.751  1.00  0.00     0.147 C 
BRANCH  11  14
ATOM     14  C   UNL A   1      31.459  27.502  23.331  1.00  0.00     0.186 A 
ATOM     15  N   UNL A   1      31.417  28.678  22.748  1.00  0.00    -0.220 NA
ATOM     16  S   UNL A   1      29.920  26.864  23.784  1.00  0.00    -0.097 S 
ATOM     17  C   UNL A   1      30.106  29.093  22.587  1.00  0.00     0.084 A 
ATOM     18  C   UNL A   1      29.143  28.252  23.145  1.00  0.00     0.056 A 
ATOM     19  C   UNL A   1      29.679  30.267  21.935  1.00  0.00     0.030 A 
ATOM     20  C   UNL A   1      27.775  28.568  23.127  1.00  0.00     0.021 A 
ATOM     21  C   UNL A   1      28.316  30.579  21.883  1.00  0.00     0.002 A 
ATOM     22  C   UNL A   1      27.379  29.745  22.487  1.00  0.00     0.002 A 
ENDBRANCH  11  14
ENDBRANCH   7   8
ENDBRANCH   5   7
ENDBRANCH   2   3
ENDBRANCH   1   2
BRANCH   1  23
ATOM     23  C   UNL A   1      38.099  19.808  24.735  1.00  0.00     0.023 C 
BRANCH  23  24
ATOM     24  C   UNL A   1      39.181  20.164  25.750  1.00  0.00     0.116 C 
BRANCH  24  25
ATOM     25  N   UNL A   1      40.198  19.133  25.886  1.00  0.00    -0.352 N 
ATOM     26  C   UNL A   1      41.545  19.251  26.130  1.00  0.00     0.251 C 
ATOM     27  H   UNL A   1      39.870  18.209  25.790  1.00  0.00     0.163 HD
ATOM     28  O   UNL A   1      42.266  18.257  26.075  1.00  0.00    -0.269 OA
BRANCH  26  29
ATOM     29  C   UNL A   1      42.146  20.571  26.427  1.00  0.00     0.039 A 
ATOM     30  C   UNL A   1      42.622  21.347  25.364  1.00  0.00     0.014 A 
ATOM     31  C   UNL A   1      42.255  21.046  27.736  1.00  0.00     0.014 A 
ATOM     32  C   UNL A   1      43.136  22.624  25.608  1.00  0.00     0.010 A 
ATOM     33  C   UNL A   1      42.696  22.348  27.970  1.00  0.00     0.010 A 
ATOM     34  C   UNL A   1      43.138  23.154  26.909  1.00  0.00    -0.014 A 
BRANCH  34  35
ATOM     35  C   UNL A   1      43.584  24.547  27.173  1.00  0.00     0.031 A 
ATOM     36  C   UNL A   1      42.613  25.574  27.689  1.00  0.00     0.074 A 
ATOM     37  C   UNL A   1      44.851  24.908  26.887  1.00  0.00     0.049 A 
ATOM     38  N   UNL A   1      42.799  26.851  27.915  1.00  0.00    -0.248 NA
ATOM     39  C   UNL A   1      41.245  25.111  27.965  1.00  0.00     0.031 C 
ATOM     40  C   UNL A   1      45.880  24.019  26.344  1.00  0.00     0.029 A 
ATOM     41  N   UNL A   1      45.488  26.119  27.003  1.00  0.00    -0.354 N 
ATOM     42  C   UNL A   1      41.572  27.344  28.343  1.00  0.00     0.074 A 
ATOM     43  C   UNL A   1      40.637  26.241  28.296  1.00  0.00     0.031 C 
ATOM     44  C   UNL A   1      47.023  24.707  26.198  1.00  0.00     0.029 A 
ATOM     45  C   UNL A   1      46.799  26.095  26.593  1.00  0.00     0.049 A 
ATOM     46  H   UNL A   1      45.047  26.928  27.349  1.00  0.00     0.167 HD
ATOM     47  C   UNL A   1      41.260  28.596  28.757  1.00  0.00     0.037 A 
ATOM     48  C   UNL A   1      47.715  27.081  26.530  1.00  0.00     0.037 A 
ATOM     49  C   UNL A   1      42.198  29.687  28.822  1.00  0.00     0.049 A 
ATOM     50  C   UNL A   1      47.334  28.468  26.974  1.00  0.00     0.074 A 
ATOM     51  C   UNL A   1      41.993  30.974  29.287  1.00  0.00     0.029 A 
ATOM     52  N   UNL A   1      43.519  29.621  28.401  1.00  0.00    -0.354 N 
ATOM     53  N   UNL A   1      46.192  28.903  27.447  1.00  0.00    -0.248 NA
ATOM     54  C   UNL A   1      48.375  29.502  26.882  1.00  0.00     0.031 C 
ATOM     55  C   UNL A   1      43.170  31.703  29.094  1.00  0.00     0.029 A 
ATOM     56  C   UNL A   1      44.130  30.854  28.568  1.00  0.00     0.049 A 
ATOM     57  H   UNL A   1      43.957  28.818  28.038  1.00  0.00     0.167 HD
ATOM     58  C   UNL A   1      46.385  30.247  27.740  1.00  0.00     0.074 A 
ATOM     59  C   UNL A   1      47.760  30.552  27.404  1.00  0.00     0.031 C 
ATOM     60  C   UNL A   1      45.504  31.146  28.241  1.00  0.00     0.037 A 
BRANCH  47  61
ATOM     61  C   UNL A   1      39.840  28.859  29.170  1.00  0.00     0.064 A 
ATOM     62  C   UNL A   1      38.873  29.300  28.254  1.00  0.00     0.173 A 
ATOM     63  C   UNL A   1      39.429  28.622  30.492  1.00  0.00     0.173 A 
ATOM     64  F   UNL A   1      39.214  29.550  26.981  1.00  0.00    -0.203 F 
ATOM     65  C   UNL A   1      37.557  29.523  28.650  1.00  0.00     0.198 A 
ATOM     66  C   UNL A   1      38.104  28.814  30.877  1.00  0.00     0.198 A 
ATOM     67  F   UNL A   1      40.309  28.191  31.408  1.00  0.00    -0.203 F 
ATOM     68  F   UNL A   1      36.664  29.994  27.769  1.00  0.00    -0.200 F 
ATOM     69  C   UNL A   1      37.172  29.273  29.959  1.00  0.00     0.200 A 
ATOM     70  F   UNL A   1      37.730  28.555  32.137  1.00  0.00    -0.200 F 
ATOM     71  F   UNL A   1      35.903  29.479  30.336  1.00  0.00    -0.200 F 
ENDBRANCH  47  61
BRANCH  48  72
ATOM     72  C   UNL A   1      49.090  26.792  26.044  1.00  0.00     0.064 A 
ATOM     73  C   UNL A   1      49.443  27.014  24.705  1.00  0.00     0.173 A 
ATOM     74  C   UNL A   1      50.074  26.273  26.898  1.00  0.00     0.173 A 
ATOM     75  F   UNL A   1      48.530  27.488  23.843  1.00  0.00    -0.203 F 
ATOM     76  C   UNL A   1      50.717  26.704  24.233  1.00  0.00     0.198 A 
ATOM     77  C   UNL A   1      51.358  25.994  26.432  1.00  0.00     0.198 A 
ATOM     78  F   UNL A   1      49.792  26.046  28.189  1.00  0.00    -0.203 F 
ATOM     79  F   UNL A   1      51.007  26.875  22.936  1.00  0.00    -0.200 F 
ATOM     80  C   UNL A   1      51.675  26.200  25.099  1.00  0.00     0.200 A 
ATOM     81  F   UNL A   1      52.286  25.522  27.276  1.00  0.00    -0.200 F 
ATOM     82  F   UNL A   1      52.900  25.903  24.645  1.00  0.00    -0.200 F 
ENDBRANCH  48  72
BRANCH  60  83
ATOM     83  C   UNL A   1      46.006  32.538  28.501  1.00  0.00     0.064 A 
ATOM     84  C   UNL A   1      46.606  32.893  29.718  1.00  0.00     0.173 A 
ATOM     85  C   UNL A   1      45.919  33.519  27.501  1.00  0.00     0.173 A 
ATOM     86  F   UNL A   1      46.701  31.997  30.711  1.00  0.00    -0.203 F 
ATOM     87  C   UNL A   1      47.073  34.187  29.934  1.00  0.00     0.198 A 
ATOM     88  C   UNL A   1      46.419  34.802  27.709  1.00  0.00     0.198 A 
ATOM     89  F   UNL A   1      45.361  33.231  26.316  1.00  0.00    -0.203 F 
ATOM     90  F   UNL A   1      47.595  34.518  31.124  1.00  0.00    -0.200 F 
ATOM     91  C   UNL A   1      46.987  35.138  28.927  1.00  0.00     0.200 A 
ATOM     92  F   UNL A   1      46.349  35.713  26.728  1.00  0.00    -0.200 F 
ATOM     93  F   UNL A   1      47.447  36.379  29.135  1.00  0.00    -0.200 F 
ENDBRANCH  60  83
ENDBRANCH  34  35
ENDBRANCH  26  29
ENDBRANCH  24  25
ENDBRANCH  23  24
ENDBRANCH   1  23
TORSDOF 13
ENDMDL
MODEL 2
REMARK VINA RESULT:     -12.7      5.655     11.424
REMARK SMILES O=C(C[C@@H]1CN(c2nc3ccccc3s2)CCO1)NCCCCNC(=O)c1ccc(-c2c3nc(c(-c4c(F)c(F)c(F)c(F)c4F)c4ccc([nH]4)c(-c4c(F)c(F)c(F)c(F)c4F)c4nc(c(-c5c(F)c(F)c(F)c(F)c5F)c5ccc2[nH]5)C=C4)C=C3)cc1
REMARK SMILES IDX 21 1 20 2 19 3 1 4 2 5 3 7 4 8 5 9 18 10 6 11 17 12 16 13
REMARK SMILES IDX 7 14 8 15 15 16 9 17 14 18 10 19 13 20 11 21 12 22 22 23
REMARK SMILES IDX 23 24 24 25 25 26 26 28 27 29 28 30 89 31 29 32 88 33 30 34
REMARK SMILES IDX 31 35 32 36 82 37 33 38 87 39 81 40 83 41 34 42 86 43 80 44
REMARK SMILES IDX 79 45 35 47 67 48 47 49 66 50 48 51 51 52 65 53 84 54 49 55
REMARK SMILES IDX 50 56 64 58 85 59 52 60 36 61 37 62 45 63 38 64 39 65 43 66
REMARK SMILES IDX 46 67 40 68 41 69 44 70 42 71 68 72 69 73 77 74 70 75 71 76
REMARK SMILES IDX 75 77 78 78 72 79 73 80 76 81 74 82 53 83 54 84 62 85 55 86
REMARK SMILES IDX 56 87 60 88 63 89 57 90 58 91 61 92 59 93
REMARK H PARENT 19 6 24 27 83 46 51 57
REMARK Flexibility Score: inf
ROOT
ATOM      1  C   UNL A   1      31.526  30.695  25.773  1.00  0.00     0.023 C 
ENDROOT
BRANCH   1   2
ATOM      2  C   UNL A   1      32.627  29.690  26.107  1.00  0.00     0.116 C 
BRANCH   2   3
ATOM      3  N   UNL A   1      32.253  28.330  25.788  1.00  0.00    -0.356 N 
ATOM      4  O   UNL A   1      31.376  27.818  27.846  1.00  0.00    -0.275 OA
ATOM      5  C   UNL A   1      31.601  27.509  26.680  1.00  0.00     0.222 C 
ATOM      6  H   UNL A   1      32.473  27.976  24.894  1.00  0.00     0.163 HD
BRANCH   5   7
ATOM      7  C   UNL A   1      31.275  26.128  26.152  1.00  0.00     0.133 C 
BRANCH   7   8
ATOM      8  C   UNL A   1      32.443  25.296  25.601  1.00  0.00     0.147 C 
ATOM      9  C   UNL A   1      32.356  23.843  26.124  1.00  0.00     0.151 C 
ATOM     10  O   UNL A   1      33.722  25.871  25.945  1.00  0.00    -0.374 OA
ATOM     11  N   UNL A   1      33.510  23.088  25.656  1.00  0.00    -0.343 N 
ATOM     12  C   UNL A   1      34.806  25.110  25.378  1.00  0.00     0.182 C 
ATOM     13  C   UNL A   1      34.814  23.676  25.930  1.00  0.00     0.147 C 
BRANCH  11  14
ATOM     14  C   UNL A   1      33.412  21.839  25.145  1.00  0.00     0.186 A 
ATOM     15  N   UNL A   1      34.337  20.918  25.283  1.00  0.00    -0.220 NA
ATOM     16  S   UNL A   1      32.075  21.379  24.154  1.00  0.00    -0.097 S 
ATOM     17  C   UNL A   1      33.966  19.756  24.626  1.00  0.00     0.084 A 
ATOM     18  C   UNL A   1      32.778  19.836  23.901  1.00  0.00     0.056 A 
ATOM     19  C   UNL A   1      34.678  18.540  24.623  1.00  0.00     0.030 A 
ATOM     20  C   UNL A   1      32.302  18.766  23.126  1.00  0.00     0.021 A 
ATOM     21  C   UNL A   1      34.200  17.456  23.879  1.00  0.00     0.002 A 
ATOM     22  C   UNL A   1      33.034  17.575  23.128  1.00  0.00     0.002 A 
ENDBRANCH  11  14
ENDBRANCH   7   8
ENDBRANCH   5   7
ENDBRANCH   2   3
ENDBRANCH   1   2
BRANCH   1  23
ATOM     23  C   UNL A   1      31.337  31.819  26.795  1.00  0.00     0.023 C 
BRANCH  23  24
ATOM     24  C   UNL A   1      32.604  32.565  27.202  1.00  0.00     0.116 C 
BRANCH  24  25
ATOM     25  N   UNL A   1      32.359  33.953  27.561  1.00  0.00    -0.352 N 
ATOM     26  C   UNL A   1      32.977  34.741  28.502  1.00  0.00     0.251 C 
ATOM     27  H   UNL A   1      31.643  34.396  27.050  1.00  0.00     0.163 HD
ATOM     28  O   UNL A   1      32.532  35.860  28.751  1.00  0.00    -0.269 OA
BRANCH  26  29
ATOM     29  C   UNL A   1      34.157  34.245  29.246  1.00  0.00     0.039 A 
ATOM     30  C   UNL A   1      33.955  33.585  30.463  1.00  0.00     0.014 A 
ATOM     31  C   UNL A   1      35.455  34.434  28.765  1.00  0.00     0.014 A 
ATOM     32  C   UNL A   1      35.045  33.050  31.155  1.00  0.00     0.010 A 
ATOM     33  C   UNL A   1      36.532  33.834  29.417  1.00  0.00     0.010 A 
ATOM     34  C   UNL A   1      36.340  33.132  30.617  1.00  0.00    -0.014 A 
BRANCH  34  35
ATOM     35  C   UNL A   1      37.496  32.480  31.286  1.00  0.00     0.031 A 
ATOM     36  C   UNL A   1      38.212  31.333  30.628  1.00  0.00     0.074 A 
ATOM     37  C   UNL A   1      37.864  32.879  32.521  1.00  0.00     0.049 A 
ATOM     38  N   UNL A   1      39.195  30.596  31.085  1.00  0.00    -0.248 NA
ATOM     39  C   UNL A   1      37.747  30.945  29.288  1.00  0.00     0.031 C 
ATOM     40  C   UNL A   1      37.226  33.951  33.287  1.00  0.00     0.029 A 
ATOM     41  N   UNL A   1      38.856  32.422  33.354  1.00  0.00    -0.354 N 
ATOM     42  C   UNL A   1      39.453  29.653  30.098  1.00  0.00     0.074 A 
ATOM     43  C   UNL A   1      38.491  29.877  29.040  1.00  0.00     0.031 C 
ATOM     44  C   UNL A   1      37.857  34.086  34.464  1.00  0.00     0.029 A 
ATOM     45  C   UNL A   1      38.913  33.082  34.558  1.00  0.00     0.049 A 
ATOM     46  H   UNL A   1      39.468  31.690  33.111  1.00  0.00     0.167 HD
ATOM     47  C   UNL A   1      40.418  28.701  30.067  1.00  0.00     0.037 A 
ATOM     48  C   UNL A   1      39.718  32.893  35.621  1.00  0.00     0.037 A 
ATOM     49  C   UNL A   1      41.387  28.494  31.112  1.00  0.00     0.049 A 
ATOM     50  C   UNL A   1      40.766  31.814  35.569  1.00  0.00     0.074 A 
ATOM     51  C   UNL A   1      42.442  27.599  31.144  1.00  0.00     0.029 A 
ATOM     52  N   UNL A   1      41.415  29.187  32.313  1.00  0.00    -0.354 N 
ATOM     53  N   UNL A   1      41.048  30.978  34.600  1.00  0.00    -0.248 NA
ATOM     54  C   UNL A   1      41.613  31.656  36.760  1.00  0.00     0.031 C 
ATOM     55  C   UNL A   1      43.072  27.708  32.387  1.00  0.00     0.029 A 
ATOM     56  C   UNL A   1      42.451  28.717  33.106  1.00  0.00     0.049 A 
ATOM     57  H   UNL A   1      40.792  29.907  32.566  1.00  0.00     0.167 HD
ATOM     58  C   UNL A   1      42.123  30.221  35.048  1.00  0.00     0.074 A 
ATOM     59  C   UNL A   1      42.451  30.707  36.372  1.00  0.00     0.031 C 
ATOM     60  C   UNL A   1      42.777  29.215  34.419  1.00  0.00     0.037 A 
BRANCH  47  61
ATOM     61  C   UNL A   1      40.472  27.804  28.864  1.00  0.00     0.064 A 
ATOM     62  C   UNL A   1      41.274  28.105  27.753  1.00  0.00     0.173 A 
ATOM     63  C   UNL A   1      39.749  26.600  28.841  1.00  0.00     0.173 A 
ATOM     64  F   UNL A   1      41.980  29.246  27.718  1.00  0.00    -0.203 F 
ATOM     65  C   UNL A   1      41.327  27.253  26.652  1.00  0.00     0.198 A 
ATOM     66  C   UNL A   1      39.830  25.734  27.753  1.00  0.00     0.198 A 
ATOM     67  F   UNL A   1      38.972  26.257  29.880  1.00  0.00    -0.203 F 
ATOM     68  F   UNL A   1      42.059  27.588  25.582  1.00  0.00    -0.200 F 
ATOM     69  C   UNL A   1      40.610  26.065  26.657  1.00  0.00     0.200 A 
ATOM     70  F   UNL A   1      39.151  24.579  27.766  1.00  0.00    -0.200 F 
ATOM     71  F   UNL A   1      40.669  25.242  25.601  1.00  0.00    -0.200 F 
ENDBRANCH  47  61
BRANCH  48  72
ATOM     72  C   UNL A   1      39.581  33.758  36.823  1.00  0.00     0.064 A 
ATOM     73  C   UNL A   1      38.771  33.372  37.901  1.00  0.00     0.173 A 
ATOM     74  C   UNL A   1      40.238  34.995  36.915  1.00  0.00     0.173 A 
ATOM     75  F   UNL A   1      38.103  32.209  37.851  1.00  0.00    -0.203 F 
ATOM     76  C   UNL A   1      38.603  34.197  39.010  1.00  0.00     0.198 A 
ATOM     77  C   UNL A   1      40.095  35.805  38.040  1.00  0.00     0.198 A 
ATOM     78  F   UNL A   1      41.028  35.412  35.915  1.00  0.00    -0.203 F 
ATOM     79  F   UNL A   1      37.779  33.826  39.999  1.00  0.00    -0.200 F 
ATOM     80  C   UNL A   1      39.270  35.411  39.081  1.00  0.00     0.200 A 
ATOM     81  F   UNL A   1      40.755  36.970  38.111  1.00  0.00    -0.200 F 
ATOM     82  F   UNL A   1      39.110  36.204  40.149  1.00  0.00    -0.200 F 
ENDBRANCH  48  72
BRANCH  60  83
ATOM     83  C   UNL A   1      43.946  28.596  35.133  1.00  0.00     0.064 A 
ATOM     84  C   UNL A   1      43.798  27.476  35.963  1.00  0.00     0.173 A 
ATOM     85  C   UNL A   1      45.239  29.113  34.952  1.00  0.00     0.173 A 
ATOM     86  F   UNL A   1      42.583  26.952  36.181  1.00  0.00    -0.203 F 
ATOM     87  C   UNL A   1      44.897  26.913  36.608  1.00  0.00     0.198 A 
ATOM     88  C   UNL A   1      46.339  28.526  35.571  1.00  0.00     0.198 A 
ATOM     89  F   UNL A   1      45.438  30.179  34.163  1.00  0.00    -0.203 F 
ATOM     90  F   UNL A   1      44.724  25.875  37.439  1.00  0.00    -0.200 F 
ATOM     91  C   UNL A   1      46.167  27.433  36.405  1.00  0.00     0.200 A 
ATOM     92  F   UNL A   1      47.567  29.021  35.360  1.00  0.00    -0.200 F 
ATOM     93  F   UNL A   1      47.223  26.883  37.019  1.00  0.00    -0.200 F 
ENDBRANCH  60  83
ENDBRANCH  34  35
ENDBRANCH  26  29
ENDBRANCH  24  25
ENDBRANCH  23  24
ENDBRANCH   1  23
TORSDOF 13
ENDMDL
MODEL 3
REMARK VINA RESULT:     -12.5      3.718      8.347
REMARK SMILES O=C(C[C@@H]1CN(c2nc3ccccc3s2)CCO1)NCCCCNC(=O)c1ccc(-c2c3nc(c(-c4c(F)c(F)c(F)c(F)c4F)c4ccc([nH]4)c(-c4c(F)c(F)c(F)c(F)c4F)c4nc(c(-c5c(F)c(F)c(F)c(F)c5F)c5ccc2[nH]5)C=C4)C=C3)cc1
REMARK SMILES IDX 21 1 20 2 19 3 1 4 2 5 3 7 4 8 5 9 18 10 6 11 17 12 16 13
REMARK SMILES IDX 7 14 8 15 15 16 9 17 14 18 10 19 13 20 11 21 12 22 22 23
REMARK SMILES IDX 23 24 24 25 25 26 26 28 27 29 28 30 89 31 29 32 88 33 30 34
REMARK SMILES IDX 31 35 32 36 82 37 33 38 87 39 81 40 83 41 34 42 86 43 80 44
REMARK SMILES IDX 79 45 35 47 67 48 47 49 66 50 48 51 51 52 65 53 84 54 49 55
REMARK SMILES IDX 50 56 64 58 85 59 52 60 36 61 37 62 45 63 38 64 39 65 43 66
REMARK SMILES IDX 46 67 40 68 41 69 44 70 42 71 68 72 69 73 77 74 70 75 71 76
REMARK SMILES IDX 75 77 78 78 72 79 73 80 76 81 74 82 53 83 54 84 62 85 55 86
REMARK SMILES IDX 56 87 60 88 63 89 57 90 58 91 61 92 59 93
REMARK H PARENT 19 6 24 27 83 46 51 57
REMARK Flexibility Score: inf
ROOT
ATOM      1  C   UNL A   1      31.896  29.434  25.701  1.00  0.00     0.023 C 
ENDROOT
BRANCH   1   2
ATOM      2  C   UNL A   1      31.115  29.213  24.408  1.00  0.00     0.116 C 
BRANCH   2   3
ATOM      3  N   UNL A   1      31.480  27.981  23.742  1.00  0.00    -0.356 N 
ATOM      4  O   UNL A   1      30.090  28.247  21.935  1.00  0.00    -0.275 OA
ATOM      5  C   UNL A   1      30.969  27.618  22.517  1.00  0.00     0.222 C 
ATOM      6  H   UNL A   1      32.121  27.377  24.184  1.00  0.00     0.163 HD
BRANCH   5   7
ATOM      7  C   UNL A   1      31.490  26.303  21.975  1.00  0.00     0.133 C 
BRANCH   7   8
ATOM      8  C   UNL A   1      31.836  25.213  23.000  1.00  0.00     0.147 C 
ATOM      9  C   UNL A   1      33.186  24.549  22.636  1.00  0.00     0.151 C 
ATOM     10  O   UNL A   1      30.800  24.211  23.091  1.00  0.00    -0.374 OA
ATOM     11  N   UNL A   1      33.463  23.467  23.572  1.00  0.00    -0.343 N 
ATOM     12  C   UNL A   1      31.115  23.225  24.092  1.00  0.00     0.182 C 
ATOM     13  C   UNL A   1      32.409  22.476  23.735  1.00  0.00     0.147 C 
BRANCH  11  14
ATOM     14  C   UNL A   1      34.677  23.281  24.138  1.00  0.00     0.186 A 
ATOM     15  N   UNL A   1      35.360  22.163  24.050  1.00  0.00    -0.220 NA
ATOM     16  S   UNL A   1      35.395  24.492  25.136  1.00  0.00    -0.097 S 
ATOM     17  C   UNL A   1      36.548  22.265  24.756  1.00  0.00     0.084 A 
ATOM     18  C   UNL A   1      36.719  23.453  25.466  1.00  0.00     0.056 A 
ATOM     19  C   UNL A   1      37.562  21.288  24.821  1.00  0.00     0.030 A 
ATOM     20  C   UNL A   1      37.837  23.679  26.285  1.00  0.00     0.021 A 
ATOM     21  C   UNL A   1      38.696  21.514  25.610  1.00  0.00     0.002 A 
ATOM     22  C   UNL A   1      38.821  22.690  26.344  1.00  0.00     0.002 A 
ENDBRANCH  11  14
ENDBRANCH   7   8
ENDBRANCH   5   7
ENDBRANCH   2   3
ENDBRANCH   1   2
BRANCH   1  23
ATOM     23  C   UNL A   1      33.053  28.459  25.940  1.00  0.00     0.023 C 
BRANCH  23  24
ATOM     24  C   UNL A   1      33.829  28.658  27.238  1.00  0.00     0.116 C 
BRANCH  24  25
ATOM     25  N   UNL A   1      33.798  30.031  27.717  1.00  0.00    -0.352 N 
ATOM     26  C   UNL A   1      34.754  30.750  28.393  1.00  0.00     0.251 C 
ATOM     27  H   UNL A   1      32.965  30.520  27.527  1.00  0.00     0.163 HD
ATOM     28  O   UNL A   1      34.484  31.865  28.834  1.00  0.00    -0.269 OA
BRANCH  26  29
ATOM     29  C   UNL A   1      36.101  30.182  28.627  1.00  0.00     0.039 A 
ATOM     30  C   UNL A   1      37.059  30.285  27.612  1.00  0.00     0.014 A 
ATOM     31  C   UNL A   1      36.425  29.541  29.825  1.00  0.00     0.014 A 
ATOM     32  C   UNL A   1      38.358  29.814  27.828  1.00  0.00     0.010 A 
ATOM     33  C   UNL A   1      37.740  29.141  30.067  1.00  0.00     0.010 A 
ATOM     34  C   UNL A   1      38.722  29.277  29.074  1.00  0.00    -0.014 A 
BRANCH  34  35
ATOM     35  C   UNL A   1      40.123  28.867  29.357  1.00  0.00     0.031 A 
ATOM     36  C   UNL A   1      41.045  29.777  30.121  1.00  0.00     0.074 A 
ATOM     37  C   UNL A   1      40.587  27.699  28.869  1.00  0.00     0.049 A 
ATOM     38  N   UNL A   1      42.314  29.623  30.405  1.00  0.00    -0.248 NA
ATOM     39  C   UNL A   1      40.471  31.040  30.610  1.00  0.00     0.031 C 
ATOM     40  C   UNL A   1      39.809  26.744  28.078  1.00  0.00     0.029 A 
ATOM     41  N   UNL A   1      41.830  27.120  28.957  1.00  0.00    -0.354 N 
ATOM     42  C   UNL A   1      42.692  30.771  31.090  1.00  0.00     0.074 A 
ATOM     43  C   UNL A   1      41.533  31.636  31.134  1.00  0.00     0.031 C 
ATOM     44  C   UNL A   1      40.582  25.690  27.775  1.00  0.00     0.029 A 
ATOM     45  C   UNL A   1      41.923  25.912  28.310  1.00  0.00     0.049 A 
ATOM     46  H   UNL A   1      42.583  27.532  29.440  1.00  0.00     0.167 HD
ATOM     47  C   UNL A   1      43.891  31.068  31.650  1.00  0.00     0.037 A 
ATOM     48  C   UNL A   1      42.972  25.081  28.154  1.00  0.00     0.037 A 
ATOM     49  C   UNL A   1      45.037  30.197  31.623  1.00  0.00     0.049 A 
ATOM     50  C   UNL A   1      44.297  25.446  28.766  1.00  0.00     0.074 A 
ATOM     51  C   UNL A   1      46.274  30.381  32.215  1.00  0.00     0.029 A 
ATOM     52  N   UNL A   1      45.089  28.979  30.961  1.00  0.00    -0.354 N 
ATOM     53  N   UNL A   1      44.621  26.500  29.475  1.00  0.00    -0.248 NA
ATOM     54  C   UNL A   1      45.404  24.501  28.562  1.00  0.00     0.031 C 
ATOM     55  C   UNL A   1      47.093  29.304  31.864  1.00  0.00     0.029 A 
ATOM     56  C   UNL A   1      46.348  28.416  31.106  1.00  0.00     0.049 A 
ATOM     57  H   UNL A   1      44.343  28.574  30.462  1.00  0.00     0.167 HD
ATOM     58  C   UNL A   1      45.953  26.329  29.829  1.00  0.00     0.074 A 
ATOM     59  C   UNL A   1      46.373  25.062  29.268  1.00  0.00     0.031 C 
ATOM     60  C   UNL A   1      46.755  27.148  30.552  1.00  0.00     0.037 A 
BRANCH  47  61
ATOM     61  C   UNL A   1      44.028  32.396  32.339  1.00  0.00     0.064 A 
ATOM     62  C   UNL A   1      44.481  33.537  31.660  1.00  0.00     0.173 A 
ATOM     63  C   UNL A   1      43.657  32.540  33.685  1.00  0.00     0.173 A 
ATOM     64  F   UNL A   1      44.856  33.454  30.374  1.00  0.00    -0.203 F 
ATOM     65  C   UNL A   1      44.586  34.765  32.309  1.00  0.00     0.198 A 
ATOM     66  C   UNL A   1      43.732  33.776  34.322  1.00  0.00     0.198 A 
ATOM     67  F   UNL A   1      43.210  31.484  34.381  1.00  0.00    -0.203 F 
ATOM     68  F   UNL A   1      45.070  35.828  31.654  1.00  0.00    -0.200 F 
ATOM     69  C   UNL A   1      44.205  34.885  33.637  1.00  0.00     0.200 A 
ATOM     70  F   UNL A   1      43.347  33.894  35.600  1.00  0.00    -0.200 F 
ATOM     71  F   UNL A   1      44.298  36.069  34.258  1.00  0.00    -0.200 F 
ENDBRANCH  47  61
BRANCH  48  72
ATOM     72  C   UNL A   1      42.810  23.809  27.400  1.00  0.00     0.064 A 
ATOM     73  C   UNL A   1      42.339  22.650  28.034  1.00  0.00     0.173 A 
ATOM     74  C   UNL A   1      43.140  23.718  26.039  1.00  0.00     0.173 A 
ATOM     75  F   UNL A   1      42.032  22.681  29.340  1.00  0.00    -0.203 F 
ATOM     76  C   UNL A   1      42.227  21.445  27.344  1.00  0.00     0.198 A 
ATOM     77  C   UNL A   1      42.996  22.519  25.343  1.00  0.00     0.198 A 
ATOM     78  F   UNL A   1      43.591  24.796  25.383  1.00  0.00    -0.203 F 
ATOM     79  F   UNL A   1      41.826  20.342  27.991  1.00  0.00    -0.200 F 
ATOM     80  C   UNL A   1      42.550  21.382  25.997  1.00  0.00     0.200 A 
ATOM     81  F   UNL A   1      43.294  22.466  24.037  1.00  0.00    -0.200 F 
ATOM     82  F   UNL A   1      42.441  20.223  25.334  1.00  0.00    -0.200 F 
ENDBRANCH  48  72
BRANCH  60  83
ATOM     83  C   UNL A   1      48.158  26.683  30.820  1.00  0.00     0.064 A 
ATOM     84  C   UNL A   1      48.468  25.851  31.906  1.00  0.00     0.173 A 
ATOM     85  C   UNL A   1      49.201  27.047  29.955  1.00  0.00     0.173 A 
ATOM     86  F   UNL A   1      47.511  25.485  32.771  1.00  0.00    -0.203 F 
ATOM     87  C   UNL A   1      49.775  25.424  32.130  1.00  0.00     0.198 A 
ATOM     88  C   UNL A   1      50.500  26.590  30.162  1.00  0.00     0.198 A 
ATOM     89  F   UNL A   1      48.959  27.836  28.897  1.00  0.00    -0.203 F 
ATOM     90  F   UNL A   1      50.056  24.672  33.204  1.00  0.00    -0.200 F 
ATOM     91  C   UNL A   1      50.787  25.787  31.254  1.00  0.00     0.200 A 
ATOM     92  F   UNL A   1      51.473  26.929  29.305  1.00  0.00    -0.200 F 
ATOM     93  F   UNL A   1      52.042  25.366  31.468  1.00  0.00    -0.200 F 
ENDBRANCH  60  83
ENDBRANCH  34  35
ENDBRANCH  26  29
ENDBRANCH  24  25
ENDBRANCH  23  24
ENDBRANCH   1  23
TORSDOF 13
ENDMDL
