MODEL 1
REMARK VINA RESULT:     -11.6      0.000      0.000
REMARK SMILES C[C@@H]1[C@@H](C(=O)NCCCCNC(=O)c2ccc(-c3c4nc(c(-c5c(F)c(F)c(F)c(F)c5F)c5ccc([nH]5)c(-c5c(F)c(F)c(F)c(F)c5F)c5nc(c(-c6c(F)c(F)c(F)c(F)c6F)c6ccc3[nH]6)C=C5)C=C4)cc2)CC[N@@H+]1CC(=O)N(C)C1CC1
REMARK SMILES IDX 7 1 6 2 4 3 5 4 3 6 1 7 2 8 79 9 77 10 78 11 80 13 81 14
REMARK SMILES IDX 82 15 83 16 84 17 85 18 86 19 87 20 8 21 9 22 10 23 11 24
REMARK SMILES IDX 12 25 13 27 14 28 15 29 76 30 16 31 75 32 17 33 18 34 19 35
REMARK SMILES IDX 69 36 20 37 74 38 68 39 70 40 21 41 73 42 67 43 66 44 22 46
REMARK SMILES IDX 54 47 34 48 53 49 35 50 38 51 52 52 71 53 36 54 37 55 51 57
REMARK SMILES IDX 72 58 39 59 23 60 24 61 32 62 25 63 26 64 30 65 33 66 27 67
REMARK SMILES IDX 28 68 31 69 29 70 55 71 56 72 64 73 57 74 58 75 62 76 65 77
REMARK SMILES IDX 59 78 60 79 63 80 61 81 40 82 41 83 49 84 42 85 43 86 47 87
REMARK SMILES IDX 50 88 44 89 45 90 48 91 46 92
REMARK H PARENT 6 5 79 12 11 26 70 45 38 56
REMARK Flexibility Score: inf
ROOT
ATOM      1  C   UNL A   1      31.613  30.117  25.197  1.00  0.00     0.116 C 
ENDROOT
BRANCH   1   2
ATOM      2  N   UNL A   1      32.875  29.686  24.630  1.00  0.00    -0.356 N 
ATOM      3  C   UNL A   1      33.198  28.495  24.053  1.00  0.00     0.229 C 
ATOM      4  O   UNL A   1      34.329  28.393  23.580  1.00  0.00    -0.275 OA
ATOM      5  H   UNL A   1      33.603  30.347  24.668  1.00  0.00     0.163 HD
BRANCH   3   6
ATOM      6  C   UNL A   1      32.186  27.355  24.081  1.00  0.00     0.142 C 
ATOM      7  C   UNL A   1      31.160  26.770  26.308  1.00  0.00     0.076 C 
ATOM      8  C   UNL A   1      32.320  26.495  25.357  1.00  0.00     0.194 C 
ATOM      9  N   UNL A   1      32.556  25.118  24.909  1.00  0.00    -0.324 N 
ATOM     10  C   UNL A   1      32.347  26.371  22.926  1.00  0.00     0.081 C 
ATOM     11  C   UNL A   1      33.038  25.169  23.534  1.00  0.00     0.263 C 
ATOM     12  H   UNL A   1      33.268  24.760  25.545  1.00  0.00     0.348 HD
BRANCH   9  13
ATOM     13  C   UNL A   1      31.625  24.034  25.233  1.00  0.00     0.364 C 
BRANCH  13  14
ATOM     14  C   UNL A   1      32.005  23.196  26.462  1.00  0.00     0.277 C 
ATOM     15  O   UNL A   1      31.431  23.398  27.542  1.00  0.00    -0.268 OA
BRANCH  14  16
ATOM     16  N   UNL A   1      32.984  22.210  26.359  1.00  0.00    -0.338 N 
ATOM     17  C   UNL A   1      33.946  21.832  27.389  1.00  0.00     0.147 C 
BRANCH  16  18
ATOM     18  C   UNL A   1      33.147  21.564  25.072  1.00  0.00     0.085 C 
ATOM     19  C   UNL A   1      33.900  20.274  24.876  1.00  0.00     0.027 C 
ATOM     20  C   UNL A   1      32.405  20.284  24.773  1.00  0.00     0.027 C 
ENDBRANCH  16  18
ENDBRANCH  14  16
ENDBRANCH  13  14
ENDBRANCH   9  13
ENDBRANCH   3   6
ENDBRANCH   1   2
BRANCH   1  21
ATOM     21  C   UNL A   1      31.752  30.621  26.629  1.00  0.00     0.023 C 
BRANCH  21  22
ATOM     22  C   UNL A   1      31.545  32.125  26.819  1.00  0.00     0.023 C 
BRANCH  22  23
ATOM     23  C   UNL A   1      32.763  32.896  27.312  1.00  0.00     0.116 C 
BRANCH  23  24
ATOM     24  N   UNL A   1      32.458  34.273  27.662  1.00  0.00    -0.352 N 
ATOM     25  C   UNL A   1      33.013  35.064  28.643  1.00  0.00     0.251 C 
ATOM     26  H   UNL A   1      31.755  34.700  27.122  1.00  0.00     0.163 HD
ATOM     27  O   UNL A   1      32.541  36.159  28.900  1.00  0.00    -0.269 OA
BRANCH  25  28
ATOM     28  C   UNL A   1      34.171  34.555  29.409  1.00  0.00     0.039 A 
ATOM     29  C   UNL A   1      33.945  33.949  30.647  1.00  0.00     0.014 A 
ATOM     30  C   UNL A   1      35.465  34.647  28.892  1.00  0.00     0.014 A 
ATOM     31  C   UNL A   1      35.014  33.372  31.337  1.00  0.00     0.010 A 
ATOM     32  C   UNL A   1      36.510  33.993  29.534  1.00  0.00     0.010 A 
ATOM     33  C   UNL A   1      36.298  33.357  30.768  1.00  0.00    -0.014 A 
BRANCH  33  34
ATOM     34  C   UNL A   1      37.440  32.703  31.456  1.00  0.00     0.031 A 
ATOM     35  C   UNL A   1      38.147  31.550  30.799  1.00  0.00     0.074 A 
ATOM     36  C   UNL A   1      37.798  33.100  32.693  1.00  0.00     0.049 A 
ATOM     37  N   UNL A   1      39.114  30.797  31.261  1.00  0.00    -0.248 NA
ATOM     38  C   UNL A   1      37.685  31.172  29.454  1.00  0.00     0.031 C 
ATOM     39  C   UNL A   1      37.159  34.173  33.456  1.00  0.00     0.029 A 
ATOM     40  N   UNL A   1      38.784  32.640  33.529  1.00  0.00    -0.354 N 
ATOM     41  C   UNL A   1      39.357  29.850  30.274  1.00  0.00     0.074 A 
ATOM     42  C   UNL A   1      38.398  30.083  29.218  1.00  0.00     0.031 C 
ATOM     43  C   UNL A   1      37.785  34.306  34.636  1.00  0.00     0.029 A 
ATOM     44  C   UNL A   1      38.843  33.305  34.729  1.00  0.00     0.049 A 
ATOM     45  H   UNL A   1      39.392  31.902  33.291  1.00  0.00     0.167 HD
ATOM     46  C   UNL A   1      40.312  28.892  30.239  1.00  0.00     0.037 A 
ATOM     47  C   UNL A   1      39.658  33.123  35.787  1.00  0.00     0.037 A 
ATOM     48  C   UNL A   1      41.283  28.682  31.281  1.00  0.00     0.049 A 
ATOM     49  C   UNL A   1      40.712  32.050  35.723  1.00  0.00     0.074 A 
ATOM     50  C   UNL A   1      42.327  27.774  31.318  1.00  0.00     0.029 A 
ATOM     51  N   UNL A   1      41.327  29.393  32.471  1.00  0.00    -0.354 N 
ATOM     52  N   UNL A   1      40.977  31.204  34.758  1.00  0.00    -0.248 NA
ATOM     53  C   UNL A   1      41.588  31.914  36.896  1.00  0.00     0.031 C 
ATOM     54  C   UNL A   1      42.974  27.904  32.551  1.00  0.00     0.029 A 
ATOM     55  C   UNL A   1      42.371  28.932  33.258  1.00  0.00     0.049 A 
ATOM     56  H   UNL A   1      40.709  30.118  32.719  1.00  0.00     0.167 HD
ATOM     57  C   UNL A   1      42.069  30.462  35.189  1.00  0.00     0.074 A 
ATOM     58  C   UNL A   1      42.423  30.965  36.499  1.00  0.00     0.031 C 
ATOM     59  C   UNL A   1      42.720  29.456  34.555  1.00  0.00     0.037 A 
BRANCH  46  60
ATOM     60  C   UNL A   1      40.354  28.000  29.030  1.00  0.00     0.064 A 
ATOM     61  C   UNL A   1      41.119  28.327  27.900  1.00  0.00     0.173 A 
ATOM     62  C   UNL A   1      39.634  26.796  29.007  1.00  0.00     0.173 A 
ATOM     63  F   UNL A   1      41.817  29.473  27.864  1.00  0.00    -0.203 F 
ATOM     64  C   UNL A   1      41.133  27.501  26.779  1.00  0.00     0.198 A 
ATOM     65  C   UNL A   1      39.678  25.956  27.897  1.00  0.00     0.198 A 
ATOM     66  F   UNL A   1      38.891  26.431  30.062  1.00  0.00    -0.203 F 
ATOM     67  F   UNL A   1      41.825  27.865  25.689  1.00  0.00    -0.200 F 
ATOM     68  C   UNL A   1      40.419  26.314  26.781  1.00  0.00     0.200 A 
ATOM     69  F   UNL A   1      38.999  24.801  27.906  1.00  0.00    -0.200 F 
ATOM     70  F   UNL A   1      40.437  25.517  25.704  1.00  0.00    -0.200 F 
ENDBRANCH  46  60
BRANCH  47  71
ATOM     71  C   UNL A   1      39.534  34.000  36.980  1.00  0.00     0.064 A 
ATOM     72  C   UNL A   1      38.775  33.599  38.090  1.00  0.00     0.173 A 
ATOM     73  C   UNL A   1      40.162  35.252  37.039  1.00  0.00     0.173 A 
ATOM     74  F   UNL A   1      38.139  32.419  38.075  1.00  0.00    -0.203 F 
ATOM     75  C   UNL A   1      38.632  34.427  39.202  1.00  0.00     0.198 A 
ATOM     76  C   UNL A   1      40.041  36.067  38.163  1.00  0.00     0.198 A 
ATOM     77  F   UNL A   1      40.904  35.681  36.007  1.00  0.00    -0.203 F 
ATOM     78  F   UNL A   1      37.862  34.039  40.228  1.00  0.00    -0.200 F 
ATOM     79  C   UNL A   1      39.269  35.657  39.240  1.00  0.00     0.200 A 
ATOM     80  F   UNL A   1      40.671  37.249  38.203  1.00  0.00    -0.200 F 
ATOM     81  F   UNL A   1      39.133  36.451  40.311  1.00  0.00    -0.200 F 
ENDBRANCH  47  71
BRANCH  59  82
ATOM     82  C   UNL A   1      43.916  28.866  35.245  1.00  0.00     0.064 A 
ATOM     83  C   UNL A   1      43.801  27.789  36.135  1.00  0.00     0.173 A 
ATOM     84  C   UNL A   1      45.202  29.363  34.976  1.00  0.00     0.173 A 
ATOM     85  F   UNL A   1      42.595  27.287  36.437  1.00  0.00    -0.203 F 
ATOM     86  C   UNL A   1      44.927  27.250  36.753  1.00  0.00     0.198 A 
ATOM     87  C   UNL A   1      46.327  28.800  35.569  1.00  0.00     0.198 A 
ATOM     88  F   UNL A   1      45.366  30.386  34.125  1.00  0.00    -0.203 F 
ATOM     89  F   UNL A   1      44.789  26.255  37.640  1.00  0.00    -0.200 F 
ATOM     90  C   UNL A   1      46.188  27.750  36.464  1.00  0.00     0.200 A 
ATOM     91  F   UNL A   1      47.545  29.274  35.277  1.00  0.00    -0.200 F 
ATOM     92  F   UNL A   1      47.270  27.223  37.054  1.00  0.00    -0.200 F 
ENDBRANCH  59  82
ENDBRANCH  33  34
ENDBRANCH  25  28
ENDBRANCH  23  24
ENDBRANCH  22  23
ENDBRANCH  21  22
ENDBRANCH   1  21
TORSDOF 15
ENDMDL
MODEL 2
REMARK VINA RESULT:     -11.6      5.612     11.298
REMARK SMILES C[C@@H]1[C@@H](C(=O)NCCCCNC(=O)c2ccc(-c3c4nc(c(-c5c(F)c(F)c(F)c(F)c5F)c5ccc([nH]5)c(-c5c(F)c(F)c(F)c(F)c5F)c5nc(c(-c6c(F)c(F)c(F)c(F)c6F)c6ccc3[nH]6)C=C5)C=C4)cc2)CC[N@@H+]1CC(=O)N(C)C1CC1
REMARK SMILES IDX 7 1 6 2 4 3 5 4 3 6 1 7 2 8 79 9 77 10 78 11 80 13 81 14
REMARK SMILES IDX 82 15 83 16 84 17 85 18 86 19 87 20 8 21 9 22 10 23 11 24
REMARK SMILES IDX 12 25 13 27 14 28 15 29 76 30 16 31 75 32 17 33 18 34 19 35
REMARK SMILES IDX 69 36 20 37 74 38 68 39 70 40 21 41 73 42 67 43 66 44 22 46
REMARK SMILES IDX 54 47 34 48 53 49 35 50 38 51 52 52 71 53 36 54 37 55 51 57
REMARK SMILES IDX 72 58 39 59 23 60 24 61 32 62 25 63 26 64 30 65 33 66 27 67
REMARK SMILES IDX 28 68 31 69 29 70 55 71 56 72 64 73 57 74 58 75 62 76 65 77
REMARK SMILES IDX 59 78 60 79 63 80 61 81 40 82 41 83 49 84 42 85 43 86 47 87
REMARK SMILES IDX 50 88 44 89 45 90 48 91 46 92
REMARK H PARENT 6 5 79 12 11 26 70 45 38 56
REMARK Flexibility Score: inf
ROOT
ATOM      1  C   UNL A   1      35.739  20.928  24.924  1.00  0.00     0.116 C 
ENDROOT
BRANCH   1   2
ATOM      2  N   UNL A   1      35.291  21.134  26.287  1.00  0.00    -0.356 N 
ATOM      3  C   UNL A   1      34.246  21.877  26.747  1.00  0.00     0.229 C 
ATOM      4  O   UNL A   1      34.025  21.839  27.957  1.00  0.00    -0.275 OA
ATOM      5  H   UNL A   1      35.817  20.672  26.979  1.00  0.00     0.163 HD
BRANCH   3   6
ATOM      6  C   UNL A   1      33.465  22.748  25.770  1.00  0.00     0.142 C 
ATOM      7  C   UNL A   1      34.519  24.923  25.055  1.00  0.00     0.076 C 
ATOM      8  C   UNL A   1      33.618  24.252  26.087  1.00  0.00     0.194 C 
ATOM      9  N   UNL A   1      32.262  24.776  26.289  1.00  0.00    -0.324 N 
ATOM     10  C   UNL A   1      31.960  22.492  25.798  1.00  0.00     0.081 C 
ATOM     11  C   UNL A   1      31.385  23.650  26.585  1.00  0.00     0.263 C 
ATOM     12  H   UNL A   1      32.348  25.407  27.085  1.00  0.00     0.348 HD
BRANCH   9  13
ATOM     13  C   UNL A   1      31.708  25.825  25.429  1.00  0.00     0.364 C 
BRANCH  13  14
ATOM     14  C   UNL A   1      31.341  27.130  26.150  1.00  0.00     0.277 C 
ATOM     15  O   UNL A   1      30.776  27.082  27.251  1.00  0.00    -0.268 OA
BRANCH  14  16
ATOM     16  N   UNL A   1      31.651  28.359  25.571  1.00  0.00    -0.338 N 
ATOM     17  C   UNL A   1      31.026  28.943  24.388  1.00  0.00     0.147 C 
BRANCH  16  18
ATOM     18  C   UNL A   1      32.774  29.091  26.120  1.00  0.00     0.085 C 
ATOM     19  C   UNL A   1      33.634  28.578  27.245  1.00  0.00     0.027 C 
ATOM     20  C   UNL A   1      34.182  28.621  25.852  1.00  0.00     0.027 C 
ENDBRANCH  16  18
ENDBRANCH  14  16
ENDBRANCH  13  14
ENDBRANCH   9  13
ENDBRANCH   3   6
ENDBRANCH   1   2
BRANCH   1  21
ATOM     21  C   UNL A   1      37.230  21.193  24.747  1.00  0.00     0.023 C 
BRANCH  21  22
ATOM     22  C   UNL A   1      38.145  19.994  25.001  1.00  0.00     0.023 C 
BRANCH  22  23
ATOM     23  C   UNL A   1      39.252  20.219  26.023  1.00  0.00     0.116 C 
BRANCH  23  24
ATOM     24  N   UNL A   1      40.248  19.162  26.021  1.00  0.00    -0.352 N 
ATOM     25  C   UNL A   1      41.618  19.257  26.127  1.00  0.00     0.251 C 
ATOM     26  H   UNL A   1      39.894  18.248  25.932  1.00  0.00     0.163 HD
ATOM     27  O   UNL A   1      42.324  18.275  25.964  1.00  0.00    -0.269 OA
BRANCH  25  28
ATOM     28  C   UNL A   1      42.229  20.574  26.404  1.00  0.00     0.039 A 
ATOM     29  C   UNL A   1      42.669  21.353  25.332  1.00  0.00     0.014 A 
ATOM     30  C   UNL A   1      42.335  21.050  27.714  1.00  0.00     0.014 A 
ATOM     31  C   UNL A   1      43.154  22.641  25.568  1.00  0.00     0.010 A 
ATOM     32  C   UNL A   1      42.731  22.363  27.938  1.00  0.00     0.010 A 
ATOM     33  C   UNL A   1      43.154  23.170  26.870  1.00  0.00    -0.014 A 
BRANCH  33  34
ATOM     34  C   UNL A   1      43.614  24.556  27.140  1.00  0.00     0.031 A 
ATOM     35  C   UNL A   1      42.638  25.581  27.648  1.00  0.00     0.074 A 
ATOM     36  C   UNL A   1      44.886  24.907  26.870  1.00  0.00     0.049 A 
ATOM     37  N   UNL A   1      42.819  26.858  27.875  1.00  0.00    -0.248 NA
ATOM     38  C   UNL A   1      41.266  25.116  27.904  1.00  0.00     0.031 C 
ATOM     39  C   UNL A   1      45.915  24.018  26.330  1.00  0.00     0.029 A 
ATOM     40  N   UNL A   1      45.528  26.113  27.006  1.00  0.00    -0.354 N 
ATOM     41  C   UNL A   1      41.583  27.346  28.279  1.00  0.00     0.074 A 
ATOM     42  C   UNL A   1      40.648  26.247  28.206  1.00  0.00     0.031 C 
ATOM     43  C   UNL A   1      47.065  24.700  26.205  1.00  0.00     0.029 A 
ATOM     44  C   UNL A   1      46.846  26.082  26.620  1.00  0.00     0.049 A 
ATOM     45  H   UNL A   1      45.086  26.924  27.349  1.00  0.00     0.167 HD
ATOM     46  C   UNL A   1      41.263  28.593  28.701  1.00  0.00     0.037 A 
ATOM     47  C   UNL A   1      47.771  27.061  26.600  1.00  0.00     0.037 A 
ATOM     48  C   UNL A   1      42.204  29.678  28.799  1.00  0.00     0.049 A 
ATOM     49  C   UNL A   1      47.390  28.438  27.073  1.00  0.00     0.074 A 
ATOM     50  C   UNL A   1      41.994  30.963  29.264  1.00  0.00     0.029 A 
ATOM     51  N   UNL A   1      43.537  29.600  28.421  1.00  0.00    -0.354 N 
ATOM     52  N   UNL A   1      46.236  28.873  27.516  1.00  0.00    -0.248 NA
ATOM     53  C   UNL A   1      48.447  29.460  27.051  1.00  0.00     0.031 C 
ATOM     54  C   UNL A   1      43.188  31.678  29.126  1.00  0.00     0.029 A 
ATOM     55  C   UNL A   1      44.158  30.822  28.628  1.00  0.00     0.049 A 
ATOM     56  H   UNL A   1      43.976  28.797  28.060  1.00  0.00     0.167 HD
ATOM     57  C   UNL A   1      46.435  30.204  27.860  1.00  0.00     0.074 A 
ATOM     58  C   UNL A   1      47.824  30.502  27.583  1.00  0.00     0.031 C 
ATOM     59  C   UNL A   1      45.547  31.097  28.362  1.00  0.00     0.037 A 
BRANCH  46  60
ATOM     60  C   UNL A   1      39.835  28.845  29.092  1.00  0.00     0.064 A 
ATOM     61  C   UNL A   1      39.388  28.658  30.409  1.00  0.00     0.173 A 
ATOM     62  C   UNL A   1      38.905  29.297  28.144  1.00  0.00     0.173 A 
ATOM     63  F   UNL A   1      40.233  28.215  31.354  1.00  0.00    -0.203 F 
ATOM     64  C   UNL A   1      38.056  28.877  30.754  1.00  0.00     0.198 A 
ATOM     65  C   UNL A   1      37.582  29.548  28.500  1.00  0.00     0.198 A 
ATOM     66  F   UNL A   1      39.279  29.498  26.871  1.00  0.00    -0.203 F 
ATOM     67  F   UNL A   1      37.641  28.634  32.005  1.00  0.00    -0.200 F 
ATOM     68  C   UNL A   1      37.157  29.328  29.801  1.00  0.00     0.200 A 
ATOM     69  F   UNL A   1      36.716  29.998  27.580  1.00  0.00    -0.200 F 
ATOM     70  F   UNL A   1      35.877  29.544  30.135  1.00  0.00    -0.200 F 
ENDBRANCH  46  60
BRANCH  47  71
ATOM     71  C   UNL A   1      49.156  26.766  26.149  1.00  0.00     0.064 A 
ATOM     72  C   UNL A   1      50.112  26.266  27.045  1.00  0.00     0.173 A 
ATOM     73  C   UNL A   1      49.557  26.980  24.822  1.00  0.00     0.173 A 
ATOM     74  F   UNL A   1      49.783  26.063  28.330  1.00  0.00    -0.203 F 
ATOM     75  C   UNL A   1      51.420  26.013  26.637  1.00  0.00     0.198 A 
ATOM     76  C   UNL A   1      50.858  26.700  24.409  1.00  0.00     0.198 A 
ATOM     77  F   UNL A   1      48.681  27.452  23.924  1.00  0.00    -0.203 F 
ATOM     78  F   UNL A   1      52.325  25.581  27.526  1.00  0.00    -0.200 F 
ATOM     79  C   UNL A   1      51.790  26.225  25.319  1.00  0.00     0.200 A 
ATOM     80  F   UNL A   1      51.208  26.891  23.129  1.00  0.00    -0.200 F 
ATOM     81  F   UNL A   1      53.048  25.978  24.925  1.00  0.00    -0.200 F 
ENDBRANCH  47  71
BRANCH  59  82
ATOM     82  C   UNL A   1      46.062  32.467  28.695  1.00  0.00     0.064 A 
ATOM     83  C   UNL A   1      46.615  32.767  29.948  1.00  0.00     0.173 A 
ATOM     84  C   UNL A   1      46.038  33.485  27.727  1.00  0.00     0.173 A 
ATOM     85  F   UNL A   1      46.648  31.835  30.912  1.00  0.00    -0.203 F 
ATOM     86  C   UNL A   1      47.097  34.043  30.230  1.00  0.00     0.198 A 
ATOM     87  C   UNL A   1      46.552  34.748  28.001  1.00  0.00     0.198 A 
ATOM     88  F   UNL A   1      45.529  33.247  26.509  1.00  0.00    -0.203 F 
ATOM     89  F   UNL A   1      47.574  34.321  31.452  1.00  0.00    -0.200 F 
ATOM     90  C   UNL A   1      47.073  35.028  29.255  1.00  0.00     0.200 A 
ATOM     91  F   UNL A   1      46.543  35.694  27.053  1.00  0.00    -0.200 F 
ATOM     92  F   UNL A   1      47.547  36.253  29.526  1.00  0.00    -0.200 F 
ENDBRANCH  59  82
ENDBRANCH  33  34
ENDBRANCH  25  28
ENDBRANCH  23  24
ENDBRANCH  22  23
ENDBRANCH  21  22
ENDBRANCH   1  21
TORSDOF 15
ENDMDL
MODEL 3
REMARK VINA RESULT:     -11.6      0.969      2.013
REMARK SMILES C[C@@H]1[C@@H](C(=O)NCCCCNC(=O)c2ccc(-c3c4nc(c(-c5c(F)c(F)c(F)c(F)c5F)c5ccc([nH]5)c(-c5c(F)c(F)c(F)c(F)c5F)c5nc(c(-c6c(F)c(F)c(F)c(F)c6F)c6ccc3[nH]6)C=C5)C=C4)cc2)CC[N@@H+]1CC(=O)N(C)C1CC1
REMARK SMILES IDX 7 1 6 2 4 3 5 4 3 6 1 7 2 8 79 9 77 10 78 11 80 13 81 14
REMARK SMILES IDX 82 15 83 16 84 17 85 18 86 19 87 20 8 21 9 22 10 23 11 24
REMARK SMILES IDX 12 25 13 27 14 28 15 29 76 30 16 31 75 32 17 33 18 34 19 35
REMARK SMILES IDX 69 36 20 37 74 38 68 39 70 40 21 41 73 42 67 43 66 44 22 46
REMARK SMILES IDX 54 47 34 48 53 49 35 50 38 51 52 52 71 53 36 54 37 55 51 57
REMARK SMILES IDX 72 58 39 59 23 60 24 61 32 62 25 63 26 64 30 65 33 66 27 67
REMARK SMILES IDX 28 68 31 69 29 70 55 71 56 72 64 73 57 74 58 75 62 76 65 77
REMARK SMILES IDX 59 78 60 79 63 80 61 81 40 82 41 83 49 84 42 85 43 86 47 87
REMARK SMILES IDX 50 88 44 89 45 90 48 91 46 92
REMARK H PARENT 6 5 79 12 11 26 70 45 38 56
REMARK Flexibility Score: inf
ROOT
ATOM      1  C   UNL A   1      31.430  29.885  25.136  1.00  0.00     0.116 C 
ENDROOT
BRANCH   1   2
ATOM      2  N   UNL A   1      32.617  29.831  24.305  1.00  0.00    -0.356 N 
ATOM      3  C   UNL A   1      33.129  28.782  23.602  1.00  0.00     0.229 C 
ATOM      4  O   UNL A   1      34.121  29.007  22.910  1.00  0.00    -0.275 OA
ATOM      5  H   UNL A   1      33.125  30.671  24.239  1.00  0.00     0.163 HD
BRANCH   3   6
ATOM      6  C   UNL A   1      32.499  27.403  23.759  1.00  0.00     0.142 C 
ATOM      7  C   UNL A   1      33.421  25.904  25.565  1.00  0.00     0.076 C 
ATOM      8  C   UNL A   1      33.550  26.324  24.103  1.00  0.00     0.194 C 
ATOM      9  N   UNL A   1      33.449  25.295  23.061  1.00  0.00    -0.324 N 
ATOM     10  C   UNL A   1      31.821  26.897  22.488  1.00  0.00     0.081 C 
ATOM     11  C   UNL A   1      32.789  25.890  21.905  1.00  0.00     0.263 C 
ATOM     12  H   UNL A   1      34.416  25.045  22.855  1.00  0.00     0.348 HD
BRANCH   9  13
ATOM     13  C   UNL A   1      33.087  23.912  23.379  1.00  0.00     0.364 C 
BRANCH  13  14
ATOM     14  C   UNL A   1      34.265  22.930  23.448  1.00  0.00     0.277 C 
ATOM     15  O   UNL A   1      35.262  23.121  22.737  1.00  0.00    -0.268 OA
BRANCH  14  16
ATOM     16  N   UNL A   1      34.215  21.838  24.311  1.00  0.00    -0.338 N 
ATOM     17  C   UNL A   1      33.236  20.756  24.285  1.00  0.00     0.147 C 
BRANCH  16  18
ATOM     18  C   UNL A   1      35.152  21.817  25.416  1.00  0.00     0.085 C 
ATOM     19  C   UNL A   1      35.642  23.057  26.117  1.00  0.00     0.027 C 
ATOM     20  C   UNL A   1      34.679  22.143  26.811  1.00  0.00     0.027 C 
ENDBRANCH  16  18
ENDBRANCH  14  16
ENDBRANCH  13  14
ENDBRANCH   9  13
ENDBRANCH   3   6
ENDBRANCH   1   2
BRANCH   1  21
ATOM     21  C   UNL A   1      31.708  30.456  26.522  1.00  0.00     0.023 C 
BRANCH  21  22
ATOM     22  C   UNL A   1      31.533  31.969  26.656  1.00  0.00     0.023 C 
BRANCH  22  23
ATOM     23  C   UNL A   1      32.719  32.716  27.253  1.00  0.00     0.116 C 
BRANCH  23  24
ATOM     24  N   UNL A   1      32.409  34.095  27.589  1.00  0.00    -0.352 N 
ATOM     25  C   UNL A   1      32.969  34.903  28.554  1.00  0.00     0.251 C 
ATOM     26  H   UNL A   1      31.698  34.512  27.050  1.00  0.00     0.163 HD
ATOM     27  O   UNL A   1      32.493  35.998  28.801  1.00  0.00    -0.269 OA
BRANCH  25  28
ATOM     28  C   UNL A   1      34.137  34.410  29.315  1.00  0.00     0.039 A 
ATOM     29  C   UNL A   1      33.920  33.725  30.513  1.00  0.00     0.014 A 
ATOM     30  C   UNL A   1      35.434  34.595  28.831  1.00  0.00     0.014 A 
ATOM     31  C   UNL A   1      35.005  33.165  31.191  1.00  0.00     0.010 A 
ATOM     32  C   UNL A   1      36.500  33.960  29.458  1.00  0.00     0.010 A 
ATOM     33  C   UNL A   1      36.298  33.246  30.650  1.00  0.00    -0.014 A 
BRANCH  33  34
ATOM     34  C   UNL A   1      37.460  32.612  31.325  1.00  0.00     0.031 A 
ATOM     35  C   UNL A   1      38.194  31.488  30.649  1.00  0.00     0.074 A 
ATOM     36  C   UNL A   1      37.812  33.002  32.565  1.00  0.00     0.049 A 
ATOM     37  N   UNL A   1      39.181  30.754  31.097  1.00  0.00    -0.248 NA
ATOM     38  C   UNL A   1      37.736  31.117  29.300  1.00  0.00     0.031 C 
ATOM     39  C   UNL A   1      37.149  34.048  33.345  1.00  0.00     0.029 A 
ATOM     40  N   UNL A   1      38.813  32.556  33.392  1.00  0.00    -0.354 N 
ATOM     41  C   UNL A   1      39.445  29.827  30.096  1.00  0.00     0.074 A 
ATOM     42  C   UNL A   1      38.476  30.049  29.047  1.00  0.00     0.031 C 
ATOM     43  C   UNL A   1      37.776  34.180  34.525  1.00  0.00     0.029 A 
ATOM     44  C   UNL A   1      38.859  33.206  34.601  1.00  0.00     0.049 A 
ATOM     45  H   UNL A   1      39.439  31.837  33.141  1.00  0.00     0.167 HD
ATOM     46  C   UNL A   1      40.425  28.894  30.044  1.00  0.00     0.037 A 
ATOM     47  C   UNL A   1      39.683  33.031  35.652  1.00  0.00     0.037 A 
ATOM     48  C   UNL A   1      41.405  28.696  31.080  1.00  0.00     0.049 A 
ATOM     49  C   UNL A   1      40.764  31.987  35.570  1.00  0.00     0.074 A 
ATOM     50  C   UNL A   1      42.472  27.815  31.101  1.00  0.00     0.029 A 
ATOM     51  N   UNL A   1      41.435  29.391  32.280  1.00  0.00    -0.354 N 
ATOM     52  N   UNL A   1      41.047  31.162  34.593  1.00  0.00    -0.248 NA
ATOM     53  C   UNL A   1      41.648  31.857  36.737  1.00  0.00     0.031 C 
ATOM     54  C   UNL A   1      43.120  27.945  32.333  1.00  0.00     0.029 A 
ATOM     55  C   UNL A   1      42.494  28.947  33.056  1.00  0.00     0.049 A 
ATOM     56  H   UNL A   1      40.800  30.096  32.540  1.00  0.00     0.167 HD
ATOM     57  C   UNL A   1      42.160  30.442  35.009  1.00  0.00     0.074 A 
ATOM     58  C   UNL A   1      42.506  30.936  36.325  1.00  0.00     0.031 C 
ATOM     59  C   UNL A   1      42.834  29.462  34.359  1.00  0.00     0.037 A 
BRANCH  46  60
ATOM     60  C   UNL A   1      40.484  28.021  28.823  1.00  0.00     0.064 A 
ATOM     61  C   UNL A   1      39.800  26.797  28.759  1.00  0.00     0.173 A 
ATOM     62  C   UNL A   1      41.219  28.420  27.697  1.00  0.00     0.173 A 
ATOM     63  F   UNL A   1      39.092  26.362  29.813  1.00  0.00    -0.203 F 
ATOM     64  C   UNL A   1      39.879  25.989  27.628  1.00  0.00     0.198 A 
ATOM     65  C   UNL A   1      41.267  27.625  26.554  1.00  0.00     0.198 A 
ATOM     66  F   UNL A   1      41.887  29.583  27.701  1.00  0.00    -0.203 F 
ATOM     67  F   UNL A   1      39.266  24.797  27.614  1.00  0.00    -0.200 F 
ATOM     68  C   UNL A   1      40.607  26.406  26.524  1.00  0.00     0.200 A 
ATOM     69  F   UNL A   1      41.959  28.036  25.482  1.00  0.00    -0.200 F 
ATOM     70  F   UNL A   1      40.678  25.630  25.435  1.00  0.00    -0.200 F 
ENDBRANCH  46  60
BRANCH  47  71
ATOM     71  C   UNL A   1      39.541  33.888  36.859  1.00  0.00     0.064 A 
ATOM     72  C   UNL A   1      38.779  33.462  37.956  1.00  0.00     0.173 A 
ATOM     73  C   UNL A   1      40.155  35.145  36.941  1.00  0.00     0.173 A 
ATOM     74  F   UNL A   1      38.155  32.275  37.918  1.00  0.00    -0.203 F 
ATOM     75  C   UNL A   1      38.619  34.271  39.079  1.00  0.00     0.198 A 
ATOM     76  C   UNL A   1      40.018  35.941  38.077  1.00  0.00     0.198 A 
ATOM     77  F   UNL A   1      40.900  35.598  35.922  1.00  0.00    -0.203 F 
ATOM     78  F   UNL A   1      37.845  33.859  40.094  1.00  0.00    -0.200 F 
ATOM     79  C   UNL A   1      39.242  35.507  39.141  1.00  0.00     0.200 A 
ATOM     80  F   UNL A   1      40.635  37.129  38.139  1.00  0.00    -0.200 F 
ATOM     81  F   UNL A   1      39.090  36.283  40.224  1.00  0.00    -0.200 F 
ENDBRANCH  47  71
BRANCH  59  82
ATOM     82  C   UNL A   1      44.048  28.894  35.036  1.00  0.00     0.064 A 
ATOM     83  C   UNL A   1      45.323  29.452  34.862  1.00  0.00     0.173 A 
ATOM     84  C   UNL A   1      43.923  27.799  35.906  1.00  0.00     0.173 A 
ATOM     85  F   UNL A   1      45.498  30.490  34.031  1.00  0.00    -0.203 F 
ATOM     86  C   UNL A   1      46.432  28.916  35.511  1.00  0.00     0.198 A 
ATOM     87  C   UNL A   1      45.029  27.288  36.579  1.00  0.00     0.198 A 
ATOM     88  F   UNL A   1      42.725  27.234  36.114  1.00  0.00    -0.203 F 
ATOM     89  F   UNL A   1      47.649  29.433  35.290  1.00  0.00    -0.200 F 
ATOM     90  C   UNL A   1      46.283  27.841  36.374  1.00  0.00     0.200 A 
ATOM     91  F   UNL A   1      44.880  26.259  37.424  1.00  0.00    -0.200 F 
ATOM     92  F   UNL A   1      47.351  27.332  37.004  1.00  0.00    -0.200 F 
ENDBRANCH  59  82
ENDBRANCH  33  34
ENDBRANCH  25  28
ENDBRANCH  23  24
ENDBRANCH  22  23
ENDBRANCH  21  22
ENDBRANCH   1  21
TORSDOF 15
ENDMDL
