MODEL 1
REMARK VINA RESULT:     -11.6      0.000      0.000
REMARK SMILES CCCOc1ccc(N[C@H](C)[C@H](C)C(=O)NCCCCNC(=O)c2ccc(-c3c4nc(c(-c5c(F)c(F)c(F)c(F)c5F)c5ccc([nH]5)c(-c5c(F)c(F)c(F)c(F)c5F)c5nc(c(-c6c(F)c(F)c(F)c(F)c6F)c6ccc3[nH]6)C=C5)C=C4)cc2)cc1
REMARK SMILES IDX 14 1 15 2 16 3 12 5 13 6 10 7 11 8 9 9 8 11 5 12 6 13 88 14
REMARK SMILES IDX 7 15 87 16 4 17 3 18 2 19 1 20 17 21 18 22 19 23 20 24 21 25
REMARK SMILES IDX 22 26 23 28 24 29 25 30 86 31 26 32 85 33 27 34 28 35 29 36
REMARK SMILES IDX 79 37 30 38 84 39 78 40 80 41 31 42 83 43 77 44 76 45 32 47
REMARK SMILES IDX 64 48 44 49 63 50 45 51 48 52 62 53 81 54 46 55 47 56 61 58
REMARK SMILES IDX 82 59 49 60 33 61 34 62 42 63 35 64 36 65 40 66 43 67 37 68
REMARK SMILES IDX 38 69 41 70 39 71 65 72 66 73 74 74 67 75 68 76 72 77 75 78
REMARK SMILES IDX 69 79 70 80 73 81 71 82 50 83 51 84 59 85 52 86 53 87 57 88
REMARK SMILES IDX 60 89 54 90 55 91 58 92 56 93
REMARK H PARENT 16 4 9 10 21 27 80 46 48 57
REMARK Flexibility Score: inf
ROOT
ATOM      1  C   UNL A   1      31.648  27.357  26.562  1.00  0.00     0.224 C 
ATOM      2  O   UNL A   1      31.044  26.393  27.042  1.00  0.00    -0.275 OA
ATOM      3  N   UNL A   1      31.501  28.555  27.193  1.00  0.00    -0.356 N 
ATOM      4  H   UNL A   1      30.782  28.586  27.865  1.00  0.00     0.163 HD
ENDROOT
BRANCH   1   5
ATOM      5  C   UNL A   1      32.504  27.181  25.312  1.00  0.00     0.097 C 
ATOM      6  C   UNL A   1      33.994  27.039  25.647  1.00  0.00     0.020 C 
BRANCH   5   7
ATOM      7  C   UNL A   1      31.969  26.176  24.242  1.00  0.00     0.088 C 
ATOM      8  C   UNL A   1      31.605  26.762  22.868  1.00  0.00     0.031 C 
BRANCH   7   9
ATOM      9  N   UNL A   1      32.974  25.118  24.053  1.00  0.00    -0.382 N 
ATOM     10  H   UNL A   1      33.894  25.364  23.804  1.00  0.00     0.160 HD
BRANCH   9  11
ATOM     11  C   UNL A   1      32.648  23.777  24.217  1.00  0.00     0.034 A 
ATOM     12  C   UNL A   1      32.277  21.051  24.694  1.00  0.00     0.119 A 
ATOM     13  C   UNL A   1      32.483  21.493  23.394  1.00  0.00     0.048 A 
ATOM     14  C   UNL A   1      32.317  21.938  25.763  1.00  0.00     0.048 A 
ATOM     15  C   UNL A   1      32.659  22.857  23.159  1.00  0.00     0.029 A 
ATOM     16  C   UNL A   1      32.467  23.299  25.520  1.00  0.00     0.029 A 
BRANCH  12  17
ATOM     17  O   UNL A   1      32.048  19.729  24.947  1.00  0.00    -0.494 OA
BRANCH  17  18
ATOM     18  C   UNL A   1      32.496  18.916  23.848  1.00  0.00     0.229 C 
BRANCH  18  19
ATOM     19  C   UNL A   1      33.753  18.117  24.206  1.00  0.00     0.038 C 
ATOM     20  C   UNL A   1      33.970  16.907  23.303  1.00  0.00     0.007 C 
ENDBRANCH  18  19
ENDBRANCH  17  18
ENDBRANCH  12  17
ENDBRANCH   9  11
ENDBRANCH   7   9
ENDBRANCH   5   7
ENDBRANCH   1   5
BRANCH   3  21
ATOM     21  C   UNL A   1      32.239  29.791  27.030  1.00  0.00     0.116 C 
BRANCH  21  22
ATOM     22  C   UNL A   1      31.601  30.754  26.047  1.00  0.00     0.023 C 
BRANCH  22  23
ATOM     23  C   UNL A   1      31.352  32.148  26.621  1.00  0.00     0.023 C 
BRANCH  23  24
ATOM     24  C   UNL A   1      32.554  32.810  27.293  1.00  0.00     0.116 C 
BRANCH  24  25
ATOM     25  N   UNL A   1      32.312  34.195  27.671  1.00  0.00    -0.352 N 
ATOM     26  C   UNL A   1      32.962  34.973  28.601  1.00  0.00     0.251 C 
ATOM     27  H   UNL A   1      31.576  34.639  27.192  1.00  0.00     0.163 HD
ATOM     28  O   UNL A   1      32.531  36.079  28.889  1.00  0.00    -0.269 OA
BRANCH  26  29
ATOM     29  C   UNL A   1      34.166  34.446  29.278  1.00  0.00     0.039 A 
ATOM     30  C   UNL A   1      34.010  33.775  30.492  1.00  0.00     0.014 A 
ATOM     31  C   UNL A   1      35.434  34.590  28.710  1.00  0.00     0.014 A 
ATOM     32  C   UNL A   1      35.121  33.189  31.101  1.00  0.00     0.010 A 
ATOM     33  C   UNL A   1      36.523  33.929  29.270  1.00  0.00     0.010 A 
ATOM     34  C   UNL A   1      36.379  33.225  30.475  1.00  0.00    -0.014 A 
BRANCH  34  35
ATOM     35  C   UNL A   1      37.539  32.516  31.074  1.00  0.00     0.031 A 
ATOM     36  C   UNL A   1      38.028  32.875  32.450  1.00  0.00     0.074 A 
ATOM     37  C   UNL A   1      38.173  31.565  30.361  1.00  0.00     0.049 A 
ATOM     38  N   UNL A   1      39.006  32.347  33.144  1.00  0.00    -0.248 NA
ATOM     39  C   UNL A   1      37.350  33.990  33.128  1.00  0.00     0.031 C 
ATOM     40  C   UNL A   1      37.839  31.174  28.990  1.00  0.00     0.029 A 
ATOM     41  N   UNL A   1      39.227  30.750  30.689  1.00  0.00    -0.354 N 
ATOM     42  C   UNL A   1      39.057  33.064  34.332  1.00  0.00     0.074 A 
ATOM     43  C   UNL A   1      38.061  34.109  34.239  1.00  0.00     0.031 C 
ATOM     44  C   UNL A   1      38.640  30.166  28.611  1.00  0.00     0.029 A 
ATOM     45  C   UNL A   1      39.569  29.864  29.695  1.00  0.00     0.049 A 
ATOM     46  H   UNL A   1      39.694  30.795  31.555  1.00  0.00     0.167 HD
ATOM     47  C   UNL A   1      39.843  32.853  35.415  1.00  0.00     0.037 A 
ATOM     48  C   UNL A   1      40.521  28.913  29.664  1.00  0.00     0.037 A 
ATOM     49  C   UNL A   1      40.825  31.803  35.509  1.00  0.00     0.049 A 
ATOM     50  C   UNL A   1      41.381  28.699  30.881  1.00  0.00     0.074 A 
ATOM     51  C   UNL A   1      41.633  31.469  36.582  1.00  0.00     0.029 A 
ATOM     52  N   UNL A   1      41.140  30.922  34.484  1.00  0.00    -0.354 N 
ATOM     53  N   UNL A   1      41.360  29.326  32.032  1.00  0.00    -0.248 NA
ATOM     54  C   UNL A   1      42.389  27.634  30.797  1.00  0.00     0.031 C 
ATOM     55  C   UNL A   1      42.476  30.426  36.188  1.00  0.00     0.029 A 
ATOM     56  C   UNL A   1      42.148  30.063  34.892  1.00  0.00     0.049 A 
ATOM     57  H   UNL A   1      40.710  30.909  33.598  1.00  0.00     0.167 HD
ATOM     58  C   UNL A   1      42.328  28.714  32.818  1.00  0.00     0.074 A 
ATOM     59  C   UNL A   1      42.899  27.651  32.018  1.00  0.00     0.031 C 
ATOM     60  C   UNL A   1      42.710  29.008  34.086  1.00  0.00     0.037 A 
BRANCH  47  61
ATOM     61  C   UNL A   1      39.671  33.774  36.590  1.00  0.00     0.064 A 
ATOM     62  C   UNL A   1      40.294  35.031  36.640  1.00  0.00     0.173 A 
ATOM     63  C   UNL A   1      38.843  33.413  37.665  1.00  0.00     0.173 A 
ATOM     64  F   UNL A   1      41.104  35.423  35.645  1.00  0.00    -0.203 F 
ATOM     65  C   UNL A   1      40.122  35.876  37.734  1.00  0.00     0.198 A 
ATOM     66  C   UNL A   1      38.645  34.275  38.740  1.00  0.00     0.198 A 
ATOM     67  F   UNL A   1      38.218  32.226  37.668  1.00  0.00    -0.203 F 
ATOM     68  F   UNL A   1      40.770  37.048  37.782  1.00  0.00    -0.200 F 
ATOM     69  C   UNL A   1      39.291  35.501  38.778  1.00  0.00     0.200 A 
ATOM     70  F   UNL A   1      37.829  33.918  39.742  1.00  0.00    -0.200 F 
ATOM     71  F   UNL A   1      39.117  36.320  39.825  1.00  0.00    -0.200 F 
ENDBRANCH  47  61
BRANCH  48  72
ATOM     72  C   UNL A   1      40.690  28.067  28.453  1.00  0.00     0.064 A 
ATOM     73  C   UNL A   1      41.502  28.483  27.387  1.00  0.00     0.173 A 
ATOM     74  C   UNL A   1      40.037  26.831  28.329  1.00  0.00     0.173 A 
ATOM     75  F   UNL A   1      42.133  29.665  27.449  1.00  0.00    -0.203 F 
ATOM     76  C   UNL A   1      41.632  27.711  26.235  1.00  0.00     0.198 A 
ATOM     77  C   UNL A   1      40.195  26.044  27.190  1.00  0.00     0.198 A 
ATOM     78  F   UNL A   1      39.255  26.382  29.320  1.00  0.00    -0.203 F 
ATOM     79  F   UNL A   1      42.371  28.159  25.211  1.00  0.00    -0.200 F 
ATOM     80  C   UNL A   1      40.983  26.489  26.139  1.00  0.00     0.200 A 
ATOM     81  F   UNL A   1      39.580  24.856  27.109  1.00  0.00    -0.200 F 
ATOM     82  F   UNL A   1      41.111  25.744  25.033  1.00  0.00    -0.200 F 
ENDBRANCH  48  72
BRANCH  60  83
ATOM     83  C   UNL A   1      43.773  28.140  34.699  1.00  0.00     0.064 A 
ATOM     84  C   UNL A   1      43.457  26.984  35.428  1.00  0.00     0.173 A 
ATOM     85  C   UNL A   1      45.130  28.465  34.544  1.00  0.00     0.173 A 
ATOM     86  F   UNL A   1      42.175  26.635  35.618  1.00  0.00    -0.203 F 
ATOM     87  C   UNL A   1      44.455  26.210  36.013  1.00  0.00     0.198 A 
ATOM     88  C   UNL A   1      46.127  27.667  35.097  1.00  0.00     0.198 A 
ATOM     89  F   UNL A   1      45.490  29.554  33.848  1.00  0.00    -0.203 F 
ATOM     90  F   UNL A   1      44.125  25.148  36.763  1.00  0.00    -0.200 F 
ATOM     91  C   UNL A   1      45.789  26.548  35.843  1.00  0.00     0.200 A 
ATOM     92  F   UNL A   1      47.416  27.987  34.916  1.00  0.00    -0.200 F 
ATOM     93  F   UNL A   1      46.749  25.802  36.406  1.00  0.00    -0.200 F 
ENDBRANCH  60  83
ENDBRANCH  34  35
ENDBRANCH  26  29
ENDBRANCH  24  25
ENDBRANCH  23  24
ENDBRANCH  22  23
ENDBRANCH  21  22
ENDBRANCH   3  21
TORSDOF 17
ENDMDL
MODEL 2
REMARK VINA RESULT:     -11.5      5.605      9.605
REMARK SMILES CCCOc1ccc(N[C@H](C)[C@H](C)C(=O)NCCCCNC(=O)c2ccc(-c3c4nc(c(-c5c(F)c(F)c(F)c(F)c5F)c5ccc([nH]5)c(-c5c(F)c(F)c(F)c(F)c5F)c5nc(c(-c6c(F)c(F)c(F)c(F)c6F)c6ccc3[nH]6)C=C5)C=C4)cc2)cc1
REMARK SMILES IDX 14 1 15 2 16 3 12 5 13 6 10 7 11 8 9 9 8 11 5 12 6 13 88 14
REMARK SMILES IDX 7 15 87 16 4 17 3 18 2 19 1 20 17 21 18 22 19 23 20 24 21 25
REMARK SMILES IDX 22 26 23 28 24 29 25 30 86 31 26 32 85 33 27 34 28 35 29 36
REMARK SMILES IDX 79 37 30 38 84 39 78 40 80 41 31 42 83 43 77 44 76 45 32 47
REMARK SMILES IDX 64 48 44 49 63 50 45 51 48 52 62 53 81 54 46 55 47 56 61 58
REMARK SMILES IDX 82 59 49 60 33 61 34 62 42 63 35 64 36 65 40 66 43 67 37 68
REMARK SMILES IDX 38 69 41 70 39 71 65 72 66 73 74 74 67 75 68 76 72 77 75 78
REMARK SMILES IDX 69 79 70 80 73 81 71 82 50 83 51 84 59 85 52 86 53 87 57 88
REMARK SMILES IDX 60 89 54 90 55 91 58 92 56 93
REMARK H PARENT 16 4 9 10 21 27 80 46 48 57
REMARK Flexibility Score: inf
ROOT
ATOM      1  C   UNL A   1      35.012  23.683  23.820  1.00  0.00     0.224 C 
ATOM      2  O   UNL A   1      34.548  24.132  22.769  1.00  0.00    -0.275 OA
ATOM      3  N   UNL A   1      36.003  22.754  23.712  1.00  0.00    -0.356 N 
ATOM      4  H   UNL A   1      36.132  22.388  22.807  1.00  0.00     0.163 HD
ENDROOT
BRANCH   1   5
ATOM      5  C   UNL A   1      34.472  24.162  25.164  1.00  0.00     0.097 C 
ATOM      6  C   UNL A   1      34.230  25.676  25.185  1.00  0.00     0.020 C 
BRANCH   5   7
ATOM      7  C   UNL A   1      33.331  23.303  25.797  1.00  0.00     0.088 C 
ATOM      8  C   UNL A   1      32.362  24.033  26.741  1.00  0.00     0.031 C 
BRANCH   7   9
ATOM      9  N   UNL A   1      32.556  22.684  24.711  1.00  0.00    -0.382 N 
ATOM     10  H   UNL A   1      31.943  23.240  24.177  1.00  0.00     0.160 HD
BRANCH   9  11
ATOM     11  C   UNL A   1      32.671  21.329  24.423  1.00  0.00     0.034 A 
ATOM     12  C   UNL A   1      32.584  18.605  23.816  1.00  0.00     0.119 A 
ATOM     13  C   UNL A   1      32.921  19.006  25.103  1.00  0.00     0.048 A 
ATOM     14  C   UNL A   1      32.230  19.539  22.849  1.00  0.00     0.048 A 
ATOM     15  C   UNL A   1      32.971  20.369  25.400  1.00  0.00     0.029 A 
ATOM     16  C   UNL A   1      32.309  20.895  23.143  1.00  0.00     0.029 A 
BRANCH  12  17
ATOM     17  O   UNL A   1      32.580  17.281  23.483  1.00  0.00    -0.494 OA
BRANCH  17  18
ATOM     18  C   UNL A   1      33.195  16.495  24.518  1.00  0.00     0.229 C 
BRANCH  18  19
ATOM     19  C   UNL A   1      34.650  16.151  24.182  1.00  0.00     0.038 C 
ATOM     20  C   UNL A   1      35.493  15.850  25.418  1.00  0.00     0.007 C 
ENDBRANCH  18  19
ENDBRANCH  17  18
ENDBRANCH  12  17
ENDBRANCH   9  11
ENDBRANCH   7   9
ENDBRANCH   5   7
ENDBRANCH   1   5
BRANCH   3  21
ATOM     21  C   UNL A   1      36.895  22.222  24.721  1.00  0.00     0.116 C 
BRANCH  21  22
ATOM     22  C   UNL A   1      36.650  20.759  25.038  1.00  0.00     0.023 C 
BRANCH  22  23
ATOM     23  C   UNL A   1      37.885  19.875  24.873  1.00  0.00     0.023 C 
BRANCH  23  24
ATOM     24  C   UNL A   1      39.090  20.255  25.733  1.00  0.00     0.116 C 
BRANCH  24  25
ATOM     25  N   UNL A   1      40.070  19.186  25.857  1.00  0.00    -0.352 N 
ATOM     26  C   UNL A   1      41.423  19.264  26.093  1.00  0.00     0.251 C 
ATOM     27  H   UNL A   1      39.712  18.274  25.758  1.00  0.00     0.163 HD
ATOM     28  O   UNL A   1      42.119  18.262  26.026  1.00  0.00    -0.269 OA
BRANCH  26  29
ATOM     29  C   UNL A   1      42.036  20.576  26.391  1.00  0.00     0.039 A 
ATOM     30  C   UNL A   1      42.449  21.378  25.326  1.00  0.00     0.014 A 
ATOM     31  C   UNL A   1      42.180  21.022  27.707  1.00  0.00     0.014 A 
ATOM     32  C   UNL A   1      42.944  22.657  25.581  1.00  0.00     0.010 A 
ATOM     33  C   UNL A   1      42.588  22.329  27.954  1.00  0.00     0.010 A 
ATOM     34  C   UNL A   1      42.980  23.160  26.894  1.00  0.00    -0.014 A 
BRANCH  34  35
ATOM     35  C   UNL A   1      43.413  24.556  27.154  1.00  0.00     0.031 A 
ATOM     36  C   UNL A   1      42.445  25.569  27.701  1.00  0.00     0.074 A 
ATOM     37  C   UNL A   1      44.678  24.921  26.868  1.00  0.00     0.049 A 
ATOM     38  N   UNL A   1      42.650  26.823  28.018  1.00  0.00    -0.248 NA
ATOM     39  C   UNL A   1      41.056  25.125  27.896  1.00  0.00     0.031 C 
ATOM     40  C   UNL A   1      45.692  24.051  26.270  1.00  0.00     0.029 A 
ATOM     41  N   UNL A   1      45.330  26.115  27.045  1.00  0.00    -0.354 N 
ATOM     42  C   UNL A   1      41.423  27.313  28.444  1.00  0.00     0.074 A 
ATOM     43  C   UNL A   1      40.462  26.244  28.281  1.00  0.00     0.031 C 
ATOM     44  C   UNL A   1      46.849  24.724  26.171  1.00  0.00     0.029 A 
ATOM     45  C   UNL A   1      46.650  26.084  26.663  1.00  0.00     0.049 A 
ATOM     46  H   UNL A   1      44.894  26.918  27.412  1.00  0.00     0.167 HD
ATOM     47  C   UNL A   1      41.129  28.533  28.952  1.00  0.00     0.037 A 
ATOM     48  C   UNL A   1      47.594  27.043  26.708  1.00  0.00     0.037 A 
ATOM     49  C   UNL A   1      42.091  29.591  29.124  1.00  0.00     0.049 A 
ATOM     50  C   UNL A   1      47.240  28.391  27.278  1.00  0.00     0.074 A 
ATOM     51  C   UNL A   1      41.907  30.844  29.682  1.00  0.00     0.029 A 
ATOM     52  N   UNL A   1      43.420  29.521  28.730  1.00  0.00    -0.354 N 
ATOM     53  N   UNL A   1      46.097  28.813  27.760  1.00  0.00    -0.248 NA
ATOM     54  C   UNL A   1      48.315  29.391  27.321  1.00  0.00     0.031 C 
ATOM     55  C   UNL A   1      43.107  31.553  29.572  1.00  0.00     0.029 A 
ATOM     56  C   UNL A   1      44.059  30.720  29.008  1.00  0.00     0.049 A 
ATOM     57  H   UNL A   1      43.846  28.737  28.314  1.00  0.00     0.167 HD
ATOM     58  C   UNL A   1      46.321  30.115  28.190  1.00  0.00     0.074 A 
ATOM     59  C   UNL A   1      47.717  30.402  27.933  1.00  0.00     0.031 C 
ATOM     60  C   UNL A   1      45.450  30.993  28.746  1.00  0.00     0.037 A 
BRANCH  47  61
ATOM     61  C   UNL A   1      39.706  28.791  29.365  1.00  0.00     0.064 A 
ATOM     62  C   UNL A   1      39.256  28.525  30.668  1.00  0.00     0.173 A 
ATOM     63  C   UNL A   1      38.789  29.344  28.457  1.00  0.00     0.173 A 
ATOM     64  F   UNL A   1      40.088  27.986  31.573  1.00  0.00    -0.203 F 
ATOM     65  C   UNL A   1      37.936  28.773  31.037  1.00  0.00     0.198 A 
ATOM     66  C   UNL A   1      37.480  29.624  28.841  1.00  0.00     0.198 A 
ATOM     67  F   UNL A   1      39.165  29.623  27.201  1.00  0.00    -0.203 F 
ATOM     68  F   UNL A   1      37.517  28.461  32.271  1.00  0.00    -0.200 F 
ATOM     69  C   UNL A   1      37.052  29.330  30.126  1.00  0.00     0.200 A 
ATOM     70  F   UNL A   1      36.630  30.176  27.963  1.00  0.00    -0.200 F 
ATOM     71  F   UNL A   1      35.785  29.578  30.486  1.00  0.00    -0.200 F 
ENDBRANCH  47  61
BRANCH  48  72
ATOM     72  C   UNL A   1      48.973  26.754  26.232  1.00  0.00     0.064 A 
ATOM     73  C   UNL A   1      49.339  26.981  24.897  1.00  0.00     0.173 A 
ATOM     74  C   UNL A   1      49.950  26.238  27.096  1.00  0.00     0.173 A 
ATOM     75  F   UNL A   1      48.436  27.456  24.027  1.00  0.00    -0.203 F 
ATOM     76  C   UNL A   1      50.618  26.675  24.438  1.00  0.00     0.198 A 
ATOM     77  C   UNL A   1      51.239  25.965  26.644  1.00  0.00     0.198 A 
ATOM     78  F   UNL A   1      49.656  26.010  28.384  1.00  0.00    -0.203 F 
ATOM     79  F   UNL A   1      50.924  26.850  23.145  1.00  0.00    -0.200 F 
ATOM     80  C   UNL A   1      51.570  26.174  25.313  1.00  0.00     0.200 A 
ATOM     81  F   UNL A   1      52.161  25.497  27.497  1.00  0.00    -0.200 F 
ATOM     82  F   UNL A   1      52.802  25.883  24.873  1.00  0.00    -0.200 F 
ENDBRANCH  48  72
BRANCH  60  83
ATOM     83  C   UNL A   1      45.993  32.336  29.147  1.00  0.00     0.064 A 
ATOM     84  C   UNL A   1      46.553  32.561  30.414  1.00  0.00     0.173 A 
ATOM     85  C   UNL A   1      45.965  33.411  28.245  1.00  0.00     0.173 A 
ATOM     86  F   UNL A   1      46.592  31.570  31.320  1.00  0.00    -0.203 F 
ATOM     87  C   UNL A   1      47.024  33.819  30.777  1.00  0.00     0.198 A 
ATOM     88  C   UNL A   1      46.472  34.658  28.598  1.00  0.00     0.198 A 
ATOM     89  F   UNL A   1      45.451  33.250  27.017  1.00  0.00    -0.203 F 
ATOM     90  F   UNL A   1      47.491  34.026  32.017  1.00  0.00    -0.200 F 
ATOM     91  C   UNL A   1      46.989  34.865  29.868  1.00  0.00     0.200 A 
ATOM     92  F   UNL A   1      46.453  35.662  27.711  1.00  0.00    -0.200 F 
ATOM     93  F   UNL A   1      47.443  36.076  30.218  1.00  0.00    -0.200 F 
ENDBRANCH  60  83
ENDBRANCH  34  35
ENDBRANCH  26  29
ENDBRANCH  24  25
ENDBRANCH  23  24
ENDBRANCH  22  23
ENDBRANCH  21  22
ENDBRANCH   3  21
TORSDOF 17
ENDMDL
MODEL 3
REMARK VINA RESULT:     -11.5      2.422      3.830
REMARK SMILES CCCOc1ccc(N[C@H](C)[C@H](C)C(=O)NCCCCNC(=O)c2ccc(-c3c4nc(c(-c5c(F)c(F)c(F)c(F)c5F)c5ccc([nH]5)c(-c5c(F)c(F)c(F)c(F)c5F)c5nc(c(-c6c(F)c(F)c(F)c(F)c6F)c6ccc3[nH]6)C=C5)C=C4)cc2)cc1
REMARK SMILES IDX 14 1 15 2 16 3 12 5 13 6 10 7 11 8 9 9 8 11 5 12 6 13 88 14
REMARK SMILES IDX 7 15 87 16 4 17 3 18 2 19 1 20 17 21 18 22 19 23 20 24 21 25
REMARK SMILES IDX 22 26 23 28 24 29 25 30 86 31 26 32 85 33 27 34 28 35 29 36
REMARK SMILES IDX 79 37 30 38 84 39 78 40 80 41 31 42 83 43 77 44 76 45 32 47
REMARK SMILES IDX 64 48 44 49 63 50 45 51 48 52 62 53 81 54 46 55 47 56 61 58
REMARK SMILES IDX 82 59 49 60 33 61 34 62 42 63 35 64 36 65 40 66 43 67 37 68
REMARK SMILES IDX 38 69 41 70 39 71 65 72 66 73 74 74 67 75 68 76 72 77 75 78
REMARK SMILES IDX 69 79 70 80 73 81 71 82 50 83 51 84 59 85 52 86 53 87 57 88
REMARK SMILES IDX 60 89 54 90 55 91 58 92 56 93
REMARK H PARENT 16 4 9 10 21 27 80 46 48 57
REMARK Flexibility Score: inf
ROOT
ATOM      1  C   UNL A   1      31.507  23.956  26.845  1.00  0.00     0.224 C 
ATOM      2  O   UNL A   1      30.585  23.307  27.347  1.00  0.00    -0.275 OA
ATOM      3  N   UNL A   1      31.249  25.256  26.531  1.00  0.00    -0.356 N 
ATOM      4  H   UNL A   1      30.298  25.510  26.561  1.00  0.00     0.163 HD
ENDROOT
BRANCH   1   5
ATOM      5  C   UNL A   1      32.860  23.297  26.592  1.00  0.00     0.097 C 
ATOM      6  C   UNL A   1      33.277  22.373  27.742  1.00  0.00     0.020 C 
BRANCH   5   7
ATOM      7  C   UNL A   1      33.090  22.717  25.161  1.00  0.00     0.088 C 
ATOM      8  C   UNL A   1      31.893  22.767  24.197  1.00  0.00     0.031 C 
BRANCH   7   9
ATOM      9  N   UNL A   1      34.222  23.426  24.546  1.00  0.00    -0.382 N 
ATOM     10  H   UNL A   1      34.046  24.142  23.893  1.00  0.00     0.160 HD
BRANCH   9  11
ATOM     11  C   UNL A   1      35.535  23.104  24.867  1.00  0.00     0.034 A 
ATOM     12  C   UNL A   1      38.051  22.248  25.724  1.00  0.00     0.119 A 
ATOM     13  C   UNL A   1      37.620  23.528  26.048  1.00  0.00     0.048 A 
ATOM     14  C   UNL A   1      37.222  21.370  25.035  1.00  0.00     0.048 A 
ATOM     15  C   UNL A   1      36.365  23.955  25.611  1.00  0.00     0.029 A 
ATOM     16  C   UNL A   1      35.984  21.810  24.579  1.00  0.00     0.029 A 
BRANCH  12  17
ATOM     17  O   UNL A   1      39.296  21.823  26.091  1.00  0.00    -0.494 OA
BRANCH  17  18
ATOM     18  C   UNL A   1      39.459  20.423  25.810  1.00  0.00     0.229 C 
BRANCH  18  19
ATOM     19  C   UNL A   1      40.869  19.933  26.152  1.00  0.00     0.038 C 
ATOM     20  C   UNL A   1      41.252  20.184  27.608  1.00  0.00     0.007 C 
ENDBRANCH  18  19
ENDBRANCH  17  18
ENDBRANCH  12  17
ENDBRANCH   9  11
ENDBRANCH   7   9
ENDBRANCH   5   7
ENDBRANCH   1   5
BRANCH   3  21
ATOM     21  C   UNL A   1      32.155  26.323  26.161  1.00  0.00     0.116 C 
BRANCH  21  22
ATOM     22  C   UNL A   1      31.452  27.599  25.738  1.00  0.00     0.023 C 
BRANCH  22  23
ATOM     23  C   UNL A   1      31.787  28.807  26.611  1.00  0.00     0.023 C 
BRANCH  23  24
ATOM     24  C   UNL A   1      32.841  29.759  26.048  1.00  0.00     0.116 C 
BRANCH  24  25
ATOM     25  N   UNL A   1      32.625  31.147  26.428  1.00  0.00    -0.352 N 
ATOM     26  C   UNL A   1      33.362  31.947  27.271  1.00  0.00     0.251 C 
ATOM     27  H   UNL A   1      31.837  31.577  26.023  1.00  0.00     0.163 HD
ATOM     28  O   UNL A   1      32.952  33.054  27.586  1.00  0.00    -0.269 OA
BRANCH  26  29
ATOM     29  C   UNL A   1      34.637  31.443  27.824  1.00  0.00     0.039 A 
ATOM     30  C   UNL A   1      35.697  32.337  27.982  1.00  0.00     0.014 A 
ATOM     31  C   UNL A   1      34.778  30.107  28.208  1.00  0.00     0.014 A 
ATOM     32  C   UNL A   1      36.876  31.903  28.588  1.00  0.00     0.010 A 
ATOM     33  C   UNL A   1      35.918  29.700  28.894  1.00  0.00     0.010 A 
ATOM     34  C   UNL A   1      36.983  30.593  29.087  1.00  0.00    -0.014 A 
BRANCH  34  35
ATOM     35  C   UNL A   1      38.200  30.162  29.821  1.00  0.00     0.031 A 
ATOM     36  C   UNL A   1      38.452  30.632  31.228  1.00  0.00     0.074 A 
ATOM     37  C   UNL A   1      39.097  29.368  29.206  1.00  0.00     0.049 A 
ATOM     38  N   UNL A   1      39.443  30.337  32.033  1.00  0.00    -0.248 NA
ATOM     39  C   UNL A   1      37.480  31.576  31.799  1.00  0.00     0.031 C 
ATOM     40  C   UNL A   1      39.002  28.902  27.821  1.00  0.00     0.029 A 
ATOM     41  N   UNL A   1      40.263  28.808  29.663  1.00  0.00    -0.354 N 
ATOM     42  C   UNL A   1      39.212  31.058  33.197  1.00  0.00     0.074 A 
ATOM     43  C   UNL A   1      38.028  31.857  32.971  1.00  0.00     0.031 C 
ATOM     44  C   UNL A   1      40.038  28.092  27.556  1.00  0.00     0.029 A 
ATOM     45  C   UNL A   1      40.892  28.011  28.737  1.00  0.00     0.049 A 
ATOM     46  H   UNL A   1      40.616  28.962  30.569  1.00  0.00     0.167 HD
ATOM     47  C   UNL A   1      39.907  31.034  34.359  1.00  0.00     0.037 A 
ATOM     48  C   UNL A   1      42.027  27.292  28.831  1.00  0.00     0.037 A 
ATOM     49  C   UNL A   1      41.079  30.228  34.584  1.00  0.00     0.049 A 
ATOM     50  C   UNL A   1      42.780  27.283  30.134  1.00  0.00     0.074 A 
ATOM     51  C   UNL A   1      41.823  30.089  35.743  1.00  0.00     0.029 A 
ATOM     52  N   UNL A   1      41.684  29.429  33.624  1.00  0.00    -0.354 N 
ATOM     53  N   UNL A   1      42.503  27.900  31.257  1.00  0.00    -0.248 NA
ATOM     54  C   UNL A   1      43.999  26.465  30.185  1.00  0.00     0.031 C 
ATOM     55  C   UNL A   1      42.910  29.254  35.468  1.00  0.00     0.029 A 
ATOM     56  C   UNL A   1      42.807  28.816  34.157  1.00  0.00     0.049 A 
ATOM     57  H   UNL A   1      41.363  29.314  32.700  1.00  0.00     0.167 HD
ATOM     58  C   UNL A   1      43.493  27.523  32.155  1.00  0.00     0.074 A 
ATOM     59  C   UNL A   1      44.363  26.604  31.450  1.00  0.00     0.031 C 
ATOM     60  C   UNL A   1      43.667  27.904  33.445  1.00  0.00     0.037 A 
BRANCH  47  61
ATOM     61  C   UNL A   1      39.416  31.905  35.482  1.00  0.00     0.064 A 
ATOM     62  C   UNL A   1      38.522  31.423  36.452  1.00  0.00     0.173 A 
ATOM     63  C   UNL A   1      39.871  33.226  35.612  1.00  0.00     0.173 A 
ATOM     64  F   UNL A   1      38.047  30.170  36.371  1.00  0.00    -0.203 F 
ATOM     65  C   UNL A   1      38.079  32.240  37.490  1.00  0.00     0.198 A 
ATOM     66  C   UNL A   1      39.453  34.028  36.671  1.00  0.00     0.198 A 
ATOM     67  F   UNL A   1      40.729  33.738  34.718  1.00  0.00    -0.203 F 
ATOM     68  F   UNL A   1      37.185  31.773  38.372  1.00  0.00    -0.200 F 
ATOM     69  C   UNL A   1      38.551  33.538  37.603  1.00  0.00     0.200 A 
ATOM     70  F   UNL A   1      39.921  35.278  36.788  1.00  0.00    -0.200 F 
ATOM     71  F   UNL A   1      38.132  34.319  38.608  1.00  0.00    -0.200 F 
ENDBRANCH  47  61
BRANCH  48  72
ATOM     72  C   UNL A   1      42.502  26.494  27.670  1.00  0.00     0.064 A 
ATOM     73  C   UNL A   1      42.023  25.196  27.439  1.00  0.00     0.173 A 
ATOM     74  C   UNL A   1      43.450  27.007  26.771  1.00  0.00     0.173 A 
ATOM     75  F   UNL A   1      41.130  24.653  28.279  1.00  0.00    -0.203 F 
ATOM     76  C   UNL A   1      42.495  24.431  26.375  1.00  0.00     0.198 A 
ATOM     77  C   UNL A   1      43.896  26.254  25.687  1.00  0.00     0.198 A 
ATOM     78  F   UNL A   1      43.935  28.245  26.940  1.00  0.00    -0.203 F 
ATOM     79  F   UNL A   1      42.061  23.174  26.211  1.00  0.00    -0.200 F 
ATOM     80  C   UNL A   1      43.426  24.963  25.495  1.00  0.00     0.200 A 
ATOM     81  F   UNL A   1      44.782  26.778  24.829  1.00  0.00    -0.200 F 
ATOM     82  F   UNL A   1      43.877  24.229  24.469  1.00  0.00    -0.200 F 
ENDBRANCH  48  72
BRANCH  60  83
ATOM     83  C   UNL A   1      44.824  27.297  34.189  1.00  0.00     0.064 A 
ATOM     84  C   UNL A   1      46.084  27.913  34.230  1.00  0.00     0.173 A 
ATOM     85  C   UNL A   1      44.665  26.087  34.881  1.00  0.00     0.173 A 
ATOM     86  F   UNL A   1      46.294  29.065  33.573  1.00  0.00    -0.203 F 
ATOM     87  C   UNL A   1      47.150  27.320  34.899  1.00  0.00     0.198 A 
ATOM     88  C   UNL A   1      45.723  25.516  35.582  1.00  0.00     0.198 A 
ATOM     89  F   UNL A   1      43.478  25.459  34.884  1.00  0.00    -0.203 F 
ATOM     90  F   UNL A   1      48.362  27.893  34.866  1.00  0.00    -0.200 F 
ATOM     91  C   UNL A   1      46.968  26.125  35.580  1.00  0.00     0.200 A 
ATOM     92  F   UNL A   1      45.539  24.371  36.253  1.00  0.00    -0.200 F 
ATOM     93  F   UNL A   1      47.995  25.555  36.225  1.00  0.00    -0.200 F 
ENDBRANCH  60  83
ENDBRANCH  34  35
ENDBRANCH  26  29
ENDBRANCH  24  25
ENDBRANCH  23  24
ENDBRANCH  22  23
ENDBRANCH  21  22
ENDBRANCH   3  21
TORSDOF 17
ENDMDL
