MODEL 1
REMARK VINA RESULT:     -11.9      0.000      0.000
REMARK SMILES CC[N@@H+](Cc1cccc(C)n1)Cc1csc(C(=O)NCCCCNC(=O)c2ccc(-c3c4nc(c(-c5c(F)c(F)c(F)c(F)c5F)c5ccc([nH]5)c(-c5c(F)c(F)c(F)c(F)c5F)c5nc(c(-c6c(F)c(F)c(F)c(F)c6F)c6ccc3[nH]6)C=C5)C=C4)cc2)n1
REMARK SMILES IDX 20 1 19 2 17 3 18 4 16 6 13 7 14 8 90 9 15 10 12 11 3 12
REMARK SMILES IDX 2 14 1 15 4 16 5 17 6 18 11 19 7 20 9 21 8 22 10 23 21 24
REMARK SMILES IDX 22 25 23 26 24 27 25 28 26 30 27 31 28 32 89 33 29 34 88 35
REMARK SMILES IDX 30 36 31 37 32 38 82 39 33 40 87 41 81 42 83 43 34 44 86 45
REMARK SMILES IDX 80 46 79 47 35 49 67 50 47 51 66 52 48 53 51 54 65 55 84 56
REMARK SMILES IDX 49 57 50 58 64 60 85 61 52 62 36 63 37 64 45 65 38 66 39 67
REMARK SMILES IDX 43 68 46 69 40 70 41 71 44 72 42 73 68 74 69 75 77 76 70 77
REMARK SMILES IDX 71 78 75 79 78 80 72 81 73 82 76 83 74 84 53 85 54 86 62 87
REMARK SMILES IDX 55 88 56 89 60 90 63 91 57 92 58 93 61 94 59 95
REMARK H PARENT 19 5 3 13 24 29 83 48 51 59
REMARK Flexibility Score: inf
ROOT
ATOM      1  C   UNL A   1      32.061  29.856  25.502  1.00  0.00     0.116 C 
ENDROOT
BRANCH   1   2
ATOM      2  N   UNL A   1      30.965  30.167  24.601  1.00  0.00    -0.350 N 
ATOM      3  C   UNL A   1      30.347  29.340  23.678  1.00  0.00     0.280 C 
ATOM      4  O   UNL A   1      29.294  29.757  23.186  1.00  0.00    -0.267 OA
ATOM      5  H   UNL A   1      30.615  31.086  24.654  1.00  0.00     0.163 HD
BRANCH   3   6
ATOM      6  C   UNL A   1      30.934  28.039  23.376  1.00  0.00     0.181 A 
ATOM      7  C   UNL A   1      31.110  25.830  23.159  1.00  0.00     0.106 A 
ATOM      8  C   UNL A   1      32.243  26.225  22.471  1.00  0.00     0.097 A 
ATOM      9  N   UNL A   1      30.364  26.886  23.666  1.00  0.00    -0.230 NA
ATOM     10  S   UNL A   1      32.430  27.929  22.550  1.00  0.00    -0.117 S 
BRANCH   7  11
ATOM     11  C   UNL A   1      30.555  24.448  23.337  1.00  0.00     0.320 C 
BRANCH  11  12
ATOM     12  N   UNL A   1      31.350  23.559  24.168  1.00  0.00    -0.325 N 
ATOM     13  H   UNL A   1      32.134  24.209  24.219  1.00  0.00     0.348 HD
BRANCH  12  14
ATOM     14  C   UNL A   1      31.197  23.523  25.610  1.00  0.00     0.259 C 
ATOM     15  C   UNL A   1      32.196  24.362  26.401  1.00  0.00     0.071 C 
ENDBRANCH  12  14
BRANCH  12  16
ATOM     16  C   UNL A   1      31.908  22.363  23.521  1.00  0.00     0.319 C 
BRANCH  16  17
ATOM     17  C   UNL A   1      33.264  21.818  23.945  1.00  0.00     0.095 A 
ATOM     18  C   UNL A   1      33.432  20.555  24.502  1.00  0.00     0.030 A 
ATOM     19  N   UNL A   1      34.305  22.691  23.862  1.00  0.00    -0.252 NA
ATOM     20  C   UNL A   1      34.696  20.149  24.922  1.00  0.00     0.004 A 
ATOM     21  C   UNL A   1      35.529  22.293  24.289  1.00  0.00     0.038 A 
ATOM     22  C   UNL A   1      35.761  21.032  24.821  1.00  0.00     0.023 A 
ATOM     23  C   UNL A   1      36.630  23.308  24.250  1.00  0.00     0.067 C 
ENDBRANCH  16  17
ENDBRANCH  12  16
ENDBRANCH  11  12
ENDBRANCH   7  11
ENDBRANCH   3   6
ENDBRANCH   1   2
BRANCH   1  24
ATOM     24  C   UNL A   1      31.866  30.473  26.885  1.00  0.00     0.023 C 
BRANCH  24  25
ATOM     25  C   UNL A   1      31.597  31.982  26.879  1.00  0.00     0.023 C 
BRANCH  25  26
ATOM     26  C   UNL A   1      32.791  32.865  27.235  1.00  0.00     0.116 C 
BRANCH  26  27
ATOM     27  N   UNL A   1      32.419  34.209  27.644  1.00  0.00    -0.352 N 
ATOM     28  C   UNL A   1      32.977  34.995  28.623  1.00  0.00     0.251 C 
ATOM     29  H   UNL A   1      31.664  34.611  27.154  1.00  0.00     0.163 HD
ATOM     30  O   UNL A   1      32.485  36.082  28.908  1.00  0.00    -0.269 OA
BRANCH  28  31
ATOM     31  C   UNL A   1      34.157  34.506  29.367  1.00  0.00     0.039 A 
ATOM     32  C   UNL A   1      33.959  33.896  30.609  1.00  0.00     0.014 A 
ATOM     33  C   UNL A   1      35.445  34.632  28.840  1.00  0.00     0.014 A 
ATOM     34  C   UNL A   1      35.046  33.349  31.292  1.00  0.00     0.010 A 
ATOM     35  C   UNL A   1      36.522  34.046  29.499  1.00  0.00     0.010 A 
ATOM     36  C   UNL A   1      36.330  33.390  30.726  1.00  0.00    -0.014 A 
BRANCH  36  37
ATOM     37  C   UNL A   1      37.481  32.737  31.393  1.00  0.00     0.031 A 
ATOM     38  C   UNL A   1      38.195  31.597  30.728  1.00  0.00     0.074 A 
ATOM     39  C   UNL A   1      37.837  33.128  32.632  1.00  0.00     0.049 A 
ATOM     40  N   UNL A   1      39.168  30.851  31.186  1.00  0.00    -0.248 NA
ATOM     41  C   UNL A   1      37.736  31.229  29.380  1.00  0.00     0.031 C 
ATOM     42  C   UNL A   1      37.188  34.192  33.401  1.00  0.00     0.029 A 
ATOM     43  N   UNL A   1      38.821  32.666  33.467  1.00  0.00    -0.354 N 
ATOM     44  C   UNL A   1      39.424  29.915  30.194  1.00  0.00     0.074 A 
ATOM     45  C   UNL A   1      38.486  30.167  29.120  1.00  0.00     0.031 C 
ATOM     46  C   UNL A   1      37.800  34.307  34.591  1.00  0.00     0.029 A 
ATOM     47  C   UNL A   1      38.863  33.311  34.678  1.00  0.00     0.049 A 
ATOM     48  H   UNL A   1      39.439  31.939  33.222  1.00  0.00     0.167 HD
ATOM     49  C   UNL A   1      40.368  28.945  30.175  1.00  0.00     0.037 A 
ATOM     50  C   UNL A   1      39.668  33.117  35.740  1.00  0.00     0.037 A 
ATOM     51  C   UNL A   1      41.325  28.718  31.224  1.00  0.00     0.049 A 
ATOM     52  C   UNL A   1      40.729  32.054  35.677  1.00  0.00     0.074 A 
ATOM     53  C   UNL A   1      42.361  27.801  31.267  1.00  0.00     0.029 A 
ATOM     54  N   UNL A   1      41.364  29.420  32.420  1.00  0.00    -0.354 N 
ATOM     55  N   UNL A   1      41.000  31.215  34.709  1.00  0.00    -0.248 NA
ATOM     56  C   UNL A   1      41.599  31.918  36.854  1.00  0.00     0.031 C 
ATOM     57  C   UNL A   1      43.013  27.933  32.498  1.00  0.00     0.029 A 
ATOM     58  C   UNL A   1      42.399  28.952  33.210  1.00  0.00     0.049 A 
ATOM     59  H   UNL A   1      40.746  30.145  32.669  1.00  0.00     0.167 HD
ATOM     60  C   UNL A   1      42.082  30.464  35.148  1.00  0.00     0.074 A 
ATOM     61  C   UNL A   1      42.425  30.956  36.467  1.00  0.00     0.031 C 
ATOM     62  C   UNL A   1      42.732  29.458  34.515  1.00  0.00     0.037 A 
BRANCH  49  63
ATOM     63  C   UNL A   1      40.417  28.055  28.971  1.00  0.00     0.064 A 
ATOM     64  C   UNL A   1      39.688  26.858  28.916  1.00  0.00     0.173 A 
ATOM     65  C   UNL A   1      41.171  28.420  27.846  1.00  0.00     0.173 A 
ATOM     66  F   UNL A   1      38.964  26.461  29.973  1.00  0.00    -0.203 F 
ATOM     67  C   UNL A   1      39.728  26.048  27.784  1.00  0.00     0.198 A 
ATOM     68  C   UNL A   1      41.191  27.618  26.708  1.00  0.00     0.198 A 
ATOM     69  F   UNL A   1      41.884  29.557  27.848  1.00  0.00    -0.203 F 
ATOM     70  F   UNL A   1      39.052  24.891  27.768  1.00  0.00    -0.200 F 
ATOM     71  C   UNL A   1      40.474  26.431  26.680  1.00  0.00     0.200 A 
ATOM     72  F   UNL A   1      41.906  27.993  25.638  1.00  0.00    -0.200 F 
ATOM     73  F   UNL A   1      40.507  25.652  25.590  1.00  0.00    -0.200 F 
ENDBRANCH  49  63
BRANCH  50  74
ATOM     74  C   UNL A   1      39.518  33.970  36.944  1.00  0.00     0.064 A 
ATOM     75  C   UNL A   1      38.766  33.531  38.042  1.00  0.00     0.173 A 
ATOM     76  C   UNL A   1      40.119  35.234  37.022  1.00  0.00     0.173 A 
ATOM     77  F   UNL A   1      38.157  32.337  38.001  1.00  0.00    -0.203 F 
ATOM     78  C   UNL A   1      38.608  34.331  39.171  1.00  0.00     0.198 A 
ATOM     79  C   UNL A   1      39.976  36.026  38.160  1.00  0.00     0.198 A 
ATOM     80  F   UNL A   1      40.849  35.695  35.997  1.00  0.00    -0.203 F 
ATOM     81  F   UNL A   1      37.856  33.903  40.193  1.00  0.00    -0.200 F 
ATOM     82  C   UNL A   1      39.217  35.576  39.230  1.00  0.00     0.200 A 
ATOM     83  F   UNL A   1      40.573  37.224  38.218  1.00  0.00    -0.200 F 
ATOM     84  F   UNL A   1      39.066  36.346  40.316  1.00  0.00    -0.200 F 
ENDBRANCH  50  74
BRANCH  62  85
ATOM     85  C   UNL A   1      43.894  28.840  35.230  1.00  0.00     0.064 A 
ATOM     86  C   UNL A   1      45.201  29.307  35.035  1.00  0.00     0.173 A 
ATOM     87  C   UNL A   1      43.692  27.798  36.145  1.00  0.00     0.173 A 
ATOM     88  F   UNL A   1      45.443  30.291  34.156  1.00  0.00    -0.203 F 
ATOM     89  C   UNL A   1      46.271  28.738  35.722  1.00  0.00     0.198 A 
ATOM     90  C   UNL A   1      44.760  27.245  36.844  1.00  0.00     0.198 A 
ATOM     91  F   UNL A   1      42.458  27.321  36.366  1.00  0.00    -0.203 F 
ATOM     92  F   UNL A   1      47.518  29.174  35.496  1.00  0.00    -0.200 F 
ATOM     93  C   UNL A   1      46.049  27.712  36.629  1.00  0.00     0.200 A 
ATOM     94  F   UNL A   1      44.545  26.259  37.726  1.00  0.00    -0.200 F 
ATOM     95  F   UNL A   1      47.079  27.169  37.292  1.00  0.00    -0.200 F 
ENDBRANCH  62  85
ENDBRANCH  36  37
ENDBRANCH  28  31
ENDBRANCH  26  27
ENDBRANCH  25  26
ENDBRANCH  24  25
ENDBRANCH   1  24
TORSDOF 16
ENDMDL
MODEL 2
REMARK VINA RESULT:     -11.9      0.583      1.435
REMARK SMILES CC[N@@H+](Cc1cccc(C)n1)Cc1csc(C(=O)NCCCCNC(=O)c2ccc(-c3c4nc(c(-c5c(F)c(F)c(F)c(F)c5F)c5ccc([nH]5)c(-c5c(F)c(F)c(F)c(F)c5F)c5nc(c(-c6c(F)c(F)c(F)c(F)c6F)c6ccc3[nH]6)C=C5)C=C4)cc2)n1
REMARK SMILES IDX 20 1 19 2 17 3 18 4 16 6 13 7 14 8 90 9 15 10 12 11 3 12
REMARK SMILES IDX 2 14 1 15 4 16 5 17 6 18 11 19 7 20 9 21 8 22 10 23 21 24
REMARK SMILES IDX 22 25 23 26 24 27 25 28 26 30 27 31 28 32 89 33 29 34 88 35
REMARK SMILES IDX 30 36 31 37 32 38 82 39 33 40 87 41 81 42 83 43 34 44 86 45
REMARK SMILES IDX 80 46 79 47 35 49 67 50 47 51 66 52 48 53 51 54 65 55 84 56
REMARK SMILES IDX 49 57 50 58 64 60 85 61 52 62 36 63 37 64 45 65 38 66 39 67
REMARK SMILES IDX 43 68 46 69 40 70 41 71 44 72 42 73 68 74 69 75 77 76 70 77
REMARK SMILES IDX 71 78 75 79 78 80 72 81 73 82 76 83 74 84 53 85 54 86 62 87
REMARK SMILES IDX 55 88 56 89 60 90 63 91 57 92 58 93 61 94 59 95
REMARK H PARENT 19 5 3 13 24 29 83 48 51 59
REMARK Flexibility Score: inf
ROOT
ATOM      1  C   UNL A   1      32.097  29.833  25.353  1.00  0.00     0.116 C 
ENDROOT
BRANCH   1   2
ATOM      2  N   UNL A   1      31.106  29.929  24.296  1.00  0.00    -0.350 N 
ATOM      3  C   UNL A   1      30.792  28.996  23.322  1.00  0.00     0.280 C 
ATOM      4  O   UNL A   1      29.763  29.207  22.672  1.00  0.00    -0.267 OA
ATOM      5  H   UNL A   1      30.590  30.767  24.267  1.00  0.00     0.163 HD
BRANCH   3   6
ATOM      6  C   UNL A   1      31.643  27.824  23.151  1.00  0.00     0.181 A 
ATOM      7  C   UNL A   1      32.242  25.686  22.981  1.00  0.00     0.106 A 
ATOM      8  C   UNL A   1      33.404  26.291  22.537  1.00  0.00     0.097 A 
ATOM      9  N   UNL A   1      31.237  26.582  23.322  1.00  0.00    -0.230 NA
ATOM     10  S   UNL A   1      33.272  27.998  22.648  1.00  0.00    -0.117 S 
BRANCH   7  11
ATOM     11  C   UNL A   1      31.910  24.225  23.046  1.00  0.00     0.320 C 
BRANCH  11  12
ATOM     12  N   UNL A   1      32.390  23.529  24.229  1.00  0.00    -0.325 N 
ATOM     13  H   UNL A   1      32.930  24.331  24.555  1.00  0.00     0.348 HD
BRANCH  12  14
ATOM     14  C   UNL A   1      31.608  23.472  25.449  1.00  0.00     0.259 C 
ATOM     15  C   UNL A   1      31.952  24.521  26.504  1.00  0.00     0.071 C 
ENDBRANCH  12  14
BRANCH  12  16
ATOM     16  C   UNL A   1      33.390  22.474  24.021  1.00  0.00     0.319 C 
BRANCH  16  17
ATOM     17  C   UNL A   1      34.799  22.625  24.577  1.00  0.00     0.095 A 
ATOM     18  C   UNL A   1      35.336  23.851  24.957  1.00  0.00     0.030 A 
ATOM     19  N   UNL A   1      35.562  21.499  24.570  1.00  0.00    -0.252 NA
ATOM     20  C   UNL A   1      36.654  23.919  25.399  1.00  0.00     0.004 A 
ATOM     21  C   UNL A   1      36.851  21.578  24.987  1.00  0.00     0.038 A 
ATOM     22  C   UNL A   1      37.428  22.768  25.409  1.00  0.00     0.023 A 
ATOM     23  C   UNL A   1      37.678  20.332  24.891  1.00  0.00     0.067 C 
ENDBRANCH  16  17
ENDBRANCH  12  16
ENDBRANCH  11  12
ENDBRANCH   7  11
ENDBRANCH   3   6
ENDBRANCH   1   2
BRANCH   1  24
ATOM     24  C   UNL A   1      31.618  30.472  26.654  1.00  0.00     0.023 C 
BRANCH  24  25
ATOM     25  C   UNL A   1      31.543  32.002  26.624  1.00  0.00     0.023 C 
BRANCH  25  26
ATOM     26  C   UNL A   1      32.684  32.732  27.329  1.00  0.00     0.116 C 
BRANCH  26  27
ATOM     27  N   UNL A   1      32.374  34.113  27.663  1.00  0.00    -0.352 N 
ATOM     28  C   UNL A   1      32.986  34.933  28.580  1.00  0.00     0.251 C 
ATOM     29  H   UNL A   1      31.625  34.514  27.165  1.00  0.00     0.163 HD
ATOM     30  O   UNL A   1      32.544  36.054  28.807  1.00  0.00    -0.269 OA
BRANCH  28  31
ATOM     31  C   UNL A   1      34.162  34.442  29.328  1.00  0.00     0.039 A 
ATOM     32  C   UNL A   1      33.960  33.838  30.571  1.00  0.00     0.014 A 
ATOM     33  C   UNL A   1      35.452  34.563  28.802  1.00  0.00     0.014 A 
ATOM     34  C   UNL A   1      35.044  33.289  31.258  1.00  0.00     0.010 A 
ATOM     35  C   UNL A   1      36.525  33.975  29.466  1.00  0.00     0.010 A 
ATOM     36  C   UNL A   1      36.329  33.324  30.695  1.00  0.00    -0.014 A 
BRANCH  36  37
ATOM     37  C   UNL A   1      37.477  32.669  31.366  1.00  0.00     0.031 A 
ATOM     38  C   UNL A   1      38.176  31.512  30.715  1.00  0.00     0.074 A 
ATOM     39  C   UNL A   1      37.841  33.075  32.598  1.00  0.00     0.049 A 
ATOM     40  N   UNL A   1      39.144  30.764  31.180  1.00  0.00    -0.248 NA
ATOM     41  C   UNL A   1      37.708  31.130  29.374  1.00  0.00     0.031 C 
ATOM     42  C   UNL A   1      37.207  34.156  33.354  1.00  0.00     0.029 A 
ATOM     43  N   UNL A   1      38.825  32.615  33.435  1.00  0.00    -0.354 N 
ATOM     44  C   UNL A   1      39.387  29.811  30.200  1.00  0.00     0.074 A 
ATOM     45  C   UNL A   1      38.446  30.057  29.127  1.00  0.00     0.031 C 
ATOM     46  C   UNL A   1      37.825  34.282  34.540  1.00  0.00     0.029 A 
ATOM     47  C   UNL A   1      38.879  33.277  34.636  1.00  0.00     0.049 A 
ATOM     48  H   UNL A   1      39.435  31.878  33.198  1.00  0.00     0.167 HD
ATOM     49  C   UNL A   1      40.321  28.831  30.191  1.00  0.00     0.037 A 
ATOM     50  C   UNL A   1      39.686  33.090  35.698  1.00  0.00     0.037 A 
ATOM     51  C   UNL A   1      41.280  28.611  31.240  1.00  0.00     0.049 A 
ATOM     52  C   UNL A   1      40.736  32.016  35.646  1.00  0.00     0.074 A 
ATOM     53  C   UNL A   1      42.308  27.684  31.291  1.00  0.00     0.029 A 
ATOM     54  N   UNL A   1      41.331  29.329  32.425  1.00  0.00    -0.354 N 
ATOM     55  N   UNL A   1      40.995  31.161  34.689  1.00  0.00    -0.248 NA
ATOM     56  C   UNL A   1      41.610  31.888  36.821  1.00  0.00     0.031 C 
ATOM     57  C   UNL A   1      42.965  27.827  32.518  1.00  0.00     0.029 A 
ATOM     58  C   UNL A   1      42.366  28.862  33.217  1.00  0.00     0.049 A 
ATOM     59  H   UNL A   1      40.722  30.064  32.666  1.00  0.00     0.167 HD
ATOM     60  C   UNL A   1      42.072  30.406  35.134  1.00  0.00     0.074 A 
ATOM     61  C   UNL A   1      42.426  30.913  36.444  1.00  0.00     0.031 C 
ATOM     62  C   UNL A   1      42.708  29.384  34.514  1.00  0.00     0.037 A 
BRANCH  49  63
ATOM     63  C   UNL A   1      40.356  27.923  29.000  1.00  0.00     0.064 A 
ATOM     64  C   UNL A   1      39.627  26.726  28.972  1.00  0.00     0.173 A 
ATOM     65  C   UNL A   1      41.095  28.272  27.861  1.00  0.00     0.173 A 
ATOM     66  F   UNL A   1      38.915  26.344  30.043  1.00  0.00    -0.203 F 
ATOM     67  C   UNL A   1      39.653  25.899  27.852  1.00  0.00     0.198 A 
ATOM     68  C   UNL A   1      41.103  27.453  26.735  1.00  0.00     0.198 A 
ATOM     69  F   UNL A   1      41.808  29.409  27.837  1.00  0.00    -0.203 F 
ATOM     70  F   UNL A   1      38.978  24.741  27.861  1.00  0.00    -0.200 F 
ATOM     71  C   UNL A   1      40.385  26.266  26.734  1.00  0.00     0.200 A 
ATOM     72  F   UNL A   1      41.804  27.812  25.651  1.00  0.00    -0.200 F 
ATOM     73  F   UNL A   1      40.406  25.471  25.655  1.00  0.00    -0.200 F 
ENDBRANCH  49  63
BRANCH  50  74
ATOM     74  C   UNL A   1      39.550  33.962  36.890  1.00  0.00     0.064 A 
ATOM     75  C   UNL A   1      38.787  33.552  37.992  1.00  0.00     0.173 A 
ATOM     76  C   UNL A   1      40.175  35.216  36.952  1.00  0.00     0.173 A 
ATOM     77  F   UNL A   1      38.156  32.370  37.965  1.00  0.00    -0.203 F 
ATOM     78  C   UNL A   1      38.642  34.371  39.109  1.00  0.00     0.198 A 
ATOM     79  C   UNL A   1      40.045  36.025  38.079  1.00  0.00     0.198 A 
ATOM     80  F   UNL A   1      40.916  35.649  35.923  1.00  0.00    -0.203 F 
ATOM     81  F   UNL A   1      37.880  33.971  40.135  1.00  0.00    -0.200 F 
ATOM     82  C   UNL A   1      39.275  35.605  39.154  1.00  0.00     0.200 A 
ATOM     83  F   UNL A   1      40.665  37.213  38.122  1.00  0.00    -0.200 F 
ATOM     84  F   UNL A   1      39.136  36.392  40.229  1.00  0.00    -0.200 F 
ENDBRANCH  50  74
BRANCH  62  85
ATOM     85  C   UNL A   1      43.868  28.765  35.232  1.00  0.00     0.064 A 
ATOM     86  C   UNL A   1      43.693  27.675  36.095  1.00  0.00     0.173 A 
ATOM     87  C   UNL A   1      45.169  29.244  35.024  1.00  0.00     0.173 A 
ATOM     88  F   UNL A   1      42.464  27.195  36.336  1.00  0.00    -0.203 F 
ATOM     89  C   UNL A   1      44.782  27.095  36.740  1.00  0.00     0.198 A 
ATOM     90  C   UNL A   1      46.257  28.649  35.655  1.00  0.00     0.198 A 
ATOM     91  F   UNL A   1      45.385  30.283  34.205  1.00  0.00    -0.203 F 
ATOM     92  F   UNL A   1      44.591  26.075  37.589  1.00  0.00    -0.200 F 
ATOM     93  C   UNL A   1      46.063  27.578  36.515  1.00  0.00     0.200 A 
ATOM     94  F   UNL A   1      47.495  29.112  35.432  1.00  0.00    -0.200 F 
ATOM     95  F   UNL A   1      47.110  27.016  37.135  1.00  0.00    -0.200 F 
ENDBRANCH  62  85
ENDBRANCH  36  37
ENDBRANCH  28  31
ENDBRANCH  26  27
ENDBRANCH  25  26
ENDBRANCH  24  25
ENDBRANCH   1  24
TORSDOF 16
ENDMDL
MODEL 3
REMARK VINA RESULT:     -11.9      5.766     11.347
REMARK SMILES CC[N@@H+](Cc1cccc(C)n1)Cc1csc(C(=O)NCCCCNC(=O)c2ccc(-c3c4nc(c(-c5c(F)c(F)c(F)c(F)c5F)c5ccc([nH]5)c(-c5c(F)c(F)c(F)c(F)c5F)c5nc(c(-c6c(F)c(F)c(F)c(F)c6F)c6ccc3[nH]6)C=C5)C=C4)cc2)n1
REMARK SMILES IDX 20 1 19 2 17 3 18 4 16 6 13 7 14 8 90 9 15 10 12 11 3 12
REMARK SMILES IDX 2 14 1 15 4 16 5 17 6 18 11 19 7 20 9 21 8 22 10 23 21 24
REMARK SMILES IDX 22 25 23 26 24 27 25 28 26 30 27 31 28 32 89 33 29 34 88 35
REMARK SMILES IDX 30 36 31 37 32 38 82 39 33 40 87 41 81 42 83 43 34 44 86 45
REMARK SMILES IDX 80 46 79 47 35 49 67 50 47 51 66 52 48 53 51 54 65 55 84 56
REMARK SMILES IDX 49 57 50 58 64 60 85 61 52 62 36 63 37 64 45 65 38 66 39 67
REMARK SMILES IDX 43 68 46 69 40 70 41 71 44 72 42 73 68 74 69 75 77 76 70 77
REMARK SMILES IDX 71 78 75 79 78 80 72 81 73 82 76 83 74 84 53 85 54 86 62 87
REMARK SMILES IDX 55 88 56 89 60 90 63 91 57 92 58 93 61 94 59 95
REMARK H PARENT 19 5 3 13 24 29 83 48 51 59
REMARK Flexibility Score: inf
ROOT
ATOM      1  C   UNL A   1      36.031  21.491  25.607  1.00  0.00     0.116 C 
ENDROOT
BRANCH   1   2
ATOM      2  N   UNL A   1      35.031  20.437  25.632  1.00  0.00    -0.350 N 
ATOM      3  C   UNL A   1      33.651  20.557  25.614  1.00  0.00     0.280 C 
ATOM      4  O   UNL A   1      33.013  19.519  25.415  1.00  0.00    -0.267 OA
ATOM      5  H   UNL A   1      35.380  19.517  25.667  1.00  0.00     0.163 HD
BRANCH   3   6
ATOM      6  C   UNL A   1      33.044  21.873  25.781  1.00  0.00     0.181 A 
ATOM      7  C   UNL A   1      31.933  23.737  25.281  1.00  0.00     0.106 A 
ATOM      8  C   UNL A   1      32.000  23.865  26.657  1.00  0.00     0.097 A 
ATOM      9  N   UNL A   1      32.532  22.582  24.795  1.00  0.00    -0.230 NA
ATOM     10  S   UNL A   1      32.911  22.579  27.336  1.00  0.00    -0.117 S 
BRANCH   7  11
ATOM     11  C   UNL A   1      31.233  24.617  24.290  1.00  0.00     0.320 C 
BRANCH  11  12
ATOM     12  N   UNL A   1      31.798  25.947  24.128  1.00  0.00    -0.325 N 
ATOM     13  H   UNL A   1      32.603  25.743  24.720  1.00  0.00     0.348 HD
BRANCH  12  14
ATOM     14  C   UNL A   1      32.633  26.288  22.993  1.00  0.00     0.259 C 
ATOM     15  C   UNL A   1      32.921  25.148  22.019  1.00  0.00     0.071 C 
ENDBRANCH  12  14
BRANCH  12  16
ATOM     16  C   UNL A   1      31.111  27.051  24.814  1.00  0.00     0.319 C 
BRANCH  16  17
ATOM     17  C   UNL A   1      31.898  28.047  25.653  1.00  0.00     0.095 A 
ATOM     18  C   UNL A   1      32.970  27.678  26.460  1.00  0.00     0.030 A 
ATOM     19  N   UNL A   1      31.415  29.319  25.669  1.00  0.00    -0.252 NA
ATOM     20  C   UNL A   1      33.602  28.637  27.247  1.00  0.00     0.004 A 
ATOM     21  C   UNL A   1      32.028  30.243  26.452  1.00  0.00     0.038 A 
ATOM     22  C   UNL A   1      33.122  29.938  27.250  1.00  0.00     0.023 A 
ATOM     23  C   UNL A   1      31.419  31.611  26.498  1.00  0.00     0.067 C 
ENDBRANCH  16  17
ENDBRANCH  12  16
ENDBRANCH  11  12
ENDBRANCH   7  11
ENDBRANCH   3   6
ENDBRANCH   1   2
BRANCH   1  24
ATOM     24  C   UNL A   1      37.164  21.189  24.630  1.00  0.00     0.023 C 
BRANCH  24  25
ATOM     25  C   UNL A   1      38.024  19.978  25.004  1.00  0.00     0.023 C 
BRANCH  25  26
ATOM     26  C   UNL A   1      39.229  20.275  25.895  1.00  0.00     0.116 C 
BRANCH  26  27
ATOM     27  N   UNL A   1      40.212  19.204  25.920  1.00  0.00    -0.352 N 
ATOM     28  C   UNL A   1      41.568  19.289  26.123  1.00  0.00     0.251 C 
ATOM     29  H   UNL A   1      39.859  18.297  25.771  1.00  0.00     0.163 HD
ATOM     30  O   UNL A   1      42.277  18.293  26.025  1.00  0.00    -0.269 OA
BRANCH  28  31
ATOM     31  C   UNL A   1      42.182  20.600  26.421  1.00  0.00     0.039 A 
ATOM     32  C   UNL A   1      42.635  21.384  25.357  1.00  0.00     0.014 A 
ATOM     33  C   UNL A   1      42.295  21.060  27.736  1.00  0.00     0.014 A 
ATOM     34  C   UNL A   1      43.139  22.662  25.605  1.00  0.00     0.010 A 
ATOM     35  C   UNL A   1      42.755  22.352  27.978  1.00  0.00     0.010 A 
ATOM     36  C   UNL A   1      43.171  23.167  26.914  1.00  0.00    -0.014 A 
BRANCH  36  37
ATOM     37  C   UNL A   1      43.619  24.553  27.188  1.00  0.00     0.031 A 
ATOM     38  C   UNL A   1      42.644  25.581  27.682  1.00  0.00     0.074 A 
ATOM     39  C   UNL A   1      44.892  24.902  26.920  1.00  0.00     0.049 A 
ATOM     40  N   UNL A   1      42.829  26.858  27.902  1.00  0.00    -0.248 NA
ATOM     41  C   UNL A   1      41.272  25.117  27.940  1.00  0.00     0.031 C 
ATOM     42  C   UNL A   1      45.920  24.004  26.391  1.00  0.00     0.029 A 
ATOM     43  N   UNL A   1      45.534  26.107  27.044  1.00  0.00    -0.354 N 
ATOM     44  C   UNL A   1      41.596  27.353  28.303  1.00  0.00     0.074 A 
ATOM     45  C   UNL A   1      40.663  26.248  28.269  1.00  0.00     0.031 C 
ATOM     46  C   UNL A   1      47.067  24.690  26.245  1.00  0.00     0.029 A 
ATOM     47  C   UNL A   1      46.847  26.075  26.646  1.00  0.00     0.049 A 
ATOM     48  H   UNL A   1      45.094  26.920  27.386  1.00  0.00     0.167 HD
ATOM     49  C   UNL A   1      41.277  28.614  28.681  1.00  0.00     0.037 A 
ATOM     50  C   UNL A   1      47.768  27.056  26.606  1.00  0.00     0.037 A 
ATOM     51  C   UNL A   1      42.213  29.704  28.751  1.00  0.00     0.049 A 
ATOM     52  C   UNL A   1      47.395  28.439  27.063  1.00  0.00     0.074 A 
ATOM     53  C   UNL A   1      41.997  31.002  29.184  1.00  0.00     0.029 A 
ATOM     54  N   UNL A   1      43.546  29.623  28.379  1.00  0.00    -0.354 N 
ATOM     55  N   UNL A   1      46.241  28.881  27.496  1.00  0.00    -0.248 NA
ATOM     56  C   UNL A   1      48.456  29.455  27.031  1.00  0.00     0.031 C 
ATOM     57  C   UNL A   1      43.196  31.712  29.052  1.00  0.00     0.029 A 
ATOM     58  C   UNL A   1      44.164  30.849  28.564  1.00  0.00     0.049 A 
ATOM     59  H   UNL A   1      43.988  28.814  28.035  1.00  0.00     0.167 HD
ATOM     60  C   UNL A   1      46.439  30.219  27.807  1.00  0.00     0.074 A 
ATOM     61  C   UNL A   1      47.829  30.514  27.523  1.00  0.00     0.031 C 
ATOM     62  C   UNL A   1      45.549  31.122  28.284  1.00  0.00     0.037 A 
BRANCH  49  63
ATOM     63  C   UNL A   1      39.852  28.881  29.057  1.00  0.00     0.064 A 
ATOM     64  C   UNL A   1      38.917  29.321  28.109  1.00  0.00     0.173 A 
ATOM     65  C   UNL A   1      39.408  28.659  30.368  1.00  0.00     0.173 A 
ATOM     66  F   UNL A   1      39.297  29.560  26.845  1.00  0.00    -0.203 F 
ATOM     67  C   UNL A   1      37.590  29.549  28.466  1.00  0.00     0.198 A 
ATOM     68  C   UNL A   1      38.077  28.867  30.717  1.00  0.00     0.198 A 
ATOM     69  F   UNL A   1      40.264  28.236  31.310  1.00  0.00    -0.203 F 
ATOM     70  F   UNL A   1      36.721  30.005  27.553  1.00  0.00    -0.200 F 
ATOM     71  C   UNL A   1      37.171  29.317  29.767  1.00  0.00     0.200 A 
ATOM     72  F   UNL A   1      37.670  28.635  31.973  1.00  0.00    -0.200 F 
ATOM     73  F   UNL A   1      35.892  29.532  30.109  1.00  0.00    -0.200 F 
ENDBRANCH  49  63
BRANCH  50  74
ATOM     74  C   UNL A   1      49.145  26.756  26.140  1.00  0.00     0.064 A 
ATOM     75  C   UNL A   1      50.112  26.273  27.033  1.00  0.00     0.173 A 
ATOM     76  C   UNL A   1      49.520  26.945  24.803  1.00  0.00     0.173 A 
ATOM     77  F   UNL A   1      49.801  26.098  28.325  1.00  0.00    -0.203 F 
ATOM     78  C   UNL A   1      51.410  26.002  26.607  1.00  0.00     0.198 A 
ATOM     79  C   UNL A   1      50.814  26.656  24.375  1.00  0.00     0.198 A 
ATOM     80  F   UNL A   1      48.629  27.404  23.914  1.00  0.00    -0.203 F 
ATOM     81  F   UNL A   1      52.325  25.574  27.486  1.00  0.00    -0.200 F 
ATOM     82  C   UNL A   1      51.758  26.190  25.277  1.00  0.00     0.200 A 
ATOM     83  F   UNL A   1      51.145  26.829  23.088  1.00  0.00    -0.200 F 
ATOM     84  F   UNL A   1      53.007  25.928  24.868  1.00  0.00    -0.200 F 
ENDBRANCH  50  74
BRANCH  62  85
ATOM     85  C   UNL A   1      46.056  32.505  28.553  1.00  0.00     0.064 A 
ATOM     86  C   UNL A   1      46.641  32.841  29.782  1.00  0.00     0.173 A 
ATOM     87  C   UNL A   1      45.991  33.491  27.559  1.00  0.00     0.173 A 
ATOM     88  F   UNL A   1      46.710  31.933  30.767  1.00  0.00    -0.203 F 
ATOM     89  C   UNL A   1      47.130  34.125  30.011  1.00  0.00     0.198 A 
ATOM     90  C   UNL A   1      46.497  34.767  27.785  1.00  0.00     0.198 A 
ATOM     91  F   UNL A   1      45.442  33.214  26.367  1.00  0.00    -0.203 F 
ATOM     92  F   UNL A   1      47.654  34.437  31.205  1.00  0.00    -0.200 F 
ATOM     93  C   UNL A   1      47.062  35.084  29.011  1.00  0.00     0.200 A 
ATOM     94  F   UNL A   1      46.438  35.691  26.816  1.00  0.00    -0.200 F 
ATOM     95  F   UNL A   1      47.535  36.318  29.234  1.00  0.00    -0.200 F 
ENDBRANCH  62  85
ENDBRANCH  36  37
ENDBRANCH  28  31
ENDBRANCH  26  27
ENDBRANCH  25  26
ENDBRANCH  24  25
ENDBRANCH   1  24
TORSDOF 16
ENDMDL
