MODEL 1
REMARK VINA RESULT:     -12.5      0.000      0.000
REMARK SMILES O=C(NCCCCNC(=O)[C@H]1CC(=O)N(c2cccc(OC(F)(F)F)c2)C1)c1ccc(-c2c3nc(c(-c4c(F)c(F)c(F)c(F)c4F)c4ccc([nH]4)c(-c4c(F)c(F)c(F)c(F)c4F)c4nc(c(-c5c(F)c(F)c(F)c(F)c5F)c5ccc2[nH]5)C=C4)C=C3)cc1
REMARK SMILES IDX 6 1 5 2 4 3 3 4 1 5 2 6 28 8 29 9 90 10 30 11 89 12 31 13
REMARK SMILES IDX 32 14 33 15 83 16 34 17 88 18 82 19 84 20 35 21 87 22 81 23
REMARK SMILES IDX 80 24 36 26 68 27 48 28 67 29 49 30 52 31 66 32 85 33 50 34
REMARK SMILES IDX 51 35 65 37 86 38 53 39 37 40 38 41 46 42 39 43 40 44 44 45
REMARK SMILES IDX 47 46 41 47 42 48 45 49 43 50 69 51 70 52 78 53 71 54 72 55
REMARK SMILES IDX 76 56 79 57 73 58 74 59 77 60 75 61 54 62 55 63 63 64 56 65
REMARK SMILES IDX 57 66 61 67 64 68 58 69 59 70 62 71 60 72 7 73 8 74 9 75
REMARK SMILES IDX 10 77 11 78 12 79 27 80 13 81 15 82 14 83 16 84 17 85 26 86
REMARK SMILES IDX 18 87 20 88 19 89 21 90 22 91 23 92 24 93 25 94
REMARK H PARENT 3 7 84 25 52 36 8 76
REMARK Flexibility Score: inf
ROOT
ATOM      1  C   UNL A   1      31.542  30.609  26.676  1.00  0.00     0.023 C 
ENDROOT
BRANCH   1   2
ATOM      2  C   UNL A   1      31.403  32.126  26.734  1.00  0.00     0.023 C 
BRANCH   2   3
ATOM      3  C   UNL A   1      32.675  32.869  27.124  1.00  0.00     0.116 C 
BRANCH   3   4
ATOM      4  N   UNL A   1      32.410  34.204  27.639  1.00  0.00    -0.352 N 
ATOM      5  O   UNL A   1      32.528  35.929  29.087  1.00  0.00    -0.269 OA
ATOM      6  C   UNL A   1      33.002  34.872  28.681  1.00  0.00     0.251 C 
ATOM      7  H   UNL A   1      31.700  34.700  27.171  1.00  0.00     0.163 HD
BRANCH   6   8
ATOM      8  C   UNL A   1      34.197  34.302  29.333  1.00  0.00     0.039 A 
ATOM      9  C   UNL A   1      35.476  34.561  28.833  1.00  0.00     0.014 A 
ATOM     10  C   UNL A   1      34.032  33.499  30.463  1.00  0.00     0.014 A 
ATOM     11  C   UNL A   1      36.576  33.903  29.371  1.00  0.00     0.010 A 
ATOM     12  C   UNL A   1      35.146  32.910  31.058  1.00  0.00     0.010 A 
ATOM     13  C   UNL A   1      36.424  33.083  30.499  1.00  0.00    -0.014 A 
BRANCH  13  14
ATOM     14  C   UNL A   1      37.608  32.449  31.127  1.00  0.00     0.031 A 
ATOM     15  C   UNL A   1      38.297  31.292  30.469  1.00  0.00     0.074 A 
ATOM     16  C   UNL A   1      38.027  32.898  32.324  1.00  0.00     0.049 A 
ATOM     17  N   UNL A   1      39.269  30.540  30.921  1.00  0.00    -0.248 NA
ATOM     18  C   UNL A   1      37.825  30.922  29.127  1.00  0.00     0.031 C 
ATOM     19  C   UNL A   1      37.435  34.017  33.057  1.00  0.00     0.029 A 
ATOM     20  N   UNL A   1      39.035  32.456  33.144  1.00  0.00    -0.354 N 
ATOM     21  C   UNL A   1      39.507  29.593  29.934  1.00  0.00     0.074 A 
ATOM     22  C   UNL A   1      38.559  29.849  28.870  1.00  0.00     0.031 C 
ATOM     23  C   UNL A   1      38.086  34.175  34.218  1.00  0.00     0.029 A 
ATOM     24  C   UNL A   1      39.093  33.126  34.339  1.00  0.00     0.049 A 
ATOM     25  H   UNL A   1      39.654  31.731  32.899  1.00  0.00     0.167 HD
ATOM     26  C   UNL A   1      40.432  28.603  29.924  1.00  0.00     0.037 A 
ATOM     27  C   UNL A   1      39.841  32.897  35.435  1.00  0.00     0.037 A 
ATOM     28  C   UNL A   1      41.366  28.362  30.994  1.00  0.00     0.049 A 
ATOM     29  C   UNL A   1      40.825  31.763  35.425  1.00  0.00     0.074 A 
ATOM     30  C   UNL A   1      42.372  27.414  31.064  1.00  0.00     0.029 A 
ATOM     31  N   UNL A   1      41.395  29.064  32.193  1.00  0.00    -0.354 N 
ATOM     32  N   UNL A   1      41.072  30.895  34.474  1.00  0.00    -0.248 NA
ATOM     33  C   UNL A   1      41.635  31.576  36.635  1.00  0.00     0.031 C 
ATOM     34  C   UNL A   1      42.961  27.496  32.331  1.00  0.00     0.029 A 
ATOM     35  C   UNL A   1      42.378  28.546  33.022  1.00  0.00     0.049 A 
ATOM     36  H   UNL A   1      40.805  29.818  32.420  1.00  0.00     0.167 HD
ATOM     37  C   UNL A   1      42.084  30.078  34.954  1.00  0.00     0.074 A 
ATOM     38  C   UNL A   1      42.405  30.554  36.285  1.00  0.00     0.031 C 
ATOM     39  C   UNL A   1      42.696  29.035  34.342  1.00  0.00     0.037 A 
BRANCH  26  40
ATOM     40  C   UNL A   1      40.445  27.678  28.738  1.00  0.00     0.064 A 
ATOM     41  C   UNL A   1      41.210  27.946  27.592  1.00  0.00     0.173 A 
ATOM     42  C   UNL A   1      39.682  26.500  28.751  1.00  0.00     0.173 A 
ATOM     43  F   UNL A   1      41.954  29.059  27.521  1.00  0.00    -0.203 F 
ATOM     44  C   UNL A   1      41.171  27.096  26.488  1.00  0.00     0.198 A 
ATOM     45  C   UNL A   1      39.675  25.634  27.661  1.00  0.00     0.198 A 
ATOM     46  F   UNL A   1      38.941  26.185  29.825  1.00  0.00    -0.203 F 
ATOM     47  F   UNL A   1      41.853  27.412  25.378  1.00  0.00    -0.200 F 
ATOM     48  C   UNL A   1      40.408  25.940  26.524  1.00  0.00     0.200 A 
ATOM     49  F   UNL A   1      38.950  24.508  27.706  1.00  0.00    -0.200 F 
ATOM     50  F   UNL A   1      40.367  25.127  25.460  1.00  0.00    -0.200 F 
ENDBRANCH  26  40
BRANCH  27  51
ATOM     51  C   UNL A   1      39.657  33.763  36.627  1.00  0.00     0.064 A 
ATOM     52  C   UNL A   1      40.248  35.030  36.698  1.00  0.00     0.173 A 
ATOM     53  C   UNL A   1      38.829  33.365  37.688  1.00  0.00     0.173 A 
ATOM     54  F   UNL A   1      41.056  35.447  35.713  1.00  0.00    -0.203 F 
ATOM     55  C   UNL A   1      40.020  35.866  37.789  1.00  0.00     0.198 A 
ATOM     56  C   UNL A   1      38.579  34.213  38.763  1.00  0.00     0.198 A 
ATOM     57  F   UNL A   1      38.230  32.165  37.660  1.00  0.00    -0.203 F 
ATOM     58  F   UNL A   1      40.617  37.065  37.846  1.00  0.00    -0.200 F 
ATOM     59  C   UNL A   1      39.178  35.463  38.814  1.00  0.00     0.200 A 
ATOM     60  F   UNL A   1      37.745  33.828  39.739  1.00  0.00    -0.200 F 
ATOM     61  F   UNL A   1      38.943  36.277  39.852  1.00  0.00    -0.200 F 
ENDBRANCH  27  51
BRANCH  39  62
ATOM     62  C   UNL A   1      43.819  28.359  35.073  1.00  0.00     0.064 A 
ATOM     63  C   UNL A   1      45.140  28.822  35.001  1.00  0.00     0.173 A 
ATOM     64  C   UNL A   1      43.546  27.278  35.929  1.00  0.00     0.173 A 
ATOM     65  F   UNL A   1      45.454  29.840  34.185  1.00  0.00    -0.203 F 
ATOM     66  C   UNL A   1      46.148  28.226  35.754  1.00  0.00     0.198 A 
ATOM     67  C   UNL A   1      44.551  26.706  36.703  1.00  0.00     0.198 A 
ATOM     68  F   UNL A   1      42.298  26.800  36.036  1.00  0.00    -0.203 F 
ATOM     69  F   UNL A   1      47.410  28.666  35.648  1.00  0.00    -0.200 F 
ATOM     70  C   UNL A   1      45.850  27.178  36.614  1.00  0.00     0.200 A 
ATOM     71  F   UNL A   1      44.258  25.705  37.544  1.00  0.00    -0.200 F 
ATOM     72  F   UNL A   1      46.819  26.622  37.355  1.00  0.00    -0.200 F 
ENDBRANCH  39  62
ENDBRANCH  13  14
ENDBRANCH   6   8
ENDBRANCH   3   4
ENDBRANCH   2   3
ENDBRANCH   1   2
BRANCH   1  73
ATOM     73  C   UNL A   1      32.203  30.078  25.413  1.00  0.00     0.116 C 
BRANCH  73  74
ATOM     74  N   UNL A   1      31.251  29.494  24.484  1.00  0.00    -0.356 N 
ATOM     75  C   UNL A   1      30.968  28.169  24.292  1.00  0.00     0.225 C 
ATOM     76  H   UNL A   1      30.746  30.128  23.925  1.00  0.00     0.163 HD
ATOM     77  O   UNL A   1      30.134  27.847  23.450  1.00  0.00    -0.275 OA
BRANCH  75  78
ATOM     78  C   UNL A   1      31.710  27.168  25.146  1.00  0.00     0.107 C 
ATOM     79  C   UNL A   1      30.746  26.465  26.097  1.00  0.00     0.116 C 
ATOM     80  C   UNL A   1      32.328  26.026  24.357  1.00  0.00     0.139 C 
ATOM     81  C   UNL A   1      31.384  25.132  26.316  1.00  0.00     0.227 C 
ATOM     82  N   UNL A   1      32.312  24.929  25.295  1.00  0.00    -0.311 N 
ATOM     83  O   UNL A   1      31.100  24.397  27.251  1.00  0.00    -0.274 OA
BRANCH  82  84
ATOM     84  C   UNL A   1      32.989  23.716  25.073  1.00  0.00     0.047 A 
ATOM     85  C   UNL A   1      32.379  22.654  24.404  1.00  0.00     0.026 A 
ATOM     86  C   UNL A   1      34.305  23.575  25.533  1.00  0.00     0.073 A 
ATOM     87  C   UNL A   1      33.102  21.486  24.154  1.00  0.00     0.006 A 
ATOM     88  C   UNL A   1      35.010  22.388  25.347  1.00  0.00     0.131 A 
ATOM     89  C   UNL A   1      34.410  21.356  24.626  1.00  0.00     0.047 A 
BRANCH  88  90
ATOM     90  O   UNL A   1      36.268  22.130  25.813  1.00  0.00    -0.406 OA
BRANCH  90  91
ATOM     91  C   UNL A   1      37.354  22.681  25.080  1.00  0.00     0.573 C 
ATOM     92  F   UNL A   1      38.530  22.148  25.474  1.00  0.00    -0.132 F 
ATOM     93  F   UNL A   1      37.196  22.499  23.750  1.00  0.00    -0.132 F 
ATOM     94  F   UNL A   1      37.403  24.012  25.311  1.00  0.00    -0.132 F 
ENDBRANCH  90  91
ENDBRANCH  88  90
ENDBRANCH  82  84
ENDBRANCH  75  78
ENDBRANCH  73  74
ENDBRANCH   1  73
TORSDOF 14
ENDMDL
MODEL 2
REMARK VINA RESULT:     -12.4      1.359      2.015
REMARK SMILES O=C(NCCCCNC(=O)[C@H]1CC(=O)N(c2cccc(OC(F)(F)F)c2)C1)c1ccc(-c2c3nc(c(-c4c(F)c(F)c(F)c(F)c4F)c4ccc([nH]4)c(-c4c(F)c(F)c(F)c(F)c4F)c4nc(c(-c5c(F)c(F)c(F)c(F)c5F)c5ccc2[nH]5)C=C4)C=C3)cc1
REMARK SMILES IDX 6 1 5 2 4 3 3 4 1 5 2 6 28 8 29 9 90 10 30 11 89 12 31 13
REMARK SMILES IDX 32 14 33 15 83 16 34 17 88 18 82 19 84 20 35 21 87 22 81 23
REMARK SMILES IDX 80 24 36 26 68 27 48 28 67 29 49 30 52 31 66 32 85 33 50 34
REMARK SMILES IDX 51 35 65 37 86 38 53 39 37 40 38 41 46 42 39 43 40 44 44 45
REMARK SMILES IDX 47 46 41 47 42 48 45 49 43 50 69 51 70 52 78 53 71 54 72 55
REMARK SMILES IDX 76 56 79 57 73 58 74 59 77 60 75 61 54 62 55 63 63 64 56 65
REMARK SMILES IDX 57 66 61 67 64 68 58 69 59 70 62 71 60 72 7 73 8 74 9 75
REMARK SMILES IDX 10 77 11 78 12 79 27 80 13 81 15 82 14 83 16 84 17 85 26 86
REMARK SMILES IDX 18 87 20 88 19 89 21 90 22 91 23 92 24 93 25 94
REMARK H PARENT 3 7 84 25 52 36 8 76
REMARK Flexibility Score: inf
ROOT
ATOM      1  C   UNL A   1      31.492  30.766  26.120  1.00  0.00     0.023 C 
ENDROOT
BRANCH   1   2
ATOM      2  C   UNL A   1      31.338  32.233  26.507  1.00  0.00     0.023 C 
BRANCH   2   3
ATOM      3  C   UNL A   1      32.550  32.840  27.204  1.00  0.00     0.116 C 
BRANCH   3   4
ATOM      4  N   UNL A   1      32.326  34.216  27.622  1.00  0.00    -0.352 N 
ATOM      5  O   UNL A   1      32.524  36.044  28.927  1.00  0.00    -0.269 OA
ATOM      6  C   UNL A   1      32.964  34.950  28.590  1.00  0.00     0.251 C 
ATOM      7  H   UNL A   1      31.611  34.689  27.139  1.00  0.00     0.163 HD
BRANCH   6   8
ATOM      8  C   UNL A   1      34.170  34.407  29.246  1.00  0.00     0.039 A 
ATOM      9  C   UNL A   1      35.441  34.639  28.711  1.00  0.00     0.014 A 
ATOM     10  C   UNL A   1      34.024  33.658  30.415  1.00  0.00     0.014 A 
ATOM     11  C   UNL A   1      36.549  34.004  29.260  1.00  0.00     0.010 A 
ATOM     12  C   UNL A   1      35.148  33.093  31.016  1.00  0.00     0.010 A 
ATOM     13  C   UNL A   1      36.415  33.237  30.427  1.00  0.00    -0.014 A 
BRANCH  13  14
ATOM     14  C   UNL A   1      37.609  32.630  31.063  1.00  0.00     0.031 A 
ATOM     15  C   UNL A   1      38.341  31.504  30.397  1.00  0.00     0.074 A 
ATOM     16  C   UNL A   1      37.999  33.074  32.271  1.00  0.00     0.049 A 
ATOM     17  N   UNL A   1      39.329  30.774  30.852  1.00  0.00    -0.248 NA
ATOM     18  C   UNL A   1      37.898  31.139  29.044  1.00  0.00     0.031 C 
ATOM     19  C   UNL A   1      37.363  34.164  33.012  1.00  0.00     0.029 A 
ATOM     20  N   UNL A   1      39.008  32.650  33.099  1.00  0.00    -0.354 N 
ATOM     21  C   UNL A   1      39.609  29.849  29.856  1.00  0.00     0.074 A 
ATOM     22  C   UNL A   1      38.668  30.092  28.782  1.00  0.00     0.031 C 
ATOM     23  C   UNL A   1      37.993  34.324  34.184  1.00  0.00     0.029 A 
ATOM     24  C   UNL A   1      39.030  33.304  34.304  1.00  0.00     0.049 A 
ATOM     25  H   UNL A   1      39.651  31.947  32.852  1.00  0.00     0.167 HD
ATOM     26  C   UNL A   1      40.563  28.887  29.845  1.00  0.00     0.037 A 
ATOM     27  C   UNL A   1      39.769  33.081  35.407  1.00  0.00     0.037 A 
ATOM     28  C   UNL A   1      41.489  28.659  30.924  1.00  0.00     0.049 A 
ATOM     29  C   UNL A   1      40.787  31.977  35.394  1.00  0.00     0.074 A 
ATOM     30  C   UNL A   1      42.522  27.740  30.995  1.00  0.00     0.029 A 
ATOM     31  N   UNL A   1      41.481  29.343  32.133  1.00  0.00    -0.354 N 
ATOM     32  N   UNL A   1      41.072  31.131  34.435  1.00  0.00    -0.248 NA
ATOM     33  C   UNL A   1      41.586  31.797  36.613  1.00  0.00     0.031 C 
ATOM     34  C   UNL A   1      43.091  27.821  32.270  1.00  0.00     0.029 A 
ATOM     35  C   UNL A   1      42.468  28.843  32.968  1.00  0.00     0.049 A 
ATOM     36  H   UNL A   1      40.865  30.076  32.362  1.00  0.00     0.167 HD
ATOM     37  C   UNL A   1      42.102  30.337  34.918  1.00  0.00     0.074 A 
ATOM     38  C   UNL A   1      42.391  30.803  36.259  1.00  0.00     0.031 C 
ATOM     39  C   UNL A   1      42.753  29.322  34.299  1.00  0.00     0.037 A 
BRANCH  26  40
ATOM     40  C   UNL A   1      40.620  27.980  28.646  1.00  0.00     0.064 A 
ATOM     41  C   UNL A   1      41.392  28.287  27.515  1.00  0.00     0.173 A 
ATOM     42  C   UNL A   1      39.892  26.780  28.632  1.00  0.00     0.173 A 
ATOM     43  F   UNL A   1      42.104  29.423  27.470  1.00  0.00    -0.203 F 
ATOM     44  C   UNL A   1      41.393  27.452  26.398  1.00  0.00     0.198 A 
ATOM     45  C   UNL A   1      39.925  25.930  27.529  1.00  0.00     0.198 A 
ATOM     46  F   UNL A   1      39.145  26.428  29.690  1.00  0.00    -0.203 F 
ATOM     47  F   UNL A   1      42.081  27.804  25.303  1.00  0.00    -0.200 F 
ATOM     48  C   UNL A   1      40.664  26.274  26.407  1.00  0.00     0.200 A 
ATOM     49  F   UNL A   1      39.233  24.782  27.548  1.00  0.00    -0.200 F 
ATOM     50  F   UNL A   1      40.661  25.476  25.332  1.00  0.00    -0.200 F 
ENDBRANCH  26  40
BRANCH  27  51
ATOM     51  C   UNL A   1      39.543  33.924  36.608  1.00  0.00     0.064 A 
ATOM     52  C   UNL A   1      38.739  33.476  37.663  1.00  0.00     0.173 A 
ATOM     53  C   UNL A   1      40.184  35.164  36.753  1.00  0.00     0.173 A 
ATOM     54  F   UNL A   1      38.098  32.303  37.565  1.00  0.00    -0.203 F 
ATOM     55  C   UNL A   1      38.581  34.240  38.818  1.00  0.00     0.198 A 
ATOM     56  C   UNL A   1      40.049  35.913  37.919  1.00  0.00     0.198 A 
ATOM     57  F   UNL A   1      40.974  35.630  35.774  1.00  0.00    -0.203 F 
ATOM     58  F   UNL A   1      37.787  33.801  39.804  1.00  0.00    -0.200 F 
ATOM     59  C   UNL A   1      39.244  35.451  38.949  1.00  0.00     0.200 A 
ATOM     60  F   UNL A   1      40.711  37.070  38.051  1.00  0.00    -0.200 F 
ATOM     61  F   UNL A   1      39.109  36.174  40.069  1.00  0.00    -0.200 F 
ENDBRANCH  27  51
BRANCH  39  62
ATOM     62  C   UNL A   1      43.885  28.669  35.037  1.00  0.00     0.064 A 
ATOM     63  C   UNL A   1      45.198  29.156  34.966  1.00  0.00     0.173 A 
ATOM     64  C   UNL A   1      43.630  27.587  35.896  1.00  0.00     0.173 A 
ATOM     65  F   UNL A   1      45.497  30.175  34.147  1.00  0.00    -0.203 F 
ATOM     66  C   UNL A   1      46.215  28.580  35.724  1.00  0.00     0.198 A 
ATOM     67  C   UNL A   1      44.643  27.036  36.675  1.00  0.00     0.198 A 
ATOM     68  F   UNL A   1      42.390  27.087  36.001  1.00  0.00    -0.203 F 
ATOM     69  F   UNL A   1      47.469  29.043  35.621  1.00  0.00    -0.200 F 
ATOM     70  C   UNL A   1      45.934  27.531  36.587  1.00  0.00     0.200 A 
ATOM     71  F   UNL A   1      44.365  26.033  37.520  1.00  0.00    -0.200 F 
ATOM     72  F   UNL A   1      46.909  26.996  37.334  1.00  0.00    -0.200 F 
ENDBRANCH  39  62
ENDBRANCH  13  14
ENDBRANCH   6   8
ENDBRANCH   3   4
ENDBRANCH   2   3
ENDBRANCH   1   2
BRANCH   1  73
ATOM     73  C   UNL A   1      32.926  30.257  26.115  1.00  0.00     0.116 C 
BRANCH  73  74
ATOM     74  N   UNL A   1      33.311  29.678  24.839  1.00  0.00    -0.356 N 
ATOM     75  C   UNL A   1      33.418  28.352  24.516  1.00  0.00     0.225 C 
ATOM     76  H   UNL A   1      33.519  30.316  24.119  1.00  0.00     0.163 HD
ATOM     77  O   UNL A   1      33.768  28.036  23.382  1.00  0.00    -0.275 OA
BRANCH  75  78
ATOM     78  C   UNL A   1      33.087  27.345  25.591  1.00  0.00     0.107 C 
ATOM     79  C   UNL A   1      31.590  27.050  25.599  1.00  0.00     0.116 C 
ATOM     80  C   UNL A   1      33.716  25.980  25.369  1.00  0.00     0.139 C 
ATOM     81  C   UNL A   1      31.514  25.651  26.120  1.00  0.00     0.227 C 
ATOM     82  N   UNL A   1      32.777  25.077  25.988  1.00  0.00    -0.311 N 
ATOM     83  O   UNL A   1      30.491  25.160  26.575  1.00  0.00    -0.274 OA
BRANCH  82  84
ATOM     84  C   UNL A   1      33.052  23.716  26.217  1.00  0.00     0.047 A 
ATOM     85  C   UNL A   1      34.046  23.315  27.110  1.00  0.00     0.026 A 
ATOM     86  C   UNL A   1      32.307  22.745  25.534  1.00  0.00     0.073 A 
ATOM     87  C   UNL A   1      34.252  21.955  27.352  1.00  0.00     0.006 A 
ATOM     88  C   UNL A   1      32.552  21.387  25.720  1.00  0.00     0.131 A 
ATOM     89  C   UNL A   1      33.509  20.998  26.658  1.00  0.00     0.047 A 
BRANCH  88  90
ATOM     90  O   UNL A   1      31.928  20.369  25.056  1.00  0.00    -0.406 OA
BRANCH  90  91
ATOM     91  C   UNL A   1      32.527  19.923  23.846  1.00  0.00     0.573 C 
ATOM     92  F   UNL A   1      31.965  18.775  23.416  1.00  0.00    -0.132 F 
ATOM     93  F   UNL A   1      32.441  20.862  22.876  1.00  0.00    -0.132 F 
ATOM     94  F   UNL A   1      33.838  19.685  24.074  1.00  0.00    -0.132 F 
ENDBRANCH  90  91
ENDBRANCH  88  90
ENDBRANCH  82  84
ENDBRANCH  75  78
ENDBRANCH  73  74
ENDBRANCH   1  73
TORSDOF 14
ENDMDL
MODEL 3
REMARK VINA RESULT:     -12.3      0.333      2.005
REMARK SMILES O=C(NCCCCNC(=O)[C@H]1CC(=O)N(c2cccc(OC(F)(F)F)c2)C1)c1ccc(-c2c3nc(c(-c4c(F)c(F)c(F)c(F)c4F)c4ccc([nH]4)c(-c4c(F)c(F)c(F)c(F)c4F)c4nc(c(-c5c(F)c(F)c(F)c(F)c5F)c5ccc2[nH]5)C=C4)C=C3)cc1
REMARK SMILES IDX 6 1 5 2 4 3 3 4 1 5 2 6 28 8 29 9 90 10 30 11 89 12 31 13
REMARK SMILES IDX 32 14 33 15 83 16 34 17 88 18 82 19 84 20 35 21 87 22 81 23
REMARK SMILES IDX 80 24 36 26 68 27 48 28 67 29 49 30 52 31 66 32 85 33 50 34
REMARK SMILES IDX 51 35 65 37 86 38 53 39 37 40 38 41 46 42 39 43 40 44 44 45
REMARK SMILES IDX 47 46 41 47 42 48 45 49 43 50 69 51 70 52 78 53 71 54 72 55
REMARK SMILES IDX 76 56 79 57 73 58 74 59 77 60 75 61 54 62 55 63 63 64 56 65
REMARK SMILES IDX 57 66 61 67 64 68 58 69 59 70 62 71 60 72 7 73 8 74 9 75
REMARK SMILES IDX 10 77 11 78 12 79 27 80 13 81 15 82 14 83 16 84 17 85 26 86
REMARK SMILES IDX 18 87 20 88 19 89 21 90 22 91 23 92 24 93 25 94
REMARK H PARENT 3 7 84 25 52 36 8 76
REMARK Flexibility Score: inf
ROOT
ATOM      1  C   UNL A   1      31.721  30.551  26.833  1.00  0.00     0.023 C 
ENDROOT
BRANCH   1   2
ATOM      2  C   UNL A   1      31.462  32.054  26.861  1.00  0.00     0.023 C 
BRANCH   2   3
ATOM      3  C   UNL A   1      32.706  32.913  27.049  1.00  0.00     0.116 C 
BRANCH   3   4
ATOM      4  N   UNL A   1      32.402  34.232  27.582  1.00  0.00    -0.352 N 
ATOM      5  O   UNL A   1      32.473  35.942  29.050  1.00  0.00    -0.269 OA
ATOM      6  C   UNL A   1      32.977  34.906  28.630  1.00  0.00     0.251 C 
ATOM      7  H   UNL A   1      31.675  34.712  27.123  1.00  0.00     0.163 HD
BRANCH   6   8
ATOM      8  C   UNL A   1      34.194  34.366  29.268  1.00  0.00     0.039 A 
ATOM      9  C   UNL A   1      35.461  34.670  28.765  1.00  0.00     0.014 A 
ATOM     10  C   UNL A   1      34.060  33.546  30.390  1.00  0.00     0.014 A 
ATOM     11  C   UNL A   1      36.584  34.041  29.290  1.00  0.00     0.010 A 
ATOM     12  C   UNL A   1      35.195  32.984  30.973  1.00  0.00     0.010 A 
ATOM     13  C   UNL A   1      36.463  33.204  30.409  1.00  0.00    -0.014 A 
BRANCH  13  14
ATOM     14  C   UNL A   1      37.669  32.600  31.024  1.00  0.00     0.031 A 
ATOM     15  C   UNL A   1      38.376  31.456  30.361  1.00  0.00     0.074 A 
ATOM     16  C   UNL A   1      38.095  33.064  32.213  1.00  0.00     0.049 A 
ATOM     17  N   UNL A   1      39.371  30.728  30.803  1.00  0.00    -0.248 NA
ATOM     18  C   UNL A   1      37.894  31.068  29.028  1.00  0.00     0.031 C 
ATOM     19  C   UNL A   1      37.487  34.172  32.949  1.00  0.00     0.029 A 
ATOM     20  N   UNL A   1      39.123  32.648  33.021  1.00  0.00    -0.354 N 
ATOM     21  C   UNL A   1      39.617  29.782  29.818  1.00  0.00     0.074 A 
ATOM     22  C   UNL A   1      38.649  30.011  28.765  1.00  0.00     0.031 C 
ATOM     23  C   UNL A   1      38.150  34.351  34.100  1.00  0.00     0.029 A 
ATOM     24  C   UNL A   1      39.183  33.326  34.213  1.00  0.00     0.049 A 
ATOM     25  H   UNL A   1      39.755  31.937  32.770  1.00  0.00     0.167 HD
ATOM     26  C   UNL A   1      40.564  28.813  29.799  1.00  0.00     0.037 A 
ATOM     27  C   UNL A   1      39.950  33.119  35.299  1.00  0.00     0.037 A 
ATOM     28  C   UNL A   1      41.518  28.598  30.858  1.00  0.00     0.049 A 
ATOM     29  C   UNL A   1      40.959  32.007  35.280  1.00  0.00     0.074 A 
ATOM     30  C   UNL A   1      42.546  27.674  30.919  1.00  0.00     0.029 A 
ATOM     31  N   UNL A   1      41.547  29.306  32.053  1.00  0.00    -0.354 N 
ATOM     32  N   UNL A   1      41.213  31.141  34.330  1.00  0.00    -0.248 NA
ATOM     33  C   UNL A   1      41.789  31.844  36.480  1.00  0.00     0.031 C 
ATOM     34  C   UNL A   1      43.150  27.775  32.176  1.00  0.00     0.029 A 
ATOM     35  C   UNL A   1      42.552  28.814  32.871  1.00  0.00     0.049 A 
ATOM     36  H   UNL A   1      40.943  30.048  32.284  1.00  0.00     0.167 HD
ATOM     37  C   UNL A   1      42.249  30.349  34.800  1.00  0.00     0.074 A 
ATOM     38  C   UNL A   1      42.578  30.838  36.124  1.00  0.00     0.031 C 
ATOM     39  C   UNL A   1      42.877  29.317  34.184  1.00  0.00     0.037 A 
BRANCH  26  40
ATOM     40  C   UNL A   1      40.582  27.883  28.617  1.00  0.00     0.064 A 
ATOM     41  C   UNL A   1      39.879  26.670  28.613  1.00  0.00     0.173 A 
ATOM     42  C   UNL A   1      41.313  28.217  27.465  1.00  0.00     0.173 A 
ATOM     43  F   UNL A   1      39.168  26.296  29.687  1.00  0.00    -0.203 F 
ATOM     44  C   UNL A   1      39.947  25.803  27.522  1.00  0.00     0.198 A 
ATOM     45  C   UNL A   1      41.348  27.367  26.363  1.00  0.00     0.198 A 
ATOM     46  F   UNL A   1      41.995  29.371  27.407  1.00  0.00    -0.203 F 
ATOM     47  F   UNL A   1      39.325  24.617  27.572  1.00  0.00    -0.200 F 
ATOM     48  C   UNL A   1      40.677  26.154  26.398  1.00  0.00     0.200 A 
ATOM     49  F   UNL A   1      42.040  27.717  25.270  1.00  0.00    -0.200 F 
ATOM     50  F   UNL A   1      40.746  25.319  25.353  1.00  0.00    -0.200 F 
ENDBRANCH  26  40
BRANCH  27  51
ATOM     51  C   UNL A   1      39.762  33.985  36.489  1.00  0.00     0.064 A 
ATOM     52  C   UNL A   1      38.920  33.598  37.539  1.00  0.00     0.173 A 
ATOM     53  C   UNL A   1      40.476  35.186  36.630  1.00  0.00     0.173 A 
ATOM     54  F   UNL A   1      38.209  32.466  37.444  1.00  0.00    -0.203 F 
ATOM     55  C   UNL A   1      38.796  34.382  38.684  1.00  0.00     0.198 A 
ATOM     56  C   UNL A   1      40.373  35.953  37.787  1.00  0.00     0.198 A 
ATOM     57  F   UNL A   1      41.304  35.592  35.657  1.00  0.00    -0.203 F 
ATOM     58  F   UNL A   1      37.965  34.003  39.665  1.00  0.00    -0.200 F 
ATOM     59  C   UNL A   1      39.530  35.552  38.812  1.00  0.00     0.200 A 
ATOM     60  F   UNL A   1      41.103  37.069  37.916  1.00  0.00    -0.200 F 
ATOM     61  F   UNL A   1      39.427  36.293  39.924  1.00  0.00    -0.200 F 
ENDBRANCH  27  51
BRANCH  39  62
ATOM     62  C   UNL A   1      44.024  28.670  34.903  1.00  0.00     0.064 A 
ATOM     63  C   UNL A   1      43.856  27.523  35.692  1.00  0.00     0.173 A 
ATOM     64  C   UNL A   1      45.328  29.162  34.727  1.00  0.00     0.173 A 
ATOM     65  F   UNL A   1      42.629  27.024  35.905  1.00  0.00    -0.203 F 
ATOM     66  C   UNL A   1      44.951  26.895  36.282  1.00  0.00     0.198 A 
ATOM     67  C   UNL A   1      46.422  28.513  35.293  1.00  0.00     0.198 A 
ATOM     68  F   UNL A   1      45.542  30.255  33.980  1.00  0.00    -0.203 F 
ATOM     69  F   UNL A   1      44.764  25.816  37.055  1.00  0.00    -0.200 F 
ATOM     70  C   UNL A   1      46.232  27.383  36.071  1.00  0.00     0.200 A 
ATOM     71  F   UNL A   1      47.660  28.977  35.075  1.00  0.00    -0.200 F 
ATOM     72  F   UNL A   1      47.286  26.762  36.620  1.00  0.00    -0.200 F 
ENDBRANCH  39  62
ENDBRANCH  13  14
ENDBRANCH   6   8
ENDBRANCH   3   4
ENDBRANCH   2   3
ENDBRANCH   1   2
BRANCH   1  73
ATOM     73  C   UNL A   1      32.465  30.057  25.602  1.00  0.00     0.116 C 
BRANCH  73  74
ATOM     74  N   UNL A   1      31.576  29.518  24.587  1.00  0.00    -0.356 N 
ATOM     75  C   UNL A   1      31.298  28.204  24.325  1.00  0.00     0.225 C 
ATOM     76  H   UNL A   1      31.115  30.178  24.021  1.00  0.00     0.163 HD
ATOM     77  O   UNL A   1      30.521  27.923  23.416  1.00  0.00    -0.275 OA
BRANCH  75  78
ATOM     78  C   UNL A   1      31.973  27.164  25.188  1.00  0.00     0.107 C 
ATOM     79  C   UNL A   1      30.951  26.483  26.094  1.00  0.00     0.116 C 
ATOM     80  C   UNL A   1      32.575  26.012  24.403  1.00  0.00     0.139 C 
ATOM     81  C   UNL A   1      31.533  25.124  26.314  1.00  0.00     0.227 C 
ATOM     82  N   UNL A   1      32.488  24.903  25.322  1.00  0.00    -0.311 N 
ATOM     83  O   UNL A   1      31.190  24.387  27.227  1.00  0.00    -0.274 OA
BRANCH  82  84
ATOM     84  C   UNL A   1      33.127  23.668  25.105  1.00  0.00     0.047 A 
ATOM     85  C   UNL A   1      32.487  22.626  24.433  1.00  0.00     0.026 A 
ATOM     86  C   UNL A   1      34.436  23.487  25.570  1.00  0.00     0.073 A 
ATOM     87  C   UNL A   1      33.174  21.435  24.188  1.00  0.00     0.006 A 
ATOM     88  C   UNL A   1      35.104  22.279  25.389  1.00  0.00     0.131 A 
ATOM     89  C   UNL A   1      34.475  21.264  24.666  1.00  0.00     0.047 A 
BRANCH  88  90
ATOM     90  O   UNL A   1      36.351  21.982  25.861  1.00  0.00    -0.406 OA
BRANCH  90  91
ATOM     91  C   UNL A   1      37.457  22.534  25.158  1.00  0.00     0.573 C 
ATOM     92  F   UNL A   1      37.571  23.858  25.389  1.00  0.00    -0.132 F 
ATOM     93  F   UNL A   1      38.613  21.914  25.488  1.00  0.00    -0.132 F 
ATOM     94  F   UNL A   1      37.259  22.357  23.832  1.00  0.00    -0.132 F 
ENDBRANCH  90  91
ENDBRANCH  88  90
ENDBRANCH  82  84
ENDBRANCH  75  78
ENDBRANCH  73  74
ENDBRANCH   1  73
TORSDOF 14
ENDMDL
