MODEL 1
REMARK VINA RESULT:     -10.2      0.000      0.000
REMARK SMILES N#CCC[NH2+]C1(C(=O)NCCCCNC(=O)c2ccc(-c3c4nc(c(-c5c(F)c(F)c(F)c(F)c5F)c5ccc([nH]5)c(-c5c(F)c(F)c(F)c(F)c5F)c5nc(c(-c6c(F)c(F)c(F)c(F)c6F)c6ccc3[nH]6)C=C5)C=C4)cc2)CC1
REMARK SMILES IDX 10 1 9 2 7 3 8 4 6 6 80 7 81 8 5 9 4 12 3 13 2 14 1 15 11 16
REMARK SMILES IDX 12 17 13 18 14 19 15 20 16 22 17 23 18 24 79 25 19 26 78 27
REMARK SMILES IDX 20 28 21 29 22 30 72 31 23 32 77 33 71 34 73 35 24 36 76 37
REMARK SMILES IDX 70 38 69 39 25 41 57 42 37 43 56 44 38 45 41 46 55 47 74 48
REMARK SMILES IDX 39 49 40 50 54 52 75 53 42 54 26 55 27 56 35 57 28 58 29 59
REMARK SMILES IDX 33 60 36 61 30 62 31 63 34 64 32 65 58 66 59 67 67 68 60 69
REMARK SMILES IDX 61 70 65 71 68 72 62 73 63 74 66 75 64 76 43 77 44 78 52 79
REMARK SMILES IDX 45 80 46 81 50 82 53 83 47 84 48 85 51 86 49 87
REMARK H PARENT 9 5 5 10 5 11 14 21 73 40 41 51
REMARK Flexibility Score: inf
ROOT
ATOM      1  C   UNL A   1      32.893  30.129  26.444  1.00  0.00     0.116 C 
ENDROOT
BRANCH   1   2
ATOM      2  N   UNL A   1      33.582  29.738  25.238  1.00  0.00    -0.351 N 
ATOM      3  C   UNL A   1      33.532  28.616  24.463  1.00  0.00     0.281 C 
ATOM      4  O   UNL A   1      34.111  28.682  23.373  1.00  0.00    -0.268 OA
ATOM      5  H   UNL A   1      34.215  30.416  24.908  1.00  0.00     0.163 HD
BRANCH   3   6
ATOM      6  C   UNL A   1      32.843  27.311  24.844  1.00  0.00     0.176 C 
ATOM      7  C   UNL A   1      33.411  26.550  26.028  1.00  0.00     0.086 C 
ATOM      8  C   UNL A   1      33.363  25.908  24.672  1.00  0.00     0.086 C 
BRANCH   6   9
ATOM      9  N   UNL A   1      31.347  27.446  24.819  1.00  0.00    -0.333 N 
ATOM     10  H   UNL A   1      30.974  27.115  25.710  1.00  0.00     0.347 HD
ATOM     11  H   UNL A   1      31.124  28.429  24.665  1.00  0.00     0.347 HD
BRANCH   9  12
ATOM     12  C   UNL A   1      30.736  26.667  23.730  1.00  0.00     0.276 C 
BRANCH  12  13
ATOM     13  C   UNL A   1      30.389  27.530  22.518  1.00  0.00     0.181 C 
BRANCH  13  14
ATOM     14  C   UNL A   1      29.958  28.924  22.942  1.00  0.00     0.068 C 
ATOM     15  N   UNL A   1      29.601  30.081  23.293  1.00  0.00    -0.198 NA
ENDBRANCH  13  14
ENDBRANCH  12  13
ENDBRANCH   9  12
ENDBRANCH   6   9
ENDBRANCH   3   6
ENDBRANCH   1   2
BRANCH   1  16
ATOM     16  C   UNL A   1      31.518  30.730  26.170  1.00  0.00     0.023 C 
BRANCH  16  17
ATOM     17  C   UNL A   1      31.350  32.202  26.571  1.00  0.00     0.023 C 
BRANCH  17  18
ATOM     18  C   UNL A   1      32.596  32.899  27.112  1.00  0.00     0.116 C 
BRANCH  18  19
ATOM     19  N   UNL A   1      32.322  34.198  27.700  1.00  0.00    -0.352 N 
ATOM     20  C   UNL A   1      32.999  34.883  28.676  1.00  0.00     0.251 C 
ATOM     21  H   UNL A   1      31.529  34.658  27.343  1.00  0.00     0.163 HD
ATOM     22  O   UNL A   1      32.561  35.960  29.071  1.00  0.00    -0.269 OA
BRANCH  20  23
ATOM     23  C   UNL A   1      34.221  34.318  29.293  1.00  0.00     0.039 A 
ATOM     24  C   UNL A   1      34.065  33.487  30.406  1.00  0.00     0.014 A 
ATOM     25  C   UNL A   1      35.501  34.607  28.812  1.00  0.00     0.014 A 
ATOM     26  C   UNL A   1      35.184  32.903  31.001  1.00  0.00     0.010 A 
ATOM     27  C   UNL A   1      36.613  33.971  29.366  1.00  0.00     0.010 A 
ATOM     28  C   UNL A   1      36.465  33.117  30.468  1.00  0.00    -0.014 A 
BRANCH  28  29
ATOM     29  C   UNL A   1      37.643  32.436  31.061  1.00  0.00     0.031 A 
ATOM     30  C   UNL A   1      38.132  32.805  32.433  1.00  0.00     0.074 A 
ATOM     31  C   UNL A   1      38.288  31.493  30.346  1.00  0.00     0.049 A 
ATOM     32  N   UNL A   1      39.118  32.289  33.125  1.00  0.00    -0.248 NA
ATOM     33  C   UNL A   1      37.440  33.912  33.109  1.00  0.00     0.031 C 
ATOM     34  C   UNL A   1      37.950  31.094  28.980  1.00  0.00     0.029 A 
ATOM     35  N   UNL A   1      39.358  30.699  30.671  1.00  0.00    -0.354 N 
ATOM     36  C   UNL A   1      39.166  33.011  34.311  1.00  0.00     0.074 A 
ATOM     37  C   UNL A   1      38.148  34.035  34.223  1.00  0.00     0.031 C 
ATOM     38  C   UNL A   1      38.771  30.104  28.596  1.00  0.00     0.029 A 
ATOM     39  C   UNL A   1      39.706  29.815  29.678  1.00  0.00     0.049 A 
ATOM     40  H   UNL A   1      39.830  30.755  31.533  1.00  0.00     0.167 HD
ATOM     41  C   UNL A   1      39.969  32.819  35.385  1.00  0.00     0.037 A 
ATOM     42  C   UNL A   1      40.664  28.870  29.651  1.00  0.00     0.037 A 
ATOM     43  C   UNL A   1      40.968  31.786  35.478  1.00  0.00     0.049 A 
ATOM     44  C   UNL A   1      41.521  28.658  30.869  1.00  0.00     0.074 A 
ATOM     45  C   UNL A   1      41.795  31.475  36.545  1.00  0.00     0.029 A 
ATOM     46  N   UNL A   1      41.277  30.894  34.462  1.00  0.00    -0.354 N 
ATOM     47  N   UNL A   1      41.502  29.293  32.016  1.00  0.00    -0.248 NA
ATOM     48  C   UNL A   1      42.521  27.585  30.792  1.00  0.00     0.031 C 
ATOM     49  C   UNL A   1      42.629  30.420  36.160  1.00  0.00     0.029 A 
ATOM     50  C   UNL A   1      42.291  30.041  34.871  1.00  0.00     0.049 A 
ATOM     51  H   UNL A   1      40.840  30.869  33.580  1.00  0.00     0.167 HD
ATOM     52  C   UNL A   1      42.466  28.681  32.804  1.00  0.00     0.074 A 
ATOM     53  C   UNL A   1      43.037  27.611  32.012  1.00  0.00     0.031 C 
ATOM     54  C   UNL A   1      42.846  28.980  34.071  1.00  0.00     0.037 A 
BRANCH  41  55
ATOM     55  C   UNL A   1      39.792  33.744  36.555  1.00  0.00     0.064 A 
ATOM     56  C   UNL A   1      40.446  34.984  36.616  1.00  0.00     0.173 A 
ATOM     57  C   UNL A   1      38.932  33.404  37.610  1.00  0.00     0.173 A 
ATOM     58  F   UNL A   1      41.289  35.351  35.638  1.00  0.00    -0.203 F 
ATOM     59  C   UNL A   1      40.270  35.836  37.702  1.00  0.00     0.198 A 
ATOM     60  C   UNL A   1      38.735  34.272  38.681  1.00  0.00     0.198 A 
ATOM     61  F   UNL A   1      38.277  32.233  37.600  1.00  0.00    -0.203 F 
ATOM     62  F   UNL A   1      40.943  36.993  37.760  1.00  0.00    -0.200 F 
ATOM     63  C   UNL A   1      39.409  35.483  38.730  1.00  0.00     0.200 A 
ATOM     64  F   UNL A   1      37.894  33.935  39.669  1.00  0.00    -0.200 F 
ATOM     65  F   UNL A   1      39.235  36.307  39.773  1.00  0.00    -0.200 F 
ENDBRANCH  41  55
BRANCH  42  66
ATOM     66  C   UNL A   1      40.828  28.017  28.446  1.00  0.00     0.064 A 
ATOM     67  C   UNL A   1      40.171  26.782  28.346  1.00  0.00     0.173 A 
ATOM     68  C   UNL A   1      41.640  28.414  27.375  1.00  0.00     0.173 A 
ATOM     69  F   UNL A   1      39.399  26.351  29.354  1.00  0.00    -0.203 F 
ATOM     70  C   UNL A   1      40.340  25.967  27.228  1.00  0.00     0.198 A 
ATOM     71  C   UNL A   1      41.786  27.611  26.247  1.00  0.00     0.198 A 
ATOM     72  F   UNL A   1      42.284  29.590  27.420  1.00  0.00    -0.203 F 
ATOM     73  F   UNL A   1      39.735  24.772  27.177  1.00  0.00    -0.200 F 
ATOM     74  C   UNL A   1      41.141  26.384  26.178  1.00  0.00     0.200 A 
ATOM     75  F   UNL A   1      42.551  28.022  25.227  1.00  0.00    -0.200 F 
ATOM     76  F   UNL A   1      41.300  25.601  25.102  1.00  0.00    -0.200 F 
ENDBRANCH  42  66
BRANCH  54  77
ATOM     77  C   UNL A   1      43.909  28.116  34.685  1.00  0.00     0.064 A 
ATOM     78  C   UNL A   1      45.271  28.434  34.574  1.00  0.00     0.173 A 
ATOM     79  C   UNL A   1      43.559  26.962  35.404  1.00  0.00     0.173 A 
ATOM     80  F   UNL A   1      45.657  29.518  33.884  1.00  0.00    -0.203 F 
ATOM     81  C   UNL A   1      46.245  27.608  35.128  1.00  0.00     0.198 A 
ATOM     82  C   UNL A   1      44.535  26.156  35.981  1.00  0.00     0.198 A 
ATOM     83  F   UNL A   1      42.270  26.618  35.545  1.00  0.00    -0.203 F 
ATOM     84  F   UNL A   1      47.543  27.899  34.959  1.00  0.00    -0.200 F 
ATOM     85  C   UNL A   1      45.877  26.473  35.835  1.00  0.00     0.200 A 
ATOM     86  F   UNL A   1      44.177  25.065  36.674  1.00  0.00    -0.200 F 
ATOM     87  F   UNL A   1      46.816  25.679  36.366  1.00  0.00    -0.200 F 
ENDBRANCH  54  77
ENDBRANCH  28  29
ENDBRANCH  20  23
ENDBRANCH  18  19
ENDBRANCH  17  18
ENDBRANCH  16  17
ENDBRANCH   1  16
TORSDOF 15
ENDMDL
MODEL 2
REMARK VINA RESULT:     -10.2      0.520      2.118
REMARK SMILES N#CCC[NH2+]C1(C(=O)NCCCCNC(=O)c2ccc(-c3c4nc(c(-c5c(F)c(F)c(F)c(F)c5F)c5ccc([nH]5)c(-c5c(F)c(F)c(F)c(F)c5F)c5nc(c(-c6c(F)c(F)c(F)c(F)c6F)c6ccc3[nH]6)C=C5)C=C4)cc2)CC1
REMARK SMILES IDX 10 1 9 2 7 3 8 4 6 6 80 7 81 8 5 9 4 12 3 13 2 14 1 15 11 16
REMARK SMILES IDX 12 17 13 18 14 19 15 20 16 22 17 23 18 24 79 25 19 26 78 27
REMARK SMILES IDX 20 28 21 29 22 30 72 31 23 32 77 33 71 34 73 35 24 36 76 37
REMARK SMILES IDX 70 38 69 39 25 41 57 42 37 43 56 44 38 45 41 46 55 47 74 48
REMARK SMILES IDX 39 49 40 50 54 52 75 53 42 54 26 55 27 56 35 57 28 58 29 59
REMARK SMILES IDX 33 60 36 61 30 62 31 63 34 64 32 65 58 66 59 67 67 68 60 69
REMARK SMILES IDX 61 70 65 71 68 72 62 73 63 74 66 75 64 76 43 77 44 78 52 79
REMARK SMILES IDX 45 80 46 81 50 82 53 83 47 84 48 85 51 86 49 87
REMARK H PARENT 9 5 5 10 5 11 14 21 73 40 41 51
REMARK Flexibility Score: inf
ROOT
ATOM      1  C   UNL A   1      33.063  29.744  26.302  1.00  0.00     0.116 C 
ENDROOT
BRANCH   1   2
ATOM      2  N   UNL A   1      33.501  29.609  24.934  1.00  0.00    -0.351 N 
ATOM      3  C   UNL A   1      33.228  28.695  23.958  1.00  0.00     0.281 C 
ATOM      4  O   UNL A   1      33.616  28.982  22.820  1.00  0.00    -0.268 OA
ATOM      5  H   UNL A   1      34.122  30.317  24.647  1.00  0.00     0.163 HD
BRANCH   3   6
ATOM      6  C   UNL A   1      32.510  27.368  24.168  1.00  0.00     0.176 C 
ATOM      7  C   UNL A   1      33.184  26.354  25.075  1.00  0.00     0.086 C 
ATOM      8  C   UNL A   1      32.901  26.012  23.640  1.00  0.00     0.086 C 
BRANCH   6   9
ATOM      9  N   UNL A   1      31.038  27.563  24.398  1.00  0.00    -0.333 N 
ATOM     10  H   UNL A   1      30.709  26.846  25.046  1.00  0.00     0.347 HD
ATOM     11  H   UNL A   1      30.903  28.499  24.780  1.00  0.00     0.347 HD
BRANCH   9  12
ATOM     12  C   UNL A   1      30.262  27.468  23.151  1.00  0.00     0.276 C 
BRANCH  12  13
ATOM     13  C   UNL A   1      29.710  28.819  22.701  1.00  0.00     0.181 C 
BRANCH  13  14
ATOM     14  C   UNL A   1      28.210  28.905  22.934  1.00  0.00     0.068 C 
ATOM     15  N   UNL A   1      26.966  28.975  23.126  1.00  0.00    -0.198 NA
ENDBRANCH  13  14
ENDBRANCH  12  13
ENDBRANCH   9  12
ENDBRANCH   6   9
ENDBRANCH   3   6
ENDBRANCH   1   2
BRANCH   1  16
ATOM     16  C   UNL A   1      31.622  30.232  26.415  1.00  0.00     0.023 C 
BRANCH  16  17
ATOM     17  C   UNL A   1      31.448  31.754  26.507  1.00  0.00     0.023 C 
BRANCH  17  18
ATOM     18  C   UNL A   1      32.684  32.551  26.916  1.00  0.00     0.116 C 
BRANCH  18  19
ATOM     19  N   UNL A   1      32.373  33.846  27.492  1.00  0.00    -0.352 N 
ATOM     20  C   UNL A   1      33.008  34.542  28.489  1.00  0.00     0.251 C 
ATOM     21  H   UNL A   1      31.586  34.295  27.109  1.00  0.00     0.163 HD
ATOM     22  O   UNL A   1      32.543  35.613  28.868  1.00  0.00    -0.269 OA
BRANCH  20  23
ATOM     23  C   UNL A   1      34.218  33.996  29.145  1.00  0.00     0.039 A 
ATOM     24  C   UNL A   1      34.043  32.992  30.102  1.00  0.00     0.014 A 
ATOM     25  C   UNL A   1      35.502  34.464  28.852  1.00  0.00     0.014 A 
ATOM     26  C   UNL A   1      35.155  32.421  30.724  1.00  0.00     0.010 A 
ATOM     27  C   UNL A   1      36.615  33.849  29.426  1.00  0.00     0.010 A 
ATOM     28  C   UNL A   1      36.452  32.824  30.369  1.00  0.00    -0.014 A 
BRANCH  28  29
ATOM     29  C   UNL A   1      37.632  32.164  30.981  1.00  0.00     0.031 A 
ATOM     30  C   UNL A   1      38.082  32.527  32.367  1.00  0.00     0.074 A 
ATOM     31  C   UNL A   1      38.314  31.245  30.270  1.00  0.00     0.049 A 
ATOM     32  N   UNL A   1      39.063  32.026  33.076  1.00  0.00    -0.248 NA
ATOM     33  C   UNL A   1      37.349  33.610  33.041  1.00  0.00     0.031 C 
ATOM     34  C   UNL A   1      38.016  30.854  28.892  1.00  0.00     0.029 A 
ATOM     35  N   UNL A   1      39.395  30.471  30.610  1.00  0.00    -0.354 N 
ATOM     36  C   UNL A   1      39.068  32.734  34.271  1.00  0.00     0.074 A 
ATOM     37  C   UNL A   1      38.029  33.736  34.172  1.00  0.00     0.031 C 
ATOM     38  C   UNL A   1      38.868  29.888  28.515  1.00  0.00     0.029 A 
ATOM     39  C   UNL A   1      39.786  29.608  29.615  1.00  0.00     0.049 A 
ATOM     40  H   UNL A   1      39.846  30.528  31.482  1.00  0.00     0.167 HD
ATOM     41  C   UNL A   1      39.851  32.548  35.360  1.00  0.00     0.037 A 
ATOM     42  C   UNL A   1      40.766  28.686  29.598  1.00  0.00     0.037 A 
ATOM     43  C   UNL A   1      40.872  31.537  35.465  1.00  0.00     0.049 A 
ATOM     44  C   UNL A   1      41.600  28.479  30.833  1.00  0.00     0.074 A 
ATOM     45  C   UNL A   1      41.681  31.233  36.546  1.00  0.00     0.029 A 
ATOM     46  N   UNL A   1      41.223  30.665  34.445  1.00  0.00    -0.354 N 
ATOM     47  N   UNL A   1      41.541  29.099  31.986  1.00  0.00    -0.248 NA
ATOM     48  C   UNL A   1      42.626  27.429  30.766  1.00  0.00     0.031 C 
ATOM     49  C   UNL A   1      42.548  30.202  36.168  1.00  0.00     0.029 A 
ATOM     50  C   UNL A   1      42.248  29.831  34.867  1.00  0.00     0.049 A 
ATOM     51  H   UNL A   1      40.807  30.640  33.553  1.00  0.00     0.167 HD
ATOM     52  C   UNL A   1      42.500  28.500  32.790  1.00  0.00     0.074 A 
ATOM     53  C   UNL A   1      43.114  27.453  31.998  1.00  0.00     0.031 C 
ATOM     54  C   UNL A   1      42.846  28.792  34.068  1.00  0.00     0.037 A 
BRANCH  41  55
ATOM     55  C   UNL A   1      39.626  33.454  36.536  1.00  0.00     0.064 A 
ATOM     56  C   UNL A   1      38.731  33.116  37.563  1.00  0.00     0.173 A 
ATOM     57  C   UNL A   1      40.337  34.658  36.657  1.00  0.00     0.173 A 
ATOM     58  F   UNL A   1      38.017  31.983  37.489  1.00  0.00    -0.203 F 
ATOM     59  C   UNL A   1      38.533  33.962  38.651  1.00  0.00     0.198 A 
ATOM     60  C   UNL A   1      40.160  35.487  37.762  1.00  0.00     0.198 A 
ATOM     61  F   UNL A   1      41.210  35.026  35.708  1.00  0.00    -0.203 F 
ATOM     62  F   UNL A   1      37.638  33.640  39.594  1.00  0.00    -0.200 F 
ATOM     63  C   UNL A   1      39.254  35.142  38.754  1.00  0.00     0.200 A 
ATOM     64  F   UNL A   1      40.864  36.622  37.866  1.00  0.00    -0.200 F 
ATOM     65  F   UNL A   1      39.068  35.953  39.805  1.00  0.00    -0.200 F 
ENDBRANCH  41  55
BRANCH  42  66
ATOM     66  C   UNL A   1      40.977  27.850  28.388  1.00  0.00     0.064 A 
ATOM     67  C   UNL A   1      41.838  28.271  27.365  1.00  0.00     0.173 A 
ATOM     68  C   UNL A   1      40.325  26.619  28.229  1.00  0.00     0.173 A 
ATOM     69  F   UNL A   1      42.469  29.450  27.465  1.00  0.00    -0.203 F 
ATOM     70  C   UNL A   1      42.022  27.502  26.219  1.00  0.00     0.198 A 
ATOM     71  C   UNL A   1      40.531  25.839  27.094  1.00  0.00     0.198 A 
ATOM     72  F   UNL A   1      39.497  26.170  29.182  1.00  0.00    -0.203 F 
ATOM     73  F   UNL A   1      42.817  27.949  25.236  1.00  0.00    -0.200 F 
ATOM     74  C   UNL A   1      41.373  26.285  26.085  1.00  0.00     0.200 A 
ATOM     75  F   UNL A   1      39.912  24.656  26.974  1.00  0.00    -0.200 F 
ATOM     76  F   UNL A   1      41.554  25.544  24.984  1.00  0.00    -0.200 F 
ENDBRANCH  42  66
BRANCH  54  77
ATOM     77  C   UNL A   1      43.914  27.945  34.696  1.00  0.00     0.064 A 
ATOM     78  C   UNL A   1      43.609  26.740  35.347  1.00  0.00     0.173 A 
ATOM     79  C   UNL A   1      45.260  28.339  34.635  1.00  0.00     0.173 A 
ATOM     80  F   UNL A   1      42.336  26.329  35.444  1.00  0.00    -0.203 F 
ATOM     81  C   UNL A   1      44.609  25.979  35.945  1.00  0.00     0.198 A 
ATOM     82  C   UNL A   1      46.259  27.560  35.210  1.00  0.00     0.198 A 
ATOM     83  F   UNL A   1      45.604  29.479  34.019  1.00  0.00    -0.203 F 
ATOM     84  F   UNL A   1      44.288  24.861  36.613  1.00  0.00    -0.200 F 
ATOM     85  C   UNL A   1      45.933  26.386  35.873  1.00  0.00     0.200 A 
ATOM     86  F   UNL A   1      47.539  27.948  35.129  1.00  0.00    -0.200 F 
ATOM     87  F   UNL A   1      46.893  25.653  36.452  1.00  0.00    -0.200 F 
ENDBRANCH  54  77
ENDBRANCH  28  29
ENDBRANCH  20  23
ENDBRANCH  18  19
ENDBRANCH  17  18
ENDBRANCH  16  17
ENDBRANCH   1  16
TORSDOF 15
ENDMDL
MODEL 3
REMARK VINA RESULT:     -10.1      1.035      7.828
REMARK SMILES N#CCC[NH2+]C1(C(=O)NCCCCNC(=O)c2ccc(-c3c4nc(c(-c5c(F)c(F)c(F)c(F)c5F)c5ccc([nH]5)c(-c5c(F)c(F)c(F)c(F)c5F)c5nc(c(-c6c(F)c(F)c(F)c(F)c6F)c6ccc3[nH]6)C=C5)C=C4)cc2)CC1
REMARK SMILES IDX 10 1 9 2 7 3 8 4 6 6 80 7 81 8 5 9 4 12 3 13 2 14 1 15 11 16
REMARK SMILES IDX 12 17 13 18 14 19 15 20 16 22 17 23 18 24 79 25 19 26 78 27
REMARK SMILES IDX 20 28 21 29 22 30 72 31 23 32 77 33 71 34 73 35 24 36 76 37
REMARK SMILES IDX 70 38 69 39 25 41 57 42 37 43 56 44 38 45 41 46 55 47 74 48
REMARK SMILES IDX 39 49 40 50 54 52 75 53 42 54 26 55 27 56 35 57 28 58 29 59
REMARK SMILES IDX 33 60 36 61 30 62 31 63 34 64 32 65 58 66 59 67 67 68 60 69
REMARK SMILES IDX 61 70 65 71 68 72 62 73 63 74 66 75 64 76 43 77 44 78 52 79
REMARK SMILES IDX 45 80 46 81 50 82 53 83 47 84 48 85 51 86 49 87
REMARK H PARENT 9 5 5 10 5 11 14 21 73 40 41 51
REMARK Flexibility Score: inf
ROOT
ATOM      1  C   UNL A   1      32.350  29.814  27.156  1.00  0.00     0.116 C 
ENDROOT
BRANCH   1   2
ATOM      2  N   UNL A   1      31.636  28.564  27.251  1.00  0.00    -0.351 N 
ATOM      3  C   UNL A   1      31.682  27.412  26.521  1.00  0.00     0.281 C 
ATOM      4  O   UNL A   1      31.075  26.445  26.993  1.00  0.00    -0.268 OA
ATOM      5  H   UNL A   1      30.985  28.536  27.988  1.00  0.00     0.163 HD
BRANCH   3   6
ATOM      6  C   UNL A   1      32.399  27.240  25.187  1.00  0.00     0.176 C 
ATOM      7  C   UNL A   1      33.710  26.475  25.201  1.00  0.00     0.086 C 
ATOM      8  C   UNL A   1      33.674  27.901  24.732  1.00  0.00     0.086 C 
BRANCH   6   9
ATOM      9  N   UNL A   1      31.445  26.867  24.088  1.00  0.00    -0.333 N 
ATOM     10  H   UNL A   1      31.811  26.048  23.600  1.00  0.00     0.347 HD
ATOM     11  H   UNL A   1      30.539  26.671  24.513  1.00  0.00     0.347 HD
BRANCH   9  12
ATOM     12  C   UNL A   1      31.263  27.957  23.115  1.00  0.00     0.276 C 
BRANCH  12  13
ATOM     13  C   UNL A   1      30.160  28.929  23.528  1.00  0.00     0.181 C 
BRANCH  13  14
ATOM     14  C   UNL A   1      29.462  29.517  22.312  1.00  0.00     0.068 C 
ATOM     15  N   UNL A   1      28.884  30.004  21.303  1.00  0.00    -0.198 NA
ENDBRANCH  13  14
ENDBRANCH  12  13
ENDBRANCH   9  12
ENDBRANCH   6   9
ENDBRANCH   3   6
ENDBRANCH   1   2
BRANCH   1  16
ATOM     16  C   UNL A   1      31.665  30.816  26.231  1.00  0.00     0.023 C 
BRANCH  16  17
ATOM     17  C   UNL A   1      31.428  32.209  26.829  1.00  0.00     0.023 C 
BRANCH  17  18
ATOM     18  C   UNL A   1      32.674  33.053  27.088  1.00  0.00     0.116 C 
BRANCH  18  19
ATOM     19  N   UNL A   1      32.382  34.355  27.660  1.00  0.00    -0.352 N 
ATOM     20  C   UNL A   1      33.000  35.025  28.684  1.00  0.00     0.251 C 
ATOM     21  H   UNL A   1      31.626  34.830  27.249  1.00  0.00     0.163 HD
ATOM     22  O   UNL A   1      32.555  36.109  29.051  1.00  0.00    -0.269 OA
BRANCH  20  23
ATOM     23  C   UNL A   1      34.164  34.438  29.385  1.00  0.00     0.039 A 
ATOM     24  C   UNL A   1      33.926  33.737  30.571  1.00  0.00     0.014 A 
ATOM     25  C   UNL A   1      35.471  34.580  28.910  1.00  0.00     0.014 A 
ATOM     26  C   UNL A   1      34.986  33.135  31.250  1.00  0.00     0.010 A 
ATOM     27  C   UNL A   1      36.521  33.924  29.553  1.00  0.00     0.010 A 
ATOM     28  C   UNL A   1      36.289  33.199  30.731  1.00  0.00    -0.014 A 
BRANCH  28  29
ATOM     29  C   UNL A   1      37.401  32.496  31.419  1.00  0.00     0.031 A 
ATOM     30  C   UNL A   1      38.134  31.373  30.743  1.00  0.00     0.074 A 
ATOM     31  C   UNL A   1      37.737  32.864  32.671  1.00  0.00     0.049 A 
ATOM     32  N   UNL A   1      39.155  30.675  31.175  1.00  0.00    -0.248 NA
ATOM     33  C   UNL A   1      37.645  30.963  29.418  1.00  0.00     0.031 C 
ATOM     34  C   UNL A   1      37.059  33.895  33.457  1.00  0.00     0.029 A 
ATOM     35  N   UNL A   1      38.734  32.415  33.499  1.00  0.00    -0.354 N 
ATOM     36  C   UNL A   1      39.425  29.743  30.180  1.00  0.00     0.074 A 
ATOM     37  C   UNL A   1      38.428  29.928  29.148  1.00  0.00     0.031 C 
ATOM     38  C   UNL A   1      37.680  34.026  34.639  1.00  0.00     0.029 A 
ATOM     39  C   UNL A   1      38.785  33.075  34.703  1.00  0.00     0.049 A 
ATOM     40  H   UNL A   1      39.353  31.690  33.255  1.00  0.00     0.167 HD
ATOM     41  C   UNL A   1      40.429  28.835  30.123  1.00  0.00     0.037 A 
ATOM     42  C   UNL A   1      39.637  32.936  35.737  1.00  0.00     0.037 A 
ATOM     43  C   UNL A   1      41.432  28.667  31.142  1.00  0.00     0.049 A 
ATOM     44  C   UNL A   1      40.760  31.941  35.633  1.00  0.00     0.074 A 
ATOM     45  C   UNL A   1      42.521  27.812  31.151  1.00  0.00     0.029 A 
ATOM     46  N   UNL A   1      41.466  29.370  32.337  1.00  0.00    -0.354 N 
ATOM     47  N   UNL A   1      41.055  31.123  34.652  1.00  0.00    -0.248 NA
ATOM     48  C   UNL A   1      41.681  31.865  36.775  1.00  0.00     0.031 C 
ATOM     49  C   UNL A   1      43.193  27.971  32.368  1.00  0.00     0.029 A 
ATOM     50  C   UNL A   1      42.550  28.958  33.098  1.00  0.00     0.049 A 
ATOM     51  H   UNL A   1      40.818  30.060  32.606  1.00  0.00     0.167 HD
ATOM     52  C   UNL A   1      42.205  30.454  35.045  1.00  0.00     0.074 A 
ATOM     53  C   UNL A   1      42.567  30.978  36.347  1.00  0.00     0.031 C 
ATOM     54  C   UNL A   1      42.898  29.491  34.390  1.00  0.00     0.037 A 
BRANCH  41  55
ATOM     55  C   UNL A   1      40.497  27.957  28.906  1.00  0.00     0.064 A 
ATOM     56  C   UNL A   1      39.772  26.757  28.826  1.00  0.00     0.173 A 
ATOM     57  C   UNL A   1      41.266  28.333  27.795  1.00  0.00     0.173 A 
ATOM     58  F   UNL A   1      39.031  26.346  29.866  1.00  0.00    -0.203 F 
ATOM     59  C   UNL A   1      39.838  25.953  27.692  1.00  0.00     0.198 A 
ATOM     60  C   UNL A   1      41.306  27.541  26.650  1.00  0.00     0.198 A 
ATOM     61  F   UNL A   1      41.973  29.473  27.816  1.00  0.00    -0.203 F 
ATOM     62  F   UNL A   1      39.176  24.789  27.658  1.00  0.00    -0.200 F 
ATOM     63  C   UNL A   1      40.598  26.349  26.602  1.00  0.00     0.200 A 
ATOM     64  F   UNL A   1      42.032  27.930  25.593  1.00  0.00    -0.200 F 
ATOM     65  F   UNL A   1      40.657  25.578  25.508  1.00  0.00    -0.200 F 
ENDBRANCH  41  55
BRANCH  42  66
ATOM     66  C   UNL A   1      39.492  33.798  36.937  1.00  0.00     0.064 A 
ATOM     67  C   UNL A   1      38.784  33.351  38.062  1.00  0.00     0.173 A 
ATOM     68  C   UNL A   1      40.056  35.081  36.987  1.00  0.00     0.173 A 
ATOM     69  F   UNL A   1      38.212  32.138  38.053  1.00  0.00    -0.203 F 
ATOM     70  C   UNL A   1      38.626  34.164  39.182  1.00  0.00     0.198 A 
ATOM     71  C   UNL A   1      39.919  35.882  38.117  1.00  0.00     0.198 A 
ATOM     72  F   UNL A   1      40.748  35.551  35.939  1.00  0.00    -0.203 F 
ATOM     73  F   UNL A   1      37.907  33.729  40.226  1.00  0.00    -0.200 F 
ATOM     74  C   UNL A   1      39.198  35.426  39.212  1.00  0.00     0.200 A 
ATOM     75  F   UNL A   1      40.485  37.096  38.148  1.00  0.00    -0.200 F 
ATOM     76  F   UNL A   1      39.049  36.206  40.291  1.00  0.00    -0.200 F 
ENDBRANCH  42  66
BRANCH  54  77
ATOM     77  C   UNL A   1      44.136  28.967  35.059  1.00  0.00     0.064 A 
ATOM     78  C   UNL A   1      44.091  27.871  35.934  1.00  0.00     0.173 A 
ATOM     79  C   UNL A   1      45.383  29.561  34.812  1.00  0.00     0.173 A 
ATOM     80  F   UNL A   1      42.920  27.279  36.214  1.00  0.00    -0.203 F 
ATOM     81  C   UNL A   1      45.243  27.413  36.566  1.00  0.00     0.198 A 
ATOM     82  C   UNL A   1      46.537  29.082  35.423  1.00  0.00     0.198 A 
ATOM     83  F   UNL A   1      45.481  30.607  33.979  1.00  0.00    -0.203 F 
ATOM     84  F   UNL A   1      45.167  26.403  37.443  1.00  0.00    -0.200 F 
ATOM     85  C   UNL A   1      46.466  28.015  36.307  1.00  0.00     0.200 A 
ATOM     86  F   UNL A   1      47.720  29.657  35.163  1.00  0.00    -0.200 F 
ATOM     87  F   UNL A   1      47.574  27.575  36.918  1.00  0.00    -0.200 F 
ENDBRANCH  54  77
ENDBRANCH  28  29
ENDBRANCH  20  23
ENDBRANCH  18  19
ENDBRANCH  17  18
ENDBRANCH  16  17
ENDBRANCH   1  16
TORSDOF 15
ENDMDL
