MODEL 1
REMARK VINA RESULT:     -11.8      0.000      0.000
REMARK SMILES O=C(NCCCCNC(=O)c1cncnc1N1CC[C@H]2[NH2+]CCC[C@]2(CO)C1)c1ccc(-c2c3nc(c(-c4c(F)c(F)c(F)c(F)c4F)c4ccc([nH]4)c(-c4c(F)c(F)c(F)c(F)c4F)c4nc(c(-c5c(F)c(F)c(F)c(F)c5F)c5ccc2[nH]5)C=C4)C=C3)cc1
REMARK SMILES IDX 6 1 5 2 4 3 3 4 1 5 2 6 29 8 30 9 91 10 31 11 90 12 32 13
REMARK SMILES IDX 33 14 34 15 84 16 35 17 89 18 83 19 85 20 36 21 88 22 82 23
REMARK SMILES IDX 81 24 37 26 69 27 49 28 68 29 50 30 53 31 67 32 86 33 51 34
REMARK SMILES IDX 52 35 66 37 87 38 54 39 38 40 39 41 47 42 40 43 41 44 45 45
REMARK SMILES IDX 48 46 42 47 43 48 46 49 44 50 70 51 71 52 79 53 72 54 73 55
REMARK SMILES IDX 77 56 80 57 74 58 75 59 78 60 76 61 55 62 56 63 64 64 57 65
REMARK SMILES IDX 58 66 62 67 65 68 59 69 60 70 63 71 61 72 7 73 8 74 9 75
REMARK SMILES IDX 10 77 11 78 12 79 16 80 13 81 15 82 14 83 17 84 18 85 28 86
REMARK SMILES IDX 19 87 25 88 20 89 24 90 21 91 23 92 22 93 26 96 27 97
REMARK H PARENT 3 7 85 25 53 36 8 76 21 94 21 95 27 98
REMARK Flexibility Score: inf
ROOT
ATOM      1  C   UNL A   1      38.956  22.483  26.176  1.00  0.00     0.023 C 
ENDROOT
BRANCH   1   2
ATOM      2  C   UNL A   1      39.136  21.117  25.519  1.00  0.00     0.023 C 
BRANCH   2   3
ATOM      3  C   UNL A   1      39.531  19.982  26.454  1.00  0.00     0.116 C 
BRANCH   3   4
ATOM      4  N   UNL A   1      40.664  19.207  25.976  1.00  0.00    -0.352 N 
ATOM      5  O   UNL A   1      42.792  18.816  25.335  1.00  0.00    -0.269 OA
ATOM      6  C   UNL A   1      41.987  19.571  25.864  1.00  0.00     0.251 C 
ATOM      7  H   UNL A   1      40.456  18.287  25.691  1.00  0.00     0.163 HD
BRANCH   6   8
ATOM      8  C   UNL A   1      42.431  20.895  26.355  1.00  0.00     0.039 A 
ATOM      9  C   UNL A   1      42.475  21.176  27.722  1.00  0.00     0.014 A 
ATOM     10  C   UNL A   1      42.804  21.872  25.426  1.00  0.00     0.014 A 
ATOM     11  C   UNL A   1      42.736  22.472  28.152  1.00  0.00     0.010 A 
ATOM     12  C   UNL A   1      43.152  23.153  25.867  1.00  0.00     0.010 A 
ATOM     13  C   UNL A   1      43.085  23.473  27.230  1.00  0.00    -0.014 A 
BRANCH  13  14
ATOM     14  C   UNL A   1      43.426  24.830  27.729  1.00  0.00     0.031 A 
ATOM     15  C   UNL A   1      44.855  25.275  27.869  1.00  0.00     0.074 A 
ATOM     16  C   UNL A   1      42.423  25.677  28.027  1.00  0.00     0.049 A 
ATOM     17  N   UNL A   1      45.323  26.433  28.263  1.00  0.00    -0.248 NA
ATOM     18  C   UNL A   1      45.897  24.293  27.531  1.00  0.00     0.031 C 
ATOM     19  C   UNL A   1      40.997  25.350  27.948  1.00  0.00     0.029 A 
ATOM     20  N   UNL A   1      42.442  26.985  28.439  1.00  0.00    -0.354 N 
ATOM     21  C   UNL A   1      46.707  26.315  28.240  1.00  0.00     0.074 A 
ATOM     22  C   UNL A   1      47.005  24.964  27.814  1.00  0.00     0.031 C 
ATOM     23  C   UNL A   1      40.279  26.440  28.255  1.00  0.00     0.029 A 
ATOM     24  C   UNL A   1      41.191  27.523  28.608  1.00  0.00     0.049 A 
ATOM     25  H   UNL A   1      43.272  27.489  28.597  1.00  0.00     0.167 HD
ATOM     26  C   UNL A   1      47.638  27.253  28.539  1.00  0.00     0.037 A 
ATOM     27  C   UNL A   1      40.815  28.748  29.017  1.00  0.00     0.037 A 
ATOM     28  C   UNL A   1      47.334  28.603  28.943  1.00  0.00     0.049 A 
ATOM     29  C   UNL A   1      41.869  29.764  29.346  1.00  0.00     0.074 A 
ATOM     30  C   UNL A   1      48.210  29.637  29.226  1.00  0.00     0.029 A 
ATOM     31  N   UNL A   1      46.054  29.104  29.124  1.00  0.00    -0.354 N 
ATOM     32  N   UNL A   1      43.174  29.650  29.285  1.00  0.00    -0.248 NA
ATOM     33  C   UNL A   1      41.401  31.078  29.804  1.00  0.00     0.031 C 
ATOM     34  C   UNL A   1      47.461  30.751  29.619  1.00  0.00     0.029 A 
ATOM     35  C   UNL A   1      46.117  30.427  29.536  1.00  0.00     0.049 A 
ATOM     36  H   UNL A   1      45.223  28.597  28.980  1.00  0.00     0.167 HD
ATOM     37  C   UNL A   1      43.682  30.877  29.684  1.00  0.00     0.074 A 
ATOM     38  C   UNL A   1      42.543  31.729  29.963  1.00  0.00     0.031 C 
ATOM     39  C   UNL A   1      44.975  31.260  29.813  1.00  0.00     0.037 A 
BRANCH  26  40
ATOM     40  C   UNL A   1      49.084  26.854  28.457  1.00  0.00     0.064 A 
ATOM     41  C   UNL A   1      49.805  26.940  27.256  1.00  0.00     0.173 A 
ATOM     42  C   UNL A   1      49.772  26.440  29.607  1.00  0.00     0.173 A 
ATOM     43  F   UNL A   1      49.192  27.321  26.126  1.00  0.00    -0.203 F 
ATOM     44  C   UNL A   1      51.157  26.607  27.208  1.00  0.00     0.198 A 
ATOM     45  C   UNL A   1      51.129  26.132  29.560  1.00  0.00     0.198 A 
ATOM     46  F   UNL A   1      49.130  26.347  30.782  1.00  0.00    -0.203 F 
ATOM     47  F   UNL A   1      51.817  26.663  26.044  1.00  0.00    -0.200 F 
ATOM     48  C   UNL A   1      51.819  26.212  28.360  1.00  0.00     0.200 A 
ATOM     49  F   UNL A   1      51.770  25.761  30.677  1.00  0.00    -0.200 F 
ATOM     50  F   UNL A   1      53.122  25.902  28.313  1.00  0.00    -0.200 F 
ENDBRANCH  26  40
BRANCH  27  51
ATOM     51  C   UNL A   1      39.370  29.070  29.134  1.00  0.00     0.064 A 
ATOM     52  C   UNL A   1      38.714  29.011  30.370  1.00  0.00     0.173 A 
ATOM     53  C   UNL A   1      38.624  29.470  28.015  1.00  0.00     0.173 A 
ATOM     54  F   UNL A   1      39.383  28.618  31.465  1.00  0.00    -0.203 F 
ATOM     55  C   UNL A   1      37.363  29.328  30.482  1.00  0.00     0.198 A 
ATOM     56  C   UNL A   1      37.281  29.814  28.132  1.00  0.00     0.198 A 
ATOM     57  F   UNL A   1      39.210  29.549  26.812  1.00  0.00    -0.203 F 
ATOM     58  F   UNL A   1      36.749  29.229  31.669  1.00  0.00    -0.200 F 
ATOM     59  C   UNL A   1      36.649  29.738  29.365  1.00  0.00     0.200 A 
ATOM     60  F   UNL A   1      36.600  30.227  27.055  1.00  0.00    -0.200 F 
ATOM     61  F   UNL A   1      35.352  30.054  29.475  1.00  0.00    -0.200 F 
ENDBRANCH  27  51
BRANCH  39  62
ATOM     62  C   UNL A   1      45.224  32.670  30.259  1.00  0.00     0.064 A 
ATOM     63  C   UNL A   1      45.386  32.992  31.614  1.00  0.00     0.173 A 
ATOM     64  C   UNL A   1      45.324  33.707  29.319  1.00  0.00     0.173 A 
ATOM     65  F   UNL A   1      45.281  32.038  32.552  1.00  0.00    -0.203 F 
ATOM     66  C   UNL A   1      45.612  34.306  32.015  1.00  0.00     0.198 A 
ATOM     67  C   UNL A   1      45.578  35.015  29.722  1.00  0.00     0.198 A 
ATOM     68  F   UNL A   1      45.181  33.449  28.010  1.00  0.00    -0.203 F 
ATOM     69  F   UNL A   1      45.716  34.599  33.318  1.00  0.00    -0.200 F 
ATOM     70  C   UNL A   1      45.714  35.314  31.068  1.00  0.00     0.200 A 
ATOM     71  F   UNL A   1      45.685  35.987  28.805  1.00  0.00    -0.200 F 
ATOM     72  F   UNL A   1      45.934  36.579  31.455  1.00  0.00    -0.200 F 
ENDBRANCH  39  62
ENDBRANCH  13  14
ENDBRANCH   6   8
ENDBRANCH   3   4
ENDBRANCH   2   3
ENDBRANCH   1   2
BRANCH   1  73
ATOM     73  C   UNL A   1      37.638  23.188  25.872  1.00  0.00     0.116 C 
BRANCH  73  74
ATOM     74  N   UNL A   1      37.382  23.332  24.447  1.00  0.00    -0.352 N 
ATOM     75  C   UNL A   1      36.295  22.917  23.711  1.00  0.00     0.256 C 
ATOM     76  H   UNL A   1      38.087  23.792  23.936  1.00  0.00     0.163 HD
ATOM     77  O   UNL A   1      36.244  23.157  22.509  1.00  0.00    -0.269 OA
BRANCH  75  78
ATOM     78  C   UNL A   1      35.195  22.225  24.385  1.00  0.00     0.100 A 
ATOM     79  C   UNL A   1      35.389  20.894  24.717  1.00  0.00     0.130 A 
ATOM     80  C   UNL A   1      34.010  22.813  24.804  1.00  0.00     0.144 A 
ATOM     81  N   UNL A   1      34.466  20.125  25.321  1.00  0.00    -0.244 NA
ATOM     82  N   UNL A   1      33.069  22.056  25.419  1.00  0.00    -0.219 NA
ATOM     83  C   UNL A   1      33.332  20.758  25.635  1.00  0.00     0.224 A 
BRANCH  80  84
ATOM     84  N   UNL A   1      33.696  24.165  24.731  1.00  0.00    -0.355 N 
ATOM     85  C   UNL A   1      33.880  25.059  25.866  1.00  0.00     0.124 C 
ATOM     86  C   UNL A   1      32.539  24.400  23.848  1.00  0.00     0.133 C 
ATOM     87  C   UNL A   1      33.858  26.521  25.409  1.00  0.00     0.087 C 
ATOM     88  C   UNL A   1      32.476  25.866  23.369  1.00  0.00     0.063 C 
ATOM     89  C   UNL A   1      32.579  26.792  24.607  1.00  0.00     0.194 C 
ATOM     90  C   UNL A   1      31.097  26.119  22.707  1.00  0.00     0.023 C 
ATOM     91  N   UNL A   1      32.475  28.211  24.223  1.00  0.00    -0.343 N 
ATOM     92  C   UNL A   1      30.892  27.601  22.390  1.00  0.00     0.062 C 
ATOM     93  C   UNL A   1      31.172  28.487  23.604  1.00  0.00     0.260 C 
ATOM     94  H   UNL A   1      33.216  28.433  23.557  1.00  0.00     0.346 HD
ATOM     95  H   UNL A   1      32.569  28.785  25.060  1.00  0.00     0.346 HD
BRANCH  88  96
ATOM     96  C   UNL A   1      33.622  26.115  22.353  1.00  0.00     0.171 C 
BRANCH  96  97
ATOM     97  O   UNL A   1      33.327  25.521  21.089  1.00  0.00    -0.395 OA
ATOM     98  H   UNL A   1      33.805  25.994  20.390  1.00  0.00     0.210 HD
ENDBRANCH  96  97
ENDBRANCH  88  96
ENDBRANCH  80  84
ENDBRANCH  75  78
ENDBRANCH  73  74
ENDBRANCH   1  73
TORSDOF 14
ENDMDL
MODEL 2
REMARK VINA RESULT:     -11.8      0.139      1.122
REMARK SMILES O=C(NCCCCNC(=O)c1cncnc1N1CC[C@H]2[NH2+]CCC[C@]2(CO)C1)c1ccc(-c2c3nc(c(-c4c(F)c(F)c(F)c(F)c4F)c4ccc([nH]4)c(-c4c(F)c(F)c(F)c(F)c4F)c4nc(c(-c5c(F)c(F)c(F)c(F)c5F)c5ccc2[nH]5)C=C4)C=C3)cc1
REMARK SMILES IDX 6 1 5 2 4 3 3 4 1 5 2 6 29 8 30 9 91 10 31 11 90 12 32 13
REMARK SMILES IDX 33 14 34 15 84 16 35 17 89 18 83 19 85 20 36 21 88 22 82 23
REMARK SMILES IDX 81 24 37 26 69 27 49 28 68 29 50 30 53 31 67 32 86 33 51 34
REMARK SMILES IDX 52 35 66 37 87 38 54 39 38 40 39 41 47 42 40 43 41 44 45 45
REMARK SMILES IDX 48 46 42 47 43 48 46 49 44 50 70 51 71 52 79 53 72 54 73 55
REMARK SMILES IDX 77 56 80 57 74 58 75 59 78 60 76 61 55 62 56 63 64 64 57 65
REMARK SMILES IDX 58 66 62 67 65 68 59 69 60 70 63 71 61 72 7 73 8 74 9 75
REMARK SMILES IDX 10 77 11 78 12 79 16 80 13 81 15 82 14 83 17 84 18 85 28 86
REMARK SMILES IDX 19 87 25 88 20 89 24 90 21 91 23 92 22 93 26 96 27 97
REMARK H PARENT 3 7 85 25 53 36 8 76 21 94 21 95 27 98
REMARK Flexibility Score: inf
ROOT
ATOM      1  C   UNL A   1      38.991  22.525  26.137  1.00  0.00     0.023 C 
ENDROOT
BRANCH   1   2
ATOM      2  C   UNL A   1      39.174  21.141  25.519  1.00  0.00     0.023 C 
BRANCH   2   3
ATOM      3  C   UNL A   1      39.593  20.038  26.482  1.00  0.00     0.116 C 
BRANCH   3   4
ATOM      4  N   UNL A   1      40.728  19.260  26.012  1.00  0.00    -0.352 N 
ATOM      5  O   UNL A   1      42.856  18.867  25.372  1.00  0.00    -0.269 OA
ATOM      6  C   UNL A   1      42.050  19.626  25.894  1.00  0.00     0.251 C 
ATOM      7  H   UNL A   1      40.522  18.337  25.736  1.00  0.00     0.163 HD
BRANCH   6   8
ATOM      8  C   UNL A   1      42.492  20.957  26.368  1.00  0.00     0.039 A 
ATOM      9  C   UNL A   1      42.579  21.238  27.733  1.00  0.00     0.014 A 
ATOM     10  C   UNL A   1      42.818  21.939  25.428  1.00  0.00     0.014 A 
ATOM     11  C   UNL A   1      42.836  22.538  28.154  1.00  0.00     0.010 A 
ATOM     12  C   UNL A   1      43.162  23.225  25.856  1.00  0.00     0.010 A 
ATOM     13  C   UNL A   1      43.138  23.544  27.222  1.00  0.00    -0.014 A 
BRANCH  13  14
ATOM     14  C   UNL A   1      43.477  24.906  27.708  1.00  0.00     0.031 A 
ATOM     15  C   UNL A   1      44.905  25.363  27.822  1.00  0.00     0.074 A 
ATOM     16  C   UNL A   1      42.472  25.746  28.020  1.00  0.00     0.049 A 
ATOM     17  N   UNL A   1      45.370  26.527  28.202  1.00  0.00    -0.248 NA
ATOM     18  C   UNL A   1      45.949  24.388  27.470  1.00  0.00     0.031 C 
ATOM     19  C   UNL A   1      41.048  25.408  27.967  1.00  0.00     0.029 A 
ATOM     20  N   UNL A   1      42.488  27.056  28.426  1.00  0.00    -0.354 N 
ATOM     21  C   UNL A   1      46.754  26.419  28.156  1.00  0.00     0.074 A 
ATOM     22  C   UNL A   1      47.056  25.069  27.731  1.00  0.00     0.031 C 
ATOM     23  C   UNL A   1      40.326  26.493  28.282  1.00  0.00     0.029 A 
ATOM     24  C   UNL A   1      41.235  27.584  28.615  1.00  0.00     0.049 A 
ATOM     25  H   UNL A   1      43.317  27.567  28.567  1.00  0.00     0.167 HD
ATOM     26  C   UNL A   1      47.683  27.366  28.435  1.00  0.00     0.037 A 
ATOM     27  C   UNL A   1      40.856  28.809  29.025  1.00  0.00     0.037 A 
ATOM     28  C   UNL A   1      47.374  28.715  28.838  1.00  0.00     0.049 A 
ATOM     29  C   UNL A   1      41.908  29.834  29.331  1.00  0.00     0.074 A 
ATOM     30  C   UNL A   1      48.247  29.758  29.102  1.00  0.00     0.029 A 
ATOM     31  N   UNL A   1      46.094  29.207  29.039  1.00  0.00    -0.354 N 
ATOM     32  N   UNL A   1      43.212  29.730  29.248  1.00  0.00    -0.248 NA
ATOM     33  C   UNL A   1      41.437  31.146  29.791  1.00  0.00     0.031 C 
ATOM     34  C   UNL A   1      47.495  30.868  29.503  1.00  0.00     0.029 A 
ATOM     35  C   UNL A   1      46.153  30.532  29.444  1.00  0.00     0.049 A 
ATOM     36  H   UNL A   1      45.264  28.693  28.912  1.00  0.00     0.167 HD
ATOM     37  C   UNL A   1      43.717  30.963  29.633  1.00  0.00     0.074 A 
ATOM     38  C   UNL A   1      42.577  31.808  29.927  1.00  0.00     0.031 C 
ATOM     39  C   UNL A   1      45.009  31.357  29.738  1.00  0.00     0.037 A 
BRANCH  26  40
ATOM     40  C   UNL A   1      49.130  26.979  28.329  1.00  0.00     0.064 A 
ATOM     41  C   UNL A   1      49.855  26.525  29.441  1.00  0.00     0.173 A 
ATOM     42  C   UNL A   1      49.782  27.004  27.087  1.00  0.00     0.173 A 
ATOM     43  F   UNL A   1      49.281  26.491  30.653  1.00  0.00    -0.203 F 
ATOM     44  C   UNL A   1      51.184  26.129  29.316  1.00  0.00     0.198 A 
ATOM     45  C   UNL A   1      51.102  26.583  26.961  1.00  0.00     0.198 A 
ATOM     46  F   UNL A   1      49.131  27.423  25.991  1.00  0.00    -0.203 F 
ATOM     47  F   UNL A   1      51.868  25.732  30.397  1.00  0.00    -0.200 F 
ATOM     48  C   UNL A   1      51.805  26.150  28.076  1.00  0.00     0.200 A 
ATOM     49  F   UNL A   1      51.697  26.593  25.760  1.00  0.00    -0.200 F 
ATOM     50  F   UNL A   1      53.081  25.759  27.955  1.00  0.00    -0.200 F 
ENDBRANCH  26  40
BRANCH  27  51
ATOM     51  C   UNL A   1      39.412  29.120  29.165  1.00  0.00     0.064 A 
ATOM     52  C   UNL A   1      38.783  29.085  30.417  1.00  0.00     0.173 A 
ATOM     53  C   UNL A   1      38.638  29.484  28.054  1.00  0.00     0.173 A 
ATOM     54  F   UNL A   1      39.479  28.726  31.505  1.00  0.00    -0.203 F 
ATOM     55  C   UNL A   1      37.431  29.392  30.549  1.00  0.00     0.198 A 
ATOM     56  C   UNL A   1      37.294  29.818  28.191  1.00  0.00     0.198 A 
ATOM     57  F   UNL A   1      39.196  29.539  26.836  1.00  0.00    -0.203 F 
ATOM     58  F   UNL A   1      36.845  29.317  31.752  1.00  0.00    -0.200 F 
ATOM     59  C   UNL A   1      36.689  29.767  29.439  1.00  0.00     0.200 A 
ATOM     60  F   UNL A   1      36.585  30.197  27.119  1.00  0.00    -0.200 F 
ATOM     61  F   UNL A   1      35.392  30.073  29.569  1.00  0.00    -0.200 F 
ENDBRANCH  27  51
BRANCH  39  62
ATOM     62  C   UNL A   1      45.255  32.771  30.173  1.00  0.00     0.064 A 
ATOM     63  C   UNL A   1      45.430  33.101  31.525  1.00  0.00     0.173 A 
ATOM     64  C   UNL A   1      45.337  33.803  29.227  1.00  0.00     0.173 A 
ATOM     65  F   UNL A   1      45.342  32.152  32.469  1.00  0.00    -0.203 F 
ATOM     66  C   UNL A   1      45.652  34.419  31.915  1.00  0.00     0.198 A 
ATOM     67  C   UNL A   1      45.587  35.115  29.619  1.00  0.00     0.198 A 
ATOM     68  F   UNL A   1      45.181  33.537  27.921  1.00  0.00    -0.203 F 
ATOM     69  F   UNL A   1      45.769  34.720  33.216  1.00  0.00    -0.200 F 
ATOM     70  C   UNL A   1      45.737  35.423  30.962  1.00  0.00     0.200 A 
ATOM     71  F   UNL A   1      45.679  36.083  28.696  1.00  0.00    -0.200 F 
ATOM     72  F   UNL A   1      45.953  36.691  31.340  1.00  0.00    -0.200 F 
ENDBRANCH  39  62
ENDBRANCH  13  14
ENDBRANCH   6   8
ENDBRANCH   3   4
ENDBRANCH   2   3
ENDBRANCH   1   2
BRANCH   1  73
ATOM     73  C   UNL A   1      37.657  23.202  25.844  1.00  0.00     0.116 C 
BRANCH  73  74
ATOM     74  N   UNL A   1      37.388  23.342  24.420  1.00  0.00    -0.352 N 
ATOM     75  C   UNL A   1      36.306  22.901  23.691  1.00  0.00     0.256 C 
ATOM     76  H   UNL A   1      38.077  23.820  23.905  1.00  0.00     0.163 HD
ATOM     77  O   UNL A   1      36.240  23.141  22.490  1.00  0.00    -0.269 OA
BRANCH  75  78
ATOM     78  C   UNL A   1      35.228  22.181  24.372  1.00  0.00     0.100 A 
ATOM     79  C   UNL A   1      35.452  20.851  24.689  1.00  0.00     0.130 A 
ATOM     80  C   UNL A   1      34.037  22.742  24.811  1.00  0.00     0.144 A 
ATOM     81  N   UNL A   1      34.553  20.058  25.297  1.00  0.00    -0.244 NA
ATOM     82  N   UNL A   1      33.118  21.960  25.430  1.00  0.00    -0.219 NA
ATOM     83  C   UNL A   1      33.411  20.665  25.630  1.00  0.00     0.224 A 
BRANCH  80  84
ATOM     84  N   UNL A   1      33.695  24.087  24.754  1.00  0.00    -0.355 N 
ATOM     85  C   UNL A   1      33.856  24.970  25.902  1.00  0.00     0.124 C 
ATOM     86  C   UNL A   1      32.536  24.310  23.870  1.00  0.00     0.133 C 
ATOM     87  C   UNL A   1      33.805  26.437  25.464  1.00  0.00     0.087 C 
ATOM     88  C   UNL A   1      32.444  25.780  23.410  1.00  0.00     0.063 C 
ATOM     89  C   UNL A   1      32.524  26.692  24.660  1.00  0.00     0.194 C 
ATOM     90  C   UNL A   1      31.063  26.013  22.746  1.00  0.00     0.023 C 
ATOM     91  N   UNL A   1      32.391  28.113  24.295  1.00  0.00    -0.343 N 
ATOM     92  C   UNL A   1      30.828  27.494  22.448  1.00  0.00     0.062 C 
ATOM     93  C   UNL A   1      31.085  28.370  23.674  1.00  0.00     0.260 C 
ATOM     94  H   UNL A   1      33.130  28.359  23.634  1.00  0.00     0.346 HD
ATOM     95  H   UNL A   1      32.470  28.679  25.139  1.00  0.00     0.346 HD
BRANCH  88  96
ATOM     96  C   UNL A   1      33.589  26.067  22.402  1.00  0.00     0.171 C 
BRANCH  96  97
ATOM     97  O   UNL A   1      33.361  25.397  21.162  1.00  0.00    -0.395 OA
ATOM     98  H   UNL A   1      33.982  25.731  20.495  1.00  0.00     0.210 HD
ENDBRANCH  96  97
ENDBRANCH  88  96
ENDBRANCH  80  84
ENDBRANCH  75  78
ENDBRANCH  73  74
ENDBRANCH   1  73
TORSDOF 14
ENDMDL
MODEL 3
REMARK VINA RESULT:     -11.7      4.915     10.274
REMARK SMILES O=C(NCCCCNC(=O)c1cncnc1N1CC[C@H]2[NH2+]CCC[C@]2(CO)C1)c1ccc(-c2c3nc(c(-c4c(F)c(F)c(F)c(F)c4F)c4ccc([nH]4)c(-c4c(F)c(F)c(F)c(F)c4F)c4nc(c(-c5c(F)c(F)c(F)c(F)c5F)c5ccc2[nH]5)C=C4)C=C3)cc1
REMARK SMILES IDX 6 1 5 2 4 3 3 4 1 5 2 6 29 8 30 9 91 10 31 11 90 12 32 13
REMARK SMILES IDX 33 14 34 15 84 16 35 17 89 18 83 19 85 20 36 21 88 22 82 23
REMARK SMILES IDX 81 24 37 26 69 27 49 28 68 29 50 30 53 31 67 32 86 33 51 34
REMARK SMILES IDX 52 35 66 37 87 38 54 39 38 40 39 41 47 42 40 43 41 44 45 45
REMARK SMILES IDX 48 46 42 47 43 48 46 49 44 50 70 51 71 52 79 53 72 54 73 55
REMARK SMILES IDX 77 56 80 57 74 58 75 59 78 60 76 61 55 62 56 63 64 64 57 65
REMARK SMILES IDX 58 66 62 67 65 68 59 69 60 70 63 71 61 72 7 73 8 74 9 75
REMARK SMILES IDX 10 77 11 78 12 79 16 80 13 81 15 82 14 83 17 84 18 85 28 86
REMARK SMILES IDX 19 87 25 88 20 89 24 90 21 91 23 92 22 93 26 96 27 97
REMARK H PARENT 3 7 85 25 53 36 8 76 21 94 21 95 27 98
REMARK Flexibility Score: inf
ROOT
ATOM      1  C   UNL A   1      31.403  31.072  25.751  1.00  0.00     0.023 C 
ENDROOT
BRANCH   1   2
ATOM      2  C   UNL A   1      31.360  32.081  26.896  1.00  0.00     0.023 C 
BRANCH   2   3
ATOM      3  C   UNL A   1      32.652  32.847  27.149  1.00  0.00     0.116 C 
BRANCH   3   4
ATOM      4  N   UNL A   1      32.437  34.203  27.626  1.00  0.00    -0.352 N 
ATOM      5  O   UNL A   1      32.699  36.003  28.962  1.00  0.00    -0.269 OA
ATOM      6  C   UNL A   1      33.091  34.895  28.620  1.00  0.00     0.251 C 
ATOM      7  H   UNL A   1      31.717  34.700  27.172  1.00  0.00     0.163 HD
BRANCH   6   8
ATOM      8  C   UNL A   1      34.252  34.281  29.304  1.00  0.00     0.039 A 
ATOM      9  C   UNL A   1      35.555  34.541  28.875  1.00  0.00     0.014 A 
ATOM     10  C   UNL A   1      34.028  33.428  30.388  1.00  0.00     0.014 A 
ATOM     11  C   UNL A   1      36.616  33.829  29.423  1.00  0.00     0.010 A 
ATOM     12  C   UNL A   1      35.106  32.779  30.997  1.00  0.00     0.010 A 
ATOM     13  C   UNL A   1      36.406  32.946  30.495  1.00  0.00    -0.014 A 
BRANCH  13  14
ATOM     14  C   UNL A   1      37.570  32.254  31.104  1.00  0.00     0.031 A 
ATOM     15  C   UNL A   1      38.024  32.571  32.502  1.00  0.00     0.074 A 
ATOM     16  C   UNL A   1      38.201  31.304  30.388  1.00  0.00     0.049 A 
ATOM     17  N   UNL A   1      39.004  32.040  33.191  1.00  0.00    -0.248 NA
ATOM     18  C   UNL A   1      37.291  33.624  33.220  1.00  0.00     0.031 C 
ATOM     19  C   UNL A   1      37.861  30.924  29.015  1.00  0.00     0.029 A 
ATOM     20  N   UNL A   1      39.243  30.476  30.714  1.00  0.00    -0.354 N 
ATOM     21  C   UNL A   1      39.019  32.704  34.410  1.00  0.00     0.074 A 
ATOM     22  C   UNL A   1      37.964  33.694  34.361  1.00  0.00     0.031 C 
ATOM     23  C   UNL A   1      38.648  29.908  28.633  1.00  0.00     0.029 A 
ATOM     24  C   UNL A   1      39.584  29.605  29.709  1.00  0.00     0.049 A 
ATOM     25  H   UNL A   1      39.702  30.502  31.584  1.00  0.00     0.167 HD
ATOM     26  C   UNL A   1      39.834  32.498  35.472  1.00  0.00     0.037 A 
ATOM     27  C   UNL A   1      40.553  28.673  29.652  1.00  0.00     0.037 A 
ATOM     28  C   UNL A   1      40.870  31.497  35.522  1.00  0.00     0.049 A 
ATOM     29  C   UNL A   1      41.444  28.471  30.843  1.00  0.00     0.074 A 
ATOM     30  C   UNL A   1      41.719  31.184  36.570  1.00  0.00     0.029 A 
ATOM     31  N   UNL A   1      41.199  30.648  34.476  1.00  0.00    -0.354 N 
ATOM     32  N   UNL A   1      41.422  29.082  32.003  1.00  0.00    -0.248 NA
ATOM     33  C   UNL A   1      42.494  27.453  30.717  1.00  0.00     0.031 C 
ATOM     34  C   UNL A   1      42.589  30.175  36.144  1.00  0.00     0.029 A 
ATOM     35  C   UNL A   1      42.253  29.826  34.846  1.00  0.00     0.049 A 
ATOM     36  H   UNL A   1      40.751  30.629  33.600  1.00  0.00     0.167 HD
ATOM     37  C   UNL A   1      42.446  28.516  32.748  1.00  0.00     0.074 A 
ATOM     38  C   UNL A   1      43.054  27.496  31.917  1.00  0.00     0.031 C 
ATOM     39  C   UNL A   1      42.849  28.819  34.006  1.00  0.00     0.037 A 
BRANCH  26  40
ATOM     40  C   UNL A   1      39.655  33.381  36.674  1.00  0.00     0.064 A 
ATOM     41  C   UNL A   1      40.321  34.610  36.792  1.00  0.00     0.173 A 
ATOM     42  C   UNL A   1      38.756  33.021  37.690  1.00  0.00     0.173 A 
ATOM     43  F   UNL A   1      41.197  34.996  35.853  1.00  0.00    -0.203 F 
ATOM     44  C   UNL A   1      40.109  35.436  37.893  1.00  0.00     0.198 A 
ATOM     45  C   UNL A   1      38.528  33.861  38.777  1.00  0.00     0.198 A 
ATOM     46  F   UNL A   1      38.089  31.860  37.622  1.00  0.00    -0.203 F 
ATOM     47  F   UNL A   1      40.783  36.589  38.003  1.00  0.00    -0.200 F 
ATOM     48  C   UNL A   1      39.208  35.066  38.880  1.00  0.00     0.200 A 
ATOM     49  F   UNL A   1      37.648  33.507  39.724  1.00  0.00    -0.200 F 
ATOM     50  F   UNL A   1      38.998  35.867  39.933  1.00  0.00    -0.200 F 
ENDBRANCH  26  40
BRANCH  27  51
ATOM     51  C   UNL A   1      40.722  27.866  28.417  1.00  0.00     0.064 A 
ATOM     52  C   UNL A   1      41.525  28.318  27.363  1.00  0.00     0.173 A 
ATOM     53  C   UNL A   1      40.103  26.614  28.280  1.00  0.00     0.173 A 
ATOM     54  F   UNL A   1      42.123  29.516  27.442  1.00  0.00    -0.203 F 
ATOM     55  C   UNL A   1      41.695  27.553  26.211  1.00  0.00     0.198 A 
ATOM     56  C   UNL A   1      40.296  25.838  27.141  1.00  0.00     0.198 A 
ATOM     57  F   UNL A   1      39.330  26.136  29.265  1.00  0.00    -0.203 F 
ATOM     58  F   UNL A   1      42.439  28.023  25.202  1.00  0.00    -0.200 F 
ATOM     59  C   UNL A   1      41.087  26.310  26.104  1.00  0.00     0.200 A 
ATOM     60  F   UNL A   1      39.722  24.631  27.050  1.00  0.00    -0.200 F 
ATOM     61  F   UNL A   1      41.260  25.570  25.001  1.00  0.00    -0.200 F 
ENDBRANCH  27  51
BRANCH  39  62
ATOM     62  C   UNL A   1      43.991  28.023  34.564  1.00  0.00     0.064 A 
ATOM     63  C   UNL A   1      43.785  26.781  35.182  1.00  0.00     0.173 A 
ATOM     64  C   UNL A   1      45.307  28.496  34.457  1.00  0.00     0.173 A 
ATOM     65  F   UNL A   1      42.543  26.294  35.323  1.00  0.00    -0.203 F 
ATOM     66  C   UNL A   1      44.855  26.055  35.699  1.00  0.00     0.198 A 
ATOM     67  C   UNL A   1      46.376  27.754  34.950  1.00  0.00     0.198 A 
ATOM     68  F   UNL A   1      45.556  29.677  33.870  1.00  0.00    -0.203 F 
ATOM     69  F   UNL A   1      44.631  24.893  36.329  1.00  0.00    -0.200 F 
ATOM     70  C   UNL A   1      46.149  26.539  35.577  1.00  0.00     0.200 A 
ATOM     71  F   UNL A   1      47.627  28.218  34.824  1.00  0.00    -0.200 F 
ATOM     72  F   UNL A   1      47.177  25.837  36.073  1.00  0.00    -0.200 F 
ENDBRANCH  39  62
ENDBRANCH  13  14
ENDBRANCH   6   8
ENDBRANCH   3   4
ENDBRANCH   2   3
ENDBRANCH   1   2
BRANCH   1  73
ATOM     73  C   UNL A   1      32.369  29.907  25.940  1.00  0.00     0.116 C 
BRANCH  73  74
ATOM     74  N   UNL A   1      33.128  29.593  24.738  1.00  0.00    -0.352 N 
ATOM     75  C   UNL A   1      32.715  28.958  23.588  1.00  0.00     0.256 C 
ATOM     76  H   UNL A   1      34.071  29.875  24.749  1.00  0.00     0.163 HD
ATOM     77  O   UNL A   1      33.500  28.807  22.658  1.00  0.00    -0.269 OA
BRANCH  75  78
ATOM     78  C   UNL A   1      31.327  28.504  23.479  1.00  0.00     0.100 A 
ATOM     79  C   UNL A   1      30.457  29.290  22.740  1.00  0.00     0.130 A 
ATOM     80  C   UNL A   1      30.831  27.306  23.972  1.00  0.00     0.144 A 
ATOM     81  N   UNL A   1      29.153  29.013  22.565  1.00  0.00    -0.244 NA
ATOM     82  N   UNL A   1      29.519  27.006  23.803  1.00  0.00    -0.219 NA
ATOM     83  C   UNL A   1      28.747  27.870  23.126  1.00  0.00     0.224 A 
BRANCH  80  84
ATOM     84  N   UNL A   1      31.572  26.301  24.580  1.00  0.00    -0.355 N 
ATOM     85  C   UNL A   1      31.954  26.371  25.985  1.00  0.00     0.124 C 
ATOM     86  C   UNL A   1      32.525  25.690  23.636  1.00  0.00     0.133 C 
ATOM     87  C   UNL A   1      32.386  24.992  26.494  1.00  0.00     0.087 C 
ATOM     88  C   UNL A   1      32.991  24.300  24.116  1.00  0.00     0.063 C 
ATOM     89  C   UNL A   1      33.480  24.424  25.581  1.00  0.00     0.194 C 
ATOM     90  C   UNL A   1      34.200  23.850  23.256  1.00  0.00     0.023 C 
ATOM     91  N   UNL A   1      33.987  23.136  26.087  1.00  0.00    -0.343 N 
ATOM     92  C   UNL A   1      34.836  22.573  23.806  1.00  0.00     0.062 C 
ATOM     93  C   UNL A   1      35.144  22.689  25.299  1.00  0.00     0.260 C 
ATOM     94  H   UNL A   1      33.248  22.436  26.022  1.00  0.00     0.346 HD
ATOM     95  H   UNL A   1      34.278  23.255  27.057  1.00  0.00     0.346 HD
BRANCH  88  96
ATOM     96  C   UNL A   1      31.817  23.295  23.972  1.00  0.00     0.171 C 
BRANCH  96  97
ATOM     97  O   UNL A   1      31.107  23.505  22.751  1.00  0.00    -0.395 OA
ATOM     98  H   UNL A   1      30.727  24.397  22.748  1.00  0.00     0.210 HD
ENDBRANCH  96  97
ENDBRANCH  88  96
ENDBRANCH  80  84
ENDBRANCH  75  78
ENDBRANCH  73  74
ENDBRANCH   1  73
TORSDOF 14
ENDMDL
