MODEL 1
REMARK VINA RESULT:     -11.7      0.000      0.000
REMARK SMILES COC(=O)c1nccc(N2CCO[C@H](CC(=O)NCCCCNC(=O)c3ccc(-c4c5nc(c(-c6c(F)c(F)c(F)c(F)c6F)c6ccc([nH]6)c(-c6c(F)c(F)c(F)c(F)c6F)c6nc(c(-c7c(F)c(F)c(F)c(F)c7F)c7ccc4[nH]7)C=C6)C=C5)cc3)C2)n1
REMARK SMILES IDX 19 1 18 2 16 3 17 4 15 6 14 7 10 8 11 9 89 10 12 11 13 12
REMARK SMILES IDX 9 13 5 14 6 15 90 16 7 17 8 18 3 19 4 20 2 21 1 22 20 23
REMARK SMILES IDX 21 24 22 25 23 26 24 27 25 29 26 30 27 31 88 32 28 33 87 34
REMARK SMILES IDX 29 35 30 36 31 37 81 38 32 39 86 40 80 41 82 42 33 43 85 44
REMARK SMILES IDX 79 45 78 46 34 48 66 49 46 50 65 51 47 52 50 53 64 54 83 55
REMARK SMILES IDX 48 56 49 57 63 59 84 60 51 61 35 62 36 63 44 64 37 65 38 66
REMARK SMILES IDX 42 67 45 68 39 69 40 70 43 71 41 72 67 73 68 74 76 75 69 76
REMARK SMILES IDX 70 77 74 78 77 79 71 80 72 81 75 82 73 83 52 84 53 85 61 86
REMARK SMILES IDX 54 87 55 88 59 89 62 90 56 91 57 92 60 93 58 94
REMARK H PARENT 18 5 23 28 82 47 50 58
REMARK Flexibility Score: inf
ROOT
ATOM      1  C   UNL A   1      32.095  29.816  25.448  1.00  0.00     0.116 C 
ENDROOT
BRANCH   1   2
ATOM      2  N   UNL A   1      31.010  30.079  24.526  1.00  0.00    -0.356 N 
ATOM      3  C   UNL A   1      30.390  29.216  23.675  1.00  0.00     0.222 C 
ATOM      4  O   UNL A   1      29.582  29.669  22.864  1.00  0.00    -0.275 OA
ATOM      5  H   UNL A   1      30.677  31.006  24.511  1.00  0.00     0.163 HD
BRANCH   3   6
ATOM      6  C   UNL A   1      30.653  27.729  23.767  1.00  0.00     0.133 C 
BRANCH   6   7
ATOM      7  C   UNL A   1      31.377  27.163  22.532  1.00  0.00     0.147 C 
ATOM      8  N   UNL A   1      32.329  25.243  23.662  1.00  0.00    -0.352 N 
ATOM      9  C   UNL A   1      33.693  25.743  23.560  1.00  0.00     0.146 C 
ATOM     10  C   UNL A   1      31.438  25.615  22.571  1.00  0.00     0.150 C 
ATOM     11  C   UNL A   1      33.650  27.266  23.387  1.00  0.00     0.182 C 
ATOM     12  O   UNL A   1      32.718  27.698  22.376  1.00  0.00    -0.374 OA
BRANCH   8  13
ATOM     13  C   UNL A   1      31.954  24.299  24.578  1.00  0.00     0.133 A 
ATOM     14  C   UNL A   1      32.003  22.148  25.360  1.00  0.00     0.241 A 
ATOM     15  N   UNL A   1      31.066  22.365  26.305  1.00  0.00    -0.231 NA
ATOM     16  N   UNL A   1      32.449  23.059  24.466  1.00  0.00    -0.205 NA
ATOM     17  C   UNL A   1      30.591  23.614  26.371  1.00  0.00     0.117 A 
ATOM     18  C   UNL A   1      31.021  24.625  25.546  1.00  0.00     0.067 A 
BRANCH  14  19
ATOM     19  C   UNL A   1      32.632  20.786  25.356  1.00  0.00     0.376 C 
ATOM     20  O   UNL A   1      32.070  19.756  25.008  1.00  0.00    -0.242 OA
BRANCH  19  21
ATOM     21  O   UNL A   1      33.889  20.857  25.880  1.00  0.00    -0.463 OA
ATOM     22  C   UNL A   1      34.914  20.396  25.001  1.00  0.00     0.282 C 
ENDBRANCH  19  21
ENDBRANCH  14  19
ENDBRANCH   8  13
ENDBRANCH   6   7
ENDBRANCH   3   6
ENDBRANCH   1   2
BRANCH   1  23
ATOM     23  C   UNL A   1      31.776  30.363  26.838  1.00  0.00     0.023 C 
BRANCH  23  24
ATOM     24  C   UNL A   1      31.489  31.866  26.874  1.00  0.00     0.023 C 
BRANCH  24  25
ATOM     25  C   UNL A   1      32.717  32.750  27.063  1.00  0.00     0.116 C 
BRANCH  25  26
ATOM     26  N   UNL A   1      32.401  34.054  27.620  1.00  0.00    -0.352 N 
ATOM     27  C   UNL A   1      33.008  34.723  28.653  1.00  0.00     0.251 C 
ATOM     28  H   UNL A   1      31.647  34.522  27.198  1.00  0.00     0.163 HD
ATOM     29  O   UNL A   1      32.530  35.776  29.063  1.00  0.00    -0.269 OA
BRANCH  27  30
ATOM     30  C   UNL A   1      34.214  34.161  29.299  1.00  0.00     0.039 A 
ATOM     31  C   UNL A   1      34.041  33.202  30.299  1.00  0.00     0.014 A 
ATOM     32  C   UNL A   1      35.500  34.571  28.935  1.00  0.00     0.014 A 
ATOM     33  C   UNL A   1      35.158  32.619  30.898  1.00  0.00     0.010 A 
ATOM     34  C   UNL A   1      36.613  33.934  29.480  1.00  0.00     0.010 A 
ATOM     35  C   UNL A   1      36.454  32.958  30.473  1.00  0.00    -0.014 A 
BRANCH  35  36
ATOM     36  C   UNL A   1      37.636  32.281  31.063  1.00  0.00     0.031 A 
ATOM     37  C   UNL A   1      38.111  32.628  32.446  1.00  0.00     0.074 A 
ATOM     38  C   UNL A   1      38.297  31.361  30.333  1.00  0.00     0.049 A 
ATOM     39  N   UNL A   1      39.089  32.101  33.140  1.00  0.00    -0.248 NA
ATOM     40  C   UNL A   1      37.415  33.728  33.131  1.00  0.00     0.031 C 
ATOM     41  C   UNL A   1      37.980  30.992  28.953  1.00  0.00     0.029 A 
ATOM     42  N   UNL A   1      39.368  30.564  30.653  1.00  0.00    -0.354 N 
ATOM     43  C   UNL A   1      39.126  32.804  34.337  1.00  0.00     0.074 A 
ATOM     44  C   UNL A   1      38.116  33.836  34.251  1.00  0.00     0.031 C 
ATOM     45  C   UNL A   1      38.808  30.012  28.559  1.00  0.00     0.029 A 
ATOM     46  C   UNL A   1      39.729  29.702  29.647  1.00  0.00     0.049 A 
ATOM     47  H   UNL A   1      39.831  30.606  31.520  1.00  0.00     0.167 HD
ATOM     48  C   UNL A   1      39.910  32.590  35.420  1.00  0.00     0.037 A 
ATOM     49  C   UNL A   1      40.687  28.756  29.614  1.00  0.00     0.037 A 
ATOM     50  C   UNL A   1      40.903  31.551  35.509  1.00  0.00     0.049 A 
ATOM     51  C   UNL A   1      41.525  28.520  30.840  1.00  0.00     0.074 A 
ATOM     52  C   UNL A   1      41.708  31.211  36.583  1.00  0.00     0.029 A 
ATOM     53  N   UNL A   1      41.232  30.684  34.476  1.00  0.00    -0.354 N 
ATOM     54  N   UNL A   1      41.488  29.130  32.000  1.00  0.00    -0.248 NA
ATOM     55  C   UNL A   1      42.528  27.449  30.756  1.00  0.00     0.031 C 
ATOM     56  C   UNL A   1      42.555  30.170  36.186  1.00  0.00     0.029 A 
ATOM     57  C   UNL A   1      42.241  29.824  34.882  1.00  0.00     0.049 A 
ATOM     58  H   UNL A   1      40.809  30.679  33.587  1.00  0.00     0.167 HD
ATOM     59  C   UNL A   1      42.443  28.505  32.790  1.00  0.00     0.074 A 
ATOM     60  C   UNL A   1      43.022  27.449  31.985  1.00  0.00     0.031 C 
ATOM     61  C   UNL A   1      42.812  28.782  34.065  1.00  0.00     0.037 A 
BRANCH  48  62
ATOM     62  C   UNL A   1      39.720  33.495  36.605  1.00  0.00     0.064 A 
ATOM     63  C   UNL A   1      40.385  34.727  36.702  1.00  0.00     0.173 A 
ATOM     64  C   UNL A   1      38.839  33.144  37.639  1.00  0.00     0.173 A 
ATOM     65  F   UNL A   1      41.248  35.106  35.747  1.00  0.00    -0.203 F 
ATOM     66  C   UNL A   1      40.197  35.560  37.803  1.00  0.00     0.198 A 
ATOM     67  C   UNL A   1      38.630  33.992  38.722  1.00  0.00     0.198 A 
ATOM     68  F   UNL A   1      38.174  31.979  37.594  1.00  0.00    -0.203 F 
ATOM     69  F   UNL A   1      40.883  36.708  37.897  1.00  0.00    -0.200 F 
ATOM     70  C   UNL A   1      39.315  35.195  38.808  1.00  0.00     0.200 A 
ATOM     71  F   UNL A   1      37.767  33.645  39.688  1.00  0.00    -0.200 F 
ATOM     72  F   UNL A   1      39.130  36.001  39.863  1.00  0.00    -0.200 F 
ENDBRANCH  48  62
BRANCH  49  73
ATOM     73  C   UNL A   1      40.871  27.930  28.393  1.00  0.00     0.064 A 
ATOM     74  C   UNL A   1      40.194  26.710  28.240  1.00  0.00     0.173 A 
ATOM     75  C   UNL A   1      41.728  28.335  27.361  1.00  0.00     0.173 A 
ATOM     76  F   UNL A   1      39.378  26.272  29.209  1.00  0.00    -0.203 F 
ATOM     77  C   UNL A   1      40.387  25.918  27.111  1.00  0.00     0.198 A 
ATOM     78  C   UNL A   1      41.897  27.554  26.218  1.00  0.00     0.198 A 
ATOM     79  F   UNL A   1      42.392  29.495  27.455  1.00  0.00    -0.203 F 
ATOM     80  F   UNL A   1      39.766  24.734  27.013  1.00  0.00    -0.200 F 
ATOM     81  C   UNL A   1      41.234  26.342  26.099  1.00  0.00     0.200 A 
ATOM     82  F   UNL A   1      42.704  27.976  25.235  1.00  0.00    -0.200 F 
ATOM     83  F   UNL A   1      41.417  25.580  25.012  1.00  0.00    -0.200 F 
ENDBRANCH  49  73
BRANCH  61  84
ATOM     84  C   UNL A   1      43.879  27.912  34.669  1.00  0.00     0.064 A 
ATOM     85  C   UNL A   1      45.235  28.268  34.616  1.00  0.00     0.173 A 
ATOM     86  C   UNL A   1      43.540  26.709  35.305  1.00  0.00     0.173 A 
ATOM     87  F   UNL A   1      45.613  29.401  34.006  1.00  0.00    -0.203 F 
ATOM     88  C   UNL A   1      46.216  27.429  35.138  1.00  0.00     0.198 A 
ATOM     89  C   UNL A   1      44.521  25.889  35.856  1.00  0.00     0.198 A 
ATOM     90  F   UNL A   1      42.257  26.326  35.391  1.00  0.00    -0.203 F 
ATOM     91  F   UNL A   1      47.510  27.757  35.015  1.00  0.00    -0.200 F 
ATOM     92  C   UNL A   1      45.858  26.243  35.761  1.00  0.00     0.200 A 
ATOM     93  F   UNL A   1      44.172  24.750  36.471  1.00  0.00    -0.200 F 
ATOM     94  F   UNL A   1      46.803  25.435  36.259  1.00  0.00    -0.200 F 
ENDBRANCH  61  84
ENDBRANCH  35  36
ENDBRANCH  27  30
ENDBRANCH  25  26
ENDBRANCH  24  25
ENDBRANCH  23  24
ENDBRANCH   1  23
TORSDOF 15
ENDMDL
MODEL 2
REMARK VINA RESULT:     -11.7      1.491      3.293
REMARK SMILES COC(=O)c1nccc(N2CCO[C@H](CC(=O)NCCCCNC(=O)c3ccc(-c4c5nc(c(-c6c(F)c(F)c(F)c(F)c6F)c6ccc([nH]6)c(-c6c(F)c(F)c(F)c(F)c6F)c6nc(c(-c7c(F)c(F)c(F)c(F)c7F)c7ccc4[nH]7)C=C6)C=C5)cc3)C2)n1
REMARK SMILES IDX 19 1 18 2 16 3 17 4 15 6 14 7 10 8 11 9 89 10 12 11 13 12
REMARK SMILES IDX 9 13 5 14 6 15 90 16 7 17 8 18 3 19 4 20 2 21 1 22 20 23
REMARK SMILES IDX 21 24 22 25 23 26 24 27 25 29 26 30 27 31 88 32 28 33 87 34
REMARK SMILES IDX 29 35 30 36 31 37 81 38 32 39 86 40 80 41 82 42 33 43 85 44
REMARK SMILES IDX 79 45 78 46 34 48 66 49 46 50 65 51 47 52 50 53 64 54 83 55
REMARK SMILES IDX 48 56 49 57 63 59 84 60 51 61 35 62 36 63 44 64 37 65 38 66
REMARK SMILES IDX 42 67 45 68 39 69 40 70 43 71 41 72 67 73 68 74 76 75 69 76
REMARK SMILES IDX 70 77 74 78 77 79 71 80 72 81 75 82 73 83 52 84 53 85 61 86
REMARK SMILES IDX 54 87 55 88 59 89 62 90 56 91 57 92 60 93 58 94
REMARK H PARENT 18 5 23 28 82 47 50 58
REMARK Flexibility Score: inf
ROOT
ATOM      1  C   UNL A   1      31.748  29.804  26.575  1.00  0.00     0.116 C 
ENDROOT
BRANCH   1   2
ATOM      2  N   UNL A   1      33.160  29.643  26.852  1.00  0.00    -0.356 N 
ATOM      3  C   UNL A   1      33.918  28.515  26.774  1.00  0.00     0.222 C 
ATOM      4  O   UNL A   1      35.075  28.554  27.193  1.00  0.00    -0.275 OA
ATOM      5  H   UNL A   1      33.636  30.458  27.135  1.00  0.00     0.163 HD
BRANCH   3   6
ATOM      6  C   UNL A   1      33.360  27.261  26.138  1.00  0.00     0.133 C 
BRANCH   6   7
ATOM      7  C   UNL A   1      34.036  26.906  24.801  1.00  0.00     0.147 C 
ATOM      8  N   UNL A   1      31.987  26.372  23.623  1.00  0.00    -0.352 N 
ATOM      9  C   UNL A   1      32.299  24.952  23.537  1.00  0.00     0.146 C 
ATOM     10  C   UNL A   1      33.133  27.271  23.596  1.00  0.00     0.150 C 
ATOM     11  C   UNL A   1      33.297  24.596  24.644  1.00  0.00     0.182 C 
ATOM     12  O   UNL A   1      34.412  25.505  24.720  1.00  0.00    -0.374 OA
BRANCH   8  13
ATOM     13  C   UNL A   1      30.715  26.859  23.500  1.00  0.00     0.133 A 
ATOM     14  C   UNL A   1      29.272  28.565  23.002  1.00  0.00     0.241 A 
ATOM     15  N   UNL A   1      28.179  27.895  23.421  1.00  0.00    -0.231 NA
ATOM     16  N   UNL A   1      30.544  28.109  23.051  1.00  0.00    -0.205 NA
ATOM     17  C   UNL A   1      28.400  26.656  23.874  1.00  0.00     0.117 A 
ATOM     18  C   UNL A   1      29.647  26.081  23.911  1.00  0.00     0.067 A 
BRANCH  14  19
ATOM     19  C   UNL A   1      29.024  29.907  22.379  1.00  0.00     0.376 C 
ATOM     20  O   UNL A   1      28.953  30.118  21.175  1.00  0.00    -0.242 OA
BRANCH  19  21
ATOM     21  O   UNL A   1      28.980  30.864  23.348  1.00  0.00    -0.463 OA
ATOM     22  C   UNL A   1      27.700  31.476  23.505  1.00  0.00     0.282 C 
ENDBRANCH  19  21
ENDBRANCH  14  19
ENDBRANCH   8  13
ENDBRANCH   6   7
ENDBRANCH   3   6
ENDBRANCH   1   2
BRANCH   1  23
ATOM     23  C   UNL A   1      31.462  31.179  25.972  1.00  0.00     0.023 C 
BRANCH  23  24
ATOM     24  C   UNL A   1      31.358  32.308  27.000  1.00  0.00     0.023 C 
BRANCH  24  25
ATOM     25  C   UNL A   1      32.613  33.161  27.147  1.00  0.00     0.116 C 
BRANCH  25  26
ATOM     26  N   UNL A   1      32.350  34.470  27.721  1.00  0.00    -0.352 N 
ATOM     27  C   UNL A   1      32.997  35.111  28.747  1.00  0.00     0.251 C 
ATOM     28  H   UNL A   1      31.604  34.966  27.316  1.00  0.00     0.163 HD
ATOM     29  O   UNL A   1      32.560  36.175  29.175  1.00  0.00    -0.269 OA
BRANCH  27  30
ATOM     30  C   UNL A   1      34.195  34.504  29.367  1.00  0.00     0.039 A 
ATOM     31  C   UNL A   1      34.030  33.771  30.545  1.00  0.00     0.014 A 
ATOM     32  C   UNL A   1      35.466  34.654  28.807  1.00  0.00     0.014 A 
ATOM     33  C   UNL A   1      35.132  33.148  31.131  1.00  0.00     0.010 A 
ATOM     34  C   UNL A   1      36.552  33.971  29.351  1.00  0.00     0.010 A 
ATOM     35  C   UNL A   1      36.398  33.217  30.523  1.00  0.00    -0.014 A 
BRANCH  35  36
ATOM     36  C   UNL A   1      37.552  32.493  31.112  1.00  0.00     0.031 A 
ATOM     37  C   UNL A   1      38.042  32.820  32.494  1.00  0.00     0.074 A 
ATOM     38  C   UNL A   1      38.173  31.545  30.382  1.00  0.00     0.049 A 
ATOM     39  N   UNL A   1      38.999  32.254  33.187  1.00  0.00    -0.248 NA
ATOM     40  C   UNL A   1      37.394  33.949  33.179  1.00  0.00     0.031 C 
ATOM     41  C   UNL A   1      37.839  31.189  29.002  1.00  0.00     0.029 A 
ATOM     42  N   UNL A   1      39.210  30.705  30.701  1.00  0.00    -0.354 N 
ATOM     43  C   UNL A   1      39.066  32.955  34.384  1.00  0.00     0.074 A 
ATOM     44  C   UNL A   1      38.099  34.028  34.298  1.00  0.00     0.031 C 
ATOM     45  C   UNL A   1      38.625  30.175  28.608  1.00  0.00     0.029 A 
ATOM     46  C   UNL A   1      39.534  29.828  29.696  1.00  0.00     0.049 A 
ATOM     47  H   UNL A   1      39.676  30.728  31.568  1.00  0.00     0.167 HD
ATOM     48  C   UNL A   1      39.842  32.709  35.466  1.00  0.00     0.037 A 
ATOM     49  C   UNL A   1      40.451  28.843  29.662  1.00  0.00     0.037 A 
ATOM     50  C   UNL A   1      40.791  31.630  35.554  1.00  0.00     0.049 A 
ATOM     51  C   UNL A   1      41.280  28.573  30.887  1.00  0.00     0.074 A 
ATOM     52  C   UNL A   1      41.583  31.258  36.628  1.00  0.00     0.029 A 
ATOM     53  N   UNL A   1      41.082  30.749  34.521  1.00  0.00    -0.354 N 
ATOM     54  N   UNL A   1      41.270  29.184  32.047  1.00  0.00    -0.248 NA
ATOM     55  C   UNL A   1      42.238  27.461  30.802  1.00  0.00     0.031 C 
ATOM     56  C   UNL A   1      42.385  30.183  36.230  1.00  0.00     0.029 A 
ATOM     57  C   UNL A   1      42.055  29.849  34.927  1.00  0.00     0.049 A 
ATOM     58  H   UNL A   1      40.659  30.761  33.633  1.00  0.00     0.167 HD
ATOM     59  C   UNL A   1      42.200  28.521  32.836  1.00  0.00     0.074 A 
ATOM     60  C   UNL A   1      42.733  27.442  32.031  1.00  0.00     0.031 C 
ATOM     61  C   UNL A   1      42.582  28.783  34.110  1.00  0.00     0.037 A 
BRANCH  48  62
ATOM     62  C   UNL A   1      39.691  33.622  36.651  1.00  0.00     0.064 A 
ATOM     63  C   UNL A   1      40.369  34.849  36.723  1.00  0.00     0.173 A 
ATOM     64  C   UNL A   1      38.834  33.285  37.709  1.00  0.00     0.173 A 
ATOM     65  F   UNL A   1      41.211  35.215  35.744  1.00  0.00    -0.203 F 
ATOM     66  C   UNL A   1      40.218  35.689  37.824  1.00  0.00     0.198 A 
ATOM     67  C   UNL A   1      38.661  34.141  38.793  1.00  0.00     0.198 A 
ATOM     68  F   UNL A   1      38.158  32.126  37.688  1.00  0.00    -0.203 F 
ATOM     69  F   UNL A   1      40.916  36.831  37.894  1.00  0.00    -0.200 F 
ATOM     70  C   UNL A   1      39.359  35.338  38.854  1.00  0.00     0.200 A 
ATOM     71  F   UNL A   1      37.821  33.806  39.782  1.00  0.00    -0.200 F 
ATOM     72  F   UNL A   1      39.209  36.151  39.909  1.00  0.00    -0.200 F 
ENDBRANCH  48  62
BRANCH  49  73
ATOM     73  C   UNL A   1      40.599  28.009  28.441  1.00  0.00     0.064 A 
ATOM     74  C   UNL A   1      39.937  26.778  28.325  1.00  0.00     0.173 A 
ATOM     75  C   UNL A   1      41.407  28.418  27.372  1.00  0.00     0.173 A 
ATOM     76  F   UNL A   1      39.167  26.335  29.330  1.00  0.00    -0.203 F 
ATOM     77  C   UNL A   1      40.097  25.978  27.197  1.00  0.00     0.198 A 
ATOM     78  C   UNL A   1      41.543  27.630  26.229  1.00  0.00     0.198 A 
ATOM     79  F   UNL A   1      42.056  29.590  27.430  1.00  0.00    -0.203 F 
ATOM     80  F   UNL A   1      39.491  24.784  27.133  1.00  0.00    -0.200 F 
ATOM     81  C   UNL A   1      40.895  26.407  26.148  1.00  0.00     0.200 A 
ATOM     82  F   UNL A   1      42.303  28.056  25.211  1.00  0.00    -0.200 F 
ATOM     83  F   UNL A   1      41.047  25.638  25.060  1.00  0.00    -0.200 F 
ENDBRANCH  49  73
BRANCH  61  84
ATOM     84  C   UNL A   1      43.612  27.871  34.713  1.00  0.00     0.064 A 
ATOM     85  C   UNL A   1      43.250  26.688  35.375  1.00  0.00     0.173 A 
ATOM     86  C   UNL A   1      44.977  28.184  34.629  1.00  0.00     0.173 A 
ATOM     87  F   UNL A   1      41.957  26.350  35.495  1.00  0.00    -0.203 F 
ATOM     88  C   UNL A   1      44.212  25.877  35.970  1.00  0.00     0.198 A 
ATOM     89  C   UNL A   1      45.939  27.353  35.196  1.00  0.00     0.198 A 
ATOM     90  F   UNL A   1      45.378  29.299  34.000  1.00  0.00    -0.203 F 
ATOM     91  F   UNL A   1      43.836  24.788  36.656  1.00  0.00    -0.200 F 
ATOM     92  C   UNL A   1      45.555  26.208  35.876  1.00  0.00     0.200 A 
ATOM     93  F   UNL A   1      47.238  27.667  35.092  1.00  0.00    -0.200 F 
ATOM     94  F   UNL A   1      46.480  25.428  36.454  1.00  0.00    -0.200 F 
ENDBRANCH  61  84
ENDBRANCH  35  36
ENDBRANCH  27  30
ENDBRANCH  25  26
ENDBRANCH  24  25
ENDBRANCH  23  24
ENDBRANCH   1  23
TORSDOF 15
ENDMDL
MODEL 3
REMARK VINA RESULT:     -11.7      0.858      2.018
REMARK SMILES COC(=O)c1nccc(N2CCO[C@H](CC(=O)NCCCCNC(=O)c3ccc(-c4c5nc(c(-c6c(F)c(F)c(F)c(F)c6F)c6ccc([nH]6)c(-c6c(F)c(F)c(F)c(F)c6F)c6nc(c(-c7c(F)c(F)c(F)c(F)c7F)c7ccc4[nH]7)C=C6)C=C5)cc3)C2)n1
REMARK SMILES IDX 19 1 18 2 16 3 17 4 15 6 14 7 10 8 11 9 89 10 12 11 13 12
REMARK SMILES IDX 9 13 5 14 6 15 90 16 7 17 8 18 3 19 4 20 2 21 1 22 20 23
REMARK SMILES IDX 21 24 22 25 23 26 24 27 25 29 26 30 27 31 88 32 28 33 87 34
REMARK SMILES IDX 29 35 30 36 31 37 81 38 32 39 86 40 80 41 82 42 33 43 85 44
REMARK SMILES IDX 79 45 78 46 34 48 66 49 46 50 65 51 47 52 50 53 64 54 83 55
REMARK SMILES IDX 48 56 49 57 63 59 84 60 51 61 35 62 36 63 44 64 37 65 38 66
REMARK SMILES IDX 42 67 45 68 39 69 40 70 43 71 41 72 67 73 68 74 76 75 69 76
REMARK SMILES IDX 70 77 74 78 77 79 71 80 72 81 75 82 73 83 52 84 53 85 61 86
REMARK SMILES IDX 54 87 55 88 59 89 62 90 56 91 57 92 60 93 58 94
REMARK H PARENT 18 5 23 28 82 47 50 58
REMARK Flexibility Score: inf
ROOT
ATOM      1  C   UNL A   1      33.016  29.863  26.013  1.00  0.00     0.116 C 
ENDROOT
BRANCH   1   2
ATOM      2  N   UNL A   1      33.348  29.631  24.623  1.00  0.00    -0.356 N 
ATOM      3  C   UNL A   1      33.513  28.445  23.976  1.00  0.00     0.222 C 
ATOM      4  O   UNL A   1      33.939  28.461  22.820  1.00  0.00    -0.275 OA
ATOM      5  H   UNL A   1      33.471  30.439  24.073  1.00  0.00     0.163 HD
BRANCH   3   6
ATOM      6  C   UNL A   1      33.131  27.145  24.649  1.00  0.00     0.133 C 
BRANCH   6   7
ATOM      7  C   UNL A   1      31.614  26.884  24.649  1.00  0.00     0.147 C 
ATOM      8  N   UNL A   1      31.778  24.475  24.456  1.00  0.00    -0.352 N 
ATOM      9  C   UNL A   1      31.234  24.454  23.105  1.00  0.00     0.146 C 
ATOM     10  C   UNL A   1      31.273  25.532  25.323  1.00  0.00     0.150 C 
ATOM     11  C   UNL A   1      31.445  25.831  22.466  1.00  0.00     0.182 C 
ATOM     12  O   UNL A   1      31.040  26.922  23.316  1.00  0.00    -0.374 OA
BRANCH   8  13
ATOM     13  C   UNL A   1      32.526  23.451  24.968  1.00  0.00     0.133 A 
ATOM     14  C   UNL A   1      32.879  21.215  25.312  1.00  0.00     0.241 A 
ATOM     15  N   UNL A   1      33.925  21.406  26.141  1.00  0.00    -0.231 NA
ATOM     16  N   UNL A   1      32.139  22.190  24.736  1.00  0.00    -0.205 NA
ATOM     17  C   UNL A   1      34.267  22.682  26.354  1.00  0.00     0.117 A 
ATOM     18  C   UNL A   1      33.615  23.741  25.770  1.00  0.00     0.067 A 
BRANCH  14  19
ATOM     19  C   UNL A   1      32.562  19.790  24.968  1.00  0.00     0.376 C 
ATOM     20  O   UNL A   1      32.570  18.859  25.763  1.00  0.00    -0.242 OA
BRANCH  19  21
ATOM     21  O   UNL A   1      32.354  19.675  23.626  1.00  0.00    -0.463 OA
ATOM     22  C   UNL A   1      32.533  18.353  23.120  1.00  0.00     0.282 C 
ENDBRANCH  19  21
ENDBRANCH  14  19
ENDBRANCH   8  13
ENDBRANCH   6   7
ENDBRANCH   3   6
ENDBRANCH   1   2
BRANCH   1  23
ATOM     23  C   UNL A   1      31.563  30.311  26.161  1.00  0.00     0.023 C 
BRANCH  23  24
ATOM     24  C   UNL A   1      31.391  31.796  26.491  1.00  0.00     0.023 C 
BRANCH  24  25
ATOM     25  C   UNL A   1      32.616  32.462  27.107  1.00  0.00     0.116 C 
BRANCH  25  26
ATOM     26  N   UNL A   1      32.369  33.830  27.530  1.00  0.00    -0.352 N 
ATOM     27  C   UNL A   1      33.035  34.580  28.467  1.00  0.00     0.251 C 
ATOM     28  H   UNL A   1      31.620  34.282  27.081  1.00  0.00     0.163 HD
ATOM     29  O   UNL A   1      32.610  35.689  28.775  1.00  0.00    -0.269 OA
BRANCH  27  30
ATOM     30  C   UNL A   1      34.238  34.040  29.135  1.00  0.00     0.039 A 
ATOM     31  C   UNL A   1      34.065  33.077  30.132  1.00  0.00     0.014 A 
ATOM     32  C   UNL A   1      35.523  34.473  28.795  1.00  0.00     0.014 A 
ATOM     33  C   UNL A   1      35.181  32.514  30.751  1.00  0.00     0.010 A 
ATOM     34  C   UNL A   1      36.638  33.858  29.361  1.00  0.00     0.010 A 
ATOM     35  C   UNL A   1      36.478  32.877  30.350  1.00  0.00    -0.014 A 
BRANCH  35  36
ATOM     36  C   UNL A   1      37.662  32.223  30.961  1.00  0.00     0.031 A 
ATOM     37  C   UNL A   1      38.123  32.600  32.341  1.00  0.00     0.074 A 
ATOM     38  C   UNL A   1      38.335  31.294  30.255  1.00  0.00     0.049 A 
ATOM     39  N   UNL A   1      39.101  32.095  33.052  1.00  0.00    -0.248 NA
ATOM     40  C   UNL A   1      37.414  33.708  32.999  1.00  0.00     0.031 C 
ATOM     41  C   UNL A   1      38.031  30.894  28.880  1.00  0.00     0.029 A 
ATOM     42  N   UNL A   1      39.410  30.512  30.598  1.00  0.00    -0.354 N 
ATOM     43  C   UNL A   1      39.123  32.822  34.236  1.00  0.00     0.074 A 
ATOM     44  C   UNL A   1      38.105  33.844  34.122  1.00  0.00     0.031 C 
ATOM     45  C   UNL A   1      38.870  29.914  28.512  1.00  0.00     0.029 A 
ATOM     46  C   UNL A   1      39.786  29.633  29.612  1.00  0.00     0.049 A 
ATOM     47  H   UNL A   1      39.867  30.575  31.468  1.00  0.00     0.167 HD
ATOM     48  C   UNL A   1      39.901  32.636  35.328  1.00  0.00     0.037 A 
ATOM     49  C   UNL A   1      40.751  28.695  29.605  1.00  0.00     0.037 A 
ATOM     50  C   UNL A   1      40.902  31.607  35.444  1.00  0.00     0.049 A 
ATOM     51  C   UNL A   1      41.582  28.490  30.841  1.00  0.00     0.074 A 
ATOM     52  C   UNL A   1      41.702  31.296  36.531  1.00  0.00     0.029 A 
ATOM     53  N   UNL A   1      41.245  30.722  34.431  1.00  0.00    -0.354 N 
ATOM     54  N   UNL A   1      41.532  29.122  31.989  1.00  0.00    -0.248 NA
ATOM     55  C   UNL A   1      42.594  27.426  30.785  1.00  0.00     0.031 C 
ATOM     56  C   UNL A   1      42.560  30.254  36.160  1.00  0.00     0.029 A 
ATOM     57  C   UNL A   1      42.258  29.879  34.861  1.00  0.00     0.049 A 
ATOM     58  H   UNL A   1      40.829  30.696  33.540  1.00  0.00     0.167 HD
ATOM     59  C   UNL A   1      42.486  28.521  32.797  1.00  0.00     0.074 A 
ATOM     60  C   UNL A   1      43.080  27.454  32.018  1.00  0.00     0.031 C 
ATOM     61  C   UNL A   1      42.844  28.826  34.069  1.00  0.00     0.037 A 
BRANCH  48  62
ATOM     62  C   UNL A   1      39.695  33.562  36.493  1.00  0.00     0.064 A 
ATOM     63  C   UNL A   1      40.328  34.813  36.558  1.00  0.00     0.173 A 
ATOM     64  C   UNL A   1      38.829  33.212  37.541  1.00  0.00     0.173 A 
ATOM     65  F   UNL A   1      41.176  35.192  35.589  1.00  0.00    -0.203 F 
ATOM     66  C   UNL A   1      40.126  35.666  37.641  1.00  0.00     0.198 A 
ATOM     67  C   UNL A   1      38.605  34.080  38.606  1.00  0.00     0.198 A 
ATOM     68  F   UNL A   1      38.195  32.031  37.527  1.00  0.00    -0.203 F 
ATOM     69  F   UNL A   1      40.783  36.833  37.704  1.00  0.00    -0.200 F 
ATOM     70  C   UNL A   1      39.260  35.302  38.660  1.00  0.00     0.200 A 
ATOM     71  F   UNL A   1      37.758  33.733  39.585  1.00  0.00    -0.200 F 
ATOM     72  F   UNL A   1      39.061  36.126  39.698  1.00  0.00    -0.200 F 
ENDBRANCH  48  62
BRANCH  49  73
ATOM     73  C   UNL A   1      40.951  27.846  28.402  1.00  0.00     0.064 A 
ATOM     74  C   UNL A   1      41.818  28.246  27.374  1.00  0.00     0.173 A 
ATOM     75  C   UNL A   1      40.279  26.626  28.250  1.00  0.00     0.173 A 
ATOM     76  F   UNL A   1      42.469  29.415  27.465  1.00  0.00    -0.203 F 
ATOM     77  C   UNL A   1      41.985  27.470  26.230  1.00  0.00     0.198 A 
ATOM     78  C   UNL A   1      40.470  25.835  27.118  1.00  0.00     0.198 A 
ATOM     79  F   UNL A   1      39.445  26.195  29.207  1.00  0.00    -0.203 F 
ATOM     80  F   UNL A   1      42.781  27.900  25.242  1.00  0.00    -0.200 F 
ATOM     81  C   UNL A   1      41.315  26.263  26.105  1.00  0.00     0.200 A 
ATOM     82  F   UNL A   1      39.833  24.661  27.008  1.00  0.00    -0.200 F 
ATOM     83  F   UNL A   1      41.478  25.514  25.006  1.00  0.00    -0.200 F 
ENDBRANCH  49  73
BRANCH  61  84
ATOM     84  C   UNL A   1      43.913  27.978  34.698  1.00  0.00     0.064 A 
ATOM     85  C   UNL A   1      43.603  26.796  35.389  1.00  0.00     0.173 A 
ATOM     86  C   UNL A   1      45.262  28.352  34.609  1.00  0.00     0.173 A 
ATOM     87  F   UNL A   1      42.328  26.403  35.515  1.00  0.00    -0.203 F 
ATOM     88  C   UNL A   1      44.601  26.046  36.007  1.00  0.00     0.198 A 
ATOM     89  C   UNL A   1      46.260  27.580  35.199  1.00  0.00     0.198 A 
ATOM     90  F   UNL A   1      45.614  29.467  33.952  1.00  0.00    -0.203 F 
ATOM     91  F   UNL A   1      44.273  24.959  36.719  1.00  0.00    -0.200 F 
ATOM     92  C   UNL A   1      45.927  26.436  35.907  1.00  0.00     0.200 A 
ATOM     93  F   UNL A   1      47.544  27.951  35.090  1.00  0.00    -0.200 F 
ATOM     94  F   UNL A   1      46.885  25.715  36.506  1.00  0.00    -0.200 F 
ENDBRANCH  61  84
ENDBRANCH  35  36
ENDBRANCH  27  30
ENDBRANCH  25  26
ENDBRANCH  24  25
ENDBRANCH  23  24
ENDBRANCH   1  23
TORSDOF 15
ENDMDL
