MODEL 1
REMARK VINA RESULT:     -13.7      0.000      0.000
REMARK SMILES O=C(NCCCCNC(=O)c1ccc([C@H]2CCCN(C(=O)c3ccc4[nH]ccc4c3)C2)cc1)c1ccc(-c2c3nc(c(-c4c(F)c(F)c(F)c(F)c4F)c4ccc([nH]4)c(-c4c(F)c(F)c(F)c(F)c4F)c4nc(c(-c5c(F)c(F)c(F)c(F)c5F)c5ccc2[nH]5)C=C4)C=C3)cc1
REMARK SMILES IDX 6 1 5 2 4 3 3 4 1 5 2 6 34 8 35 9 96 10 36 11 95 12 37 13
REMARK SMILES IDX 38 14 39 15 89 16 40 17 94 18 88 19 90 20 41 21 93 22 87 23
REMARK SMILES IDX 86 24 42 26 74 27 54 28 73 29 55 30 58 31 72 32 91 33 56 34
REMARK SMILES IDX 57 35 71 37 92 38 59 39 43 40 44 41 52 42 45 43 46 44 50 45
REMARK SMILES IDX 53 46 47 47 48 48 51 49 49 50 75 51 76 52 84 53 77 54 78 55
REMARK SMILES IDX 82 56 85 57 79 58 80 59 83 60 81 61 60 62 61 63 69 64 62 65
REMARK SMILES IDX 63 66 67 67 70 68 64 69 65 70 68 71 66 72 7 73 8 74 9 75
REMARK SMILES IDX 10 77 11 78 12 79 33 80 13 81 32 82 14 83 15 84 16 85 31 86
REMARK SMILES IDX 17 87 19 88 18 89 20 90 21 91 22 92 23 93 30 94 24 95 29 96
REMARK SMILES IDX 25 97 28 98 26 99 27 100
REMARK H PARENT 3 7 90 25 58 36 8 76 26 101
REMARK Flexibility Score: inf
ROOT
ATOM      1  C   UNL A   1      31.331  30.780  26.515  1.00  0.00     0.023 C 
ENDROOT
BRANCH   1   2
ATOM      2  C   UNL A   1      31.425  32.302  26.516  1.00  0.00     0.023 C 
BRANCH   2   3
ATOM      3  C   UNL A   1      32.644  32.879  27.221  1.00  0.00     0.116 C 
BRANCH   3   4
ATOM      4  N   UNL A   1      32.436  34.235  27.705  1.00  0.00    -0.352 N 
ATOM      5  O   UNL A   1      32.691  36.007  29.077  1.00  0.00    -0.269 OA
ATOM      6  C   UNL A   1      33.084  34.911  28.715  1.00  0.00     0.251 C 
ATOM      7  H   UNL A   1      31.730  34.743  27.243  1.00  0.00     0.163 HD
BRANCH   6   8
ATOM      8  C   UNL A   1      34.245  34.281  29.384  1.00  0.00     0.039 A 
ATOM      9  C   UNL A   1      35.546  34.543  28.951  1.00  0.00     0.014 A 
ATOM     10  C   UNL A   1      34.025  33.409  30.454  1.00  0.00     0.014 A 
ATOM     11  C   UNL A   1      36.607  33.815  29.472  1.00  0.00     0.010 A 
ATOM     12  C   UNL A   1      35.107  32.751  31.046  1.00  0.00     0.010 A 
ATOM     13  C   UNL A   1      36.403  32.923  30.539  1.00  0.00    -0.014 A 
BRANCH  13  14
ATOM     14  C   UNL A   1      37.576  32.246  31.149  1.00  0.00     0.031 A 
ATOM     15  C   UNL A   1      38.049  32.592  32.532  1.00  0.00     0.074 A 
ATOM     16  C   UNL A   1      38.199  31.284  30.441  1.00  0.00     0.049 A 
ATOM     17  N   UNL A   1      39.048  32.086  33.212  1.00  0.00    -0.248 NA
ATOM     18  C   UNL A   1      37.315  33.648  33.244  1.00  0.00     0.031 C 
ATOM     19  C   UNL A   1      37.833  30.870  29.083  1.00  0.00     0.029 A 
ATOM     20  N   UNL A   1      39.254  30.470  30.762  1.00  0.00    -0.354 N 
ATOM     21  C   UNL A   1      39.073  32.768  34.421  1.00  0.00     0.074 A 
ATOM     22  C   UNL A   1      38.006  33.747  34.372  1.00  0.00     0.031 C 
ATOM     23  C   UNL A   1      38.618  29.853  28.707  1.00  0.00     0.029 A 
ATOM     24  C   UNL A   1      39.586  29.588  29.764  1.00  0.00     0.049 A 
ATOM     25  H   UNL A   1      39.727  30.514  31.624  1.00  0.00     0.167 HD
ATOM     26  C   UNL A   1      39.906  32.586  35.475  1.00  0.00     0.037 A 
ATOM     27  C   UNL A   1      40.577  28.680  29.694  1.00  0.00     0.037 A 
ATOM     28  C   UNL A   1      40.959  31.602  35.517  1.00  0.00     0.049 A 
ATOM     29  C   UNL A   1      41.507  28.529  30.862  1.00  0.00     0.074 A 
ATOM     30  C   UNL A   1      41.830  31.313  36.553  1.00  0.00     0.029 A 
ATOM     31  N   UNL A   1      41.289  30.750  34.472  1.00  0.00    -0.354 N 
ATOM     32  N   UNL A   1      41.495  29.152  32.015  1.00  0.00    -0.248 NA
ATOM     33  C   UNL A   1      42.589  27.547  30.719  1.00  0.00     0.031 C 
ATOM     34  C   UNL A   1      42.724  30.330  36.116  1.00  0.00     0.029 A 
ATOM     35  C   UNL A   1      42.372  29.959  34.828  1.00  0.00     0.049 A 
ATOM     36  H   UNL A   1      40.824  30.713  33.606  1.00  0.00     0.167 HD
ATOM     37  C   UNL A   1      42.555  28.629  32.741  1.00  0.00     0.074 A 
ATOM     38  C   UNL A   1      43.173  27.619  31.906  1.00  0.00     0.031 C 
ATOM     39  C   UNL A   1      42.979  28.960  33.985  1.00  0.00     0.037 A 
BRANCH  26  40
ATOM     40  C   UNL A   1      39.731  33.484  36.669  1.00  0.00     0.064 A 
ATOM     41  C   UNL A   1      40.385  34.721  36.769  1.00  0.00     0.173 A 
ATOM     42  C   UNL A   1      38.856  33.123  37.705  1.00  0.00     0.173 A 
ATOM     43  F   UNL A   1      41.239  35.112  35.810  1.00  0.00    -0.203 F 
ATOM     44  C   UNL A   1      40.191  35.550  37.871  1.00  0.00     0.198 A 
ATOM     45  C   UNL A   1      38.639  33.967  38.792  1.00  0.00     0.198 A 
ATOM     46  F   UNL A   1      38.195  31.956  37.659  1.00  0.00    -0.203 F 
ATOM     47  F   UNL A   1      40.862  36.705  37.966  1.00  0.00    -0.200 F 
ATOM     48  C   UNL A   1      39.313  35.175  38.878  1.00  0.00     0.200 A 
ATOM     49  F   UNL A   1      37.780  33.611  39.756  1.00  0.00    -0.200 F 
ATOM     50  F   UNL A   1      39.121  35.978  39.934  1.00  0.00    -0.200 F 
ENDBRANCH  26  40
BRANCH  27  51
ATOM     51  C   UNL A   1      40.737  27.859  28.466  1.00  0.00     0.064 A 
ATOM     52  C   UNL A   1      40.079  26.630  28.328  1.00  0.00     0.173 A 
ATOM     53  C   UNL A   1      41.539  28.295  27.400  1.00  0.00     0.173 A 
ATOM     54  F   UNL A   1      39.316  26.163  29.327  1.00  0.00    -0.203 F 
ATOM     55  C   UNL A   1      40.229  25.860  27.176  1.00  0.00     0.198 A 
ATOM     56  C   UNL A   1      41.661  27.541  26.236  1.00  0.00     0.198 A 
ATOM     57  F   UNL A   1      42.184  29.468  27.480  1.00  0.00    -0.203 F 
ATOM     58  F   UNL A   1      39.624  24.669  27.087  1.00  0.00    -0.200 F 
ATOM     59  C   UNL A   1      41.014  26.321  26.129  1.00  0.00     0.200 A 
ATOM     60  F   UNL A   1      42.404  27.999  25.219  1.00  0.00    -0.200 F 
ATOM     61  F   UNL A   1      41.149  25.584  25.018  1.00  0.00    -0.200 F 
ENDBRANCH  27  51
BRANCH  39  62
ATOM     62  C   UNL A   1      44.153  28.197  34.530  1.00  0.00     0.064 A 
ATOM     63  C   UNL A   1      45.468  28.665  34.381  1.00  0.00     0.173 A 
ATOM     64  C   UNL A   1      43.958  26.995  35.226  1.00  0.00     0.173 A 
ATOM     65  F   UNL A   1      45.708  29.800  33.708  1.00  0.00    -0.203 F 
ATOM     66  C   UNL A   1      46.545  27.942  34.885  1.00  0.00     0.198 A 
ATOM     67  C   UNL A   1      45.036  26.292  35.756  1.00  0.00     0.198 A 
ATOM     68  F   UNL A   1      42.722  26.506  35.400  1.00  0.00    -0.203 F 
ATOM     69  F   UNL A   1      47.796  28.379  34.683  1.00  0.00    -0.200 F 
ATOM     70  C   UNL A   1      46.329  26.760  35.578  1.00  0.00     0.200 A 
ATOM     71  F   UNL A   1      44.823  25.157  36.438  1.00  0.00    -0.200 F 
ATOM     72  F   UNL A   1      47.366  26.068  36.066  1.00  0.00    -0.200 F 
ENDBRANCH  39  62
ENDBRANCH  13  14
ENDBRANCH   6   8
ENDBRANCH   3   4
ENDBRANCH   2   3
ENDBRANCH   1   2
BRANCH   1  73
ATOM     73  C   UNL A   1      31.739  30.083  25.219  1.00  0.00     0.116 C 
BRANCH  73  74
ATOM     74  N   UNL A   1      30.689  30.046  24.218  1.00  0.00    -0.352 N 
ATOM     75  C   UNL A   1      30.133  28.978  23.559  1.00  0.00     0.251 C 
ATOM     76  H   UNL A   1      30.318  30.924  23.972  1.00  0.00     0.163 HD
ATOM     77  O   UNL A   1      29.269  29.181  22.709  1.00  0.00    -0.269 OA
BRANCH  75  78
ATOM     78  C   UNL A   1      30.651  27.609  23.770  1.00  0.00     0.039 A 
ATOM     79  C   UNL A   1      31.440  27.099  22.747  1.00  0.00     0.014 A 
ATOM     80  C   UNL A   1      30.466  26.868  24.948  1.00  0.00     0.014 A 
ATOM     81  C   UNL A   1      32.159  25.936  22.967  1.00  0.00     0.005 A 
ATOM     82  C   UNL A   1      31.225  25.708  25.186  1.00  0.00     0.005 A 
ATOM     83  C   UNL A   1      32.133  25.279  24.218  1.00  0.00    -0.043 A 
BRANCH  83  84
ATOM     84  C   UNL A   1      33.304  24.355  24.449  1.00  0.00     0.039 C 
ATOM     85  C   UNL A   1      34.379  24.702  23.393  1.00  0.00     0.012 C 
ATOM     86  C   UNL A   1      34.048  24.114  25.774  1.00  0.00     0.128 C 
ATOM     87  C   UNL A   1      35.217  23.457  23.145  1.00  0.00     0.022 C 
ATOM     88  N   UNL A   1      34.863  22.889  25.554  1.00  0.00    -0.338 N 
ATOM     89  C   UNL A   1      35.838  22.954  24.449  1.00  0.00     0.120 C 
BRANCH  88  90
ATOM     90  C   UNL A   1      34.460  21.719  26.201  1.00  0.00     0.253 C 
ATOM     91  O   UNL A   1      34.342  21.625  27.420  1.00  0.00    -0.269 OA
BRANCH  90  92
ATOM     92  C   UNL A   1      33.970  20.585  25.387  1.00  0.00     0.040 A 
ATOM     93  C   UNL A   1      32.693  20.720  24.830  1.00  0.00     0.016 A 
ATOM     94  C   UNL A   1      34.726  19.421  25.195  1.00  0.00     0.024 A 
ATOM     95  C   UNL A   1      32.155  19.721  24.016  1.00  0.00     0.027 A 
ATOM     96  C   UNL A   1      34.199  18.405  24.369  1.00  0.00     0.000 A 
ATOM     97  C   UNL A   1      32.938  18.584  23.794  1.00  0.00     0.045 A 
ATOM     98  C   UNL A   1      34.669  17.130  23.943  1.00  0.00     0.028 A 
ATOM     99  N   UNL A   1      32.673  17.466  23.034  1.00  0.00    -0.361 N 
ATOM    100  C   UNL A   1      33.710  16.577  23.126  1.00  0.00     0.083 A 
ATOM    101  H   UNL A   1      31.856  17.327  22.503  1.00  0.00     0.166 HD
ENDBRANCH  90  92
ENDBRANCH  88  90
ENDBRANCH  83  84
ENDBRANCH  75  78
ENDBRANCH  73  74
ENDBRANCH   1  73
TORSDOF 14
ENDMDL
MODEL 2
REMARK VINA RESULT:     -13.6      0.424      7.220
REMARK SMILES O=C(NCCCCNC(=O)c1ccc([C@H]2CCCN(C(=O)c3ccc4[nH]ccc4c3)C2)cc1)c1ccc(-c2c3nc(c(-c4c(F)c(F)c(F)c(F)c4F)c4ccc([nH]4)c(-c4c(F)c(F)c(F)c(F)c4F)c4nc(c(-c5c(F)c(F)c(F)c(F)c5F)c5ccc2[nH]5)C=C4)C=C3)cc1
REMARK SMILES IDX 6 1 5 2 4 3 3 4 1 5 2 6 34 8 35 9 96 10 36 11 95 12 37 13
REMARK SMILES IDX 38 14 39 15 89 16 40 17 94 18 88 19 90 20 41 21 93 22 87 23
REMARK SMILES IDX 86 24 42 26 74 27 54 28 73 29 55 30 58 31 72 32 91 33 56 34
REMARK SMILES IDX 57 35 71 37 92 38 59 39 43 40 44 41 52 42 45 43 46 44 50 45
REMARK SMILES IDX 53 46 47 47 48 48 51 49 49 50 75 51 76 52 84 53 77 54 78 55
REMARK SMILES IDX 82 56 85 57 79 58 80 59 83 60 81 61 60 62 61 63 69 64 62 65
REMARK SMILES IDX 63 66 67 67 70 68 64 69 65 70 68 71 66 72 7 73 8 74 9 75
REMARK SMILES IDX 10 77 11 78 12 79 33 80 13 81 32 82 14 83 15 84 16 85 31 86
REMARK SMILES IDX 17 87 19 88 18 89 20 90 21 91 22 92 23 93 30 94 24 95 29 96
REMARK SMILES IDX 25 97 28 98 26 99 27 100
REMARK H PARENT 3 7 90 25 58 36 8 76 26 101
REMARK Flexibility Score: inf
ROOT
ATOM      1  C   UNL A   1      31.416  30.759  26.578  1.00  0.00     0.023 C 
ENDROOT
BRANCH   1   2
ATOM      2  C   UNL A   1      31.423  32.284  26.559  1.00  0.00     0.023 C 
BRANCH   2   3
ATOM      3  C   UNL A   1      32.662  32.937  27.154  1.00  0.00     0.116 C 
BRANCH   3   4
ATOM      4  N   UNL A   1      32.423  34.290  27.629  1.00  0.00    -0.352 N 
ATOM      5  O   UNL A   1      32.619  36.068  29.004  1.00  0.00    -0.269 OA
ATOM      6  C   UNL A   1      33.036  34.978  28.654  1.00  0.00     0.251 C 
ATOM      7  H   UNL A   1      31.723  34.787  27.148  1.00  0.00     0.163 HD
BRANCH   6   8
ATOM      8  C   UNL A   1      34.189  34.365  29.354  1.00  0.00     0.039 A 
ATOM      9  C   UNL A   1      35.491  34.568  28.894  1.00  0.00     0.014 A 
ATOM     10  C   UNL A   1      33.959  33.569  30.480  1.00  0.00     0.014 A 
ATOM     11  C   UNL A   1      36.540  33.850  29.454  1.00  0.00     0.010 A 
ATOM     12  C   UNL A   1      35.031  32.926  31.105  1.00  0.00     0.010 A 
ATOM     13  C   UNL A   1      36.326  33.034  30.577  1.00  0.00    -0.014 A 
BRANCH  13  14
ATOM     14  C   UNL A   1      37.488  32.371  31.221  1.00  0.00     0.031 A 
ATOM     15  C   UNL A   1      38.262  31.291  30.519  1.00  0.00     0.074 A 
ATOM     16  C   UNL A   1      37.858  32.778  32.450  1.00  0.00     0.049 A 
ATOM     17  N   UNL A   1      39.306  30.620  30.937  1.00  0.00    -0.248 NA
ATOM     18  C   UNL A   1      37.801  30.903  29.178  1.00  0.00     0.031 C 
ATOM     19  C   UNL A   1      37.176  33.812  33.233  1.00  0.00     0.029 A 
ATOM     20  N   UNL A   1      38.901  32.391  33.251  1.00  0.00    -0.354 N 
ATOM     21  C   UNL A   1      39.619  29.725  29.923  1.00  0.00     0.074 A 
ATOM     22  C   UNL A   1      38.634  29.916  28.878  1.00  0.00     0.031 C 
ATOM     23  C   UNL A   1      37.841  34.010  34.377  1.00  0.00     0.029 A 
ATOM     24  C   UNL A   1      38.954  33.071  34.443  1.00  0.00     0.049 A 
ATOM     25  H   UNL A   1      39.548  31.694  32.997  1.00  0.00     0.167 HD
ATOM     26  C   UNL A   1      40.639  28.833  29.869  1.00  0.00     0.037 A 
ATOM     27  C   UNL A   1      39.792  32.937  35.488  1.00  0.00     0.037 A 
ATOM     28  C   UNL A   1      41.619  28.657  30.912  1.00  0.00     0.049 A 
ATOM     29  C   UNL A   1      40.888  31.915  35.415  1.00  0.00     0.074 A 
ATOM     30  C   UNL A   1      42.712  27.809  30.936  1.00  0.00     0.029 A 
ATOM     31  N   UNL A   1      41.619  29.339  32.122  1.00  0.00    -0.354 N 
ATOM     32  N   UNL A   1      41.196  31.102  34.434  1.00  0.00    -0.248 NA
ATOM     33  C   UNL A   1      41.751  31.789  36.595  1.00  0.00     0.031 C 
ATOM     34  C   UNL A   1      43.339  27.933  32.180  1.00  0.00     0.029 A 
ATOM     35  C   UNL A   1      42.675  28.905  32.910  1.00  0.00     0.049 A 
ATOM     36  H   UNL A   1      40.967  30.028  32.382  1.00  0.00     0.167 HD
ATOM     37  C   UNL A   1      42.298  30.381  34.869  1.00  0.00     0.074 A 
ATOM     38  C   UNL A   1      42.619  30.871  36.195  1.00  0.00     0.031 C 
ATOM     39  C   UNL A   1      42.979  29.400  34.230  1.00  0.00     0.037 A 
BRANCH  26  40
ATOM     40  C   UNL A   1      40.739  27.957  28.651  1.00  0.00     0.064 A 
ATOM     41  C   UNL A   1      40.045  26.742  28.552  1.00  0.00     0.173 A 
ATOM     42  C   UNL A   1      41.502  28.365  27.546  1.00  0.00     0.173 A 
ATOM     43  F   UNL A   1      39.307  26.300  29.582  1.00  0.00    -0.203 F 
ATOM     44  C   UNL A   1      40.132  25.956  27.405  1.00  0.00     0.198 A 
ATOM     45  C   UNL A   1      41.564  27.593  26.388  1.00  0.00     0.198 A 
ATOM     46  F   UNL A   1      42.180  29.523  27.581  1.00  0.00    -0.203 F 
ATOM     47  F   UNL A   1      39.497  24.778  27.352  1.00  0.00    -0.200 F 
ATOM     48  C   UNL A   1      40.885  26.386  26.322  1.00  0.00     0.200 A 
ATOM     49  F   UNL A   1      42.279  28.016  25.338  1.00  0.00    -0.200 F 
ATOM     50  F   UNL A   1      40.961  25.632  25.216  1.00  0.00    -0.200 F 
ENDBRANCH  26  40
BRANCH  27  51
ATOM     51  C   UNL A   1      39.610  33.792  36.689  1.00  0.00     0.064 A 
ATOM     52  C   UNL A   1      40.217  35.051  36.780  1.00  0.00     0.173 A 
ATOM     53  C   UNL A   1      38.813  33.372  37.766  1.00  0.00     0.173 A 
ATOM     54  F   UNL A   1      41.002  35.488  35.784  1.00  0.00    -0.203 F 
ATOM     55  C   UNL A   1      40.046  35.852  37.907  1.00  0.00     0.198 A 
ATOM     56  C   UNL A   1      38.615  34.187  38.876  1.00  0.00     0.198 A 
ATOM     57  F   UNL A   1      38.204  32.178  37.725  1.00  0.00    -0.203 F 
ATOM     58  F   UNL A   1      40.673  37.034  37.987  1.00  0.00    -0.200 F 
ATOM     59  C   UNL A   1      39.240  35.423  38.950  1.00  0.00     0.200 A 
ATOM     60  F   UNL A   1      37.820  33.777  39.873  1.00  0.00    -0.200 F 
ATOM     61  F   UNL A   1      39.068  36.199  40.029  1.00  0.00    -0.200 F 
ENDBRANCH  27  51
BRANCH  39  62
ATOM     62  C   UNL A   1      44.160  28.810  34.948  1.00  0.00     0.064 A 
ATOM     63  C   UNL A   1      44.023  27.720  35.820  1.00  0.00     0.173 A 
ATOM     64  C   UNL A   1      45.447  29.331  34.746  1.00  0.00     0.173 A 
ATOM     65  F   UNL A   1      42.811  27.197  36.061  1.00  0.00    -0.203 F 
ATOM     66  C   UNL A   1      45.126  27.191  36.484  1.00  0.00     0.198 A 
ATOM     67  C   UNL A   1      46.552  28.779  35.386  1.00  0.00     0.198 A 
ATOM     68  F   UNL A   1      45.634  30.371  33.919  1.00  0.00    -0.203 F 
ATOM     69  F   UNL A   1      44.963  26.184  37.354  1.00  0.00    -0.200 F 
ATOM     70  C   UNL A   1      46.390  27.716  36.261  1.00  0.00     0.200 A 
ATOM     71  F   UNL A   1      47.775  29.279  35.159  1.00  0.00    -0.200 F 
ATOM     72  F   UNL A   1      47.451  27.203  36.897  1.00  0.00    -0.200 F 
ENDBRANCH  39  62
ENDBRANCH  13  14
ENDBRANCH   6   8
ENDBRANCH   3   4
ENDBRANCH   2   3
ENDBRANCH   1   2
BRANCH   1  73
ATOM     73  C   UNL A   1      31.748  30.070  25.257  1.00  0.00     0.116 C 
BRANCH  73  74
ATOM     74  N   UNL A   1      30.663  30.096  24.293  1.00  0.00    -0.352 N 
ATOM     75  C   UNL A   1      30.084  29.070  23.587  1.00  0.00     0.251 C 
ATOM     76  H   UNL A   1      30.283  30.987  24.118  1.00  0.00     0.163 HD
ATOM     77  O   UNL A   1      29.190  29.326  22.783  1.00  0.00    -0.269 OA
BRANCH  75  78
ATOM     78  C   UNL A   1      30.610  27.692  23.690  1.00  0.00     0.039 A 
ATOM     79  C   UNL A   1      31.583  27.347  22.760  1.00  0.00     0.014 A 
ATOM     80  C   UNL A   1      30.253  26.786  24.701  1.00  0.00     0.014 A 
ATOM     81  C   UNL A   1      32.296  26.174  22.937  1.00  0.00     0.005 A 
ATOM     82  C   UNL A   1      31.003  25.613  24.902  1.00  0.00     0.005 A 
ATOM     83  C   UNL A   1      32.080  25.341  24.058  1.00  0.00    -0.043 A 
BRANCH  83  84
ATOM     84  C   UNL A   1      33.228  24.407  24.359  1.00  0.00     0.039 C 
ATOM     85  C   UNL A   1      34.352  24.721  23.345  1.00  0.00     0.012 C 
ATOM     86  C   UNL A   1      33.908  24.184  25.720  1.00  0.00     0.128 C 
ATOM     87  C   UNL A   1      35.185  23.462  23.159  1.00  0.00     0.022 C 
ATOM     88  N   UNL A   1      34.718  22.945  25.560  1.00  0.00    -0.338 N 
ATOM     89  C   UNL A   1      35.741  22.977  24.498  1.00  0.00     0.120 C 
BRANCH  88  90
ATOM     90  C   UNL A   1      34.271  21.793  26.210  1.00  0.00     0.253 C 
ATOM     91  O   UNL A   1      34.048  21.740  27.417  1.00  0.00    -0.269 OA
BRANCH  90  92
ATOM     92  C   UNL A   1      33.866  20.625  25.398  1.00  0.00     0.040 A 
ATOM     93  C   UNL A   1      32.620  20.704  24.766  1.00  0.00     0.016 A 
ATOM     94  C   UNL A   1      34.670  19.484  25.277  1.00  0.00     0.024 A 
ATOM     95  C   UNL A   1      32.162  19.670  23.947  1.00  0.00     0.027 A 
ATOM     96  C   UNL A   1      34.224  18.432  24.447  1.00  0.00     0.000 A 
ATOM     97  C   UNL A   1      32.994  18.555  23.798  1.00  0.00     0.045 A 
ATOM     98  C   UNL A   1      34.760  17.165  24.080  1.00  0.00     0.028 A 
ATOM     99  N   UNL A   1      32.809  17.412  23.052  1.00  0.00    -0.361 N 
ATOM    100  C   UNL A   1      33.868  16.562  23.223  1.00  0.00     0.083 A 
ATOM    101  H   UNL A   1      32.029  17.233  22.479  1.00  0.00     0.166 HD
ENDBRANCH  90  92
ENDBRANCH  88  90
ENDBRANCH  83  84
ENDBRANCH  75  78
ENDBRANCH  73  74
ENDBRANCH   1  73
TORSDOF 14
ENDMDL
MODEL 3
REMARK VINA RESULT:     -13.4      5.977     11.894
REMARK SMILES O=C(NCCCCNC(=O)c1ccc([C@H]2CCCN(C(=O)c3ccc4[nH]ccc4c3)C2)cc1)c1ccc(-c2c3nc(c(-c4c(F)c(F)c(F)c(F)c4F)c4ccc([nH]4)c(-c4c(F)c(F)c(F)c(F)c4F)c4nc(c(-c5c(F)c(F)c(F)c(F)c5F)c5ccc2[nH]5)C=C4)C=C3)cc1
REMARK SMILES IDX 6 1 5 2 4 3 3 4 1 5 2 6 34 8 35 9 96 10 36 11 95 12 37 13
REMARK SMILES IDX 38 14 39 15 89 16 40 17 94 18 88 19 90 20 41 21 93 22 87 23
REMARK SMILES IDX 86 24 42 26 74 27 54 28 73 29 55 30 58 31 72 32 91 33 56 34
REMARK SMILES IDX 57 35 71 37 92 38 59 39 43 40 44 41 52 42 45 43 46 44 50 45
REMARK SMILES IDX 53 46 47 47 48 48 51 49 49 50 75 51 76 52 84 53 77 54 78 55
REMARK SMILES IDX 82 56 85 57 79 58 80 59 83 60 81 61 60 62 61 63 69 64 62 65
REMARK SMILES IDX 63 66 67 67 70 68 64 69 65 70 68 71 66 72 7 73 8 74 9 75
REMARK SMILES IDX 10 77 11 78 12 79 33 80 13 81 32 82 14 83 15 84 16 85 31 86
REMARK SMILES IDX 17 87 19 88 18 89 20 90 21 91 22 92 23 93 30 94 24 95 29 96
REMARK SMILES IDX 25 97 28 98 26 99 27 100
REMARK H PARENT 3 7 90 25 58 36 8 76 26 101
REMARK Flexibility Score: inf
ROOT
ATOM      1  C   UNL A   1      41.285  21.153  26.153  1.00  0.00     0.023 C 
ENDROOT
BRANCH   1   2
ATOM      2  C   UNL A   1      41.576  19.707  25.765  1.00  0.00     0.023 C 
BRANCH   2   3
ATOM      3  C   UNL A   1      42.952  19.191  26.159  1.00  0.00     0.116 C 
BRANCH   3   4
ATOM      4  N   UNL A   1      43.770  18.816  25.016  1.00  0.00    -0.352 N 
ATOM      5  O   UNL A   1      45.157  19.137  23.266  1.00  0.00    -0.269 OA
ATOM      6  C   UNL A   1      44.648  19.582  24.281  1.00  0.00     0.251 C 
ATOM      7  H   UNL A   1      43.685  17.879  24.727  1.00  0.00     0.163 HD
BRANCH   6   8
ATOM      8  C   UNL A   1      44.943  20.967  24.714  1.00  0.00     0.039 A 
ATOM      9  C   UNL A   1      45.572  21.213  25.936  1.00  0.00     0.014 A 
ATOM     10  C   UNL A   1      44.576  22.033  23.887  1.00  0.00     0.014 A 
ATOM     11  C   UNL A   1      45.685  22.516  26.404  1.00  0.00     0.010 A 
ATOM     12  C   UNL A   1      44.783  23.347  24.317  1.00  0.00     0.010 A 
ATOM     13  C   UNL A   1      45.309  23.600  25.593  1.00  0.00    -0.014 A 
BRANCH  13  14
ATOM     14  C   UNL A   1      45.548  24.983  26.078  1.00  0.00     0.031 A 
ATOM     15  C   UNL A   1      46.896  25.635  25.953  1.00  0.00     0.074 A 
ATOM     16  C   UNL A   1      44.516  25.660  26.616  1.00  0.00     0.049 A 
ATOM     17  N   UNL A   1      47.266  26.838  26.315  1.00  0.00    -0.248 NA
ATOM     18  C   UNL A   1      47.972  24.834  25.351  1.00  0.00     0.031 C 
ATOM     19  C   UNL A   1      43.164  25.124  26.799  1.00  0.00     0.029 A 
ATOM     20  N   UNL A   1      44.430  26.943  27.091  1.00  0.00    -0.354 N 
ATOM     21  C   UNL A   1      48.615  26.935  26.002  1.00  0.00     0.074 A 
ATOM     22  C   UNL A   1      49.008  25.657  25.445  1.00  0.00     0.031 C 
ATOM     23  C   UNL A   1      42.375  26.081  27.302  1.00  0.00     0.029 A 
ATOM     24  C   UNL A   1      43.177  27.275  27.544  1.00  0.00     0.049 A 
ATOM     25  H   UNL A   1      45.193  27.565  27.107  1.00  0.00     0.167 HD
ATOM     26  C   UNL A   1      49.444  27.996  26.158  1.00  0.00     0.037 A 
ATOM     27  C   UNL A   1      42.725  28.406  28.114  1.00  0.00     0.037 A 
ATOM     28  C   UNL A   1      49.040  29.268  26.706  1.00  0.00     0.049 A 
ATOM     29  C   UNL A   1      43.676  29.551  28.309  1.00  0.00     0.074 A 
ATOM     30  C   UNL A   1      49.794  30.417  26.869  1.00  0.00     0.029 A 
ATOM     31  N   UNL A   1      47.769  29.555  27.187  1.00  0.00    -0.354 N 
ATOM     32  N   UNL A   1      44.939  29.644  27.972  1.00  0.00    -0.248 NA
ATOM     33  C   UNL A   1      43.139  30.749  28.966  1.00  0.00     0.031 C 
ATOM     34  C   UNL A   1      49.000  31.378  27.501  1.00  0.00     0.029 A 
ATOM     35  C   UNL A   1      47.730  30.852  27.677  1.00  0.00     0.049 A 
ATOM     36  H   UNL A   1      47.010  28.930  27.182  1.00  0.00     0.167 HD
ATOM     37  C   UNL A   1      45.345  30.912  28.359  1.00  0.00     0.074 A 
ATOM     38  C   UNL A   1      44.184  31.562  28.935  1.00  0.00     0.031 C 
ATOM     39  C   UNL A   1      46.568  31.485  28.250  1.00  0.00     0.037 A 
BRANCH  26  40
ATOM     40  C   UNL A   1      50.882  27.828  25.753  1.00  0.00     0.064 A 
ATOM     41  C   UNL A   1      51.883  27.514  26.684  1.00  0.00     0.173 A 
ATOM     42  C   UNL A   1      51.255  27.932  24.404  1.00  0.00     0.173 A 
ATOM     43  F   UNL A   1      51.584  27.410  27.988  1.00  0.00    -0.203 F 
ATOM     44  C   UNL A   1      53.206  27.337  26.285  1.00  0.00     0.198 A 
ATOM     45  C   UNL A   1      52.573  27.725  24.002  1.00  0.00     0.198 A 
ATOM     46  F   UNL A   1      50.338  28.221  23.467  1.00  0.00    -0.203 F 
ATOM     47  F   UNL A   1      54.152  27.084  27.199  1.00  0.00    -0.200 F 
ATOM     48  C   UNL A   1      53.548  27.436  24.945  1.00  0.00     0.200 A 
ATOM     49  F   UNL A   1      52.899  27.806  22.706  1.00  0.00    -0.200 F 
ATOM     50  F   UNL A   1      54.821  27.258  24.561  1.00  0.00    -0.200 F 
ENDBRANCH  26  40
BRANCH  27  51
ATOM     51  C   UNL A   1      41.307  28.497  28.547  1.00  0.00     0.064 A 
ATOM     52  C   UNL A   1      40.316  28.975  27.680  1.00  0.00     0.173 A 
ATOM     53  C   UNL A   1      40.912  28.093  29.832  1.00  0.00     0.173 A 
ATOM     54  F   UNL A   1      40.647  29.389  26.448  1.00  0.00    -0.203 F 
ATOM     55  C   UNL A   1      38.986  29.059  28.086  1.00  0.00     0.198 A 
ATOM     56  C   UNL A   1      39.578  28.145  30.225  1.00  0.00     0.198 A 
ATOM     57  F   UNL A   1      41.822  27.621  30.697  1.00  0.00    -0.203 F 
ATOM     58  F   UNL A   1      38.065  29.560  27.252  1.00  0.00    -0.200 F 
ATOM     59  C   UNL A   1      38.618  28.637  29.355  1.00  0.00     0.200 A 
ATOM     60  F   UNL A   1      39.223  27.718  31.444  1.00  0.00    -0.200 F 
ATOM     61  F   UNL A   1      37.336  28.709  29.740  1.00  0.00    -0.200 F 
ENDBRANCH  27  51
BRANCH  39  62
ATOM     62  C   UNL A   1      46.705  32.898  28.740  1.00  0.00     0.064 A 
ATOM     63  C   UNL A   1      46.460  33.996  27.901  1.00  0.00     0.173 A 
ATOM     64  C   UNL A   1      47.068  33.157  30.071  1.00  0.00     0.173 A 
ATOM     65  F   UNL A   1      46.128  33.801  26.616  1.00  0.00    -0.203 F 
ATOM     66  C   UNL A   1      46.600  35.299  28.368  1.00  0.00     0.198 A 
ATOM     67  C   UNL A   1      47.175  34.462  30.543  1.00  0.00     0.198 A 
ATOM     68  F   UNL A   1      47.310  32.144  30.916  1.00  0.00    -0.203 F 
ATOM     69  F   UNL A   1      46.414  36.332  27.534  1.00  0.00    -0.200 F 
ATOM     70  C   UNL A   1      46.950  35.531  29.690  1.00  0.00     0.200 A 
ATOM     71  F   UNL A   1      47.499  34.684  31.825  1.00  0.00    -0.200 F 
ATOM     72  F   UNL A   1      47.080  36.786  30.140  1.00  0.00    -0.200 F 
ENDBRANCH  39  62
ENDBRANCH  13  14
ENDBRANCH   6   8
ENDBRANCH   3   4
ENDBRANCH   2   3
ENDBRANCH   1   2
BRANCH   1  73
ATOM     73  C   UNL A   1      39.820  21.581  26.095  1.00  0.00     0.116 C 
BRANCH  73  74
ATOM     74  N   UNL A   1      38.922  20.535  25.638  1.00  0.00    -0.352 N 
ATOM     75  C   UNL A   1      37.662  20.626  25.101  1.00  0.00     0.251 C 
ATOM     76  H   UNL A   1      39.271  19.620  25.728  1.00  0.00     0.163 HD
ATOM     77  O   UNL A   1      37.057  19.595  24.815  1.00  0.00    -0.269 OA
BRANCH  75  78
ATOM     78  C   UNL A   1      36.983  21.935  24.985  1.00  0.00     0.039 A 
ATOM     79  C   UNL A   1      36.606  22.306  23.700  1.00  0.00     0.014 A 
ATOM     80  C   UNL A   1      36.635  22.742  26.080  1.00  0.00     0.014 A 
ATOM     81  C   UNL A   1      35.758  23.388  23.535  1.00  0.00     0.005 A 
ATOM     82  C   UNL A   1      35.744  23.818  25.915  1.00  0.00     0.005 A 
ATOM     83  C   UNL A   1      35.243  24.098  24.644  1.00  0.00    -0.043 A 
BRANCH  83  84
ATOM     84  C   UNL A   1      33.996  24.893  24.338  1.00  0.00     0.039 C 
ATOM     85  C   UNL A   1      33.972  25.138  22.811  1.00  0.00     0.012 C 
ATOM     86  C   UNL A   1      32.555  24.553  24.755  1.00  0.00     0.128 C 
ATOM     87  C   UNL A   1      33.183  26.413  22.551  1.00  0.00     0.022 C 
ATOM     88  N   UNL A   1      31.771  25.795  24.519  1.00  0.00    -0.338 N 
ATOM     89  C   UNL A   1      31.774  26.307  23.136  1.00  0.00     0.120 C 
BRANCH  88  90
ATOM     90  C   UNL A   1      31.344  26.512  25.639  1.00  0.00     0.253 C 
ATOM     91  O   UNL A   1      30.513  26.088  26.438  1.00  0.00    -0.269 OA
BRANCH  90  92
ATOM     92  C   UNL A   1      32.048  27.762  25.999  1.00  0.00     0.040 A 
ATOM     93  C   UNL A   1      31.442  28.959  25.601  1.00  0.00     0.016 A 
ATOM     94  C   UNL A   1      33.271  27.761  26.685  1.00  0.00     0.024 A 
ATOM     95  C   UNL A   1      32.007  30.194  25.924  1.00  0.00     0.027 A 
ATOM     96  C   UNL A   1      33.852  29.002  27.025  1.00  0.00     0.000 A 
ATOM     97  C   UNL A   1      33.204  30.181  26.648  1.00  0.00     0.045 A 
ATOM     98  C   UNL A   1      35.039  29.385  27.710  1.00  0.00     0.028 A 
ATOM     99  N   UNL A   1      33.965  31.231  27.110  1.00  0.00    -0.361 N 
ATOM    100  C   UNL A   1      35.082  30.760  27.746  1.00  0.00     0.083 A 
ATOM    101  H   UNL A   1      33.739  32.183  26.999  1.00  0.00     0.166 HD
ENDBRANCH  90  92
ENDBRANCH  88  90
ENDBRANCH  83  84
ENDBRANCH  75  78
ENDBRANCH  73  74
ENDBRANCH   1  73
TORSDOF 14
ENDMDL
