MODEL 1
REMARK VINA RESULT:     -12.9      0.000      0.000
REMARK SMILES CC[C@@]1(C)NC(=O)N(/N=C/c2ccccc2C(=O)NCCCCNC(=O)c2ccc(-c3c4nc(c(-c5c(F)c(F)c(F)c(F)c5F)c5ccc([nH]5)c(-c5c(F)c(F)c(F)c(F)c5F)c5nc(c(-c6c(F)c(F)c(F)c(F)c6F)c6ccc3[nH]6)C=C5)C=C4)cc2)C1=O
REMARK SMILES IDX 21 1 20 2 19 3 17 4 18 5 16 7 11 8 12 9 13 10 15 11 14 12
REMARK SMILES IDX 10 13 9 14 8 15 3 16 4 17 5 18 90 19 6 20 91 22 7 23 2 24
REMARK SMILES IDX 1 25 22 26 23 27 24 28 25 29 26 31 27 32 28 33 89 34 29 35
REMARK SMILES IDX 88 36 30 37 31 38 32 39 82 40 33 41 87 42 81 43 83 44 34 45
REMARK SMILES IDX 86 46 80 47 79 48 35 50 67 51 47 52 66 53 48 54 51 55 65 56
REMARK SMILES IDX 84 57 49 58 50 59 64 61 85 62 52 63 36 64 37 65 45 66 38 67
REMARK SMILES IDX 39 68 43 69 46 70 40 71 41 72 44 73 42 74 68 75 69 76 77 77
REMARK SMILES IDX 70 78 71 79 75 80 78 81 72 82 73 83 76 84 74 85 53 86 54 87
REMARK SMILES IDX 62 88 55 89 56 90 60 91 63 92 57 93 58 94 61 95 59 96
REMARK H PARENT 19 6 5 21 24 30 83 49 51 60
REMARK Flexibility Score: inf
ROOT
ATOM      1  C   UNL A   1      32.142  29.247  27.148  1.00  0.00     0.023 C 
ENDROOT
BRANCH   1   2
ATOM      2  C   UNL A   1      33.522  28.610  27.209  1.00  0.00     0.116 C 
BRANCH   2   3
ATOM      3  N   UNL A   1      34.014  28.040  25.989  1.00  0.00    -0.352 N 
ATOM      4  C   UNL A   1      33.545  27.024  25.195  1.00  0.00     0.251 C 
ATOM      5  O   UNL A   1      34.105  26.943  24.093  1.00  0.00    -0.269 OA
ATOM      6  H   UNL A   1      34.844  28.455  25.661  1.00  0.00     0.163 HD
BRANCH   4   7
ATOM      7  C   UNL A   1      32.532  25.961  25.536  1.00  0.00     0.048 A 
ATOM      8  C   UNL A   1      31.136  25.897  25.384  1.00  0.00     0.007 A 
ATOM      9  C   UNL A   1      30.411  24.749  25.783  1.00  0.00     0.010 A 
ATOM     10  C   UNL A   1      31.050  23.644  26.333  1.00  0.00     0.001 A 
ATOM     11  C   UNL A   1      33.142  24.812  26.110  1.00  0.00     0.014 A 
ATOM     12  C   UNL A   1      32.421  23.678  26.504  1.00  0.00     0.001 A 
BRANCH   8  13
ATOM     13  C   UNL A   1      30.225  26.942  24.906  1.00  0.00     0.143 C 
ATOM     14  N   UNL A   1      29.923  27.106  23.667  1.00  0.00    -0.169 NA
BRANCH  14  15
ATOM     15  N   UNL A   1      29.131  28.181  23.308  1.00  0.00    -0.146 N 
ATOM     16  C   UNL A   1      28.151  30.126  22.346  1.00  0.00     0.120 C 
ATOM     17  C   UNL A   1      28.008  31.287  23.331  1.00  0.00     0.045 C 
ATOM     18  N   UNL A   1      27.205  29.126  22.749  1.00  0.00    -0.322 N 
ATOM     19  C   UNL A   1      29.459  29.343  22.613  1.00  0.00     0.276 C 
ATOM     20  C   UNL A   1      27.765  28.056  23.401  1.00  0.00     0.346 C 
ATOM     21  H   UNL A   1      26.239  29.201  22.574  1.00  0.00     0.166 HD
ATOM     22  O   UNL A   1      30.562  29.742  22.260  1.00  0.00    -0.270 OA
ATOM     23  O   UNL A   1      27.103  27.118  23.834  1.00  0.00    -0.246 OA
BRANCH  16  24
ATOM     24  C   UNL A   1      28.000  30.692  20.914  1.00  0.00     0.035 C 
ATOM     25  C   UNL A   1      27.992  32.196  20.681  1.00  0.00     0.007 C 
ENDBRANCH  16  24
ENDBRANCH  14  15
ENDBRANCH   8  13
ENDBRANCH   4   7
ENDBRANCH   2   3
ENDBRANCH   1   2
BRANCH   1  26
ATOM     26  C   UNL A   1      32.023  30.713  26.740  1.00  0.00     0.023 C 
BRANCH  26  27
ATOM     27  C   UNL A   1      33.104  31.705  27.176  1.00  0.00     0.116 C 
BRANCH  27  28
ATOM     28  N   UNL A   1      32.630  33.023  27.573  1.00  0.00    -0.352 N 
ATOM     29  C   UNL A   1      33.188  33.975  28.394  1.00  0.00     0.251 C 
ATOM     30  H   UNL A   1      31.760  33.277  27.188  1.00  0.00     0.163 HD
ATOM     31  O   UNL A   1      32.690  35.079  28.581  1.00  0.00    -0.269 OA
BRANCH  29  32
ATOM     32  C   UNL A   1      34.387  33.704  29.151  1.00  0.00     0.039 A 
ATOM     33  C   UNL A   1      34.252  32.850  30.255  1.00  0.00     0.014 A 
ATOM     34  C   UNL A   1      35.587  34.311  28.807  1.00  0.00     0.014 A 
ATOM     35  C   UNL A   1      35.374  32.513  30.976  1.00  0.00     0.010 A 
ATOM     36  C   UNL A   1      36.720  33.907  29.468  1.00  0.00     0.010 A 
ATOM     37  C   UNL A   1      36.606  32.998  30.533  1.00  0.00    -0.014 A 
BRANCH  37  38
ATOM     38  C   UNL A   1      37.844  32.534  31.148  1.00  0.00     0.031 A 
ATOM     39  C   UNL A   1      38.586  31.441  30.471  1.00  0.00     0.074 A 
ATOM     40  C   UNL A   1      38.125  33.012  32.370  1.00  0.00     0.049 A 
ATOM     41  N   UNL A   1      39.549  30.698  30.929  1.00  0.00    -0.248 NA
ATOM     42  C   UNL A   1      38.132  31.091  29.112  1.00  0.00     0.031 C 
ATOM     43  C   UNL A   1      37.353  34.046  33.070  1.00  0.00     0.029 A 
ATOM     44  N   UNL A   1      39.098  32.664  33.257  1.00  0.00    -0.354 N 
ATOM     45  C   UNL A   1      39.789  29.761  29.935  1.00  0.00     0.074 A 
ATOM     46  C   UNL A   1      38.843  30.002  28.870  1.00  0.00     0.031 C 
ATOM     47  C   UNL A   1      37.883  34.244  34.286  1.00  0.00     0.029 A 
ATOM     48  C   UNL A   1      38.995  33.321  34.457  1.00  0.00     0.049 A 
ATOM     49  H   UNL A   1      39.805  32.009  33.057  1.00  0.00     0.167 HD
ATOM     50  C   UNL A   1      40.731  28.793  29.940  1.00  0.00     0.037 A 
ATOM     51  C   UNL A   1      39.721  33.159  35.574  1.00  0.00     0.037 A 
ATOM     52  C   UNL A   1      41.642  28.623  31.040  1.00  0.00     0.049 A 
ATOM     53  C   UNL A   1      40.814  32.134  35.523  1.00  0.00     0.074 A 
ATOM     54  C   UNL A   1      42.691  27.739  31.178  1.00  0.00     0.029 A 
ATOM     55  N   UNL A   1      41.595  29.381  32.210  1.00  0.00    -0.354 N 
ATOM     56  N   UNL A   1      41.096  31.283  34.560  1.00  0.00    -0.248 NA
ATOM     57  C   UNL A   1      41.700  32.051  36.684  1.00  0.00     0.031 C 
ATOM     58  C   UNL A   1      43.258  27.941  32.443  1.00  0.00     0.029 A 
ATOM     59  C   UNL A   1      42.593  28.981  33.080  1.00  0.00     0.049 A 
ATOM     60  H   UNL A   1      40.945  30.098  32.391  1.00  0.00     0.167 HD
ATOM     61  C   UNL A   1      42.198  30.567  34.990  1.00  0.00     0.074 A 
ATOM     62  C   UNL A   1      42.544  31.105  36.296  1.00  0.00     0.031 C 
ATOM     63  C   UNL A   1      42.869  29.560  34.374  1.00  0.00     0.037 A 
BRANCH  50  64
ATOM     64  C   UNL A   1      40.771  27.873  28.754  1.00  0.00     0.064 A 
ATOM     65  C   UNL A   1      41.570  28.145  27.630  1.00  0.00     0.173 A 
ATOM     66  C   UNL A   1      39.945  26.741  28.704  1.00  0.00     0.173 A 
ATOM     67  F   UNL A   1      42.363  29.228  27.611  1.00  0.00    -0.203 F 
ATOM     68  C   UNL A   1      41.498  27.354  26.485  1.00  0.00     0.198 A 
ATOM     69  C   UNL A   1      39.902  25.931  27.570  1.00  0.00     0.198 A 
ATOM     70  F   UNL A   1      39.156  26.431  29.742  1.00  0.00    -0.203 F 
ATOM     71  F   UNL A   1      42.206  27.688  25.397  1.00  0.00    -0.200 F 
ATOM     72  C   UNL A   1      40.666  26.247  26.456  1.00  0.00     0.200 A 
ATOM     73  F   UNL A   1      39.102  24.856  27.545  1.00  0.00    -0.200 F 
ATOM     74  F   UNL A   1      40.586  25.496  25.350  1.00  0.00    -0.200 F 
ENDBRANCH  50  64
BRANCH  51  75
ATOM     75  C   UNL A   1      39.450  34.018  36.751  1.00  0.00     0.064 A 
ATOM     76  C   UNL A   1      38.694  33.535  37.827  1.00  0.00     0.173 A 
ATOM     77  C   UNL A   1      40.033  35.288  36.882  1.00  0.00     0.173 A 
ATOM     78  F   UNL A   1      38.122  32.325  37.753  1.00  0.00    -0.203 F 
ATOM     79  C   UNL A   1      38.527  34.291  38.988  1.00  0.00     0.198 A 
ATOM     80  C   UNL A   1      39.882  36.033  38.052  1.00  0.00     0.198 A 
ATOM     81  F   UNL A   1      40.792  35.784  35.895  1.00  0.00    -0.203 F 
ATOM     82  F   UNL A   1      37.792  33.807  39.998  1.00  0.00    -0.200 F 
ATOM     83  C   UNL A   1      39.129  35.535  39.103  1.00  0.00     0.200 A 
ATOM     84  F   UNL A   1      40.489  37.223  38.170  1.00  0.00    -0.200 F 
ATOM     85  F   UNL A   1      38.990  36.248  40.228  1.00  0.00    -0.200 F 
ENDBRANCH  51  75
BRANCH  63  86
ATOM     86  C   UNL A   1      44.037  29.000  35.121  1.00  0.00     0.064 A 
ATOM     87  C   UNL A   1      43.879  27.954  36.040  1.00  0.00     0.173 A 
ATOM     88  C   UNL A   1      45.328  29.487  34.878  1.00  0.00     0.173 A 
ATOM     89  F   UNL A   1      42.657  27.474  36.315  1.00  0.00    -0.203 F 
ATOM     90  C   UNL A   1      44.978  27.428  36.710  1.00  0.00     0.198 A 
ATOM     91  C   UNL A   1      46.427  28.937  35.526  1.00  0.00     0.198 A 
ATOM     92  F   UNL A   1      45.522  30.484  34.001  1.00  0.00    -0.203 F 
ATOM     93  F   UNL A   1      44.804  26.459  37.619  1.00  0.00    -0.200 F 
ATOM     94  C   UNL A   1      46.251  27.913  36.446  1.00  0.00     0.200 A 
ATOM     95  F   UNL A   1      47.658  29.398  35.262  1.00  0.00    -0.200 F 
ATOM     96  F   UNL A   1      47.309  27.398  37.084  1.00  0.00    -0.200 F 
ENDBRANCH  63  86
ENDBRANCH  37  38
ENDBRANCH  29  32
ENDBRANCH  27  28
ENDBRANCH  26  27
ENDBRANCH   1  26
TORSDOF 14
ENDMDL
MODEL 2
REMARK VINA RESULT:     -12.9      1.458      3.792
REMARK SMILES CC[C@@]1(C)NC(=O)N(/N=C/c2ccccc2C(=O)NCCCCNC(=O)c2ccc(-c3c4nc(c(-c5c(F)c(F)c(F)c(F)c5F)c5ccc([nH]5)c(-c5c(F)c(F)c(F)c(F)c5F)c5nc(c(-c6c(F)c(F)c(F)c(F)c6F)c6ccc3[nH]6)C=C5)C=C4)cc2)C1=O
REMARK SMILES IDX 21 1 20 2 19 3 17 4 18 5 16 7 11 8 12 9 13 10 15 11 14 12
REMARK SMILES IDX 10 13 9 14 8 15 3 16 4 17 5 18 90 19 6 20 91 22 7 23 2 24
REMARK SMILES IDX 1 25 22 26 23 27 24 28 25 29 26 31 27 32 28 33 89 34 29 35
REMARK SMILES IDX 88 36 30 37 31 38 32 39 82 40 33 41 87 42 81 43 83 44 34 45
REMARK SMILES IDX 86 46 80 47 79 48 35 50 67 51 47 52 66 53 48 54 51 55 65 56
REMARK SMILES IDX 84 57 49 58 50 59 64 61 85 62 52 63 36 64 37 65 45 66 38 67
REMARK SMILES IDX 39 68 43 69 46 70 40 71 41 72 44 73 42 74 68 75 69 76 77 77
REMARK SMILES IDX 70 78 71 79 75 80 78 81 72 82 73 83 76 84 74 85 53 86 54 87
REMARK SMILES IDX 62 88 55 89 56 90 60 91 63 92 57 93 58 94 61 95 59 96
REMARK H PARENT 19 6 5 21 24 30 83 49 51 60
REMARK Flexibility Score: inf
ROOT
ATOM      1  C   UNL A   1      31.858  29.774  26.817  1.00  0.00     0.023 C 
ENDROOT
BRANCH   1   2
ATOM      2  C   UNL A   1      33.167  29.048  26.550  1.00  0.00     0.116 C 
BRANCH   2   3
ATOM      3  N   UNL A   1      33.577  28.956  25.179  1.00  0.00    -0.352 N 
ATOM      4  C   UNL A   1      32.867  28.768  24.019  1.00  0.00     0.251 C 
ATOM      5  O   UNL A   1      33.524  28.961  22.987  1.00  0.00    -0.269 OA
ATOM      6  H   UNL A   1      34.548  29.045  25.045  1.00  0.00     0.163 HD
BRANCH   4   7
ATOM      7  C   UNL A   1      31.456  28.263  23.857  1.00  0.00     0.048 A 
ATOM      8  C   UNL A   1      30.860  27.016  24.113  1.00  0.00     0.007 A 
ATOM      9  C   UNL A   1      29.479  26.807  23.882  1.00  0.00     0.010 A 
ATOM     10  C   UNL A   1      28.663  27.824  23.400  1.00  0.00     0.001 A 
ATOM     11  C   UNL A   1      30.586  29.271  23.358  1.00  0.00     0.014 A 
ATOM     12  C   UNL A   1      29.220  29.060  23.130  1.00  0.00     0.001 A 
BRANCH   8  13
ATOM     13  C   UNL A   1      31.504  25.773  24.548  1.00  0.00     0.143 C 
ATOM     14  N   UNL A   1      30.866  24.672  24.733  1.00  0.00    -0.169 NA
BRANCH  14  15
ATOM     15  N   UNL A   1      31.547  23.580  25.237  1.00  0.00    -0.146 N 
ATOM     16  C   UNL A   1      33.120  21.894  25.827  1.00  0.00     0.120 C 
ATOM     17  C   UNL A   1      32.734  20.499  25.330  1.00  0.00     0.045 C 
ATOM     18  N   UNL A   1      32.195  22.228  26.871  1.00  0.00    -0.322 N 
ATOM     19  C   UNL A   1      32.719  22.971  24.793  1.00  0.00     0.276 C 
ATOM     20  C   UNL A   1      31.224  23.120  26.492  1.00  0.00     0.346 C 
ATOM     21  H   UNL A   1      32.252  21.851  27.778  1.00  0.00     0.166 HD
ATOM     22  O   UNL A   1      33.358  23.189  23.770  1.00  0.00    -0.270 OA
ATOM     23  O   UNL A   1      30.337  23.503  27.250  1.00  0.00    -0.246 OA
BRANCH  16  24
ATOM     24  C   UNL A   1      34.620  21.867  26.207  1.00  0.00     0.035 C 
ATOM     25  C   UNL A   1      35.607  21.053  25.381  1.00  0.00     0.007 C 
ENDBRANCH  16  24
ENDBRANCH  14  15
ENDBRANCH   8  13
ENDBRANCH   4   7
ENDBRANCH   2   3
ENDBRANCH   1   2
BRANCH   1  26
ATOM     26  C   UNL A   1      31.796  31.285  26.608  1.00  0.00     0.023 C 
BRANCH  26  27
ATOM     27  C   UNL A   1      32.894  32.171  27.200  1.00  0.00     0.116 C 
BRANCH  27  28
ATOM     28  N   UNL A   1      32.470  33.492  27.644  1.00  0.00    -0.352 N 
ATOM     29  C   UNL A   1      33.071  34.399  28.485  1.00  0.00     0.251 C 
ATOM     30  H   UNL A   1      31.603  33.785  27.281  1.00  0.00     0.163 HD
ATOM     31  O   UNL A   1      32.613  35.513  28.713  1.00  0.00    -0.269 OA
BRANCH  29  32
ATOM     32  C   UNL A   1      34.272  34.066  29.214  1.00  0.00     0.039 A 
ATOM     33  C   UNL A   1      34.101  33.366  30.417  1.00  0.00     0.014 A 
ATOM     34  C   UNL A   1      35.514  34.473  28.746  1.00  0.00     0.014 A 
ATOM     35  C   UNL A   1      35.215  32.974  31.122  1.00  0.00     0.010 A 
ATOM     36  C   UNL A   1      36.627  34.006  29.399  1.00  0.00     0.010 A 
ATOM     37  C   UNL A   1      36.468  33.246  30.569  1.00  0.00    -0.014 A 
BRANCH  37  38
ATOM     38  C   UNL A   1      37.676  32.702  31.178  1.00  0.00     0.031 A 
ATOM     39  C   UNL A   1      38.353  31.576  30.487  1.00  0.00     0.074 A 
ATOM     40  C   UNL A   1      37.983  33.146  32.406  1.00  0.00     0.049 A 
ATOM     41  N   UNL A   1      39.270  30.771  30.936  1.00  0.00    -0.248 NA
ATOM     42  C   UNL A   1      37.881  31.271  29.124  1.00  0.00     0.031 C 
ATOM     43  C   UNL A   1      37.273  34.214  33.120  1.00  0.00     0.029 A 
ATOM     44  N   UNL A   1      38.933  32.730  33.290  1.00  0.00    -0.354 N 
ATOM     45  C   UNL A   1      39.456  29.835  29.930  1.00  0.00     0.074 A 
ATOM     46  C   UNL A   1      38.527  30.145  28.867  1.00  0.00     0.031 C 
ATOM     47  C   UNL A   1      37.811  34.365  34.338  1.00  0.00     0.029 A 
ATOM     48  C   UNL A   1      38.867  33.376  34.498  1.00  0.00     0.049 A 
ATOM     49  H   UNL A   1      39.600  32.037  33.081  1.00  0.00     0.167 HD
ATOM     50  C   UNL A   1      40.339  28.813  29.922  1.00  0.00     0.037 A 
ATOM     51  C   UNL A   1      39.580  33.156  35.614  1.00  0.00     0.037 A 
ATOM     52  C   UNL A   1      41.237  28.575  31.021  1.00  0.00     0.049 A 
ATOM     53  C   UNL A   1      40.611  32.069  35.549  1.00  0.00     0.074 A 
ATOM     54  C   UNL A   1      42.232  27.629  31.147  1.00  0.00     0.029 A 
ATOM     55  N   UNL A   1      41.233  29.319  32.201  1.00  0.00    -0.354 N 
ATOM     56  N   UNL A   1      40.844  31.216  34.576  1.00  0.00    -0.248 NA
ATOM     57  C   UNL A   1      41.489  31.919  36.710  1.00  0.00     0.031 C 
ATOM     58  C   UNL A   1      42.808  27.780  32.416  1.00  0.00     0.029 A 
ATOM     59  C   UNL A   1      42.204  28.849  33.066  1.00  0.00     0.049 A 
ATOM     60  H   UNL A   1      40.626  30.071  32.391  1.00  0.00     0.167 HD
ATOM     61  C   UNL A   1      41.901  30.431  34.996  1.00  0.00     0.074 A 
ATOM     62  C   UNL A   1      42.277  30.930  36.310  1.00  0.00     0.031 C 
ATOM     63  C   UNL A   1      42.513  29.394  34.368  1.00  0.00     0.037 A 
BRANCH  50  64
ATOM     64  C   UNL A   1      40.326  27.908  28.725  1.00  0.00     0.064 A 
ATOM     65  C   UNL A   1      39.631  26.686  28.725  1.00  0.00     0.173 A 
ATOM     66  C   UNL A   1      41.079  28.224  27.585  1.00  0.00     0.173 A 
ATOM     67  F   UNL A   1      38.913  26.318  29.798  1.00  0.00    -0.203 F 
ATOM     68  C   UNL A   1      39.735  25.796  27.658  1.00  0.00     0.198 A 
ATOM     69  C   UNL A   1      41.153  27.348  26.504  1.00  0.00     0.198 A 
ATOM     70  F   UNL A   1      41.769  29.373  27.527  1.00  0.00    -0.203 F 
ATOM     71  F   UNL A   1      39.132  24.601  27.723  1.00  0.00    -0.200 F 
ATOM     72  C   UNL A   1      40.493  26.128  26.548  1.00  0.00     0.200 A 
ATOM     73  F   UNL A   1      41.882  27.672  25.427  1.00  0.00    -0.200 F 
ATOM     74  F   UNL A   1      40.606  25.266  25.528  1.00  0.00    -0.200 F 
ENDBRANCH  50  64
BRANCH  51  75
ATOM     75  C   UNL A   1      39.359  34.014  36.802  1.00  0.00     0.064 A 
ATOM     76  C   UNL A   1      38.631  33.537  37.900  1.00  0.00     0.173 A 
ATOM     77  C   UNL A   1      39.964  35.276  36.919  1.00  0.00     0.173 A 
ATOM     78  F   UNL A   1      38.040  32.335  37.839  1.00  0.00    -0.203 F 
ATOM     79  C   UNL A   1      38.511  34.290  39.068  1.00  0.00     0.198 A 
ATOM     80  C   UNL A   1      39.861  36.018  38.095  1.00  0.00     0.198 A 
ATOM     81  F   UNL A   1      40.697  35.765  35.910  1.00  0.00    -0.203 F 
ATOM     82  F   UNL A   1      37.802  33.813  40.099  1.00  0.00    -0.200 F 
ATOM     83  C   UNL A   1      39.134  35.526  39.168  1.00  0.00     0.200 A 
ATOM     84  F   UNL A   1      40.487  37.198  38.198  1.00  0.00    -0.200 F 
ATOM     85  F   UNL A   1      39.040  36.236  40.300  1.00  0.00    -0.200 F 
ENDBRANCH  51  75
BRANCH  63  86
ATOM     86  C   UNL A   1      43.644  28.757  35.108  1.00  0.00     0.064 A 
ATOM     87  C   UNL A   1      44.967  29.181  34.921  1.00  0.00     0.173 A 
ATOM     88  C   UNL A   1      43.393  27.745  36.045  1.00  0.00     0.173 A 
ATOM     89  F   UNL A   1      45.250  30.133  34.019  1.00  0.00    -0.203 F 
ATOM     90  C   UNL A   1      46.005  28.595  35.635  1.00  0.00     0.198 A 
ATOM     91  C   UNL A   1      44.431  27.184  36.779  1.00  0.00     0.198 A 
ATOM     92  F   UNL A   1      42.139  27.315  36.257  1.00  0.00    -0.203 F 
ATOM     93  F   UNL A   1      47.269  28.981  35.411  1.00  0.00    -0.200 F 
ATOM     94  C   UNL A   1      45.736  27.604  36.569  1.00  0.00     0.200 A 
ATOM     95  F   UNL A   1      44.169  26.236  37.689  1.00  0.00    -0.200 F 
ATOM     96  F   UNL A   1      46.737  27.049  37.263  1.00  0.00    -0.200 F 
ENDBRANCH  63  86
ENDBRANCH  37  38
ENDBRANCH  29  32
ENDBRANCH  27  28
ENDBRANCH  26  27
ENDBRANCH   1  26
TORSDOF 14
ENDMDL
MODEL 3
REMARK VINA RESULT:     -12.8      5.543     10.738
REMARK SMILES CC[C@@]1(C)NC(=O)N(/N=C/c2ccccc2C(=O)NCCCCNC(=O)c2ccc(-c3c4nc(c(-c5c(F)c(F)c(F)c(F)c5F)c5ccc([nH]5)c(-c5c(F)c(F)c(F)c(F)c5F)c5nc(c(-c6c(F)c(F)c(F)c(F)c6F)c6ccc3[nH]6)C=C5)C=C4)cc2)C1=O
REMARK SMILES IDX 21 1 20 2 19 3 17 4 18 5 16 7 11 8 12 9 13 10 15 11 14 12
REMARK SMILES IDX 10 13 9 14 8 15 3 16 4 17 5 18 90 19 6 20 91 22 7 23 2 24
REMARK SMILES IDX 1 25 22 26 23 27 24 28 25 29 26 31 27 32 28 33 89 34 29 35
REMARK SMILES IDX 88 36 30 37 31 38 32 39 82 40 33 41 87 42 81 43 83 44 34 45
REMARK SMILES IDX 86 46 80 47 79 48 35 50 67 51 47 52 66 53 48 54 51 55 65 56
REMARK SMILES IDX 84 57 49 58 50 59 64 61 85 62 52 63 36 64 37 65 45 66 38 67
REMARK SMILES IDX 39 68 43 69 46 70 40 71 41 72 44 73 42 74 68 75 69 76 77 77
REMARK SMILES IDX 70 78 71 79 75 80 78 81 72 82 73 83 76 84 74 85 53 86 54 87
REMARK SMILES IDX 62 88 55 89 56 90 60 91 63 92 57 93 58 94 61 95 59 96
REMARK H PARENT 19 6 5 21 24 30 83 49 51 60
REMARK Flexibility Score: inf
ROOT
ATOM      1  C   UNL A   1      36.974  21.763  24.468  1.00  0.00     0.023 C 
ENDROOT
BRANCH   1   2
ATOM      2  C   UNL A   1      36.608  22.832  25.486  1.00  0.00     0.116 C 
BRANCH   2   3
ATOM      3  N   UNL A   1      35.645  22.460  26.481  1.00  0.00    -0.352 N 
ATOM      4  C   UNL A   1      34.468  21.758  26.404  1.00  0.00     0.251 C 
ATOM      5  O   UNL A   1      33.999  21.433  27.503  1.00  0.00    -0.269 OA
ATOM      6  H   UNL A   1      35.870  22.766  27.389  1.00  0.00     0.163 HD
BRANCH   4   7
ATOM      7  C   UNL A   1      33.647  21.439  25.180  1.00  0.00     0.048 A 
ATOM      8  C   UNL A   1      33.029  22.253  24.215  1.00  0.00     0.007 A 
ATOM      9  C   UNL A   1      32.315  21.686  23.132  1.00  0.00     0.010 A 
ATOM     10  C   UNL A   1      32.202  20.309  22.981  1.00  0.00     0.001 A 
ATOM     11  C   UNL A   1      33.500  20.038  24.989  1.00  0.00     0.014 A 
ATOM     12  C   UNL A   1      32.792  19.481  23.918  1.00  0.00     0.001 A 
BRANCH   8  13
ATOM     13  C   UNL A   1      32.935  23.716  24.184  1.00  0.00     0.143 C 
ATOM     14  N   UNL A   1      32.184  24.361  23.364  1.00  0.00    -0.169 NA
BRANCH  14  15
ATOM     15  N   UNL A   1      32.239  25.742  23.350  1.00  0.00    -0.146 N 
ATOM     16  C   UNL A   1      32.241  28.072  23.839  1.00  0.00     0.120 C 
ATOM     17  C   UNL A   1      31.111  28.840  23.152  1.00  0.00     0.045 C 
ATOM     18  N   UNL A   1      33.160  27.685  22.809  1.00  0.00    -0.322 N 
ATOM     19  C   UNL A   1      31.759  26.667  24.275  1.00  0.00     0.276 C 
ATOM     20  C   UNL A   1      33.079  26.361  22.455  1.00  0.00     0.346 C 
ATOM     21  H   UNL A   1      33.793  28.312  22.392  1.00  0.00     0.166 HD
ATOM     22  O   UNL A   1      31.064  26.475  25.265  1.00  0.00    -0.270 OA
ATOM     23  O   UNL A   1      33.776  25.861  21.576  1.00  0.00    -0.246 OA
BRANCH  16  24
ATOM     24  C   UNL A   1      32.801  28.960  24.976  1.00  0.00     0.035 C 
ATOM     25  C   UNL A   1      31.950  30.075  25.569  1.00  0.00     0.007 C 
ENDBRANCH  16  24
ENDBRANCH  14  15
ENDBRANCH   8  13
ENDBRANCH   4   7
ENDBRANCH   2   3
ENDBRANCH   1   2
BRANCH   1  26
ATOM     26  C   UNL A   1      37.713  20.515  24.942  1.00  0.00     0.023 C 
BRANCH  26  27
ATOM     27  C   UNL A   1      38.948  20.665  25.833  1.00  0.00     0.116 C 
BRANCH  27  28
ATOM     28  N   UNL A   1      39.940  19.605  25.725  1.00  0.00    -0.352 N 
ATOM     29  C   UNL A   1      41.281  19.587  26.029  1.00  0.00     0.251 C 
ATOM     30  H   UNL A   1      39.591  18.755  25.372  1.00  0.00     0.163 HD
ATOM     31  O   UNL A   1      41.978  18.582  25.942  1.00  0.00    -0.269 OA
BRANCH  29  32
ATOM     32  C   UNL A   1      41.979  20.790  26.418  1.00  0.00     0.039 A 
ATOM     33  C   UNL A   1      42.300  21.689  25.391  1.00  0.00     0.014 A 
ATOM     34  C   UNL A   1      42.342  20.993  27.742  1.00  0.00     0.014 A 
ATOM     35  C   UNL A   1      42.913  22.876  25.714  1.00  0.00     0.010 A 
ATOM     36  C   UNL A   1      42.873  22.214  28.078  1.00  0.00     0.010 A 
ATOM     37  C   UNL A   1      43.136  23.151  27.065  1.00  0.00    -0.014 A 
BRANCH  37  38
ATOM     38  C   UNL A   1      43.619  24.462  27.480  1.00  0.00     0.031 A 
ATOM     39  C   UNL A   1      42.628  25.422  28.030  1.00  0.00     0.074 A 
ATOM     40  C   UNL A   1      44.889  24.762  27.170  1.00  0.00     0.049 A 
ATOM     41  N   UNL A   1      42.750  26.701  28.230  1.00  0.00    -0.248 NA
ATOM     42  C   UNL A   1      41.292  24.877  28.333  1.00  0.00     0.031 C 
ATOM     43  C   UNL A   1      45.851  23.834  26.563  1.00  0.00     0.029 A 
ATOM     44  N   UNL A   1      45.576  25.933  27.274  1.00  0.00    -0.354 N 
ATOM     45  C   UNL A   1      41.495  27.125  28.639  1.00  0.00     0.074 A 
ATOM     46  C   UNL A   1      40.617  25.978  28.617  1.00  0.00     0.031 C 
ATOM     47  C   UNL A   1      47.006  24.478  26.343  1.00  0.00     0.029 A 
ATOM     48  C   UNL A   1      46.843  25.865  26.752  1.00  0.00     0.049 A 
ATOM     49  H   UNL A   1      45.202  26.746  27.684  1.00  0.00     0.167 HD
ATOM     50  C   UNL A   1      41.136  28.377  28.998  1.00  0.00     0.037 A 
ATOM     51  C   UNL A   1      47.751  26.842  26.608  1.00  0.00     0.037 A 
ATOM     52  C   UNL A   1      42.076  29.467  28.999  1.00  0.00     0.049 A 
ATOM     53  C   UNL A   1      47.355  28.205  27.093  1.00  0.00     0.074 A 
ATOM     54  C   UNL A   1      41.895  30.776  29.394  1.00  0.00     0.029 A 
ATOM     55  N   UNL A   1      43.398  29.351  28.572  1.00  0.00    -0.354 N 
ATOM     56  N   UNL A   1      46.188  28.607  27.545  1.00  0.00    -0.248 NA
ATOM     57  C   UNL A   1      48.388  29.241  27.071  1.00  0.00     0.031 C 
ATOM     58  C   UNL A   1      43.099  31.459  29.175  1.00  0.00     0.029 A 
ATOM     59  C   UNL A   1      44.046  30.568  28.687  1.00  0.00     0.049 A 
ATOM     60  H   UNL A   1      43.812  28.523  28.237  1.00  0.00     0.167 HD
ATOM     61  C   UNL A   1      46.342  29.941  27.875  1.00  0.00     0.074 A 
ATOM     62  C   UNL A   1      47.729  30.271  27.587  1.00  0.00     0.031 C 
ATOM     63  C   UNL A   1      45.432  30.821  28.368  1.00  0.00     0.037 A 
BRANCH  50  64
ATOM     64  C   UNL A   1      39.699  28.596  29.372  1.00  0.00     0.064 A 
ATOM     65  C   UNL A   1      38.756  29.077  28.447  1.00  0.00     0.173 A 
ATOM     66  C   UNL A   1      39.267  28.394  30.691  1.00  0.00     0.173 A 
ATOM     67  F   UNL A   1      39.118  29.313  27.176  1.00  0.00    -0.203 F 
ATOM     68  C   UNL A   1      37.459  29.400  28.839  1.00  0.00     0.198 A 
ATOM     69  C   UNL A   1      37.959  28.684  31.073  1.00  0.00     0.198 A 
ATOM     70  F   UNL A   1      40.121  27.941  31.621  1.00  0.00    -0.203 F 
ATOM     71  F   UNL A   1      36.608  29.940  27.956  1.00  0.00    -0.200 F 
ATOM     72  C   UNL A   1      37.060  29.201  30.151  1.00  0.00     0.200 A 
ATOM     73  F   UNL A   1      37.572  28.486  32.341  1.00  0.00    -0.200 F 
ATOM     74  F   UNL A   1      35.818  29.526  30.532  1.00  0.00    -0.200 F 
ENDBRANCH  50  64
BRANCH  51  75
ATOM     75  C   UNL A   1      49.084  26.522  26.046  1.00  0.00     0.064 A 
ATOM     76  C   UNL A   1      49.409  26.882  24.731  1.00  0.00     0.173 A 
ATOM     77  C   UNL A   1      50.099  25.960  26.837  1.00  0.00     0.173 A 
ATOM     78  F   UNL A   1      48.476  27.429  23.938  1.00  0.00    -0.203 F 
ATOM     79  C   UNL A   1      50.695  26.689  24.226  1.00  0.00     0.198 A 
ATOM     80  C   UNL A   1      51.390  25.786  26.337  1.00  0.00     0.198 A 
ATOM     81  F   UNL A   1      49.851  25.626  28.110  1.00  0.00    -0.203 F 
ATOM     82  F   UNL A   1      50.975  27.036  22.963  1.00  0.00    -0.200 F 
ATOM     83  C   UNL A   1      51.687  26.149  25.033  1.00  0.00     0.200 A 
ATOM     84  F   UNL A   1      52.352  25.292  27.128  1.00  0.00    -0.200 F 
ATOM     85  F   UNL A   1      52.928  25.990  24.555  1.00  0.00    -0.200 F 
ENDBRANCH  51  75
BRANCH  63  86
ATOM     86  C   UNL A   1      45.934  32.206  28.622  1.00  0.00     0.064 A 
ATOM     87  C   UNL A   1      45.861  33.199  27.636  1.00  0.00     0.173 A 
ATOM     88  C   UNL A   1      46.449  32.549  29.879  1.00  0.00     0.173 A 
ATOM     89  F   UNL A   1      45.392  32.905  26.413  1.00  0.00    -0.203 F 
ATOM     90  C   UNL A   1      46.310  34.488  27.895  1.00  0.00     0.198 A 
ATOM     91  C   UNL A   1      46.868  33.848  30.143  1.00  0.00     0.198 A 
ATOM     92  F   UNL A   1      46.531  31.629  30.852  1.00  0.00    -0.203 F 
ATOM     93  F   UNL A   1      46.274  35.414  26.926  1.00  0.00    -0.200 F 
ATOM     94  C   UNL A   1      46.804  34.814  29.150  1.00  0.00     0.200 A 
ATOM     95  F   UNL A   1      47.334  34.164  31.359  1.00  0.00    -0.200 F 
ATOM     96  F   UNL A   1      47.226  36.059  29.401  1.00  0.00    -0.200 F 
ENDBRANCH  63  86
ENDBRANCH  37  38
ENDBRANCH  29  32
ENDBRANCH  27  28
ENDBRANCH  26  27
ENDBRANCH   1  26
TORSDOF 14
ENDMDL
