MODEL 1
REMARK VINA RESULT:     -13.3      0.000      0.000
REMARK SMILES O=C(NCCCCNC(=O)c1ccc(-c2c3nc(c(-c4c(F)c(F)c(F)c(F)c4F)c4ccc([nH]4)c(-c4c(F)c(F)c(F)c(F)c4F)c4nc(c(-c5c(F)c(F)c(F)c(F)c5F)c5ccc2[nH]5)C=C4)C=C3)cc1)c1ccc(C[C@H]2SC(=O)N(c3ccccc3)C2=O)cc1
REMARK SMILES IDX 5 1 4 2 3 3 1 4 2 5 74 7 75 8 93 9 76 10 92 11 77 12 78 13
REMARK SMILES IDX 79 14 80 15 90 16 81 17 83 18 91 19 82 20 84 21 85 22 89 23
REMARK SMILES IDX 86 24 88 25 87 26 6 27 7 28 8 29 9 30 10 32 11 33 12 34
REMARK SMILES IDX 73 35 13 36 72 37 14 38 15 39 16 40 66 41 17 42 71 43 65 44
REMARK SMILES IDX 67 45 18 46 70 47 64 48 63 49 19 51 51 52 31 53 50 54 32 55
REMARK SMILES IDX 35 56 49 57 68 58 33 59 34 60 48 62 69 63 36 64 20 65 21 66
REMARK SMILES IDX 29 67 22 68 23 69 27 70 30 71 24 72 25 73 28 74 26 75 52 76
REMARK SMILES IDX 53 77 61 78 54 79 55 80 59 81 62 82 56 83 57 84 60 85 58 86
REMARK SMILES IDX 37 87 38 88 46 89 39 90 40 91 44 92 47 93 41 94 42 95 45 96
REMARK SMILES IDX 43 97
REMARK H PARENT 3 6 8 31 67 50 35 61
REMARK Flexibility Score: inf
ROOT
ATOM      1  C   UNL A   1      31.721  30.539  26.615  1.00  0.00     0.023 C 
ENDROOT
BRANCH   1   2
ATOM      2  C   UNL A   1      33.098  30.124  26.104  1.00  0.00     0.116 C 
BRANCH   2   3
ATOM      3  N   UNL A   1      33.089  29.791  24.687  1.00  0.00    -0.352 N 
ATOM      4  O   UNL A   1      33.091  28.412  22.892  1.00  0.00    -0.269 OA
ATOM      5  C   UNL A   1      32.931  28.558  24.098  1.00  0.00     0.251 C 
ATOM      6  H   UNL A   1      33.213  30.547  24.069  1.00  0.00     0.163 HD
BRANCH   5   7
ATOM      7  C   UNL A   1      32.589  27.403  24.950  1.00  0.00     0.039 A 
ATOM      8  C   UNL A   1      33.602  26.651  25.547  1.00  0.00     0.014 A 
ATOM      9  C   UNL A   1      31.250  27.041  25.102  1.00  0.00     0.014 A 
ATOM     10  C   UNL A   1      33.278  25.470  26.211  1.00  0.00     0.004 A 
ATOM     11  C   UNL A   1      30.931  25.850  25.760  1.00  0.00     0.004 A 
ATOM     12  C   UNL A   1      31.946  25.033  26.283  1.00  0.00    -0.046 A 
BRANCH  12  13
ATOM     13  C   UNL A   1      31.620  23.685  26.890  1.00  0.00     0.060 C 
BRANCH  13  14
ATOM     14  C   UNL A   1      31.825  22.487  25.940  1.00  0.00     0.151 C 
ATOM     15  S   UNL A   1      31.778  22.933  24.184  1.00  0.00    -0.050 SA
ATOM     16  C   UNL A   1      33.220  21.930  26.151  1.00  0.00     0.248 C 
ATOM     17  C   UNL A   1      33.523  22.952  24.054  1.00  0.00     0.293 C 
ATOM     18  N   UNL A   1      34.088  22.320  25.140  1.00  0.00    -0.240 N 
ATOM     19  O   UNL A   1      33.505  21.308  27.172  1.00  0.00    -0.273 OA
ATOM     20  O   UNL A   1      34.062  23.438  23.076  1.00  0.00    -0.261 OA
BRANCH  18  21
ATOM     21  C   UNL A   1      35.492  22.082  25.213  1.00  0.00     0.053 A 
ATOM     22  C   UNL A   1      36.034  20.842  24.847  1.00  0.00     0.027 A 
ATOM     23  C   UNL A   1      36.368  23.084  25.658  1.00  0.00     0.027 A 
ATOM     24  C   UNL A   1      37.411  20.613  24.915  1.00  0.00     0.002 A 
ATOM     25  C   UNL A   1      37.741  22.844  25.759  1.00  0.00     0.002 A 
ATOM     26  C   UNL A   1      38.263  21.610  25.382  1.00  0.00     0.000 A 
ENDBRANCH  18  21
ENDBRANCH  13  14
ENDBRANCH  12  13
ENDBRANCH   5   7
ENDBRANCH   2   3
ENDBRANCH   1   2
BRANCH   1  27
ATOM     27  C   UNL A   1      31.517  32.043  26.775  1.00  0.00     0.023 C 
BRANCH  27  28
ATOM     28  C   UNL A   1      32.730  32.813  27.279  1.00  0.00     0.116 C 
BRANCH  28  29
ATOM     29  N   UNL A   1      32.423  34.189  27.641  1.00  0.00    -0.352 N 
ATOM     30  C   UNL A   1      32.992  34.982  28.611  1.00  0.00     0.251 C 
ATOM     31  H   UNL A   1      31.706  34.613  27.117  1.00  0.00     0.163 HD
ATOM     32  O   UNL A   1      32.511  36.080  28.872  1.00  0.00    -0.269 OA
BRANCH  30  33
ATOM     33  C   UNL A   1      34.166  34.493  29.366  1.00  0.00     0.039 A 
ATOM     34  C   UNL A   1      33.967  33.894  30.613  1.00  0.00     0.014 A 
ATOM     35  C   UNL A   1      35.455  34.606  28.841  1.00  0.00     0.014 A 
ATOM     36  C   UNL A   1      35.051  33.340  31.296  1.00  0.00     0.010 A 
ATOM     37  C   UNL A   1      36.519  33.978  29.481  1.00  0.00     0.010 A 
ATOM     38  C   UNL A   1      36.330  33.340  30.716  1.00  0.00    -0.014 A 
BRANCH  38  39
ATOM     39  C   UNL A   1      37.485  32.685  31.384  1.00  0.00     0.031 A 
ATOM     40  C   UNL A   1      38.168  31.515  30.732  1.00  0.00     0.074 A 
ATOM     41  C   UNL A   1      37.878  33.100  32.605  1.00  0.00     0.049 A 
ATOM     42  N   UNL A   1      39.132  30.756  31.189  1.00  0.00    -0.248 NA
ATOM     43  C   UNL A   1      37.683  31.125  29.398  1.00  0.00     0.031 C 
ATOM     44  C   UNL A   1      37.273  34.196  33.362  1.00  0.00     0.029 A 
ATOM     45  N   UNL A   1      38.872  32.636  33.432  1.00  0.00    -0.354 N 
ATOM     46  C   UNL A   1      39.355  29.796  30.210  1.00  0.00     0.074 A 
ATOM     47  C   UNL A   1      38.389  30.031  29.160  1.00  0.00     0.031 C 
ATOM     48  C   UNL A   1      37.921  34.336  34.530  1.00  0.00     0.029 A 
ATOM     49  C   UNL A   1      38.955  33.311  34.626  1.00  0.00     0.049 A 
ATOM     50  H   UNL A   1      39.469  31.891  33.191  1.00  0.00     0.167 HD
ATOM     51  C   UNL A   1      40.298  28.824  30.178  1.00  0.00     0.037 A 
ATOM     52  C   UNL A   1      39.763  33.114  35.687  1.00  0.00     0.037 A 
ATOM     53  C   UNL A   1      41.271  28.606  31.216  1.00  0.00     0.049 A 
ATOM     54  C   UNL A   1      40.785  32.009  35.634  1.00  0.00     0.074 A 
ATOM     55  C   UNL A   1      42.300  27.682  31.252  1.00  0.00     0.029 A 
ATOM     56  N   UNL A   1      41.330  29.319  32.405  1.00  0.00    -0.354 N 
ATOM     57  N   UNL A   1      41.032  31.152  34.674  1.00  0.00    -0.248 NA
ATOM     58  C   UNL A   1      41.647  31.847  36.815  1.00  0.00     0.031 C 
ATOM     59  C   UNL A   1      42.945  27.794  32.488  1.00  0.00     0.029 A 
ATOM     60  C   UNL A   1      42.363  28.836  33.193  1.00  0.00     0.049 A 
ATOM     61  H   UNL A   1      40.729  30.058  32.653  1.00  0.00     0.167 HD
ATOM     62  C   UNL A   1      42.098  30.378  35.115  1.00  0.00     0.074 A 
ATOM     63  C   UNL A   1      42.459  30.875  36.426  1.00  0.00     0.031 C 
ATOM     64  C   UNL A   1      42.723  29.350  34.490  1.00  0.00     0.037 A 
BRANCH  51  65
ATOM     65  C   UNL A   1      40.323  27.918  28.980  1.00  0.00     0.064 A 
ATOM     66  C   UNL A   1      41.069  28.232  27.833  1.00  0.00     0.173 A 
ATOM     67  C   UNL A   1      39.629  26.698  28.995  1.00  0.00     0.173 A 
ATOM     68  F   UNL A   1      41.743  29.389  27.760  1.00  0.00    -0.203 F 
ATOM     69  C   UNL A   1      41.093  27.374  26.736  1.00  0.00     0.198 A 
ATOM     70  C   UNL A   1      39.684  25.827  27.910  1.00  0.00     0.198 A 
ATOM     71  F   UNL A   1      38.906  26.344  30.068  1.00  0.00    -0.203 F 
ATOM     72  F   UNL A   1      41.769  27.721  25.631  1.00  0.00    -0.200 F 
ATOM     73  C   UNL A   1      40.409  26.169  26.778  1.00  0.00     0.200 A 
ATOM     74  F   UNL A   1      39.036  24.655  27.961  1.00  0.00    -0.200 F 
ATOM     75  F   UNL A   1      40.442  25.340  25.726  1.00  0.00    -0.200 F 
ENDBRANCH  51  65
BRANCH  52  76
ATOM     76  C   UNL A   1      39.653  33.989  36.885  1.00  0.00     0.064 A 
ATOM     77  C   UNL A   1      38.853  33.623  37.975  1.00  0.00     0.173 A 
ATOM     78  C   UNL A   1      40.325  35.219  36.955  1.00  0.00     0.173 A 
ATOM     79  F   UNL A   1      38.173  32.466  37.948  1.00  0.00    -0.203 F 
ATOM     80  C   UNL A   1      38.704  34.464  39.077  1.00  0.00     0.198 A 
ATOM     81  C   UNL A   1      40.202  36.043  38.072  1.00  0.00     0.198 A 
ATOM     82  F   UNL A   1      41.108  35.616  35.943  1.00  0.00    -0.203 F 
ATOM     83  F   UNL A   1      37.885  34.114  40.078  1.00  0.00    -0.200 F 
ATOM     84  C   UNL A   1      39.383  35.671  39.126  1.00  0.00     0.200 A 
ATOM     85  F   UNL A   1      40.874  37.202  38.123  1.00  0.00    -0.200 F 
ATOM     86  F   UNL A   1      39.240  36.479  40.185  1.00  0.00    -0.200 F 
ENDBRANCH  52  76
BRANCH  64  87
ATOM     87  C   UNL A   1      43.899  28.725  35.186  1.00  0.00     0.064 A 
ATOM     88  C   UNL A   1      45.209  29.186  34.992  1.00  0.00     0.173 A 
ATOM     89  C   UNL A   1      43.702  27.675  36.098  1.00  0.00     0.173 A 
ATOM     90  F   UNL A   1      45.455  30.177  34.121  1.00  0.00    -0.203 F 
ATOM     91  C   UNL A   1      46.280  28.602  35.664  1.00  0.00     0.198 A 
ATOM     92  C   UNL A   1      44.770  27.119  36.795  1.00  0.00     0.198 A 
ATOM     93  F   UNL A   1      42.468  27.202  36.327  1.00  0.00    -0.203 F 
ATOM     94  F   UNL A   1      47.529  29.025  35.423  1.00  0.00    -0.200 F 
ATOM     95  C   UNL A   1      46.059  27.577  36.571  1.00  0.00     0.200 A 
ATOM     96  F   UNL A   1      44.551  26.141  37.685  1.00  0.00    -0.200 F 
ATOM     97  F   UNL A   1      47.090  27.024  37.225  1.00  0.00    -0.200 F 
ENDBRANCH  64  87
ENDBRANCH  38  39
ENDBRANCH  30  33
ENDBRANCH  28  29
ENDBRANCH  27  28
ENDBRANCH   1  27
TORSDOF 14
ENDMDL
MODEL 2
REMARK VINA RESULT:     -13.1      1.441      2.469
REMARK SMILES O=C(NCCCCNC(=O)c1ccc(-c2c3nc(c(-c4c(F)c(F)c(F)c(F)c4F)c4ccc([nH]4)c(-c4c(F)c(F)c(F)c(F)c4F)c4nc(c(-c5c(F)c(F)c(F)c(F)c5F)c5ccc2[nH]5)C=C4)C=C3)cc1)c1ccc(C[C@H]2SC(=O)N(c3ccccc3)C2=O)cc1
REMARK SMILES IDX 5 1 4 2 3 3 1 4 2 5 74 7 75 8 93 9 76 10 92 11 77 12 78 13
REMARK SMILES IDX 79 14 80 15 90 16 81 17 83 18 91 19 82 20 84 21 85 22 89 23
REMARK SMILES IDX 86 24 88 25 87 26 6 27 7 28 8 29 9 30 10 32 11 33 12 34
REMARK SMILES IDX 73 35 13 36 72 37 14 38 15 39 16 40 66 41 17 42 71 43 65 44
REMARK SMILES IDX 67 45 18 46 70 47 64 48 63 49 19 51 51 52 31 53 50 54 32 55
REMARK SMILES IDX 35 56 49 57 68 58 33 59 34 60 48 62 69 63 36 64 20 65 21 66
REMARK SMILES IDX 29 67 22 68 23 69 27 70 30 71 24 72 25 73 28 74 26 75 52 76
REMARK SMILES IDX 53 77 61 78 54 79 55 80 59 81 62 82 56 83 57 84 60 85 58 86
REMARK SMILES IDX 37 87 38 88 46 89 39 90 40 91 44 92 47 93 41 94 42 95 45 96
REMARK SMILES IDX 43 97
REMARK H PARENT 3 6 8 31 67 50 35 61
REMARK Flexibility Score: inf
ROOT
ATOM      1  C   UNL A   1      31.742  30.226  26.449  1.00  0.00     0.023 C 
ENDROOT
BRANCH   1   2
ATOM      2  C   UNL A   1      31.975  29.683  25.042  1.00  0.00     0.116 C 
BRANCH   2   3
ATOM      3  N   UNL A   1      30.775  29.728  24.221  1.00  0.00    -0.352 N 
ATOM      4  O   UNL A   1      29.239  28.922  22.766  1.00  0.00    -0.269 OA
ATOM      5  C   UNL A   1      30.167  28.702  23.534  1.00  0.00     0.251 C 
ATOM      6  H   UNL A   1      30.340  30.608  24.146  1.00  0.00     0.163 HD
BRANCH   5   7
ATOM      7  C   UNL A   1      30.671  27.328  23.721  1.00  0.00     0.039 A 
ATOM      8  C   UNL A   1      31.238  26.640  22.648  1.00  0.00     0.014 A 
ATOM      9  C   UNL A   1      30.520  26.710  24.962  1.00  0.00     0.014 A 
ATOM     10  C   UNL A   1      31.558  25.292  22.790  1.00  0.00     0.004 A 
ATOM     11  C   UNL A   1      30.832  25.354  25.097  1.00  0.00     0.004 A 
ATOM     12  C   UNL A   1      31.314  24.623  23.999  1.00  0.00    -0.046 A 
BRANCH  12  13
ATOM     13  C   UNL A   1      31.541  23.130  24.102  1.00  0.00     0.060 C 
BRANCH  13  14
ATOM     14  C   UNL A   1      32.869  22.639  23.488  1.00  0.00     0.151 C 
ATOM     15  S   UNL A   1      34.326  23.036  24.491  1.00  0.00    -0.050 SA
ATOM     16  C   UNL A   1      32.849  21.123  23.434  1.00  0.00     0.248 C 
ATOM     17  C   UNL A   1      34.395  21.428  25.180  1.00  0.00     0.293 C 
ATOM     18  N   UNL A   1      33.615  20.562  24.447  1.00  0.00    -0.240 N 
ATOM     19  O   UNL A   1      32.133  20.529  22.631  1.00  0.00    -0.273 OA
ATOM     20  O   UNL A   1      35.102  21.204  26.146  1.00  0.00    -0.261 OA
BRANCH  18  21
ATOM     21  C   UNL A   1      33.603  19.163  24.719  1.00  0.00     0.053 A 
ATOM     22  C   UNL A   1      34.626  18.327  24.250  1.00  0.00     0.027 A 
ATOM     23  C   UNL A   1      32.561  18.586  25.462  1.00  0.00     0.027 A 
ATOM     24  C   UNL A   1      34.613  16.956  24.523  1.00  0.00     0.002 A 
ATOM     25  C   UNL A   1      32.531  17.210  25.705  1.00  0.00     0.002 A 
ATOM     26  C   UNL A   1      33.559  16.396  25.241  1.00  0.00     0.000 A 
ENDBRANCH  18  21
ENDBRANCH  13  14
ENDBRANCH  12  13
ENDBRANCH   5   7
ENDBRANCH   2   3
ENDBRANCH   1   2
BRANCH   1  27
ATOM     27  C   UNL A   1      31.599  31.743  26.542  1.00  0.00     0.023 C 
BRANCH  27  28
ATOM     28  C   UNL A   1      32.739  32.459  27.255  1.00  0.00     0.116 C 
BRANCH  28  29
ATOM     29  N   UNL A   1      32.434  33.847  27.567  1.00  0.00    -0.352 N 
ATOM     30  C   UNL A   1      33.006  34.674  28.505  1.00  0.00     0.251 C 
ATOM     31  H   UNL A   1      31.716  34.252  27.031  1.00  0.00     0.163 HD
ATOM     32  O   UNL A   1      32.528  35.782  28.727  1.00  0.00    -0.269 OA
BRANCH  30  33
ATOM     33  C   UNL A   1      34.183  34.213  29.274  1.00  0.00     0.039 A 
ATOM     34  C   UNL A   1      33.981  33.459  30.432  1.00  0.00     0.014 A 
ATOM     35  C   UNL A   1      35.480  34.505  28.844  1.00  0.00     0.014 A 
ATOM     36  C   UNL A   1      35.078  32.933  31.117  1.00  0.00     0.010 A 
ATOM     37  C   UNL A   1      36.567  33.908  29.476  1.00  0.00     0.010 A 
ATOM     38  C   UNL A   1      36.379  33.118  30.621  1.00  0.00    -0.014 A 
BRANCH  38  39
ATOM     39  C   UNL A   1      37.558  32.501  31.283  1.00  0.00     0.031 A 
ATOM     40  C   UNL A   1      38.296  31.377  30.611  1.00  0.00     0.074 A 
ATOM     41  C   UNL A   1      37.923  32.905  32.516  1.00  0.00     0.049 A 
ATOM     42  N   UNL A   1      39.291  30.651  31.059  1.00  0.00    -0.248 NA
ATOM     43  C   UNL A   1      37.839  30.996  29.265  1.00  0.00     0.031 C 
ATOM     44  C   UNL A   1      37.264  33.956  33.292  1.00  0.00     0.029 A 
ATOM     45  N   UNL A   1      38.931  32.468  33.340  1.00  0.00    -0.354 N 
ATOM     46  C   UNL A   1      39.563  29.725  30.061  1.00  0.00     0.074 A 
ATOM     47  C   UNL A   1      38.595  29.940  29.008  1.00  0.00     0.031 C 
ATOM     48  C   UNL A   1      37.897  34.098  34.468  1.00  0.00     0.029 A 
ATOM     49  C   UNL A   1      38.975  33.118  34.550  1.00  0.00     0.049 A 
ATOM     50  H   UNL A   1      39.563  31.756  33.088  1.00  0.00     0.167 HD
ATOM     51  C   UNL A   1      40.549  28.797  30.014  1.00  0.00     0.037 A 
ATOM     52  C   UNL A   1      39.784  32.934  35.612  1.00  0.00     0.037 A 
ATOM     53  C   UNL A   1      41.523  28.599  31.055  1.00  0.00     0.049 A 
ATOM     54  C   UNL A   1      40.855  31.877  35.544  1.00  0.00     0.074 A 
ATOM     55  C   UNL A   1      42.593  27.722  31.079  1.00  0.00     0.029 A 
ATOM     56  N   UNL A   1      41.542  29.287  32.260  1.00  0.00    -0.354 N 
ATOM     57  N   UNL A   1      41.147  31.054  34.566  1.00  0.00    -0.248 NA
ATOM     58  C   UNL A   1      41.715  31.727  36.727  1.00  0.00     0.031 C 
ATOM     59  C   UNL A   1      43.223  27.835  32.322  1.00  0.00     0.029 A 
ATOM     60  C   UNL A   1      42.590  28.833  33.045  1.00  0.00     0.049 A 
ATOM     61  H   UNL A   1      40.906  29.993  32.519  1.00  0.00     0.167 HD
ATOM     62  C   UNL A   1      42.243  30.318  34.999  1.00  0.00     0.074 A 
ATOM     63  C   UNL A   1      42.572  30.801  36.323  1.00  0.00     0.031 C 
ATOM     64  C   UNL A   1      42.918  29.334  34.356  1.00  0.00     0.037 A 
BRANCH  51  65
ATOM     65  C   UNL A   1      40.623  27.920  28.797  1.00  0.00     0.064 A 
ATOM     66  C   UNL A   1      39.924  26.704  28.719  1.00  0.00     0.173 A 
ATOM     67  C   UNL A   1      41.367  28.319  27.676  1.00  0.00     0.173 A 
ATOM     68  F   UNL A   1      39.206  26.269  29.765  1.00  0.00    -0.203 F 
ATOM     69  C   UNL A   1      39.994  25.909  27.578  1.00  0.00     0.198 A 
ATOM     70  C   UNL A   1      41.406  27.538  26.524  1.00  0.00     0.198 A 
ATOM     71  F   UNL A   1      42.049  29.474  27.693  1.00  0.00    -0.203 F 
ATOM     72  F   UNL A   1      39.362  24.727  27.549  1.00  0.00    -0.200 F 
ATOM     73  C   UNL A   1      40.726  26.329  26.479  1.00  0.00     0.200 A 
ATOM     74  F   UNL A   1      42.100  27.955  25.457  1.00  0.00    -0.200 F 
ATOM     75  F   UNL A   1      40.783  25.568  25.378  1.00  0.00    -0.200 F 
ENDBRANCH  51  65
BRANCH  52  76
ATOM     76  C   UNL A   1      39.626  33.777  36.828  1.00  0.00     0.064 A 
ATOM     77  C   UNL A   1      38.784  33.381  37.876  1.00  0.00     0.173 A 
ATOM     78  C   UNL A   1      40.294  35.004  36.959  1.00  0.00     0.173 A 
ATOM     79  F   UNL A   1      38.107  32.225  37.792  1.00  0.00    -0.203 F 
ATOM     80  C   UNL A   1      38.592  34.191  38.994  1.00  0.00     0.198 A 
ATOM     81  C   UNL A   1      40.127  35.797  38.091  1.00  0.00     0.198 A 
ATOM     82  F   UNL A   1      41.116  35.428  35.988  1.00  0.00    -0.203 F 
ATOM     83  F   UNL A   1      37.735  33.814  39.952  1.00  0.00    -0.200 F 
ATOM     84  C   UNL A   1      39.267  35.397  39.102  1.00  0.00     0.200 A 
ATOM     85  F   UNL A   1      40.796  36.954  38.200  1.00  0.00    -0.200 F 
ATOM     86  F   UNL A   1      39.083  36.176  40.177  1.00  0.00    -0.200 F 
ENDBRANCH  52  76
BRANCH  64  87
ATOM     87  C   UNL A   1      44.116  28.746  35.048  1.00  0.00     0.064 A 
ATOM     88  C   UNL A   1      44.017  27.616  35.871  1.00  0.00     0.173 A 
ATOM     89  C   UNL A   1      45.390  29.300  34.844  1.00  0.00     0.173 A 
ATOM     90  F   UNL A   1      42.822  27.055  36.111  1.00  0.00    -0.203 F 
ATOM     91  C   UNL A   1      45.146  27.078  36.485  1.00  0.00     0.198 A 
ATOM     92  C   UNL A   1      46.520  28.738  35.430  1.00  0.00     0.198 A 
ATOM     93  F   UNL A   1      45.541  30.378  34.059  1.00  0.00    -0.203 F 
ATOM     94  F   UNL A   1      45.021  26.028  37.310  1.00  0.00    -0.200 F 
ATOM     95  C   UNL A   1      46.396  27.633  36.257  1.00  0.00     0.200 A 
ATOM     96  F   UNL A   1      47.729  29.266  35.192  1.00  0.00    -0.200 F 
ATOM     97  F   UNL A   1      47.482  27.107  36.840  1.00  0.00    -0.200 F 
ENDBRANCH  64  87
ENDBRANCH  38  39
ENDBRANCH  30  33
ENDBRANCH  28  29
ENDBRANCH  27  28
ENDBRANCH   1  27
TORSDOF 14
ENDMDL
MODEL 3
REMARK VINA RESULT:     -13.1      4.740     10.657
REMARK SMILES O=C(NCCCCNC(=O)c1ccc(-c2c3nc(c(-c4c(F)c(F)c(F)c(F)c4F)c4ccc([nH]4)c(-c4c(F)c(F)c(F)c(F)c4F)c4nc(c(-c5c(F)c(F)c(F)c(F)c5F)c5ccc2[nH]5)C=C4)C=C3)cc1)c1ccc(C[C@H]2SC(=O)N(c3ccccc3)C2=O)cc1
REMARK SMILES IDX 5 1 4 2 3 3 1 4 2 5 74 7 75 8 93 9 76 10 92 11 77 12 78 13
REMARK SMILES IDX 79 14 80 15 90 16 81 17 83 18 91 19 82 20 84 21 85 22 89 23
REMARK SMILES IDX 86 24 88 25 87 26 6 27 7 28 8 29 9 30 10 32 11 33 12 34
REMARK SMILES IDX 73 35 13 36 72 37 14 38 15 39 16 40 66 41 17 42 71 43 65 44
REMARK SMILES IDX 67 45 18 46 70 47 64 48 63 49 19 51 51 52 31 53 50 54 32 55
REMARK SMILES IDX 35 56 49 57 68 58 33 59 34 60 48 62 69 63 36 64 20 65 21 66
REMARK SMILES IDX 29 67 22 68 23 69 27 70 30 71 24 72 25 73 28 74 26 75 52 76
REMARK SMILES IDX 53 77 61 78 54 79 55 80 59 81 62 82 56 83 57 84 60 85 58 86
REMARK SMILES IDX 37 87 38 88 46 89 39 90 40 91 44 92 47 93 41 94 42 95 45 96
REMARK SMILES IDX 43 97
REMARK H PARENT 3 6 8 31 67 50 35 61
REMARK Flexibility Score: inf
ROOT
ATOM      1  C   UNL A   1      37.451  33.133  29.437  1.00  0.00     0.023 C 
ENDROOT
BRANCH   1   2
ATOM      2  C   UNL A   1      38.262  34.020  30.378  1.00  0.00     0.116 C 
BRANCH   2   3
ATOM      3  N   UNL A   1      37.464  34.542  31.478  1.00  0.00    -0.352 N 
ATOM      4  O   UNL A   1      36.395  34.459  33.471  1.00  0.00    -0.269 OA
ATOM      5  C   UNL A   1      37.206  33.963  32.699  1.00  0.00     0.251 C 
ATOM      6  H   UNL A   1      37.055  35.425  31.329  1.00  0.00     0.163 HD
BRANCH   5   7
ATOM      7  C   UNL A   1      37.905  32.714  33.053  1.00  0.00     0.039 A 
ATOM      8  C   UNL A   1      39.217  32.757  33.530  1.00  0.00     0.014 A 
ATOM      9  C   UNL A   1      37.263  31.492  32.853  1.00  0.00     0.014 A 
ATOM     10  C   UNL A   1      39.923  31.570  33.704  1.00  0.00     0.004 A 
ATOM     11  C   UNL A   1      37.979  30.303  33.018  1.00  0.00     0.004 A 
ATOM     12  C   UNL A   1      39.329  30.334  33.404  1.00  0.00    -0.046 A 
BRANCH  12  13
ATOM     13  C   UNL A   1      40.145  29.062  33.470  1.00  0.00     0.060 C 
BRANCH  13  14
ATOM     14  C   UNL A   1      41.571  29.242  34.030  1.00  0.00     0.151 C 
ATOM     15  S   UNL A   1      41.636  29.338  35.840  1.00  0.00    -0.050 SA
ATOM     16  C   UNL A   1      42.389  28.011  33.688  1.00  0.00     0.248 C 
ATOM     17  C   UNL A   1      42.107  27.660  35.997  1.00  0.00     0.293 C 
ATOM     18  N   UNL A   1      42.535  27.169  34.783  1.00  0.00    -0.240 N 
ATOM     19  O   UNL A   1      42.754  27.795  32.535  1.00  0.00    -0.273 OA
ATOM     20  O   UNL A   1      42.070  27.110  37.083  1.00  0.00    -0.261 OA
BRANCH  18  21
ATOM     21  C   UNL A   1      43.099  25.865  34.666  1.00  0.00     0.053 A 
ATOM     22  C   UNL A   1      44.406  25.684  34.192  1.00  0.00     0.027 A 
ATOM     23  C   UNL A   1      42.356  24.728  35.020  1.00  0.00     0.027 A 
ATOM     24  C   UNL A   1      44.957  24.404  34.083  1.00  0.00     0.002 A 
ATOM     25  C   UNL A   1      42.896  23.447  34.878  1.00  0.00     0.002 A 
ATOM     26  C   UNL A   1      44.198  23.285  34.415  1.00  0.00     0.000 A 
ENDBRANCH  18  21
ENDBRANCH  13  14
ENDBRANCH  12  13
ENDBRANCH   5   7
ENDBRANCH   2   3
ENDBRANCH   1   2
BRANCH   1  27
ATOM     27  C   UNL A   1      35.965  33.471  29.348  1.00  0.00     0.023 C 
BRANCH  27  28
ATOM     28  C   UNL A   1      35.025  32.424  29.931  1.00  0.00     0.116 C 
BRANCH  28  29
ATOM     29  N   UNL A   1      34.312  31.667  28.913  1.00  0.00    -0.352 N 
ATOM     30  C   UNL A   1      34.761  30.641  28.116  1.00  0.00     0.251 C 
ATOM     31  H   UNL A   1      33.372  31.927  28.776  1.00  0.00     0.163 HD
ATOM     32  O   UNL A   1      34.057  30.208  27.209  1.00  0.00    -0.269 OA
BRANCH  30  33
ATOM     33  C   UNL A   1      36.113  30.081  28.329  1.00  0.00     0.039 A 
ATOM     34  C   UNL A   1      37.070  30.219  27.320  1.00  0.00     0.014 A 
ATOM     35  C   UNL A   1      36.444  29.441  29.526  1.00  0.00     0.014 A 
ATOM     36  C   UNL A   1      38.378  29.783  27.541  1.00  0.00     0.010 A 
ATOM     37  C   UNL A   1      37.766  29.087  29.777  1.00  0.00     0.010 A 
ATOM     38  C   UNL A   1      38.748  29.252  28.788  1.00  0.00    -0.014 A 
BRANCH  38  39
ATOM     39  C   UNL A   1      40.150  28.856  29.078  1.00  0.00     0.031 A 
ATOM     40  C   UNL A   1      41.071  29.812  29.786  1.00  0.00     0.074 A 
ATOM     41  C   UNL A   1      40.615  27.666  28.648  1.00  0.00     0.049 A 
ATOM     42  N   UNL A   1      42.347  29.690  30.054  1.00  0.00    -0.248 NA
ATOM     43  C   UNL A   1      40.487  31.089  30.227  1.00  0.00     0.031 C 
ATOM     44  C   UNL A   1      39.836  26.668  27.915  1.00  0.00     0.029 A 
ATOM     45  N   UNL A   1      41.863  27.101  28.752  1.00  0.00    -0.354 N 
ATOM     46  C   UNL A   1      42.718  30.875  30.677  1.00  0.00     0.074 A 
ATOM     47  C   UNL A   1      41.548  31.726  30.697  1.00  0.00     0.031 C 
ATOM     48  C   UNL A   1      40.615  25.605  27.655  1.00  0.00     0.029 A 
ATOM     49  C   UNL A   1      41.959  25.865  28.160  1.00  0.00     0.049 A 
ATOM     50  H   UNL A   1      42.617  27.540  29.208  1.00  0.00     0.167 HD
ATOM     51  C   UNL A   1      43.917  31.212  31.208  1.00  0.00     0.037 A 
ATOM     52  C   UNL A   1      43.017  25.041  28.025  1.00  0.00     0.037 A 
ATOM     53  C   UNL A   1      45.073  30.355  31.205  1.00  0.00     0.049 A 
ATOM     54  C   UNL A   1      44.345  25.452  28.603  1.00  0.00     0.074 A 
ATOM     55  C   UNL A   1      46.317  30.584  31.764  1.00  0.00     0.029 A 
ATOM     56  N   UNL A   1      45.127  29.104  30.606  1.00  0.00    -0.354 N 
ATOM     57  N   UNL A   1      44.666  26.546  29.251  1.00  0.00    -0.248 NA
ATOM     58  C   UNL A   1      45.461  24.509  28.435  1.00  0.00     0.031 C 
ATOM     59  C   UNL A   1      47.143  29.499  31.453  1.00  0.00     0.029 A 
ATOM     60  C   UNL A   1      46.393  28.562  30.761  1.00  0.00     0.049 A 
ATOM     61  H   UNL A   1      44.377  28.666  30.141  1.00  0.00     0.167 HD
ATOM     62  C   UNL A   1      46.003  26.406  29.600  1.00  0.00     0.074 A 
ATOM     63  C   UNL A   1      46.431  25.116  29.103  1.00  0.00     0.031 C 
ATOM     64  C   UNL A   1      46.802  27.268  30.275  1.00  0.00     0.037 A 
BRANCH  51  65
ATOM     65  C   UNL A   1      44.043  32.570  31.839  1.00  0.00     0.064 A 
ATOM     66  C   UNL A   1      44.422  33.698  31.093  1.00  0.00     0.173 A 
ATOM     67  C   UNL A   1      43.739  32.756  33.196  1.00  0.00     0.173 A 
ATOM     68  F   UNL A   1      44.734  33.576  29.794  1.00  0.00    -0.203 F 
ATOM     69  C   UNL A   1      44.521  34.952  31.690  1.00  0.00     0.198 A 
ATOM     70  C   UNL A   1      43.806  34.017  33.781  1.00  0.00     0.198 A 
ATOM     71  F   UNL A   1      43.365  31.714  33.955  1.00  0.00    -0.203 F 
ATOM     72  F   UNL A   1      44.937  36.004  30.970  1.00  0.00    -0.200 F 
ATOM     73  C   UNL A   1      44.205  35.113  33.030  1.00  0.00     0.200 A 
ATOM     74  F   UNL A   1      43.482  34.173  35.072  1.00  0.00    -0.200 F 
ATOM     75  F   UNL A   1      44.290  36.323  33.600  1.00  0.00    -0.200 F 
ENDBRANCH  51  65
BRANCH  52  76
ATOM     76  C   UNL A   1      42.865  23.736  27.326  1.00  0.00     0.064 A 
ATOM     77  C   UNL A   1      42.356  22.614  27.994  1.00  0.00     0.173 A 
ATOM     78  C   UNL A   1      43.246  23.576  25.985  1.00  0.00     0.173 A 
ATOM     79  F   UNL A   1      41.995  22.709  29.284  1.00  0.00    -0.203 F 
ATOM     80  C   UNL A   1      42.261  21.377  27.360  1.00  0.00     0.198 A 
ATOM     81  C   UNL A   1      43.119  22.347  25.342  1.00  0.00     0.198 A 
ATOM     82  F   UNL A   1      43.734  24.617  25.297  1.00  0.00    -0.203 F 
ATOM     83  F   UNL A   1      41.826  20.309  28.042  1.00  0.00    -0.200 F 
ATOM     84  C   UNL A   1      42.638  21.245  26.033  1.00  0.00     0.200 A 
ATOM     85  F   UNL A   1      43.468  22.228  24.053  1.00  0.00    -0.200 F 
ATOM     86  F   UNL A   1      42.546  20.056  25.423  1.00  0.00    -0.200 F 
ENDBRANCH  52  76
BRANCH  64  87
ATOM     87  C   UNL A   1      48.209  26.827  30.568  1.00  0.00     0.064 A 
ATOM     88  C   UNL A   1      48.527  26.059  31.697  1.00  0.00     0.173 A 
ATOM     89  C   UNL A   1      49.247  27.142  29.675  1.00  0.00     0.173 A 
ATOM     90  F   UNL A   1      47.576  25.742  32.589  1.00  0.00    -0.203 F 
ATOM     91  C   UNL A   1      49.836  25.646  31.935  1.00  0.00     0.198 A 
ATOM     92  C   UNL A   1      50.546  26.697  29.898  1.00  0.00     0.198 A 
ATOM     93  F   UNL A   1      48.995  27.868  28.576  1.00  0.00    -0.203 F 
ATOM     94  F   UNL A   1      50.126  24.957  33.048  1.00  0.00    -0.200 F 
ATOM     95  C   UNL A   1      50.841  25.957  31.033  1.00  0.00     0.200 A 
ATOM     96  F   UNL A   1      51.512  26.983  29.014  1.00  0.00    -0.200 F 
ATOM     97  F   UNL A   1      52.098  25.549  31.258  1.00  0.00    -0.200 F 
ENDBRANCH  64  87
ENDBRANCH  38  39
ENDBRANCH  30  33
ENDBRANCH  28  29
ENDBRANCH  27  28
ENDBRANCH   1  27
TORSDOF 14
ENDMDL
