MODEL 1
REMARK VINA RESULT:     -13.0      0.000      0.000
REMARK SMILES O=C(NCCCCNC(=O)[C@@H](Cc1ccccc1)Nc1ccc(Cl)c(Br)c1)c1ccc(-c2c3nc(c(-c4c(F)c(F)c(F)c(F)c4F)c4ccc([nH]4)c(-c4c(F)c(F)c(F)c(F)c4F)c4nc(c(-c5c(F)c(F)c(F)c(F)c5F)c5ccc2[nH]5)C=C4)C=C3)cc1
REMARK SMILES IDX 5 1 4 2 3 3 1 4 2 5 28 7 29 8 90 9 30 10 89 11 31 12 32 13
REMARK SMILES IDX 33 14 83 15 34 16 88 17 82 18 84 19 35 20 87 21 81 22 80 23
REMARK SMILES IDX 36 25 68 26 48 27 67 28 49 29 52 30 66 31 85 32 50 33 51 34
REMARK SMILES IDX 65 36 86 37 53 38 37 39 38 40 46 41 39 42 40 43 44 44 47 45
REMARK SMILES IDX 41 46 42 47 45 48 43 49 69 50 70 51 78 52 71 53 72 54 76 55
REMARK SMILES IDX 79 56 73 57 74 58 77 59 75 60 54 61 55 62 63 63 56 64 57 65
REMARK SMILES IDX 61 66 64 67 58 68 59 69 62 70 60 71 6 72 7 73 8 74 9 75
REMARK SMILES IDX 10 77 11 78 12 79 13 80 14 81 18 82 15 83 17 84 16 85 19 86
REMARK SMILES IDX 20 88 21 89 27 90 22 91 25 92 23 93 26 94 24 95
REMARK H PARENT 3 6 84 24 52 35 8 76 19 87
REMARK Flexibility Score: inf
ROOT
ATOM      1  C   UNL A   1      31.648  31.959  26.689  1.00  0.00     0.023 C 
ENDROOT
BRANCH   1   2
ATOM      2  C   UNL A   1      32.761  32.776  27.325  1.00  0.00     0.116 C 
BRANCH   2   3
ATOM      3  N   UNL A   1      32.379  34.147  27.648  1.00  0.00    -0.352 N 
ATOM      4  O   UNL A   1      32.434  36.104  28.787  1.00  0.00    -0.269 OA
ATOM      5  C   UNL A   1      32.932  35.004  28.568  1.00  0.00     0.251 C 
ATOM      6  H   UNL A   1      31.620  34.507  27.136  1.00  0.00     0.163 HD
BRANCH   5   7
ATOM      7  C   UNL A   1      34.114  34.557  29.328  1.00  0.00     0.039 A 
ATOM      8  C   UNL A   1      35.386  34.659  28.763  1.00  0.00     0.014 A 
ATOM      9  C   UNL A   1      33.932  33.954  30.574  1.00  0.00     0.014 A 
ATOM     10  C   UNL A   1      36.447  33.987  29.349  1.00  0.00     0.010 A 
ATOM     11  C   UNL A   1      35.024  33.372  31.216  1.00  0.00     0.010 A 
ATOM     12  C   UNL A   1      36.279  33.345  30.586  1.00  0.00    -0.014 A 
BRANCH  12  13
ATOM     13  C   UNL A   1      37.439  32.688  31.229  1.00  0.00     0.031 A 
ATOM     14  C   UNL A   1      38.171  31.572  30.543  1.00  0.00     0.074 A 
ATOM     15  C   UNL A   1      37.824  33.114  32.445  1.00  0.00     0.049 A 
ATOM     16  N   UNL A   1      39.143  30.823  30.999  1.00  0.00    -0.248 NA
ATOM     17  C   UNL A   1      37.751  31.243  29.173  1.00  0.00     0.031 C 
ATOM     18  C   UNL A   1      37.185  34.197  33.197  1.00  0.00     0.029 A 
ATOM     19  N   UNL A   1      38.840  32.694  33.262  1.00  0.00    -0.354 N 
ATOM     20  C   UNL A   1      39.423  29.909  29.991  1.00  0.00     0.074 A 
ATOM     21  C   UNL A   1      38.515  30.193  28.899  1.00  0.00     0.031 C 
ATOM     22  C   UNL A   1      37.838  34.374  34.352  1.00  0.00     0.029 A 
ATOM     23  C   UNL A   1      38.886  33.367  34.458  1.00  0.00     0.049 A 
ATOM     24  H   UNL A   1      39.474  31.982  33.017  1.00  0.00     0.167 HD
ATOM     25  C   UNL A   1      40.352  28.924  29.986  1.00  0.00     0.037 A 
ATOM     26  C   UNL A   1      39.656  33.167  35.541  1.00  0.00     0.037 A 
ATOM     27  C   UNL A   1      41.270  28.677  31.068  1.00  0.00     0.049 A 
ATOM     28  C   UNL A   1      40.671  32.066  35.517  1.00  0.00     0.074 A 
ATOM     29  C   UNL A   1      42.284  27.739  31.145  1.00  0.00     0.029 A 
ATOM     30  N   UNL A   1      41.282  29.377  32.268  1.00  0.00    -0.354 N 
ATOM     31  N   UNL A   1      40.932  31.213  34.556  1.00  0.00    -0.248 NA
ATOM     32  C   UNL A   1      41.488  31.891  36.722  1.00  0.00     0.031 C 
ATOM     33  C   UNL A   1      42.882  27.843  32.405  1.00  0.00     0.029 A 
ATOM     34  C   UNL A   1      42.270  28.875  33.099  1.00  0.00     0.049 A 
ATOM     35  H   UNL A   1      40.677  30.120  32.495  1.00  0.00     0.167 HD
ATOM     36  C   UNL A   1      41.950  30.403  35.035  1.00  0.00     0.074 A 
ATOM     37  C   UNL A   1      42.266  30.876  36.368  1.00  0.00     0.031 C 
ATOM     38  C   UNL A   1      42.565  29.361  34.424  1.00  0.00     0.037 A 
BRANCH  25  39
ATOM     39  C   UNL A   1      40.402  28.018  28.791  1.00  0.00     0.064 A 
ATOM     40  C   UNL A   1      41.155  28.330  27.649  1.00  0.00     0.173 A 
ATOM     41  C   UNL A   1      39.703  26.800  28.801  1.00  0.00     0.173 A 
ATOM     42  F   UNL A   1      41.831  29.488  27.584  1.00  0.00    -0.203 F 
ATOM     43  C   UNL A   1      41.185  27.472  26.553  1.00  0.00     0.198 A 
ATOM     44  C   UNL A   1      39.755  25.932  27.713  1.00  0.00     0.198 A 
ATOM     45  F   UNL A   1      38.971  26.449  29.870  1.00  0.00    -0.203 F 
ATOM     46  F   UNL A   1      41.874  27.812  25.456  1.00  0.00    -0.200 F 
ATOM     47  C   UNL A   1      40.490  26.272  26.588  1.00  0.00     0.200 A 
ATOM     48  F   UNL A   1      39.091  24.768  27.753  1.00  0.00    -0.200 F 
ATOM     49  F   UNL A   1      40.521  25.447  25.532  1.00  0.00    -0.200 F 
ENDBRANCH  25  39
BRANCH  26  50
ATOM     50  C   UNL A   1      39.453  34.029  36.730  1.00  0.00     0.064 A 
ATOM     51  C   UNL A   1      38.680  33.594  37.813  1.00  0.00     0.173 A 
ATOM     52  C   UNL A   1      40.109  35.265  36.845  1.00  0.00     0.173 A 
ATOM     53  F   UNL A   1      38.028  32.425  37.743  1.00  0.00    -0.203 F 
ATOM     54  C   UNL A   1      38.577  34.360  38.972  1.00  0.00     0.198 A 
ATOM     55  C   UNL A   1      40.026  36.016  38.014  1.00  0.00     0.198 A 
ATOM     56  F   UNL A   1      40.873  35.715  35.839  1.00  0.00    -0.203 F 
ATOM     57  F   UNL A   1      37.826  33.926  39.994  1.00  0.00    -0.200 F 
ATOM     58  C   UNL A   1      39.260  35.563  39.076  1.00  0.00     0.200 A 
ATOM     59  F   UNL A   1      40.708  37.165  38.119  1.00  0.00    -0.200 F 
ATOM     60  F   UNL A   1      39.184  36.283  40.203  1.00  0.00    -0.200 F 
ENDBRANCH  26  50
BRANCH  38  61
ATOM     61  C   UNL A   1      43.656  28.675  35.185  1.00  0.00     0.064 A 
ATOM     62  C   UNL A   1      43.389  27.581  36.019  1.00  0.00     0.173 A 
ATOM     63  C   UNL A   1      44.990  29.084  35.035  1.00  0.00     0.173 A 
ATOM     64  F   UNL A   1      42.127  27.167  36.205  1.00  0.00    -0.203 F 
ATOM     65  C   UNL A   1      44.420  26.926  36.685  1.00  0.00     0.198 A 
ATOM     66  C   UNL A   1      46.019  28.413  35.686  1.00  0.00     0.198 A 
ATOM     67  F   UNL A   1      45.292  30.126  34.245  1.00  0.00    -0.203 F 
ATOM     68  F   UNL A   1      44.141  25.900  37.502  1.00  0.00    -0.200 F 
ATOM     69  C   UNL A   1      45.734  27.336  36.512  1.00  0.00     0.200 A 
ATOM     70  F   UNL A   1      47.289  28.805  35.512  1.00  0.00    -0.200 F 
ATOM     71  F   UNL A   1      46.726  26.697  37.147  1.00  0.00    -0.200 F 
ENDBRANCH  38  61
ENDBRANCH  12  13
ENDBRANCH   5   7
ENDBRANCH   2   3
ENDBRANCH   1   2
BRANCH   1  72
ATOM     72  C   UNL A   1      31.835  30.457  26.808  1.00  0.00     0.023 C 
BRANCH  72  73
ATOM     73  C   UNL A   1      33.190  29.941  26.338  1.00  0.00     0.116 C 
BRANCH  73  74
ATOM     74  N   UNL A   1      33.214  29.850  24.895  1.00  0.00    -0.354 N 
ATOM     75  C   UNL A   1      32.452  29.100  24.050  1.00  0.00     0.242 C 
ATOM     76  H   UNL A   1      33.886  30.418  24.454  1.00  0.00     0.163 HD
ATOM     77  O   UNL A   1      32.893  28.944  22.905  1.00  0.00    -0.273 OA
BRANCH  75  78
ATOM     78  C   UNL A   1      31.082  28.498  24.450  1.00  0.00     0.173 C 
BRANCH  78  79
ATOM     79  C   UNL A   1      30.004  28.540  23.348  1.00  0.00     0.070 C 
BRANCH  79  80
ATOM     80  C   UNL A   1      29.347  29.837  22.925  1.00  0.00    -0.045 A 
ATOM     81  C   UNL A   1      28.893  29.997  21.604  1.00  0.00     0.004 A 
ATOM     82  C   UNL A   1      29.254  30.931  23.796  1.00  0.00     0.004 A 
ATOM     83  C   UNL A   1      28.304  31.194  21.187  1.00  0.00     0.000 A 
ATOM     84  C   UNL A   1      28.658  32.127  23.380  1.00  0.00     0.000 A 
ATOM     85  C   UNL A   1      28.176  32.256  22.079  1.00  0.00     0.000 A 
ENDBRANCH  79  80
ENDBRANCH  78  79
BRANCH  78  86
ATOM     86  N   UNL A   1      31.238  27.201  25.141  1.00  0.00    -0.373 N 
ATOM     87  H   UNL A   1      30.579  26.961  25.831  1.00  0.00     0.161 HD
BRANCH  86  88
ATOM     88  C   UNL A   1      32.261  26.307  24.869  1.00  0.00     0.036 A 
ATOM     89  C   UNL A   1      33.378  26.289  25.714  1.00  0.00     0.027 A 
ATOM     90  C   UNL A   1      32.258  25.432  23.777  1.00  0.00     0.043 A 
ATOM     91  C   UNL A   1      34.428  25.385  25.517  1.00  0.00     0.024 A 
ATOM     92  C   UNL A   1      33.306  24.522  23.570  1.00  0.00     0.038 A 
ATOM     93  C   UNL A   1      34.390  24.492  24.449  1.00  0.00     0.055 A 
ATOM     94  Br  UNL A   1      33.169  23.361  22.072  1.00  0.00    -0.049 Br
ATOM     95  Cl  UNL A   1      35.706  23.388  24.281  1.00  0.00    -0.083 Cl
ENDBRANCH  86  88
ENDBRANCH  78  86
ENDBRANCH  75  78
ENDBRANCH  73  74
ENDBRANCH  72  73
ENDBRANCH   1  72
TORSDOF 15
ENDMDL
MODEL 2
REMARK VINA RESULT:     -12.8      0.984      1.961
REMARK SMILES O=C(NCCCCNC(=O)[C@@H](Cc1ccccc1)Nc1ccc(Cl)c(Br)c1)c1ccc(-c2c3nc(c(-c4c(F)c(F)c(F)c(F)c4F)c4ccc([nH]4)c(-c4c(F)c(F)c(F)c(F)c4F)c4nc(c(-c5c(F)c(F)c(F)c(F)c5F)c5ccc2[nH]5)C=C4)C=C3)cc1
REMARK SMILES IDX 5 1 4 2 3 3 1 4 2 5 28 7 29 8 90 9 30 10 89 11 31 12 32 13
REMARK SMILES IDX 33 14 83 15 34 16 88 17 82 18 84 19 35 20 87 21 81 22 80 23
REMARK SMILES IDX 36 25 68 26 48 27 67 28 49 29 52 30 66 31 85 32 50 33 51 34
REMARK SMILES IDX 65 36 86 37 53 38 37 39 38 40 46 41 39 42 40 43 44 44 47 45
REMARK SMILES IDX 41 46 42 47 45 48 43 49 69 50 70 51 78 52 71 53 72 54 76 55
REMARK SMILES IDX 79 56 73 57 74 58 77 59 75 60 54 61 55 62 63 63 56 64 57 65
REMARK SMILES IDX 61 66 64 67 58 68 59 69 62 70 60 71 6 72 7 73 8 74 9 75
REMARK SMILES IDX 10 77 11 78 12 79 13 80 14 81 18 82 15 83 17 84 16 85 19 86
REMARK SMILES IDX 20 88 21 89 27 90 22 91 25 92 23 93 26 94 24 95
REMARK H PARENT 3 6 84 24 52 35 8 76 19 87
REMARK Flexibility Score: inf
ROOT
ATOM      1  C   UNL A   1      31.736  31.925  26.739  1.00  0.00     0.023 C 
ENDROOT
BRANCH   1   2
ATOM      2  C   UNL A   1      32.855  32.785  27.304  1.00  0.00     0.116 C 
BRANCH   2   3
ATOM      3  N   UNL A   1      32.441  34.141  27.651  1.00  0.00    -0.352 N 
ATOM      4  O   UNL A   1      32.438  36.073  28.834  1.00  0.00    -0.269 OA
ATOM      5  C   UNL A   1      32.961  34.988  28.600  1.00  0.00     0.251 C 
ATOM      6  H   UNL A   1      31.684  34.499  27.133  1.00  0.00     0.163 HD
BRANCH   5   7
ATOM      7  C   UNL A   1      34.137  34.546  29.371  1.00  0.00     0.039 A 
ATOM      8  C   UNL A   1      35.418  34.695  28.836  1.00  0.00     0.014 A 
ATOM      9  C   UNL A   1      33.944  33.901  30.594  1.00  0.00     0.014 A 
ATOM     10  C   UNL A   1      36.482  34.031  29.424  1.00  0.00     0.010 A 
ATOM     11  C   UNL A   1      35.037  33.326  31.241  1.00  0.00     0.010 A 
ATOM     12  C   UNL A   1      36.305  33.347  30.637  1.00  0.00    -0.014 A 
BRANCH  12  13
ATOM     13  C   UNL A   1      37.467  32.699  31.285  1.00  0.00     0.031 A 
ATOM     14  C   UNL A   1      38.205  31.582  30.605  1.00  0.00     0.074 A 
ATOM     15  C   UNL A   1      37.849  33.132  32.499  1.00  0.00     0.049 A 
ATOM     16  N   UNL A   1      39.180  30.840  31.065  1.00  0.00    -0.248 NA
ATOM     17  C   UNL A   1      37.788  31.246  29.235  1.00  0.00     0.031 C 
ATOM     18  C   UNL A   1      37.204  34.215  33.245  1.00  0.00     0.029 A 
ATOM     19  N   UNL A   1      38.866  32.721  33.319  1.00  0.00    -0.354 N 
ATOM     20  C   UNL A   1      39.466  29.923  30.062  1.00  0.00     0.074 A 
ATOM     21  C   UNL A   1      38.557  30.198  28.968  1.00  0.00     0.031 C 
ATOM     22  C   UNL A   1      37.854  34.400  34.400  1.00  0.00     0.029 A 
ATOM     23  C   UNL A   1      38.907  33.399  34.512  1.00  0.00     0.049 A 
ATOM     24  H   UNL A   1      39.503  32.011  33.078  1.00  0.00     0.167 HD
ATOM     25  C   UNL A   1      40.399  28.943  30.062  1.00  0.00     0.037 A 
ATOM     26  C   UNL A   1      39.677  33.208  35.597  1.00  0.00     0.037 A 
ATOM     27  C   UNL A   1      41.317  28.704  31.147  1.00  0.00     0.049 A 
ATOM     28  C   UNL A   1      40.697  32.111  35.579  1.00  0.00     0.074 A 
ATOM     29  C   UNL A   1      42.335  27.771  31.229  1.00  0.00     0.029 A 
ATOM     30  N   UNL A   1      41.324  29.410  32.343  1.00  0.00    -0.354 N 
ATOM     31  N   UNL A   1      40.963  31.255  34.623  1.00  0.00    -0.248 NA
ATOM     32  C   UNL A   1      41.513  31.945  36.786  1.00  0.00     0.031 C 
ATOM     33  C   UNL A   1      42.931  27.884  32.490  1.00  0.00     0.029 A 
ATOM     34  C   UNL A   1      42.314  28.916  33.178  1.00  0.00     0.049 A 
ATOM     35  H   UNL A   1      40.716  30.151  32.566  1.00  0.00     0.167 HD
ATOM     36  C   UNL A   1      41.984  30.452  35.106  1.00  0.00     0.074 A 
ATOM     37  C   UNL A   1      42.297  30.933  36.438  1.00  0.00     0.031 C 
ATOM     38  C   UNL A   1      42.604  29.410  34.501  1.00  0.00     0.037 A 
BRANCH  25  39
ATOM     39  C   UNL A   1      40.454  28.031  28.872  1.00  0.00     0.064 A 
ATOM     40  C   UNL A   1      39.742  26.823  28.826  1.00  0.00     0.173 A 
ATOM     41  C   UNL A   1      41.213  28.386  27.745  1.00  0.00     0.173 A 
ATOM     42  F   UNL A   1      39.012  26.430  29.881  1.00  0.00    -0.203 F 
ATOM     43  C   UNL A   1      39.808  25.993  27.709  1.00  0.00     0.198 A 
ATOM     44  C   UNL A   1      41.257  27.567  26.620  1.00  0.00     0.198 A 
ATOM     45  F   UNL A   1      41.909  29.533  27.734  1.00  0.00    -0.203 F 
ATOM     46  F   UNL A   1      39.156  24.822  27.705  1.00  0.00    -0.200 F 
ATOM     47  C   UNL A   1      40.561  26.368  26.606  1.00  0.00     0.200 A 
ATOM     48  F   UNL A   1      41.977  27.936  25.551  1.00  0.00    -0.200 F 
ATOM     49  F   UNL A   1      40.623  25.568  25.532  1.00  0.00    -0.200 F 
ENDBRANCH  25  39
BRANCH  26  50
ATOM     50  C   UNL A   1      39.468  34.074  36.782  1.00  0.00     0.064 A 
ATOM     51  C   UNL A   1      38.695  33.641  37.866  1.00  0.00     0.173 A 
ATOM     52  C   UNL A   1      40.120  35.313  36.892  1.00  0.00     0.173 A 
ATOM     53  F   UNL A   1      38.048  32.469  37.799  1.00  0.00    -0.203 F 
ATOM     54  C   UNL A   1      38.587  34.412  39.021  1.00  0.00     0.198 A 
ATOM     55  C   UNL A   1      40.032  36.069  38.058  1.00  0.00     0.198 A 
ATOM     56  F   UNL A   1      40.884  35.761  35.885  1.00  0.00    -0.203 F 
ATOM     57  F   UNL A   1      37.836  33.980  40.043  1.00  0.00    -0.200 F 
ATOM     58  C   UNL A   1      39.266  35.618  39.120  1.00  0.00     0.200 A 
ATOM     59  F   UNL A   1      40.709  37.221  38.158  1.00  0.00    -0.200 F 
ATOM     60  F   UNL A   1      39.185  36.343  40.244  1.00  0.00    -0.200 F 
ENDBRANCH  26  50
BRANCH  38  61
ATOM     61  C   UNL A   1      43.698  28.733  35.266  1.00  0.00     0.064 A 
ATOM     62  C   UNL A   1      45.035  29.136  35.142  1.00  0.00     0.173 A 
ATOM     63  C   UNL A   1      43.398  27.705  36.172  1.00  0.00     0.173 A 
ATOM     64  F   UNL A   1      45.370  30.102  34.274  1.00  0.00    -0.203 F 
ATOM     65  C   UNL A   1      46.035  28.526  35.893  1.00  0.00     0.198 A 
ATOM     66  C   UNL A   1      44.397  27.113  36.936  1.00  0.00     0.198 A 
ATOM     67  F   UNL A   1      42.132  27.288  36.325  1.00  0.00    -0.203 F 
ATOM     68  F   UNL A   1      47.311  28.905  35.738  1.00  0.00    -0.200 F 
ATOM     69  C   UNL A   1      45.715  27.521  36.795  1.00  0.00     0.200 A 
ATOM     70  F   UNL A   1      44.086  26.148  37.813  1.00  0.00    -0.200 F 
ATOM     71  F   UNL A   1      46.679  26.942  37.524  1.00  0.00    -0.200 F 
ENDBRANCH  38  61
ENDBRANCH  12  13
ENDBRANCH   5   7
ENDBRANCH   2   3
ENDBRANCH   1   2
BRANCH   1  72
ATOM     72  C   UNL A   1      31.984  30.431  26.856  1.00  0.00     0.023 C 
BRANCH  72  73
ATOM     73  C   UNL A   1      31.511  29.608  25.665  1.00  0.00     0.116 C 
BRANCH  73  74
ATOM     74  N   UNL A   1      32.458  29.718  24.577  1.00  0.00    -0.354 N 
ATOM     75  C   UNL A   1      32.881  28.780  23.683  1.00  0.00     0.242 C 
ATOM     76  H   UNL A   1      32.860  30.609  24.465  1.00  0.00     0.163 HD
ATOM     77  O   UNL A   1      33.933  29.029  23.081  1.00  0.00    -0.273 OA
BRANCH  75  78
ATOM     78  C   UNL A   1      32.093  27.483  23.376  1.00  0.00     0.173 C 
BRANCH  78  79
ATOM     79  C   UNL A   1      31.020  27.615  22.276  1.00  0.00     0.070 C 
BRANCH  79  80
ATOM     80  C   UNL A   1      29.819  28.523  22.439  1.00  0.00    -0.045 A 
ATOM     81  C   UNL A   1      29.880  29.856  21.999  1.00  0.00     0.004 A 
ATOM     82  C   UNL A   1      28.661  28.096  23.104  1.00  0.00     0.004 A 
ATOM     83  C   UNL A   1      28.790  30.717  22.161  1.00  0.00     0.000 A 
ATOM     84  C   UNL A   1      27.568  28.956  23.260  1.00  0.00     0.000 A 
ATOM     85  C   UNL A   1      27.629  30.263  22.781  1.00  0.00     0.000 A 
ENDBRANCH  79  80
ENDBRANCH  78  79
BRANCH  78  86
ATOM     86  N   UNL A   1      32.991  26.316  23.253  1.00  0.00    -0.373 N 
ATOM     87  H   UNL A   1      33.390  26.127  22.374  1.00  0.00     0.161 HD
BRANCH  86  88
ATOM     88  C   UNL A   1      33.301  25.474  24.309  1.00  0.00     0.036 A 
ATOM     89  C   UNL A   1      32.284  25.123  25.207  1.00  0.00     0.027 A 
ATOM     90  C   UNL A   1      34.584  24.971  24.552  1.00  0.00     0.043 A 
ATOM     91  C   UNL A   1      32.522  24.247  26.272  1.00  0.00     0.024 A 
ATOM     92  C   UNL A   1      34.833  24.093  25.617  1.00  0.00     0.038 A 
ATOM     93  C   UNL A   1      33.796  23.722  26.475  1.00  0.00     0.055 A 
ATOM     94  Br  UNL A   1      36.610  23.450  25.820  1.00  0.00    -0.049 Br
ATOM     95  Cl  UNL A   1      34.012  22.629  27.793  1.00  0.00    -0.083 Cl
ENDBRANCH  86  88
ENDBRANCH  78  86
ENDBRANCH  75  78
ENDBRANCH  73  74
ENDBRANCH  72  73
ENDBRANCH   1  72
TORSDOF 15
ENDMDL
MODEL 3
REMARK VINA RESULT:     -12.8      6.125     11.684
REMARK SMILES O=C(NCCCCNC(=O)[C@@H](Cc1ccccc1)Nc1ccc(Cl)c(Br)c1)c1ccc(-c2c3nc(c(-c4c(F)c(F)c(F)c(F)c4F)c4ccc([nH]4)c(-c4c(F)c(F)c(F)c(F)c4F)c4nc(c(-c5c(F)c(F)c(F)c(F)c5F)c5ccc2[nH]5)C=C4)C=C3)cc1
REMARK SMILES IDX 5 1 4 2 3 3 1 4 2 5 28 7 29 8 90 9 30 10 89 11 31 12 32 13
REMARK SMILES IDX 33 14 83 15 34 16 88 17 82 18 84 19 35 20 87 21 81 22 80 23
REMARK SMILES IDX 36 25 68 26 48 27 67 28 49 29 52 30 66 31 85 32 50 33 51 34
REMARK SMILES IDX 65 36 86 37 53 38 37 39 38 40 46 41 39 42 40 43 44 44 47 45
REMARK SMILES IDX 41 46 42 47 45 48 43 49 69 50 70 51 78 52 71 53 72 54 76 55
REMARK SMILES IDX 79 56 73 57 74 58 77 59 75 60 54 61 55 62 63 63 56 64 57 65
REMARK SMILES IDX 61 66 64 67 58 68 59 69 62 70 60 71 6 72 7 73 8 74 9 75
REMARK SMILES IDX 10 77 11 78 12 79 13 80 14 81 18 82 15 83 17 84 16 85 19 86
REMARK SMILES IDX 20 88 21 89 27 90 22 91 25 92 23 93 26 94 24 95
REMARK H PARENT 3 6 84 24 52 35 8 76 19 87
REMARK Flexibility Score: inf
ROOT
ATOM      1  C   UNL A   1      38.158  19.885  24.962  1.00  0.00     0.023 C 
ENDROOT
BRANCH   1   2
ATOM      2  C   UNL A   1      39.413  20.163  25.774  1.00  0.00     0.116 C 
BRANCH   2   3
ATOM      3  N   UNL A   1      40.352  19.047  25.812  1.00  0.00    -0.352 N 
ATOM      4  O   UNL A   1      42.375  18.040  25.968  1.00  0.00    -0.269 OA
ATOM      5  C   UNL A   1      41.703  19.062  26.062  1.00  0.00     0.251 C 
ATOM      6  H   UNL A   1      39.964  18.160  25.635  1.00  0.00     0.163 HD
BRANCH   5   7
ATOM      7  C   UNL A   1      42.344  20.346  26.400  1.00  0.00     0.039 A 
ATOM      8  C   UNL A   1      42.289  20.830  27.709  1.00  0.00     0.014 A 
ATOM      9  C   UNL A   1      42.923  21.105  25.382  1.00  0.00     0.014 A 
ATOM     10  C   UNL A   1      42.634  22.147  27.962  1.00  0.00     0.010 A 
ATOM     11  C   UNL A   1      43.371  22.395  25.664  1.00  0.00     0.010 A 
ATOM     12  C   UNL A   1      43.187  22.940  26.944  1.00  0.00    -0.014 A 
BRANCH  12  13
ATOM     13  C   UNL A   1      43.611  24.325  27.249  1.00  0.00     0.031 A 
ATOM     14  C   UNL A   1      42.639  25.325  27.803  1.00  0.00     0.074 A 
ATOM     15  C   UNL A   1      44.891  24.670  27.019  1.00  0.00     0.049 A 
ATOM     16  N   UNL A   1      42.814  26.602  28.036  1.00  0.00    -0.248 NA
ATOM     17  C   UNL A   1      41.290  24.835  28.125  1.00  0.00     0.031 C 
ATOM     18  C   UNL A   1      45.920  23.772  26.488  1.00  0.00     0.029 A 
ATOM     19  N   UNL A   1      45.546  25.860  27.199  1.00  0.00    -0.354 N 
ATOM     20  C   UNL A   1      41.591  27.075  28.493  1.00  0.00     0.074 A 
ATOM     21  C   UNL A   1      40.678  25.951  28.499  1.00  0.00     0.031 C 
ATOM     22  C   UNL A   1      47.081  24.433  26.409  1.00  0.00     0.029 A 
ATOM     23  C   UNL A   1      46.860  25.818  26.805  1.00  0.00     0.049 A 
ATOM     24  H   UNL A   1      45.118  26.662  27.573  1.00  0.00     0.167 HD
ATOM     25  C   UNL A   1      41.266  28.336  28.867  1.00  0.00     0.037 A 
ATOM     26  C   UNL A   1      47.778  26.797  26.727  1.00  0.00     0.037 A 
ATOM     27  C   UNL A   1      42.195  29.436  28.885  1.00  0.00     0.049 A 
ATOM     28  C   UNL A   1      47.393  28.186  27.137  1.00  0.00     0.074 A 
ATOM     29  C   UNL A   1      41.984  30.740  29.295  1.00  0.00     0.029 A 
ATOM     30  N   UNL A   1      43.519  29.356  28.473  1.00  0.00    -0.354 N 
ATOM     31  N   UNL A   1      46.236  28.622  27.573  1.00  0.00    -0.248 NA
ATOM     32  C   UNL A   1      48.430  29.218  27.036  1.00  0.00     0.031 C 
ATOM     33  C   UNL A   1      43.166  31.460  29.092  1.00  0.00     0.029 A 
ATOM     34  C   UNL A   1      44.129  30.594  28.596  1.00  0.00     0.049 A 
ATOM     35  H   UNL A   1      43.960  28.541  28.141  1.00  0.00     0.167 HD
ATOM     36  C   UNL A   1      46.405  29.976  27.808  1.00  0.00     0.074 A 
ATOM     37  C   UNL A   1      47.782  30.288  27.476  1.00  0.00     0.031 C 
ATOM     38  C   UNL A   1      45.501  30.880  28.257  1.00  0.00     0.037 A 
BRANCH  25  39
ATOM     39  C   UNL A   1      39.840  28.603  29.252  1.00  0.00     0.064 A 
ATOM     40  C   UNL A   1      39.377  28.423  30.564  1.00  0.00     0.173 A 
ATOM     41  C   UNL A   1      38.928  29.076  28.295  1.00  0.00     0.173 A 
ATOM     42  F   UNL A   1      40.205  27.961  31.514  1.00  0.00    -0.203 F 
ATOM     43  C   UNL A   1      38.049  28.679  30.897  1.00  0.00     0.198 A 
ATOM     44  C   UNL A   1      37.607  29.355  28.637  1.00  0.00     0.198 A 
ATOM     45  F   UNL A   1      39.319  29.271  27.027  1.00  0.00    -0.203 F 
ATOM     46  F   UNL A   1      37.618  28.456  32.146  1.00  0.00    -0.200 F 
ATOM     47  C   UNL A   1      37.167  29.149  29.936  1.00  0.00     0.200 A 
ATOM     48  F   UNL A   1      36.759  29.819  27.709  1.00  0.00    -0.200 F 
ATOM     49  F   UNL A   1      35.890  29.396  30.259  1.00  0.00    -0.200 F 
ENDBRANCH  25  39
BRANCH  26  50
ATOM     50  C   UNL A   1      49.129  26.470  26.212  1.00  0.00     0.064 A 
ATOM     51  C   UNL A   1      49.475  26.727  24.880  1.00  0.00     0.173 A 
ATOM     52  C   UNL A   1      50.129  25.985  27.069  1.00  0.00     0.173 A 
ATOM     53  F   UNL A   1      48.549  27.181  24.024  1.00  0.00    -0.203 F 
ATOM     54  C   UNL A   1      50.775  26.517  24.426  1.00  0.00     0.198 A 
ATOM     55  C   UNL A   1      51.433  25.802  26.620  1.00  0.00     0.198 A 
ATOM     56  F   UNL A   1      49.847  25.740  28.358  1.00  0.00    -0.203 F 
ATOM     57  F   UNL A   1      51.081  26.763  23.144  1.00  0.00    -0.200 F 
ATOM     58  C   UNL A   1      51.755  26.068  25.299  1.00  0.00     0.200 A 
ATOM     59  F   UNL A   1      52.382  25.392  27.474  1.00  0.00    -0.200 F 
ATOM     60  F   UNL A   1      53.012  25.896  24.867  1.00  0.00    -0.200 F 
ENDBRANCH  26  50
BRANCH  38  61
ATOM     61  C   UNL A   1      45.977  32.288  28.435  1.00  0.00     0.064 A 
ATOM     62  C   UNL A   1      45.853  33.236  27.410  1.00  0.00     0.173 A 
ATOM     63  C   UNL A   1      46.514  32.705  29.662  1.00  0.00     0.173 A 
ATOM     64  F   UNL A   1      45.362  32.878  26.215  1.00  0.00    -0.203 F 
ATOM     65  C   UNL A   1      46.260  34.553  27.606  1.00  0.00     0.198 A 
ATOM     66  C   UNL A   1      46.899  34.026  29.860  1.00  0.00     0.198 A 
ATOM     67  F   UNL A   1      46.649  31.831  30.671  1.00  0.00    -0.203 F 
ATOM     68  F   UNL A   1      46.160  35.438  26.604  1.00  0.00    -0.200 F 
ATOM     69  C   UNL A   1      46.775  34.949  28.832  1.00  0.00     0.200 A 
ATOM     70  F   UNL A   1      47.389  34.410  31.047  1.00  0.00    -0.200 F 
ATOM     71  F   UNL A   1      47.156  36.219  29.021  1.00  0.00    -0.200 F 
ENDBRANCH  38  61
ENDBRANCH  12  13
ENDBRANCH   5   7
ENDBRANCH   2   3
ENDBRANCH   1   2
BRANCH   1  72
ATOM     72  C   UNL A   1      37.377  21.130  24.582  1.00  0.00     0.023 C 
BRANCH  72  73
ATOM     73  C   UNL A   1      37.457  22.269  25.591  1.00  0.00     0.116 C 
BRANCH  73  74
ATOM     74  N   UNL A   1      36.315  22.228  26.478  1.00  0.00    -0.354 N 
ATOM     75  C   UNL A   1      34.984  22.322  26.200  1.00  0.00     0.242 C 
ATOM     76  H   UNL A   1      36.533  22.116  27.431  1.00  0.00     0.163 HD
ATOM     77  O   UNL A   1      34.242  22.600  27.151  1.00  0.00    -0.273 OA
BRANCH  75  78
ATOM     78  C   UNL A   1      34.388  22.055  24.796  1.00  0.00     0.173 C 
BRANCH  78  79
ATOM     79  C   UNL A   1      33.215  21.055  24.763  1.00  0.00     0.070 C 
BRANCH  79  80
ATOM     80  C   UNL A   1      33.373  19.659  24.201  1.00  0.00    -0.045 A 
ATOM     81  C   UNL A   1      32.410  19.142  23.317  1.00  0.00     0.004 A 
ATOM     82  C   UNL A   1      34.418  18.818  24.609  1.00  0.00     0.004 A 
ATOM     83  C   UNL A   1      32.526  17.847  22.804  1.00  0.00     0.000 A 
ATOM     84  C   UNL A   1      34.538  17.523  24.090  1.00  0.00     0.000 A 
ATOM     85  C   UNL A   1      33.597  17.041  23.182  1.00  0.00     0.000 A 
ENDBRANCH  79  80
ENDBRANCH  78  79
BRANCH  78  86
ATOM     86  N   UNL A   1      34.178  23.311  24.046  1.00  0.00    -0.373 N 
ATOM     87  H   UNL A   1      34.900  23.628  23.458  1.00  0.00     0.161 HD
BRANCH  86  88
ATOM     88  C   UNL A   1      33.018  24.066  24.128  1.00  0.00     0.036 A 
ATOM     89  C   UNL A   1      31.985  23.809  23.217  1.00  0.00     0.027 A 
ATOM     90  C   UNL A   1      32.826  25.097  25.054  1.00  0.00     0.043 A 
ATOM     91  C   UNL A   1      30.775  24.509  23.269  1.00  0.00     0.024 A 
ATOM     92  C   UNL A   1      31.617  25.807  25.114  1.00  0.00     0.038 A 
ATOM     93  C   UNL A   1      30.585  25.505  24.225  1.00  0.00     0.055 A 
ATOM     94  Br  UNL A   1      31.465  27.159  26.440  1.00  0.00    -0.049 Br
ATOM     95  Cl  UNL A   1      29.058  26.311  24.248  1.00  0.00    -0.083 Cl
ENDBRANCH  86  88
ENDBRANCH  78  86
ENDBRANCH  75  78
ENDBRANCH  73  74
ENDBRANCH  72  73
ENDBRANCH   1  72
TORSDOF 15
ENDMDL
