MODEL 1
REMARK VINA RESULT:     -14.4      0.000      0.000
REMARK SMILES Cc1ccc(C)c(-c2cc(C(=O)NCCCCNC(=O)c3ccc(-c4c5nc(c(-c6c(F)c(F)c(F)c(F)c6F)c6ccc([nH]6)c(-c6c(F)c(F)c(F)c(F)c6F)c6nc(c(-c7c(F)c(F)c(F)c(F)c7F)c7ccc4[nH]7)C=C6)C=C5)cc3)c3cc(C)ccc3n2)c1
REMARK SMILES IDX 16 1 15 2 14 3 13 4 11 5 12 6 10 8 8 9 9 10 91 11 90 12
REMARK SMILES IDX 84 13 89 14 85 15 88 16 86 17 87 18 7 19 1 20 2 21 3 22
REMARK SMILES IDX 92 23 4 24 5 25 6 26 17 27 18 28 19 29 20 31 21 32 22 33
REMARK SMILES IDX 83 34 23 35 82 36 24 37 25 38 26 39 76 40 27 41 81 42 75 43
REMARK SMILES IDX 77 44 28 45 80 46 74 47 73 48 29 50 61 51 41 52 60 53 42 54
REMARK SMILES IDX 45 55 59 56 78 57 43 58 44 59 58 61 79 62 46 63 30 64 31 65
REMARK SMILES IDX 39 66 32 67 33 68 37 69 40 70 34 71 35 72 38 73 36 74 62 75
REMARK SMILES IDX 63 76 71 77 64 78 65 79 69 80 72 81 66 82 67 83 70 84 68 85
REMARK SMILES IDX 47 86 48 87 56 88 49 89 50 90 54 91 57 92 51 93 52 94 55 95
REMARK SMILES IDX 53 96
REMARK H PARENT 13 7 18 30 77 49 45 60
REMARK Flexibility Score: inf
ROOT
ATOM      1  C   UNL A   1      35.570  22.968  25.722  1.00  0.00     0.023 C 
ENDROOT
BRANCH   1   2
ATOM      2  C   UNL A   1      34.824  22.712  27.037  1.00  0.00     0.023 C 
BRANCH   2   3
ATOM      3  C   UNL A   1      33.690  21.695  27.130  1.00  0.00     0.116 C 
BRANCH   3   4
ATOM      4  N   UNL A   1      32.356  22.125  27.521  1.00  0.00    -0.352 N 
ATOM      5  C   UNL A   1      31.538  23.120  26.987  1.00  0.00     0.252 C 
ATOM      6  O   UNL A   1      30.391  23.214  27.427  1.00  0.00    -0.269 OA
ATOM      7  H   UNL A   1      31.970  21.636  28.283  1.00  0.00     0.163 HD
BRANCH   5   8
ATOM      8  C   UNL A   1      31.995  24.143  25.986  1.00  0.00     0.051 A 
ATOM      9  C   UNL A   1      32.863  26.363  25.649  1.00  0.00     0.072 A 
ATOM     10  C   UNL A   1      32.277  25.425  26.489  1.00  0.00     0.043 A 
ATOM     11  N   UNL A   1      33.290  26.032  24.408  1.00  0.00    -0.248 NA
ATOM     12  C   UNL A   1      32.985  24.826  23.912  1.00  0.00     0.072 A 
ATOM     13  C   UNL A   1      32.207  23.892  24.615  1.00  0.00     0.013 A 
ATOM     14  C   UNL A   1      33.474  24.475  22.662  1.00  0.00     0.029 A 
ATOM     15  C   UNL A   1      31.727  22.763  23.918  1.00  0.00     0.014 A 
ATOM     16  C   UNL A   1      33.187  23.237  22.081  1.00  0.00     0.005 A 
ATOM     17  C   UNL A   1      32.284  22.377  22.699  1.00  0.00    -0.050 A 
ATOM     18  C   UNL A   1      32.041  20.992  22.176  1.00  0.00     0.044 C 
BRANCH   9  19
ATOM     19  C   UNL A   1      33.029  27.785  26.009  1.00  0.00     0.003 A 
ATOM     20  C   UNL A   1      35.477  29.959  28.014  1.00  0.00     0.044 C 
ATOM     21  C   UNL A   1      34.316  29.536  27.164  1.00  0.00    -0.050 A 
ATOM     22  C   UNL A   1      33.422  30.502  26.697  1.00  0.00     0.004 A 
ATOM     23  C   UNL A   1      34.115  28.189  26.814  1.00  0.00     0.014 A 
ATOM     24  C   UNL A   1      32.343  30.129  25.900  1.00  0.00     0.004 A 
ATOM     25  C   UNL A   1      32.129  28.781  25.556  1.00  0.00    -0.042 A 
ATOM     26  C   UNL A   1      30.935  28.485  24.685  1.00  0.00     0.045 C 
ENDBRANCH   9  19
ENDBRANCH   5   8
ENDBRANCH   3   4
ENDBRANCH   2   3
ENDBRANCH   1   2
BRANCH   1  27
ATOM     27  C   UNL A   1      37.060  23.310  25.729  1.00  0.00     0.116 C 
BRANCH  27  28
ATOM     28  N   UNL A   1      37.974  22.210  26.062  1.00  0.00    -0.352 N 
ATOM     29  C   UNL A   1      39.302  22.254  26.490  1.00  0.00     0.251 C 
ATOM     30  H   UNL A   1      37.594  21.307  25.969  1.00  0.00     0.163 HD
ATOM     31  O   UNL A   1      40.045  21.307  26.295  1.00  0.00    -0.269 OA
BRANCH  29  32
ATOM     32  C   UNL A   1      39.809  23.451  27.203  1.00  0.00     0.039 A 
ATOM     33  C   UNL A   1      41.090  23.546  27.758  1.00  0.00     0.014 A 
ATOM     34  C   UNL A   1      38.943  24.522  27.320  1.00  0.00     0.014 A 
ATOM     35  C   UNL A   1      41.465  24.746  28.376  1.00  0.00     0.010 A 
ATOM     36  C   UNL A   1      39.402  25.762  27.635  1.00  0.00     0.010 A 
ATOM     37  C   UNL A   1      40.601  25.852  28.302  1.00  0.00    -0.014 A 
BRANCH  37  38
ATOM     38  C   UNL A   1      40.918  27.164  28.835  1.00  0.00     0.031 A 
ATOM     39  C   UNL A   1      42.095  27.789  28.205  1.00  0.00     0.074 A 
ATOM     40  C   UNL A   1      40.074  27.886  29.607  1.00  0.00     0.049 A 
ATOM     41  N   UNL A   1      43.263  27.941  28.725  1.00  0.00    -0.248 NA
ATOM     42  C   UNL A   1      42.015  28.136  26.779  1.00  0.00     0.031 C 
ATOM     43  C   UNL A   1      38.686  27.582  29.985  1.00  0.00     0.029 A 
ATOM     44  N   UNL A   1      40.260  29.125  30.140  1.00  0.00    -0.354 N 
ATOM     45  C   UNL A   1      44.012  28.607  27.764  1.00  0.00     0.074 A 
ATOM     46  C   UNL A   1      43.280  28.485  26.532  1.00  0.00     0.031 C 
ATOM     47  C   UNL A   1      38.104  28.685  30.506  1.00  0.00     0.029 A 
ATOM     48  C   UNL A   1      39.111  29.720  30.652  1.00  0.00     0.049 A 
ATOM     49  H   UNL A   1      41.139  29.568  30.160  1.00  0.00     0.167 HD
ATOM     50  C   UNL A   1      45.023  29.438  28.141  1.00  0.00     0.037 A 
ATOM     51  C   UNL A   1      39.003  30.982  31.138  1.00  0.00     0.037 A 
ATOM     52  C   UNL A   1      45.356  29.231  29.535  1.00  0.00     0.049 A 
ATOM     53  C   UNL A   1      40.376  31.447  31.453  1.00  0.00     0.074 A 
ATOM     54  C   UNL A   1      45.763  28.146  30.287  1.00  0.00     0.029 A 
ATOM     55  N   UNL A   1      44.896  30.157  30.439  1.00  0.00    -0.354 N 
ATOM     56  N   UNL A   1      41.107  30.973  32.422  1.00  0.00    -0.248 NA
ATOM     57  C   UNL A   1      41.104  32.161  30.416  1.00  0.00     0.031 C 
ATOM     58  C   UNL A   1      45.096  28.288  31.541  1.00  0.00     0.029 A 
ATOM     59  C   UNL A   1      44.380  29.484  31.516  1.00  0.00     0.049 A 
ATOM     60  H   UNL A   1      44.931  31.136  30.333  1.00  0.00     0.167 HD
ATOM     61  C   UNL A   1      42.390  30.927  31.900  1.00  0.00     0.074 A 
ATOM     62  C   UNL A   1      42.348  31.781  30.717  1.00  0.00     0.031 C 
ATOM     63  C   UNL A   1      43.273  29.970  32.309  1.00  0.00     0.037 A 
BRANCH  50  64
ATOM     64  C   UNL A   1      45.431  30.694  27.403  1.00  0.00     0.064 A 
ATOM     65  C   UNL A   1      46.792  30.865  27.076  1.00  0.00     0.173 A 
ATOM     66  C   UNL A   1      44.630  31.848  27.260  1.00  0.00     0.173 A 
ATOM     67  F   UNL A   1      47.653  29.841  27.172  1.00  0.00    -0.203 F 
ATOM     68  C   UNL A   1      47.324  32.113  26.740  1.00  0.00     0.198 A 
ATOM     69  C   UNL A   1      45.153  33.080  26.868  1.00  0.00     0.198 A 
ATOM     70  F   UNL A   1      43.336  31.877  27.594  1.00  0.00    -0.203 F 
ATOM     71  F   UNL A   1      48.647  32.249  26.582  1.00  0.00    -0.200 F 
ATOM     72  C   UNL A   1      46.505  33.222  26.646  1.00  0.00     0.200 A 
ATOM     73  F   UNL A   1      44.343  34.144  26.795  1.00  0.00    -0.200 F 
ATOM     74  F   UNL A   1      47.020  34.430  26.391  1.00  0.00    -0.200 F 
ENDBRANCH  50  64
BRANCH  51  75
ATOM     75  C   UNL A   1      37.846  31.910  31.152  1.00  0.00     0.064 A 
ATOM     76  C   UNL A   1      37.415  32.540  29.971  1.00  0.00     0.173 A 
ATOM     77  C   UNL A   1      36.963  31.966  32.246  1.00  0.00     0.173 A 
ATOM     78  F   UNL A   1      38.178  32.507  28.869  1.00  0.00    -0.203 F 
ATOM     79  C   UNL A   1      36.157  33.145  29.876  1.00  0.00     0.198 A 
ATOM     80  C   UNL A   1      35.710  32.578  32.152  1.00  0.00     0.198 A 
ATOM     81  F   UNL A   1      37.253  31.336  33.393  1.00  0.00    -0.203 F 
ATOM     82  F   UNL A   1      35.752  33.663  28.707  1.00  0.00    -0.200 F 
ATOM     83  C   UNL A   1      35.301  33.150  30.962  1.00  0.00     0.200 A 
ATOM     84  F   UNL A   1      34.873  32.545  33.198  1.00  0.00    -0.200 F 
ATOM     85  F   UNL A   1      34.067  33.664  30.850  1.00  0.00    -0.200 F 
ENDBRANCH  51  75
BRANCH  63  86
ATOM     86  C   UNL A   1      42.955  29.211  33.569  1.00  0.00     0.064 A 
ATOM     87  C   UNL A   1      42.158  28.055  33.630  1.00  0.00     0.173 A 
ATOM     88  C   UNL A   1      43.596  29.612  34.751  1.00  0.00     0.173 A 
ATOM     89  F   UNL A   1      41.588  27.546  32.529  1.00  0.00    -0.203 F 
ATOM     90  C   UNL A   1      41.976  27.364  34.828  1.00  0.00     0.198 A 
ATOM     91  C   UNL A   1      43.447  28.897  35.935  1.00  0.00     0.198 A 
ATOM     92  F   UNL A   1      44.409  30.681  34.745  1.00  0.00    -0.203 F 
ATOM     93  F   UNL A   1      41.194  26.275  34.864  1.00  0.00    -0.200 F 
ATOM     94  C   UNL A   1      42.629  27.781  35.976  1.00  0.00     0.200 A 
ATOM     95  F   UNL A   1      44.120  29.276  37.029  1.00  0.00    -0.200 F 
ATOM     96  F   UNL A   1      42.488  27.093  37.118  1.00  0.00    -0.200 F 
ENDBRANCH  63  86
ENDBRANCH  37  38
ENDBRANCH  29  32
ENDBRANCH  27  28
ENDBRANCH   1  27
TORSDOF 12
ENDMDL
MODEL 2
REMARK VINA RESULT:     -14.1      2.019      3.154
REMARK SMILES Cc1ccc(C)c(-c2cc(C(=O)NCCCCNC(=O)c3ccc(-c4c5nc(c(-c6c(F)c(F)c(F)c(F)c6F)c6ccc([nH]6)c(-c6c(F)c(F)c(F)c(F)c6F)c6nc(c(-c7c(F)c(F)c(F)c(F)c7F)c7ccc4[nH]7)C=C6)C=C5)cc3)c3cc(C)ccc3n2)c1
REMARK SMILES IDX 16 1 15 2 14 3 13 4 11 5 12 6 10 8 8 9 9 10 91 11 90 12
REMARK SMILES IDX 84 13 89 14 85 15 88 16 86 17 87 18 7 19 1 20 2 21 3 22
REMARK SMILES IDX 92 23 4 24 5 25 6 26 17 27 18 28 19 29 20 31 21 32 22 33
REMARK SMILES IDX 83 34 23 35 82 36 24 37 25 38 26 39 76 40 27 41 81 42 75 43
REMARK SMILES IDX 77 44 28 45 80 46 74 47 73 48 29 50 61 51 41 52 60 53 42 54
REMARK SMILES IDX 45 55 59 56 78 57 43 58 44 59 58 61 79 62 46 63 30 64 31 65
REMARK SMILES IDX 39 66 32 67 33 68 37 69 40 70 34 71 35 72 38 73 36 74 62 75
REMARK SMILES IDX 63 76 71 77 64 78 65 79 69 80 72 81 66 82 67 83 70 84 68 85
REMARK SMILES IDX 47 86 48 87 56 88 49 89 50 90 54 91 57 92 51 93 52 94 55 95
REMARK SMILES IDX 53 96
REMARK H PARENT 13 7 18 30 77 49 45 60
REMARK Flexibility Score: inf
ROOT
ATOM      1  C   UNL A   1      39.841  22.207  26.876  1.00  0.00     0.023 C 
ENDROOT
BRANCH   1   2
ATOM      2  C   UNL A   1      39.025  23.451  26.501  1.00  0.00     0.023 C 
BRANCH   2   3
ATOM      3  C   UNL A   1      37.650  23.338  25.850  1.00  0.00     0.116 C 
BRANCH   3   4
ATOM      4  N   UNL A   1      37.540  23.079  24.423  1.00  0.00    -0.352 N 
ATOM      5  C   UNL A   1      36.424  23.095  23.587  1.00  0.00     0.252 C 
ATOM      6  O   UNL A   1      36.613  22.953  22.378  1.00  0.00    -0.269 OA
ATOM      7  H   UNL A   1      38.389  22.857  23.975  1.00  0.00     0.163 HD
BRANCH   5   8
ATOM      8  C   UNL A   1      35.005  23.174  24.075  1.00  0.00     0.051 A 
ATOM      9  C   UNL A   1      33.075  24.577  24.395  1.00  0.00     0.072 A 
ATOM     10  C   UNL A   1      34.430  24.456  24.117  1.00  0.00     0.043 A 
ATOM     11  N   UNL A   1      32.273  23.492  24.491  1.00  0.00    -0.248 NA
ATOM     12  C   UNL A   1      32.824  22.270  24.494  1.00  0.00     0.072 A 
ATOM     13  C   UNL A   1      34.212  22.065  24.434  1.00  0.00     0.013 A 
ATOM     14  C   UNL A   1      31.991  21.162  24.537  1.00  0.00     0.029 A 
ATOM     15  C   UNL A   1      34.707  20.771  24.699  1.00  0.00     0.014 A 
ATOM     16  C   UNL A   1      32.499  19.860  24.553  1.00  0.00     0.005 A 
ATOM     17  C   UNL A   1      33.870  19.656  24.660  1.00  0.00    -0.050 A 
ATOM     18  C   UNL A   1      34.466  18.282  24.557  1.00  0.00     0.044 C 
BRANCH   9  19
ATOM     19  C   UNL A   1      32.410  25.870  24.648  1.00  0.00     0.003 A 
ATOM     20  C   UNL A   1      31.732  28.202  27.622  1.00  0.00     0.044 C 
ATOM     21  C   UNL A   1      31.762  27.639  26.232  1.00  0.00    -0.050 A 
ATOM     22  C   UNL A   1      31.184  28.363  25.188  1.00  0.00     0.004 A 
ATOM     23  C   UNL A   1      32.371  26.403  25.954  1.00  0.00     0.014 A 
ATOM     24  C   UNL A   1      31.209  27.861  23.890  1.00  0.00     0.004 A 
ATOM     25  C   UNL A   1      31.807  26.618  23.607  1.00  0.00    -0.042 A 
ATOM     26  C   UNL A   1      31.784  26.167  22.168  1.00  0.00     0.045 C 
ENDBRANCH   9  19
ENDBRANCH   5   8
ENDBRANCH   3   4
ENDBRANCH   2   3
ENDBRANCH   1   2
BRANCH   1  27
ATOM     27  C   UNL A   1      41.212  22.349  27.537  1.00  0.00     0.116 C 
BRANCH  27  28
ATOM     28  N   UNL A   1      42.359  22.470  26.625  1.00  0.00    -0.352 N 
ATOM     29  C   UNL A   1      42.799  23.572  25.890  1.00  0.00     0.251 C 
ATOM     30  H   UNL A   1      42.896  21.653  26.519  1.00  0.00     0.163 HD
ATOM     31  O   UNL A   1      43.453  23.413  24.873  1.00  0.00    -0.269 OA
BRANCH  29  32
ATOM     32  C   UNL A   1      42.486  24.943  26.356  1.00  0.00     0.039 A 
ATOM     33  C   UNL A   1      41.532  25.775  25.757  1.00  0.00     0.014 A 
ATOM     34  C   UNL A   1      43.197  25.412  27.445  1.00  0.00     0.014 A 
ATOM     35  C   UNL A   1      41.301  27.039  26.313  1.00  0.00     0.010 A 
ATOM     36  C   UNL A   1      42.764  26.486  28.155  1.00  0.00     0.010 A 
ATOM     37  C   UNL A   1      41.930  27.379  27.524  1.00  0.00    -0.014 A 
BRANCH  37  38
ATOM     38  C   UNL A   1      41.705  28.626  28.231  1.00  0.00     0.031 A 
ATOM     39  C   UNL A   1      42.724  29.653  27.954  1.00  0.00     0.074 A 
ATOM     40  C   UNL A   1      40.542  28.944  28.844  1.00  0.00     0.049 A 
ATOM     41  N   UNL A   1      43.659  30.052  28.745  1.00  0.00    -0.248 NA
ATOM     42  C   UNL A   1      42.822  30.182  26.586  1.00  0.00     0.031 C 
ATOM     43  C   UNL A   1      39.275  28.198  28.856  1.00  0.00     0.029 A 
ATOM     44  N   UNL A   1      40.218  30.084  29.514  1.00  0.00    -0.354 N 
ATOM     45  C   UNL A   1      44.333  31.048  28.051  1.00  0.00     0.074 A 
ATOM     46  C   UNL A   1      43.934  30.915  26.675  1.00  0.00     0.031 C 
ATOM     47  C   UNL A   1      38.284  28.990  29.322  1.00  0.00     0.029 A 
ATOM     48  C   UNL A   1      38.864  30.235  29.792  1.00  0.00     0.049 A 
ATOM     49  H   UNL A   1      40.891  30.752  29.779  1.00  0.00     0.167 HD
ATOM     50  C   UNL A   1      44.935  32.064  28.728  1.00  0.00     0.037 A 
ATOM     51  C   UNL A   1      38.270  31.320  30.349  1.00  0.00     0.037 A 
ATOM     52  C   UNL A   1      45.035  31.746  30.137  1.00  0.00     0.049 A 
ATOM     53  C   UNL A   1      39.336  32.105  31.018  1.00  0.00     0.074 A 
ATOM     54  C   UNL A   1      45.608  30.720  30.864  1.00  0.00     0.029 A 
ATOM     55  N   UNL A   1      44.138  32.346  30.986  1.00  0.00    -0.354 N 
ATOM     56  N   UNL A   1      39.973  31.716  32.086  1.00  0.00    -0.248 NA
ATOM     57  C   UNL A   1      39.990  33.153  30.250  1.00  0.00     0.031 C 
ATOM     58  C   UNL A   1      44.697  30.465  31.933  1.00  0.00     0.029 A 
ATOM     59  C   UNL A   1      43.659  31.394  31.847  1.00  0.00     0.049 A 
ATOM     60  H   UNL A   1      43.882  33.298  30.979  1.00  0.00     0.167 HD
ATOM     61  C   UNL A   1      41.281  32.123  31.879  1.00  0.00     0.074 A 
ATOM     62  C   UNL A   1      41.206  33.104  30.800  1.00  0.00     0.031 C 
ATOM     63  C   UNL A   1      42.323  31.409  32.397  1.00  0.00     0.037 A 
BRANCH  50  64
ATOM     64  C   UNL A   1      45.062  33.484  28.221  1.00  0.00     0.064 A 
ATOM     65  C   UNL A   1      46.352  34.048  28.128  1.00  0.00     0.173 A 
ATOM     66  C   UNL A   1      43.996  34.402  28.102  1.00  0.00     0.173 A 
ATOM     67  F   UNL A   1      47.445  33.276  28.227  1.00  0.00    -0.203 F 
ATOM     68  C   UNL A   1      46.554  35.427  28.035  1.00  0.00     0.198 A 
ATOM     69  C   UNL A   1      44.202  35.773  27.949  1.00  0.00     0.198 A 
ATOM     70  F   UNL A   1      42.715  34.046  28.236  1.00  0.00    -0.203 F 
ATOM     71  F   UNL A   1      47.798  35.920  28.097  1.00  0.00    -0.200 F 
ATOM     72  C   UNL A   1      45.479  36.290  27.954  1.00  0.00     0.200 A 
ATOM     73  F   UNL A   1      43.144  36.593  27.886  1.00  0.00    -0.200 F 
ATOM     74  F   UNL A   1      45.666  37.614  27.931  1.00  0.00    -0.200 F 
ENDBRANCH  50  64
BRANCH  51  75
ATOM     75  C   UNL A   1      36.900  31.862  30.173  1.00  0.00     0.064 A 
ATOM     76  C   UNL A   1      35.988  31.874  31.243  1.00  0.00     0.173 A 
ATOM     77  C   UNL A   1      36.559  32.646  29.055  1.00  0.00     0.173 A 
ATOM     78  F   UNL A   1      36.249  31.182  32.363  1.00  0.00    -0.203 F 
ATOM     79  C   UNL A   1      34.832  32.660  31.217  1.00  0.00     0.198 A 
ATOM     80  C   UNL A   1      35.399  33.425  29.027  1.00  0.00     0.198 A 
ATOM     81  F   UNL A   1      37.396  32.756  28.014  1.00  0.00    -0.203 F 
ATOM     82  F   UNL A   1      34.030  32.705  32.292  1.00  0.00    -0.200 F 
ATOM     83  C   UNL A   1      34.546  33.446  30.115  1.00  0.00     0.200 A 
ATOM     84  F   UNL A   1      35.150  34.210  27.970  1.00  0.00    -0.200 F 
ATOM     85  F   UNL A   1      33.477  34.256  30.119  1.00  0.00    -0.200 F 
ENDBRANCH  51  75
BRANCH  63  86
ATOM     86  C   UNL A   1      42.019  30.404  33.474  1.00  0.00     0.064 A 
ATOM     87  C   UNL A   1      41.689  29.057  33.244  1.00  0.00     0.173 A 
ATOM     88  C   UNL A   1      42.194  30.803  34.808  1.00  0.00     0.173 A 
ATOM     89  F   UNL A   1      41.598  28.567  32.000  1.00  0.00    -0.203 F 
ATOM     90  C   UNL A   1      41.499  28.168  34.303  1.00  0.00     0.198 A 
ATOM     91  C   UNL A   1      42.047  29.904  35.859  1.00  0.00     0.198 A 
ATOM     92  F   UNL A   1      42.557  32.064  35.089  1.00  0.00    -0.203 F 
ATOM     93  F   UNL A   1      41.165  26.892  34.057  1.00  0.00    -0.200 F 
ATOM     94  C   UNL A   1      41.687  28.591  35.608  1.00  0.00     0.200 A 
ATOM     95  F   UNL A   1      42.278  30.307  37.116  1.00  0.00    -0.200 F 
ATOM     96  F   UNL A   1      41.546  27.727  36.623  1.00  0.00    -0.200 F 
ENDBRANCH  63  86
ENDBRANCH  37  38
ENDBRANCH  29  32
ENDBRANCH  27  28
ENDBRANCH   1  27
TORSDOF 12
ENDMDL
MODEL 3
REMARK VINA RESULT:     -14.0      2.922      8.345
REMARK SMILES Cc1ccc(C)c(-c2cc(C(=O)NCCCCNC(=O)c3ccc(-c4c5nc(c(-c6c(F)c(F)c(F)c(F)c6F)c6ccc([nH]6)c(-c6c(F)c(F)c(F)c(F)c6F)c6nc(c(-c7c(F)c(F)c(F)c(F)c7F)c7ccc4[nH]7)C=C6)C=C5)cc3)c3cc(C)ccc3n2)c1
REMARK SMILES IDX 16 1 15 2 14 3 13 4 11 5 12 6 10 8 8 9 9 10 91 11 90 12
REMARK SMILES IDX 84 13 89 14 85 15 88 16 86 17 87 18 7 19 1 20 2 21 3 22
REMARK SMILES IDX 92 23 4 24 5 25 6 26 17 27 18 28 19 29 20 31 21 32 22 33
REMARK SMILES IDX 83 34 23 35 82 36 24 37 25 38 26 39 76 40 27 41 81 42 75 43
REMARK SMILES IDX 77 44 28 45 80 46 74 47 73 48 29 50 61 51 41 52 60 53 42 54
REMARK SMILES IDX 45 55 59 56 78 57 43 58 44 59 58 61 79 62 46 63 30 64 31 65
REMARK SMILES IDX 39 66 32 67 33 68 37 69 40 70 34 71 35 72 38 73 36 74 62 75
REMARK SMILES IDX 63 76 71 77 64 78 65 79 69 80 72 81 66 82 67 83 70 84 68 85
REMARK SMILES IDX 47 86 48 87 56 88 49 89 50 90 54 91 57 92 51 93 52 94 55 95
REMARK SMILES IDX 53 96
REMARK H PARENT 13 7 18 30 77 49 45 60
REMARK Flexibility Score: inf
ROOT
ATOM      1  C   UNL A   1      33.709  28.212  25.792  1.00  0.00     0.023 C 
ENDROOT
BRANCH   1   2
ATOM      2  C   UNL A   1      34.115  28.825  24.446  1.00  0.00     0.023 C 
BRANCH   2   3
ATOM      3  C   UNL A   1      33.141  28.901  23.274  1.00  0.00     0.116 C 
BRANCH   3   4
ATOM      4  N   UNL A   1      33.339  28.055  22.107  1.00  0.00    -0.352 N 
ATOM      5  C   UNL A   1      33.270  26.668  21.977  1.00  0.00     0.252 C 
ATOM      6  O   UNL A   1      33.365  26.195  20.844  1.00  0.00    -0.269 OA
ATOM      7  H   UNL A   1      33.557  28.538  21.277  1.00  0.00     0.163 HD
BRANCH   5   8
ATOM      8  C   UNL A   1      33.186  25.714  23.135  1.00  0.00     0.051 A 
ATOM      9  C   UNL A   1      34.409  24.315  24.666  1.00  0.00     0.072 A 
ATOM     10  C   UNL A   1      34.383  25.074  23.503  1.00  0.00     0.043 A 
ATOM     11  N   UNL A   1      33.357  24.287  25.516  1.00  0.00    -0.248 NA
ATOM     12  C   UNL A   1      32.203  24.860  25.148  1.00  0.00     0.072 A 
ATOM     13  C   UNL A   1      32.024  25.465  23.893  1.00  0.00     0.013 A 
ATOM     14  C   UNL A   1      31.148  24.876  26.048  1.00  0.00     0.029 A 
ATOM     15  C   UNL A   1      30.714  25.809  23.500  1.00  0.00     0.014 A 
ATOM     16  C   UNL A   1      29.914  25.447  25.726  1.00  0.00     0.005 A 
ATOM     17  C   UNL A   1      29.680  25.898  24.431  1.00  0.00    -0.050 A 
ATOM     18  C   UNL A   1      28.419  26.628  24.074  1.00  0.00     0.044 C 
BRANCH   9  19
ATOM     19  C   UNL A   1      35.544  23.453  25.048  1.00  0.00     0.003 A 
ATOM     20  C   UNL A   1      39.054  23.849  26.555  1.00  0.00     0.044 C 
ATOM     21  C   UNL A   1      37.813  23.235  25.977  1.00  0.00    -0.050 A 
ATOM     22  C   UNL A   1      37.738  21.848  25.837  1.00  0.00     0.004 A 
ATOM     23  C   UNL A   1      36.717  24.024  25.585  1.00  0.00     0.014 A 
ATOM     24  C   UNL A   1      36.591  21.259  25.310  1.00  0.00     0.004 A 
ATOM     25  C   UNL A   1      35.496  22.044  24.905  1.00  0.00    -0.042 A 
ATOM     26  C   UNL A   1      34.301  21.308  24.353  1.00  0.00     0.045 C 
ENDBRANCH   9  19
ENDBRANCH   5   8
ENDBRANCH   3   4
ENDBRANCH   2   3
ENDBRANCH   1   2
BRANCH   1  27
ATOM     27  C   UNL A   1      34.041  28.926  27.102  1.00  0.00     0.116 C 
BRANCH  27  28
ATOM     28  N   UNL A   1      34.044  30.394  27.054  1.00  0.00    -0.352 N 
ATOM     29  C   UNL A   1      34.909  31.303  27.667  1.00  0.00     0.251 C 
ATOM     30  H   UNL A   1      33.331  30.797  26.509  1.00  0.00     0.163 HD
ATOM     31  O   UNL A   1      34.539  32.440  27.907  1.00  0.00    -0.269 OA
BRANCH  29  32
ATOM     32  C   UNL A   1      36.290  30.891  28.012  1.00  0.00     0.039 A 
ATOM     33  C   UNL A   1      37.142  31.629  28.842  1.00  0.00     0.014 A 
ATOM     34  C   UNL A   1      36.746  29.707  27.463  1.00  0.00     0.014 A 
ATOM     35  C   UNL A   1      38.414  31.116  29.122  1.00  0.00     0.010 A 
ATOM     36  C   UNL A   1      37.834  29.072  27.971  1.00  0.00     0.010 A 
ATOM     37  C   UNL A   1      38.744  29.824  28.677  1.00  0.00    -0.014 A 
BRANCH  37  38
ATOM     38  C   UNL A   1      40.000  29.160  28.974  1.00  0.00     0.031 A 
ATOM     39  C   UNL A   1      40.233  28.959  30.416  1.00  0.00     0.074 A 
ATOM     40  C   UNL A   1      40.749  28.518  28.050  1.00  0.00     0.049 A 
ATOM     41  N   UNL A   1      41.066  29.595  31.163  1.00  0.00    -0.248 NA
ATOM     42  C   UNL A   1      39.324  28.064  31.147  1.00  0.00     0.031 C 
ATOM     43  C   UNL A   1      40.444  28.266  26.634  1.00  0.00     0.029 A 
ATOM     44  N   UNL A   1      41.923  27.850  28.222  1.00  0.00    -0.354 N 
ATOM     45  C   UNL A   1      40.944  29.027  32.424  1.00  0.00     0.074 A 
ATOM     46  C   UNL A   1      39.716  28.277  32.406  1.00  0.00     0.031 C 
ATOM     47  C   UNL A   1      41.301  27.343  26.141  1.00  0.00     0.029 A 
ATOM     48  C   UNL A   1      42.309  27.059  27.145  1.00  0.00     0.049 A 
ATOM     49  H   UNL A   1      42.457  27.920  29.047  1.00  0.00     0.167 HD
ATOM     50  C   UNL A   1      42.013  28.999  33.268  1.00  0.00     0.037 A 
ATOM     51  C   UNL A   1      43.373  26.218  27.101  1.00  0.00     0.037 A 
ATOM     52  C   UNL A   1      43.054  29.888  32.796  1.00  0.00     0.049 A 
ATOM     53  C   UNL A   1      44.292  26.620  28.194  1.00  0.00     0.074 A 
ATOM     54  C   UNL A   1      43.124  31.237  32.507  1.00  0.00     0.029 A 
ATOM     55  N   UNL A   1      44.136  29.317  32.171  1.00  0.00    -0.354 N 
ATOM     56  N   UNL A   1      44.977  27.729  28.206  1.00  0.00    -0.248 NA
ATOM     57  C   UNL A   1      44.133  25.972  29.487  1.00  0.00     0.031 C 
ATOM     58  C   UNL A   1      43.959  31.329  31.353  1.00  0.00     0.029 A 
ATOM     59  C   UNL A   1      44.413  30.047  31.045  1.00  0.00     0.049 A 
ATOM     60  H   UNL A   1      44.629  28.522  32.479  1.00  0.00     0.167 HD
ATOM     61  C   UNL A   1      44.938  28.147  29.526  1.00  0.00     0.074 A 
ATOM     62  C   UNL A   1      44.517  26.972  30.284  1.00  0.00     0.031 C 
ATOM     63  C   UNL A   1      44.964  29.477  29.836  1.00  0.00     0.037 A 
BRANCH  50  64
ATOM     64  C   UNL A   1      42.296  27.900  34.268  1.00  0.00     0.064 A 
ATOM     65  C   UNL A   1      42.896  26.712  33.803  1.00  0.00     0.173 A 
ATOM     66  C   UNL A   1      41.757  27.830  35.572  1.00  0.00     0.173 A 
ATOM     67  F   UNL A   1      43.443  26.654  32.580  1.00  0.00    -0.203 F 
ATOM     68  C   UNL A   1      42.862  25.525  34.540  1.00  0.00     0.198 A 
ATOM     69  C   UNL A   1      41.776  26.659  36.329  1.00  0.00     0.198 A 
ATOM     70  F   UNL A   1      41.092  28.844  36.136  1.00  0.00    -0.203 F 
ATOM     71  F   UNL A   1      43.317  24.390  33.992  1.00  0.00    -0.200 F 
ATOM     72  C   UNL A   1      42.294  25.498  35.799  1.00  0.00     0.200 A 
ATOM     73  F   UNL A   1      41.209  26.652  37.542  1.00  0.00    -0.200 F 
ATOM     74  F   UNL A   1      42.199  24.350  36.480  1.00  0.00    -0.200 F 
ENDBRANCH  50  64
BRANCH  51  75
ATOM     75  C   UNL A   1      43.570  24.957  26.345  1.00  0.00     0.064 A 
ATOM     76  C   UNL A   1      44.563  24.861  25.353  1.00  0.00     0.173 A 
ATOM     77  C   UNL A   1      43.005  23.744  26.780  1.00  0.00     0.173 A 
ATOM     78  F   UNL A   1      45.180  25.964  24.905  1.00  0.00    -0.203 F 
ATOM     79  C   UNL A   1      44.997  23.625  24.863  1.00  0.00     0.198 A 
ATOM     80  C   UNL A   1      43.433  22.510  26.282  1.00  0.00     0.198 A 
ATOM     81  F   UNL A   1      42.101  23.725  27.770  1.00  0.00    -0.203 F 
ATOM     82  F   UNL A   1      46.003  23.574  23.976  1.00  0.00    -0.200 F 
ATOM     83  C   UNL A   1      44.442  22.451  25.339  1.00  0.00     0.200 A 
ATOM     84  F   UNL A   1      42.915  21.377  26.776  1.00  0.00    -0.200 F 
ATOM     85  F   UNL A   1      44.908  21.264  24.924  1.00  0.00    -0.200 F 
ENDBRANCH  51  75
BRANCH  63  86
ATOM     86  C   UNL A   1      45.391  30.441  28.762  1.00  0.00     0.064 A 
ATOM     87  C   UNL A   1      44.533  31.000  27.800  1.00  0.00     0.173 A 
ATOM     88  C   UNL A   1      46.713  30.910  28.795  1.00  0.00     0.173 A 
ATOM     89  F   UNL A   1      43.232  30.682  27.760  1.00  0.00    -0.203 F 
ATOM     90  C   UNL A   1      44.993  31.950  26.886  1.00  0.00     0.198 A 
ATOM     91  C   UNL A   1      47.157  31.888  27.911  1.00  0.00     0.198 A 
ATOM     92  F   UNL A   1      47.566  30.449  29.723  1.00  0.00    -0.203 F 
ATOM     93  F   UNL A   1      44.159  32.454  25.964  1.00  0.00    -0.200 F 
ATOM     94  C   UNL A   1      46.302  32.398  26.950  1.00  0.00     0.200 A 
ATOM     95  F   UNL A   1      48.409  32.354  28.010  1.00  0.00    -0.200 F 
ATOM     96  F   UNL A   1      46.732  33.341  26.100  1.00  0.00    -0.200 F 
ENDBRANCH  63  86
ENDBRANCH  37  38
ENDBRANCH  29  32
ENDBRANCH  27  28
ENDBRANCH   1  27
TORSDOF 12
ENDMDL
