MODEL 1
REMARK VINA RESULT:     -10.4      0.000      0.000
REMARK SMILES C[C@H](CC(=O)NCCCCNC(=O)c1ccc(-c2c3nc(c(-c4c(F)c(F)c(F)c(F)c4F)c4ccc([nH]4)c(-c4c(F)c(F)c(F)c(F)c4F)c4nc(c(-c5c(F)c(F)c(F)c(F)c5F)c5ccc2[nH]5)C=C4)C=C3)cc1)[NH2+][C@H](C)c1ccccc1
REMARK SMILES IDX 7 1 6 2 4 3 5 4 3 6 2 7 1 8 77 9 78 12 79 13 80 14 81 15
REMARK SMILES IDX 85 16 82 17 84 18 83 19 8 20 9 21 10 22 11 23 12 24 13 26
REMARK SMILES IDX 14 27 15 28 76 29 16 30 75 31 17 32 18 33 19 34 69 35 20 36
REMARK SMILES IDX 74 37 68 38 70 39 21 40 73 41 67 42 66 43 22 45 54 46 34 47
REMARK SMILES IDX 53 48 35 49 38 50 52 51 71 52 36 53 37 54 51 56 72 57 39 58
REMARK SMILES IDX 23 59 24 60 32 61 25 62 26 63 30 64 33 65 27 66 28 67 31 68
REMARK SMILES IDX 29 69 55 70 56 71 64 72 57 73 58 74 62 75 65 76 59 77 60 78
REMARK SMILES IDX 63 79 61 80 40 81 41 82 49 83 42 84 43 85 47 86 50 87 44 88
REMARK SMILES IDX 45 89 48 90 46 91
REMARK H PARENT 6 5 77 10 77 11 11 25 70 44 38 55
REMARK Flexibility Score: inf
ROOT
ATOM      1  C   UNL A   1      42.904  20.404  25.704  1.00  0.00     0.116 C 
ENDROOT
BRANCH   1   2
ATOM      2  N   UNL A   1      43.763  19.664  24.790  1.00  0.00    -0.356 N 
ATOM      3  C   UNL A   1      45.111  19.777  24.579  1.00  0.00     0.225 C 
ATOM      4  O   UNL A   1      45.641  19.023  23.761  1.00  0.00    -0.275 OA
ATOM      5  H   UNL A   1      43.308  18.984  24.244  1.00  0.00     0.163 HD
BRANCH   3   6
ATOM      6  C   UNL A   1      45.915  20.857  25.289  1.00  0.00     0.164 C 
BRANCH   6   7
ATOM      7  C   UNL A   1      46.022  22.201  24.514  1.00  0.00     0.189 C 
ATOM      8  C   UNL A   1      44.841  22.356  23.559  1.00  0.00     0.075 C 
BRANCH   7   9
ATOM      9  N   UNL A   1      46.174  23.292  25.470  1.00  0.00    -0.338 N 
ATOM     10  H   UNL A   1      46.840  23.933  25.041  1.00  0.00     0.347 HD
ATOM     11  H   UNL A   1      46.390  22.759  26.312  1.00  0.00     0.347 HD
BRANCH   9  12
ATOM     12  C   UNL A   1      45.095  24.140  25.978  1.00  0.00     0.210 C 
ATOM     13  C   UNL A   1      45.351  25.639  25.810  1.00  0.00     0.081 C 
BRANCH  12  14
ATOM     14  C   UNL A   1      44.410  23.755  27.283  1.00  0.00     0.009 A 
ATOM     15  C   UNL A   1      43.028  23.597  27.444  1.00  0.00     0.010 A 
ATOM     16  C   UNL A   1      45.212  23.615  28.435  1.00  0.00     0.010 A 
ATOM     17  C   UNL A   1      42.475  23.275  28.691  1.00  0.00     0.001 A 
ATOM     18  C   UNL A   1      44.662  23.308  29.682  1.00  0.00     0.001 A 
ATOM     19  C   UNL A   1      43.291  23.129  29.808  1.00  0.00     0.000 A 
ENDBRANCH  12  14
ENDBRANCH   9  12
ENDBRANCH   7   9
ENDBRANCH   6   7
ENDBRANCH   3   6
ENDBRANCH   1   2
BRANCH   1  20
ATOM     20  C   UNL A   1      41.830  19.554  26.386  1.00  0.00     0.023 C 
BRANCH  20  21
ATOM     21  C   UNL A   1      40.422  20.132  26.348  1.00  0.00     0.023 C 
BRANCH  21  22
ATOM     22  C   UNL A   1      40.394  21.651  26.313  1.00  0.00     0.116 C 
BRANCH  22  23
ATOM     23  N   UNL A   1      39.140  22.175  25.778  1.00  0.00    -0.352 N 
ATOM     24  C   UNL A   1      38.530  23.387  25.987  1.00  0.00     0.251 C 
ATOM     25  H   UNL A   1      38.658  21.564  25.175  1.00  0.00     0.163 HD
ATOM     26  O   UNL A   1      37.384  23.586  25.594  1.00  0.00    -0.269 OA
BRANCH  24  27
ATOM     27  C   UNL A   1      39.254  24.443  26.717  1.00  0.00     0.039 A 
ATOM     28  C   UNL A   1      40.080  25.320  26.011  1.00  0.00     0.014 A 
ATOM     29  C   UNL A   1      39.066  24.596  28.090  1.00  0.00     0.014 A 
ATOM     30  C   UNL A   1      40.635  26.419  26.669  1.00  0.00     0.010 A 
ATOM     31  C   UNL A   1      39.529  25.744  28.718  1.00  0.00     0.010 A 
ATOM     32  C   UNL A   1      40.312  26.670  28.012  1.00  0.00    -0.014 A 
BRANCH  32  33
ATOM     33  C   UNL A   1      40.760  27.898  28.712  1.00  0.00     0.031 A 
ATOM     34  C   UNL A   1      42.163  27.982  29.243  1.00  0.00     0.074 A 
ATOM     35  C   UNL A   1      39.874  28.879  28.972  1.00  0.00     0.049 A 
ATOM     36  N   UNL A   1      42.704  28.886  30.018  1.00  0.00    -0.248 NA
ATOM     37  C   UNL A   1      43.068  26.874  28.891  1.00  0.00     0.031 C 
ATOM     38  C   UNL A   1      38.467  28.881  28.563  1.00  0.00     0.029 A 
ATOM     39  N   UNL A   1      40.018  30.056  29.662  1.00  0.00    -0.354 N 
ATOM     40  C   UNL A   1      43.994  28.441  30.270  1.00  0.00     0.074 A 
ATOM     41  C   UNL A   1      44.141  27.162  29.612  1.00  0.00     0.031 C 
ATOM     42  C   UNL A   1      37.884  30.011  28.994  1.00  0.00     0.029 A 
ATOM     43  C   UNL A   1      38.861  30.792  29.747  1.00  0.00     0.049 A 
ATOM     44  H   UNL A   1      40.870  30.346  30.060  1.00  0.00     0.167 HD
ATOM     45  C   UNL A   1      44.977  29.058  30.966  1.00  0.00     0.037 A 
ATOM     46  C   UNL A   1      38.613  31.956  30.376  1.00  0.00     0.037 A 
ATOM     47  C   UNL A   1      44.839  30.355  31.572  1.00  0.00     0.049 A 
ATOM     48  C   UNL A   1      39.726  32.627  31.132  1.00  0.00     0.074 A 
ATOM     49  C   UNL A   1      45.801  31.114  32.211  1.00  0.00     0.029 A 
ATOM     50  N   UNL A   1      43.659  31.084  31.609  1.00  0.00    -0.354 N 
ATOM     51  N   UNL A   1      40.966  32.236  31.299  1.00  0.00    -0.248 NA
ATOM     52  C   UNL A   1      39.405  33.901  31.793  1.00  0.00     0.031 C 
ATOM     53  C   UNL A   1      45.194  32.287  32.674  1.00  0.00     0.029 A 
ATOM     54  C   UNL A   1      43.862  32.275  32.287  1.00  0.00     0.049 A 
ATOM     55  H   UNL A   1      42.804  30.798  31.213  1.00  0.00     0.167 HD
ATOM     56  C   UNL A   1      41.577  33.218  32.066  1.00  0.00     0.074 A 
ATOM     57  C   UNL A   1      40.576  34.234  32.317  1.00  0.00     0.031 C 
ATOM     58  C   UNL A   1      42.850  33.271  32.526  1.00  0.00     0.037 A 
BRANCH  45  59
ATOM     59  C   UNL A   1      46.290  28.346  31.097  1.00  0.00     0.064 A 
ATOM     60  C   UNL A   1      46.552  27.476  32.166  1.00  0.00     0.173 A 
ATOM     61  C   UNL A   1      47.286  28.508  30.123  1.00  0.00     0.173 A 
ATOM     62  F   UNL A   1      45.636  27.296  33.130  1.00  0.00    -0.203 F 
ATOM     63  C   UNL A   1      47.774  26.818  32.271  1.00  0.00     0.198 A 
ATOM     64  C   UNL A   1      48.497  27.825  30.216  1.00  0.00     0.198 A 
ATOM     65  F   UNL A   1      47.086  29.325  29.079  1.00  0.00    -0.203 F 
ATOM     66  F   UNL A   1      48.020  26.031  33.328  1.00  0.00    -0.200 F 
ATOM     67  C   UNL A   1      48.743  26.988  31.294  1.00  0.00     0.200 A 
ATOM     68  F   UNL A   1      49.428  27.982  29.265  1.00  0.00    -0.200 F 
ATOM     69  F   UNL A   1      49.917  26.348  31.393  1.00  0.00    -0.200 F 
ENDBRANCH  45  59
BRANCH  46  70
ATOM     70  C   UNL A   1      37.259  32.564  30.309  1.00  0.00     0.064 A 
ATOM     71  C   UNL A   1      36.297  32.282  31.291  1.00  0.00     0.173 A 
ATOM     72  C   UNL A   1      36.895  33.434  29.272  1.00  0.00     0.173 A 
ATOM     73  F   UNL A   1      36.591  31.439  32.291  1.00  0.00    -0.203 F 
ATOM     74  C   UNL A   1      35.020  32.834  31.227  1.00  0.00     0.198 A 
ATOM     75  C   UNL A   1      35.626  34.007  29.225  1.00  0.00     0.198 A 
ATOM     76  F   UNL A   1      37.779  33.740  28.311  1.00  0.00    -0.203 F 
ATOM     77  F   UNL A   1      34.108  32.515  32.155  1.00  0.00    -0.200 F 
ATOM     78  C   UNL A   1      34.687  33.700  30.197  1.00  0.00     0.200 A 
ATOM     79  F   UNL A   1      35.312  34.855  28.235  1.00  0.00    -0.200 F 
ATOM     80  F   UNL A   1      33.460  34.235  30.140  1.00  0.00    -0.200 F 
ENDBRANCH  46  70
BRANCH  58  81
ATOM     81  C   UNL A   1      43.236  34.469  33.340  1.00  0.00     0.064 A 
ATOM     82  C   UNL A   1      43.639  35.665  32.730  1.00  0.00     0.173 A 
ATOM     83  C   UNL A   1      43.146  34.438  34.740  1.00  0.00     0.173 A 
ATOM     84  F   UNL A   1      43.756  35.736  31.395  1.00  0.00    -0.203 F 
ATOM     85  C   UNL A   1      43.953  36.785  33.495  1.00  0.00     0.198 A 
ATOM     86  C   UNL A   1      43.434  35.568  35.499  1.00  0.00     0.198 A 
ATOM     87  F   UNL A   1      42.759  33.318  35.368  1.00  0.00    -0.203 F 
ATOM     88  F   UNL A   1      44.372  37.907  32.894  1.00  0.00    -0.200 F 
ATOM     89  C   UNL A   1      43.842  36.738  34.876  1.00  0.00     0.200 A 
ATOM     90  F   UNL A   1      43.314  35.525  36.833  1.00  0.00    -0.200 F 
ATOM     91  F   UNL A   1      44.132  37.821  35.610  1.00  0.00    -0.200 F 
ENDBRANCH  58  81
ENDBRANCH  32  33
ENDBRANCH  24  27
ENDBRANCH  22  23
ENDBRANCH  21  22
ENDBRANCH  20  21
ENDBRANCH   1  20
TORSDOF 15
ENDMDL
MODEL 2
REMARK VINA RESULT:     -10.2      5.276     10.815
REMARK SMILES C[C@H](CC(=O)NCCCCNC(=O)c1ccc(-c2c3nc(c(-c4c(F)c(F)c(F)c(F)c4F)c4ccc([nH]4)c(-c4c(F)c(F)c(F)c(F)c4F)c4nc(c(-c5c(F)c(F)c(F)c(F)c5F)c5ccc2[nH]5)C=C4)C=C3)cc1)[NH2+][C@H](C)c1ccccc1
REMARK SMILES IDX 7 1 6 2 4 3 5 4 3 6 2 7 1 8 77 9 78 12 79 13 80 14 81 15
REMARK SMILES IDX 85 16 82 17 84 18 83 19 8 20 9 21 10 22 11 23 12 24 13 26
REMARK SMILES IDX 14 27 15 28 76 29 16 30 75 31 17 32 18 33 19 34 69 35 20 36
REMARK SMILES IDX 74 37 68 38 70 39 21 40 73 41 67 42 66 43 22 45 54 46 34 47
REMARK SMILES IDX 53 48 35 49 38 50 52 51 71 52 36 53 37 54 51 56 72 57 39 58
REMARK SMILES IDX 23 59 24 60 32 61 25 62 26 63 30 64 33 65 27 66 28 67 31 68
REMARK SMILES IDX 29 69 55 70 56 71 64 72 57 73 58 74 62 75 65 76 59 77 60 78
REMARK SMILES IDX 63 79 61 80 40 81 41 82 49 83 42 84 43 85 47 86 50 87 44 88
REMARK SMILES IDX 45 89 48 90 46 91
REMARK H PARENT 6 5 77 10 77 11 11 25 70 44 38 55
REMARK Flexibility Score: inf
ROOT
ATOM      1  C   UNL A   1      32.045  29.752  27.245  1.00  0.00     0.116 C 
ENDROOT
BRANCH   1   2
ATOM      2  N   UNL A   1      31.409  28.446  27.143  1.00  0.00    -0.356 N 
ATOM      3  C   UNL A   1      31.937  27.250  26.739  1.00  0.00     0.225 C 
ATOM      4  O   UNL A   1      31.212  26.254  26.752  1.00  0.00    -0.275 OA
ATOM      5  H   UNL A   1      30.460  28.419  27.403  1.00  0.00     0.163 HD
BRANCH   3   6
ATOM      6  C   UNL A   1      33.366  27.175  26.218  1.00  0.00     0.164 C 
BRANCH   6   7
ATOM      7  C   UNL A   1      33.497  26.679  24.750  1.00  0.00     0.189 C 
ATOM      8  C   UNL A   1      34.118  25.285  24.717  1.00  0.00     0.075 C 
BRANCH   7   9
ATOM      9  N   UNL A   1      32.197  26.778  24.096  1.00  0.00    -0.338 N 
ATOM     10  H   UNL A   1      31.520  26.851  24.855  1.00  0.00     0.347 HD
ATOM     11  H   UNL A   1      32.247  25.966  23.482  1.00  0.00     0.347 HD
BRANCH   9  12
ATOM     12  C   UNL A   1      31.803  27.803  23.129  1.00  0.00     0.210 C 
ATOM     13  C   UNL A   1      32.815  28.941  22.980  1.00  0.00     0.081 C 
BRANCH  12  14
ATOM     14  C   UNL A   1      30.344  28.239  23.073  1.00  0.00     0.009 A 
ATOM     15  C   UNL A   1      29.906  29.521  22.720  1.00  0.00     0.010 A 
ATOM     16  C   UNL A   1      29.360  27.311  23.475  1.00  0.00     0.010 A 
ATOM     17  C   UNL A   1      28.544  29.851  22.728  1.00  0.00     0.001 A 
ATOM     18  C   UNL A   1      28.003  27.640  23.498  1.00  0.00     0.001 A 
ATOM     19  C   UNL A   1      27.594  28.912  23.116  1.00  0.00     0.000 A 
ENDBRANCH  12  14
ENDBRANCH   9  12
ENDBRANCH   7   9
ENDBRANCH   6   7
ENDBRANCH   3   6
ENDBRANCH   1   2
BRANCH   1  20
ATOM     20  C   UNL A   1      31.654  30.731  26.136  1.00  0.00     0.023 C 
BRANCH  20  21
ATOM     21  C   UNL A   1      31.398  32.162  26.592  1.00  0.00     0.023 C 
BRANCH  21  22
ATOM     22  C   UNL A   1      32.562  32.768  27.357  1.00  0.00     0.116 C 
BRANCH  22  23
ATOM     23  N   UNL A   1      32.375  34.193  27.622  1.00  0.00    -0.352 N 
ATOM     24  C   UNL A   1      32.962  34.999  28.566  1.00  0.00     0.251 C 
ATOM     25  H   UNL A   1      31.729  34.644  27.032  1.00  0.00     0.163 HD
ATOM     26  O   UNL A   1      32.548  36.139  28.758  1.00  0.00    -0.269 OA
BRANCH  24  27
ATOM     27  C   UNL A   1      34.078  34.473  29.371  1.00  0.00     0.039 A 
ATOM     28  C   UNL A   1      33.808  33.851  30.593  1.00  0.00     0.014 A 
ATOM     29  C   UNL A   1      35.384  34.546  28.886  1.00  0.00     0.014 A 
ATOM     30  C   UNL A   1      34.840  33.208  31.277  1.00  0.00     0.010 A 
ATOM     31  C   UNL A   1      36.385  33.817  29.511  1.00  0.00     0.010 A 
ATOM     32  C   UNL A   1      36.122  33.134  30.709  1.00  0.00    -0.014 A 
BRANCH  32  33
ATOM     33  C   UNL A   1      37.212  32.342  31.327  1.00  0.00     0.031 A 
ATOM     34  C   UNL A   1      37.712  32.706  32.696  1.00  0.00     0.074 A 
ATOM     35  C   UNL A   1      37.826  31.380  30.611  1.00  0.00     0.049 A 
ATOM     36  N   UNL A   1      38.752  32.254  33.347  1.00  0.00    -0.248 NA
ATOM     37  C   UNL A   1      36.966  33.755  33.413  1.00  0.00     0.031 C 
ATOM     38  C   UNL A   1      37.471  30.980  29.248  1.00  0.00     0.029 A 
ATOM     39  N   UNL A   1      38.894  30.576  30.922  1.00  0.00    -0.354 N 
ATOM     40  C   UNL A   1      38.803  32.981  34.527  1.00  0.00     0.074 A 
ATOM     41  C   UNL A   1      37.723  33.942  34.484  1.00  0.00     0.031 C 
ATOM     42  C   UNL A   1      38.293  29.997  28.848  1.00  0.00     0.029 A 
ATOM     43  C   UNL A   1      39.261  29.728  29.907  1.00  0.00     0.049 A 
ATOM     44  H   UNL A   1      39.355  30.606  31.792  1.00  0.00     0.167 HD
ATOM     45  C   UNL A   1      39.658  32.842  35.567  1.00  0.00     0.037 A 
ATOM     46  C   UNL A   1      40.274  28.845  29.833  1.00  0.00     0.037 A 
ATOM     47  C   UNL A   1      40.696  31.849  35.625  1.00  0.00     0.049 A 
ATOM     48  C   UNL A   1      41.203  28.701  31.007  1.00  0.00     0.074 A 
ATOM     49  C   UNL A   1      41.550  31.555  36.671  1.00  0.00     0.029 A 
ATOM     50  N   UNL A   1      41.017  30.985  34.588  1.00  0.00    -0.354 N 
ATOM     51  N   UNL A   1      41.193  29.340  32.151  1.00  0.00    -0.248 NA
ATOM     52  C   UNL A   1      42.287  27.716  30.879  1.00  0.00     0.031 C 
ATOM     53  C   UNL A   1      42.418  30.541  36.253  1.00  0.00     0.029 A 
ATOM     54  C   UNL A   1      42.077  30.175  34.960  1.00  0.00     0.049 A 
ATOM     55  H   UNL A   1      40.559  30.952  33.716  1.00  0.00     0.167 HD
ATOM     56  C   UNL A   1      42.255  28.826  32.884  1.00  0.00     0.074 A 
ATOM     57  C   UNL A   1      42.875  27.807  32.062  1.00  0.00     0.031 C 
ATOM     58  C   UNL A   1      42.679  29.170  34.124  1.00  0.00     0.037 A 
BRANCH  45  59
ATOM     59  C   UNL A   1      39.497  33.776  36.730  1.00  0.00     0.064 A 
ATOM     60  C   UNL A   1      38.712  33.437  37.842  1.00  0.00     0.173 A 
ATOM     61  C   UNL A   1      40.163  35.010  36.747  1.00  0.00     0.173 A 
ATOM     62  F   UNL A   1      38.044  32.273  37.868  1.00  0.00    -0.203 F 
ATOM     63  C   UNL A   1      38.576  34.312  38.916  1.00  0.00     0.198 A 
ATOM     64  C   UNL A   1      40.049  35.870  37.837  1.00  0.00     0.198 A 
ATOM     65  F   UNL A   1      40.930  35.381  35.711  1.00  0.00    -0.203 F 
ATOM     66  F   UNL A   1      37.781  33.988  39.945  1.00  0.00    -0.200 F 
ATOM     67  C   UNL A   1      39.249  35.524  38.916  1.00  0.00     0.200 A 
ATOM     68  F   UNL A   1      40.709  37.037  37.840  1.00  0.00    -0.200 F 
ATOM     69  F   UNL A   1      39.123  36.363  39.953  1.00  0.00    -0.200 F 
ENDBRANCH  45  59
BRANCH  46  70
ATOM     70  C   UNL A   1      40.457  28.023  28.608  1.00  0.00     0.064 A 
ATOM     71  C   UNL A   1      39.854  26.761  28.496  1.00  0.00     0.173 A 
ATOM     72  C   UNL A   1      41.231  28.474  27.529  1.00  0.00     0.173 A 
ATOM     73  F   UNL A   1      39.122  26.278  29.510  1.00  0.00    -0.203 F 
ATOM     74  C   UNL A   1      40.034  25.976  27.359  1.00  0.00     0.198 A 
ATOM     75  C   UNL A   1      41.386  27.700  26.382  1.00  0.00     0.198 A 
ATOM     76  F   UNL A   1      41.824  29.676  27.585  1.00  0.00    -0.203 F 
ATOM     77  F   UNL A   1      39.481  24.758  27.295  1.00  0.00    -0.200 F 
ATOM     78  C   UNL A   1      40.795  26.448  26.300  1.00  0.00     0.200 A 
ATOM     79  F   UNL A   1      42.112  28.166  25.355  1.00  0.00    -0.200 F 
ATOM     80  F   UNL A   1      40.962  25.695  25.205  1.00  0.00    -0.200 F 
ENDBRANCH  46  70
BRANCH  58  81
ATOM     81  C   UNL A   1      43.866  28.434  34.670  1.00  0.00     0.064 A 
ATOM     82  C   UNL A   1      45.162  28.955  34.554  1.00  0.00     0.173 A 
ATOM     83  C   UNL A   1      43.698  27.228  35.366  1.00  0.00     0.173 A 
ATOM     84  F   UNL A   1      45.373  30.098  33.883  1.00  0.00    -0.203 F 
ATOM     85  C   UNL A   1      46.252  28.286  35.104  1.00  0.00     0.198 A 
ATOM     86  C   UNL A   1      44.786  26.576  35.937  1.00  0.00     0.198 A 
ATOM     87  F   UNL A   1      42.476  26.694  35.507  1.00  0.00    -0.203 F 
ATOM     88  F   UNL A   1      47.488  28.782  34.950  1.00  0.00    -0.200 F 
ATOM     89  C   UNL A   1      46.062  27.102  35.802  1.00  0.00     0.200 A 
ATOM     90  F   UNL A   1      44.600  25.439  36.622  1.00  0.00    -0.200 F 
ATOM     91  F   UNL A   1      47.111  26.465  36.341  1.00  0.00    -0.200 F 
ENDBRANCH  58  81
ENDBRANCH  32  33
ENDBRANCH  24  27
ENDBRANCH  22  23
ENDBRANCH  21  22
ENDBRANCH  20  21
ENDBRANCH   1  20
TORSDOF 15
ENDMDL
MODEL 3
REMARK VINA RESULT:     -10.0      1.073      2.197
REMARK SMILES C[C@H](CC(=O)NCCCCNC(=O)c1ccc(-c2c3nc(c(-c4c(F)c(F)c(F)c(F)c4F)c4ccc([nH]4)c(-c4c(F)c(F)c(F)c(F)c4F)c4nc(c(-c5c(F)c(F)c(F)c(F)c5F)c5ccc2[nH]5)C=C4)C=C3)cc1)[NH2+][C@H](C)c1ccccc1
REMARK SMILES IDX 7 1 6 2 4 3 5 4 3 6 2 7 1 8 77 9 78 12 79 13 80 14 81 15
REMARK SMILES IDX 85 16 82 17 84 18 83 19 8 20 9 21 10 22 11 23 12 24 13 26
REMARK SMILES IDX 14 27 15 28 76 29 16 30 75 31 17 32 18 33 19 34 69 35 20 36
REMARK SMILES IDX 74 37 68 38 70 39 21 40 73 41 67 42 66 43 22 45 54 46 34 47
REMARK SMILES IDX 53 48 35 49 38 50 52 51 71 52 36 53 37 54 51 56 72 57 39 58
REMARK SMILES IDX 23 59 24 60 32 61 25 62 26 63 30 64 33 65 27 66 28 67 31 68
REMARK SMILES IDX 29 69 55 70 56 71 64 72 57 73 58 74 62 75 65 76 59 77 60 78
REMARK SMILES IDX 63 79 61 80 40 81 41 82 49 83 42 84 43 85 47 86 50 87 44 88
REMARK SMILES IDX 45 89 48 90 46 91
REMARK H PARENT 6 5 77 10 77 11 11 25 70 44 38 55
REMARK Flexibility Score: inf
ROOT
ATOM      1  C   UNL A   1      42.841  20.673  26.352  1.00  0.00     0.116 C 
ENDROOT
BRANCH   1   2
ATOM      2  N   UNL A   1      43.471  21.300  25.198  1.00  0.00    -0.356 N 
ATOM      3  C   UNL A   1      43.658  22.627  24.924  1.00  0.00     0.225 C 
ATOM      4  O   UNL A   1      44.244  22.933  23.884  1.00  0.00    -0.275 OA
ATOM      5  H   UNL A   1      43.812  20.677  24.517  1.00  0.00     0.163 HD
BRANCH   3   6
ATOM      6  C   UNL A   1      43.091  23.694  25.849  1.00  0.00     0.164 C 
BRANCH   6   7
ATOM      7  C   UNL A   1      44.142  24.389  26.761  1.00  0.00     0.189 C 
ATOM      8  C   UNL A   1      44.500  23.484  27.938  1.00  0.00     0.075 C 
BRANCH   7   9
ATOM      9  N   UNL A   1      45.280  24.802  25.948  1.00  0.00    -0.338 N 
ATOM     10  H   UNL A   1      45.348  24.103  25.208  1.00  0.00     0.347 HD
ATOM     11  H   UNL A   1      45.989  24.903  26.674  1.00  0.00     0.347 HD
BRANCH   9  12
ATOM     12  C   UNL A   1      45.424  26.092  25.273  1.00  0.00     0.210 C 
ATOM     13  C   UNL A   1      46.874  26.488  24.990  1.00  0.00     0.081 C 
BRANCH  12  14
ATOM     14  C   UNL A   1      44.521  27.246  25.692  1.00  0.00     0.009 A 
ATOM     15  C   UNL A   1      43.221  27.456  25.218  1.00  0.00     0.010 A 
ATOM     16  C   UNL A   1      45.052  28.217  26.568  1.00  0.00     0.010 A 
ATOM     17  C   UNL A   1      42.468  28.565  25.630  1.00  0.00     0.001 A 
ATOM     18  C   UNL A   1      44.310  29.330  26.968  1.00  0.00     0.001 A 
ATOM     19  C   UNL A   1      43.012  29.500  26.504  1.00  0.00     0.000 A 
ENDBRANCH  12  14
ENDBRANCH   9  12
ENDBRANCH   7   9
ENDBRANCH   6   7
ENDBRANCH   3   6
ENDBRANCH   1   2
BRANCH   1  20
ATOM     20  C   UNL A   1      41.792  19.617  26.001  1.00  0.00     0.023 C 
BRANCH  20  21
ATOM     21  C   UNL A   1      40.351  20.000  26.311  1.00  0.00     0.023 C 
BRANCH  21  22
ATOM     22  C   UNL A   1      40.165  21.486  26.570  1.00  0.00     0.116 C 
BRANCH  22  23
ATOM     23  N   UNL A   1      38.940  22.009  25.971  1.00  0.00    -0.352 N 
ATOM     24  C   UNL A   1      38.341  23.235  26.116  1.00  0.00     0.251 C 
ATOM     25  H   UNL A   1      38.472  21.385  25.370  1.00  0.00     0.163 HD
ATOM     26  O   UNL A   1      37.214  23.436  25.673  1.00  0.00    -0.269 OA
BRANCH  24  27
ATOM     27  C   UNL A   1      39.052  24.305  26.838  1.00  0.00     0.039 A 
ATOM     28  C   UNL A   1      39.854  25.198  26.123  1.00  0.00     0.014 A 
ATOM     29  C   UNL A   1      38.877  24.455  28.214  1.00  0.00     0.014 A 
ATOM     30  C   UNL A   1      40.394  26.307  26.775  1.00  0.00     0.010 A 
ATOM     31  C   UNL A   1      39.324  25.611  28.836  1.00  0.00     0.010 A 
ATOM     32  C   UNL A   1      40.081  26.553  28.122  1.00  0.00    -0.014 A 
BRANCH  32  33
ATOM     33  C   UNL A   1      40.513  27.789  28.817  1.00  0.00     0.031 A 
ATOM     34  C   UNL A   1      41.889  27.863  29.416  1.00  0.00     0.074 A 
ATOM     35  C   UNL A   1      39.630  28.788  29.011  1.00  0.00     0.049 A 
ATOM     36  N   UNL A   1      42.404  28.777  30.197  1.00  0.00    -0.248 NA
ATOM     37  C   UNL A   1      42.792  26.735  29.134  1.00  0.00     0.031 C 
ATOM     38  C   UNL A   1      38.246  28.802  28.533  1.00  0.00     0.029 A 
ATOM     39  N   UNL A   1      39.758  29.978  29.683  1.00  0.00    -0.354 N 
ATOM     40  C   UNL A   1      43.674  28.319  30.523  1.00  0.00     0.074 A 
ATOM     41  C   UNL A   1      43.833  27.023  29.901  1.00  0.00     0.031 C 
ATOM     42  C   UNL A   1      37.660  29.949  28.909  1.00  0.00     0.029 A 
ATOM     43  C   UNL A   1      38.610  30.732  29.694  1.00  0.00     0.049 A 
ATOM     44  H   UNL A   1      40.594  30.264  30.117  1.00  0.00     0.167 HD
ATOM     45  C   UNL A   1      44.630  28.937  31.255  1.00  0.00     0.037 A 
ATOM     46  C   UNL A   1      38.349  31.913  30.285  1.00  0.00     0.037 A 
ATOM     47  C   UNL A   1      44.482  30.249  31.825  1.00  0.00     0.049 A 
ATOM     48  C   UNL A   1      39.434  32.584  31.081  1.00  0.00     0.074 A 
ATOM     49  C   UNL A   1      45.423  31.008  32.495  1.00  0.00     0.029 A 
ATOM     50  N   UNL A   1      43.314  30.995  31.788  1.00  0.00    -0.354 N 
ATOM     51  N   UNL A   1      40.658  32.179  31.318  1.00  0.00    -0.248 NA
ATOM     52  C   UNL A   1      39.101  33.877  31.698  1.00  0.00     0.031 C 
ATOM     53  C   UNL A   1      44.812  32.198  32.902  1.00  0.00     0.029 A 
ATOM     54  C   UNL A   1      43.502  32.198  32.449  1.00  0.00     0.049 A 
ATOM     55  H   UNL A   1      42.475  30.713  31.355  1.00  0.00     0.167 HD
ATOM     56  C   UNL A   1      41.245  33.169  32.094  1.00  0.00     0.074 A 
ATOM     57  C   UNL A   1      40.249  34.205  32.273  1.00  0.00     0.031 C 
ATOM     58  C   UNL A   1      42.494  33.213  32.616  1.00  0.00     0.037 A 
BRANCH  45  59
ATOM     59  C   UNL A   1      45.924  28.208  31.466  1.00  0.00     0.064 A 
ATOM     60  C   UNL A   1      46.991  28.328  30.564  1.00  0.00     0.173 A 
ATOM     61  C   UNL A   1      46.110  27.406  32.602  1.00  0.00     0.173 A 
ATOM     62  F   UNL A   1      46.858  29.072  29.455  1.00  0.00    -0.203 F 
ATOM     63  C   UNL A   1      48.188  27.648  30.776  1.00  0.00     0.198 A 
ATOM     64  C   UNL A   1      47.319  26.752  32.826  1.00  0.00     0.198 A 
ATOM     65  F   UNL A   1      45.123  27.262  33.497  1.00  0.00    -0.203 F 
ATOM     66  F   UNL A   1      49.176  27.738  29.874  1.00  0.00    -0.200 F 
ATOM     67  C   UNL A   1      48.353  26.867  31.909  1.00  0.00     0.200 A 
ATOM     68  F   UNL A   1      47.481  26.006  33.928  1.00  0.00    -0.200 F 
ATOM     69  F   UNL A   1      49.508  26.218  32.116  1.00  0.00    -0.200 F 
ENDBRANCH  45  59
BRANCH  46  70
ATOM     70  C   UNL A   1      37.010  32.539  30.137  1.00  0.00     0.064 A 
ATOM     71  C   UNL A   1      36.042  32.406  31.143  1.00  0.00     0.173 A 
ATOM     72  C   UNL A   1      36.667  33.279  28.997  1.00  0.00     0.173 A 
ATOM     73  F   UNL A   1      36.316  31.690  32.243  1.00  0.00    -0.203 F 
ATOM     74  C   UNL A   1      34.778  32.975  31.006  1.00  0.00     0.198 A 
ATOM     75  C   UNL A   1      35.412  33.871  28.873  1.00  0.00     0.198 A 
ATOM     76  F   UNL A   1      37.559  33.440  28.007  1.00  0.00    -0.203 F 
ATOM     77  F   UNL A   1      33.859  32.798  31.964  1.00  0.00    -0.200 F 
ATOM     78  C   UNL A   1      34.465  33.712  29.874  1.00  0.00     0.200 A 
ATOM     79  F   UNL A   1      35.119  34.594  27.783  1.00  0.00    -0.200 F 
ATOM     80  F   UNL A   1      33.252  34.264  29.745  1.00  0.00    -0.200 F 
ENDBRANCH  46  70
BRANCH  58  81
ATOM     81  C   UNL A   1      42.858  34.424  33.423  1.00  0.00     0.064 A 
ATOM     82  C   UNL A   1      43.280  35.609  32.806  1.00  0.00     0.173 A 
ATOM     83  C   UNL A   1      42.727  34.414  34.819  1.00  0.00     0.173 A 
ATOM     84  F   UNL A   1      43.436  35.660  31.475  1.00  0.00    -0.203 F 
ATOM     85  C   UNL A   1      43.574  36.741  33.562  1.00  0.00     0.198 A 
ATOM     86  C   UNL A   1      42.995  35.555  35.569  1.00  0.00     0.198 A 
ATOM     87  F   UNL A   1      42.320  33.304  35.453  1.00  0.00    -0.203 F 
ATOM     88  F   UNL A   1      44.011  37.853  32.957  1.00  0.00    -0.200 F 
ATOM     89  C   UNL A   1      43.422  36.715  34.941  1.00  0.00     0.200 A 
ATOM     90  F   UNL A   1      42.835  35.533  36.900  1.00  0.00    -0.200 F 
ATOM     91  F   UNL A   1      43.692  37.809  35.666  1.00  0.00    -0.200 F 
ENDBRANCH  58  81
ENDBRANCH  32  33
ENDBRANCH  24  27
ENDBRANCH  22  23
ENDBRANCH  21  22
ENDBRANCH  20  21
ENDBRANCH   1  20
TORSDOF 15
ENDMDL
