MODEL 1
REMARK VINA RESULT:     -13.0      0.000      0.000
REMARK SMILES O=C(NCCCCNC(=O)c1ccc(-c2cccc(F)c2)o1)c1ccc(-c2c3nc(c(-c4c(F)c(F)c(F)c(F)c4F)c4ccc([nH]4)c(-c4c(F)c(F)c(F)c(F)c4F)c4nc(c(-c5c(F)c(F)c(F)c(F)c5F)c5ccc2[nH]5)C=C4)C=C3)cc1
REMARK SMILES IDX 5 1 4 2 3 3 1 4 2 5 23 7 24 8 85 9 25 10 84 11 26 12 27 13
REMARK SMILES IDX 28 14 78 15 29 16 83 17 77 18 79 19 30 20 82 21 76 22 75 23
REMARK SMILES IDX 31 25 63 26 43 27 62 28 44 29 47 30 61 31 80 32 45 33 46 34
REMARK SMILES IDX 60 36 81 37 48 38 32 39 33 40 41 41 34 42 35 43 39 44 42 45
REMARK SMILES IDX 36 46 37 47 40 48 38 49 64 50 65 51 73 52 66 53 67 54 71 55
REMARK SMILES IDX 74 56 68 57 69 58 72 59 70 60 49 61 50 62 58 63 51 64 52 65
REMARK SMILES IDX 56 66 59 67 53 68 54 69 57 70 55 71 6 72 7 73 8 74 9 75
REMARK SMILES IDX 10 77 11 78 12 79 22 80 13 81 14 82 15 83 16 84 21 85 17 86
REMARK SMILES IDX 19 87 18 88 20 89
REMARK H PARENT 3 6 79 24 47 35 8 76
REMARK Flexibility Score: inf
ROOT
ATOM      1  C   UNL A   1      32.800  29.329  24.547  1.00  0.00     0.023 C 
ENDROOT
BRANCH   1   2
ATOM      2  C   UNL A   1      32.868  29.548  26.053  1.00  0.00     0.116 C 
BRANCH   2   3
ATOM      3  N   UNL A   1      32.574  30.917  26.449  1.00  0.00    -0.352 N 
ATOM      4  O   UNL A   1      32.813  32.851  27.588  1.00  0.00    -0.269 OA
ATOM      5  C   UNL A   1      33.280  31.760  27.275  1.00  0.00     0.251 C 
ATOM      6  H   UNL A   1      31.749  31.296  26.069  1.00  0.00     0.163 HD
BRANCH   5   7
ATOM      7  C   UNL A   1      34.587  31.335  27.822  1.00  0.00     0.039 A 
ATOM      8  C   UNL A   1      34.808  30.006  28.189  1.00  0.00     0.014 A 
ATOM      9  C   UNL A   1      35.596  32.287  27.991  1.00  0.00     0.014 A 
ATOM     10  C   UNL A   1      35.965  29.669  28.882  1.00  0.00     0.010 A 
ATOM     11  C   UNL A   1      36.794  31.927  28.614  1.00  0.00     0.010 A 
ATOM     12  C   UNL A   1      36.968  30.627  29.110  1.00  0.00    -0.014 A 
BRANCH  12  13
ATOM     13  C   UNL A   1      38.181  30.234  29.872  1.00  0.00     0.031 A 
ATOM     14  C   UNL A   1      38.372  30.667  31.300  1.00  0.00     0.074 A 
ATOM     15  C   UNL A   1      39.081  29.420  29.289  1.00  0.00     0.049 A 
ATOM     16  N   UNL A   1      39.335  30.358  32.133  1.00  0.00    -0.248 NA
ATOM     17  C   UNL A   1      37.357  31.567  31.868  1.00  0.00     0.031 C 
ATOM     18  C   UNL A   1      39.006  28.939  27.910  1.00  0.00     0.029 A 
ATOM     19  N   UNL A   1      40.210  28.824  29.791  1.00  0.00    -0.354 N 
ATOM     20  C   UNL A   1      39.053  31.037  33.310  1.00  0.00     0.074 A 
ATOM     21  C   UNL A   1      37.843  31.795  33.081  1.00  0.00     0.031 C 
ATOM     22  C   UNL A   1      40.006  28.073  27.693  1.00  0.00     0.029 A 
ATOM     23  C   UNL A   1      40.818  27.973  28.902  1.00  0.00     0.049 A 
ATOM     24  H   UNL A   1      40.551  28.991  30.699  1.00  0.00     0.167 HD
ATOM     25  C   UNL A   1      39.738  31.020  34.479  1.00  0.00     0.037 A 
ATOM     26  C   UNL A   1      41.905  27.193  29.044  1.00  0.00     0.037 A 
ATOM     27  C   UNL A   1      40.928  30.245  34.716  1.00  0.00     0.049 A 
ATOM     28  C   UNL A   1      42.635  27.178  30.355  1.00  0.00     0.074 A 
ATOM     29  C   UNL A   1      41.688  30.161  35.871  1.00  0.00     0.029 A 
ATOM     30  N   UNL A   1      41.526  29.413  33.782  1.00  0.00    -0.354 N 
ATOM     31  N   UNL A   1      42.357  27.827  31.460  1.00  0.00    -0.248 NA
ATOM     32  C   UNL A   1      43.830  26.329  30.439  1.00  0.00     0.031 C 
ATOM     33  C   UNL A   1      42.761  29.297  35.627  1.00  0.00     0.029 A 
ATOM     34  C   UNL A   1      42.649  28.815  34.332  1.00  0.00     0.049 A 
ATOM     35  H   UNL A   1      41.203  29.268  32.863  1.00  0.00     0.167 HD
ATOM     36  C   UNL A   1      43.336  27.460  32.372  1.00  0.00     0.074 A 
ATOM     37  C   UNL A   1      44.203  26.516  31.698  1.00  0.00     0.031 C 
ATOM     38  C   UNL A   1      43.501  27.876  33.651  1.00  0.00     0.037 A 
BRANCH  25  39
ATOM     39  C   UNL A   1      39.223  31.872  35.602  1.00  0.00     0.064 A 
ATOM     40  C   UNL A   1      39.676  33.190  35.760  1.00  0.00     0.173 A 
ATOM     41  C   UNL A   1      38.328  31.365  36.555  1.00  0.00     0.173 A 
ATOM     42  F   UNL A   1      40.536  33.719  34.877  1.00  0.00    -0.203 F 
ATOM     43  C   UNL A   1      39.259  33.967  36.837  1.00  0.00     0.198 A 
ATOM     44  C   UNL A   1      37.896  32.152  37.620  1.00  0.00     0.198 A 
ATOM     45  F   UNL A   1      37.857  30.114  36.441  1.00  0.00    -0.203 F 
ATOM     46  F   UNL A   1      39.724  35.215  36.983  1.00  0.00    -0.200 F 
ATOM     47  C   UNL A   1      38.367  33.448  37.765  1.00  0.00     0.200 A 
ATOM     48  F   UNL A   1      37.018  31.658  38.504  1.00  0.00    -0.200 F 
ATOM     49  F   UNL A   1      37.959  34.200  38.797  1.00  0.00    -0.200 F 
ENDBRANCH  25  39
BRANCH  26  50
ATOM     50  C   UNL A   1      42.336  26.337  27.912  1.00  0.00     0.064 A 
ATOM     51  C   UNL A   1      43.305  26.774  26.998  1.00  0.00     0.173 A 
ATOM     52  C   UNL A   1      41.741  25.088  27.690  1.00  0.00     0.173 A 
ATOM     53  F   UNL A   1      43.896  27.967  27.166  1.00  0.00    -0.203 F 
ATOM     54  C   UNL A   1      43.646  26.003  25.889  1.00  0.00     0.198 A 
ATOM     55  C   UNL A   1      42.100  24.307  26.595  1.00  0.00     0.198 A 
ATOM     56  F   UNL A   1      40.821  24.623  28.548  1.00  0.00    -0.203 F 
ATOM     57  F   UNL A   1      44.546  26.462  25.009  1.00  0.00    -0.200 F 
ATOM     58  C   UNL A   1      43.045  24.770  25.689  1.00  0.00     0.200 A 
ATOM     59  F   UNL A   1      41.530  23.109  26.413  1.00  0.00    -0.200 F 
ATOM     60  F   UNL A   1      43.374  24.027  24.624  1.00  0.00    -0.200 F 
ENDBRANCH  26  50
BRANCH  38  61
ATOM     61  C   UNL A   1      44.656  27.305  34.415  1.00  0.00     0.064 A 
ATOM     62  C   UNL A   1      45.913  27.927  34.375  1.00  0.00     0.173 A 
ATOM     63  C   UNL A   1      44.532  26.112  35.140  1.00  0.00     0.173 A 
ATOM     64  F   UNL A   1      46.080  29.069  33.690  1.00  0.00    -0.203 F 
ATOM     65  C   UNL A   1      47.008  27.369  35.029  1.00  0.00     0.198 A 
ATOM     66  C   UNL A   1      45.624  25.567  35.809  1.00  0.00     0.198 A 
ATOM     67  F   UNL A   1      43.347  25.489  35.216  1.00  0.00    -0.203 F 
ATOM     68  F   UNL A   1      48.204  27.969  34.961  1.00  0.00    -0.200 F 
ATOM     69  C   UNL A   1      46.861  26.192  35.748  1.00  0.00     0.200 A 
ATOM     70  F   UNL A   1      45.478  24.442  36.522  1.00  0.00    -0.200 F 
ATOM     71  F   UNL A   1      47.913  25.662  36.387  1.00  0.00    -0.200 F 
ENDBRANCH  38  61
ENDBRANCH  12  13
ENDBRANCH   5   7
ENDBRANCH   2   3
ENDBRANCH   1   2
BRANCH   1  72
ATOM     72  C   UNL A   1      33.865  28.394  23.973  1.00  0.00     0.023 C 
BRANCH  72  73
ATOM     73  C   UNL A   1      33.492  26.915  23.964  1.00  0.00     0.116 C 
BRANCH  73  74
ATOM     74  N   UNL A   1      33.285  26.417  22.616  1.00  0.00    -0.349 N 
ATOM     75  C   UNL A   1      32.100  26.315  21.923  1.00  0.00     0.287 C 
ATOM     76  H   UNL A   1      34.091  26.114  22.139  1.00  0.00     0.163 HD
ATOM     77  O   UNL A   1      32.104  25.696  20.860  1.00  0.00    -0.266 OA
BRANCH  75  78
ATOM     78  C   UNL A   1      30.935  26.958  22.477  1.00  0.00     0.192 A 
ATOM     79  C   UNL A   1      29.955  26.503  23.339  1.00  0.00     0.057 A 
ATOM     80  O   UNL A   1      30.669  28.250  22.120  1.00  0.00    -0.451 OA
ATOM     81  C   UNL A   1      29.045  27.572  23.516  1.00  0.00     0.052 A 
ATOM     82  C   UNL A   1      29.514  28.616  22.747  1.00  0.00     0.135 A 
BRANCH  82  83
ATOM     83  C   UNL A   1      29.047  29.970  22.491  1.00  0.00     0.020 A 
ATOM     84  C   UNL A   1      29.060  30.928  23.516  1.00  0.00     0.012 A 
ATOM     85  C   UNL A   1      28.554  30.331  21.232  1.00  0.00     0.051 A 
ATOM     86  C   UNL A   1      28.590  32.224  23.288  1.00  0.00     0.004 A 
ATOM     87  C   UNL A   1      28.077  31.619  21.018  1.00  0.00     0.123 A 
ATOM     88  C   UNL A   1      28.091  32.569  22.034  1.00  0.00     0.039 A 
ATOM     89  F   UNL A   1      27.586  31.950  19.817  1.00  0.00    -0.207 F 
ENDBRANCH  82  83
ENDBRANCH  75  78
ENDBRANCH  73  74
ENDBRANCH  72  73
ENDBRANCH   1  72
TORSDOF 12
ENDMDL
MODEL 2
REMARK VINA RESULT:     -12.8      0.439      1.687
REMARK SMILES O=C(NCCCCNC(=O)c1ccc(-c2cccc(F)c2)o1)c1ccc(-c2c3nc(c(-c4c(F)c(F)c(F)c(F)c4F)c4ccc([nH]4)c(-c4c(F)c(F)c(F)c(F)c4F)c4nc(c(-c5c(F)c(F)c(F)c(F)c5F)c5ccc2[nH]5)C=C4)C=C3)cc1
REMARK SMILES IDX 5 1 4 2 3 3 1 4 2 5 23 7 24 8 85 9 25 10 84 11 26 12 27 13
REMARK SMILES IDX 28 14 78 15 29 16 83 17 77 18 79 19 30 20 82 21 76 22 75 23
REMARK SMILES IDX 31 25 63 26 43 27 62 28 44 29 47 30 61 31 80 32 45 33 46 34
REMARK SMILES IDX 60 36 81 37 48 38 32 39 33 40 41 41 34 42 35 43 39 44 42 45
REMARK SMILES IDX 36 46 37 47 40 48 38 49 64 50 65 51 73 52 66 53 67 54 71 55
REMARK SMILES IDX 74 56 68 57 69 58 72 59 70 60 49 61 50 62 58 63 51 64 52 65
REMARK SMILES IDX 56 66 59 67 53 68 54 69 57 70 55 71 6 72 7 73 8 74 9 75
REMARK SMILES IDX 10 77 11 78 12 79 22 80 13 81 14 82 15 83 16 84 21 85 17 86
REMARK SMILES IDX 19 87 18 88 20 89
REMARK H PARENT 3 6 79 24 47 35 8 76
REMARK Flexibility Score: inf
ROOT
ATOM      1  C   UNL A   1      32.426  29.679  25.225  1.00  0.00     0.023 C 
ENDROOT
BRANCH   1   2
ATOM      2  C   UNL A   1      32.369  30.130  26.679  1.00  0.00     0.116 C 
BRANCH   2   3
ATOM      3  N   UNL A   1      32.290  31.576  26.830  1.00  0.00    -0.352 N 
ATOM      4  O   UNL A   1      32.884  33.629  27.555  1.00  0.00    -0.269 OA
ATOM      5  C   UNL A   1      33.177  32.445  27.419  1.00  0.00     0.251 C 
ATOM      6  H   UNL A   1      31.481  31.993  26.453  1.00  0.00     0.163 HD
BRANCH   5   7
ATOM      7  C   UNL A   1      34.473  31.945  27.928  1.00  0.00     0.039 A 
ATOM      8  C   UNL A   1      34.615  30.618  28.335  1.00  0.00     0.014 A 
ATOM      9  C   UNL A   1      35.553  32.827  28.020  1.00  0.00     0.014 A 
ATOM     10  C   UNL A   1      35.774  30.221  28.993  1.00  0.00     0.010 A 
ATOM     11  C   UNL A   1      36.749  32.402  28.607  1.00  0.00     0.010 A 
ATOM     12  C   UNL A   1      36.851  31.111  29.144  1.00  0.00    -0.014 A 
BRANCH  12  13
ATOM     13  C   UNL A   1      38.065  30.658  29.870  1.00  0.00     0.031 A 
ATOM     14  C   UNL A   1      38.293  31.037  31.308  1.00  0.00     0.074 A 
ATOM     15  C   UNL A   1      38.930  29.838  29.245  1.00  0.00     0.049 A 
ATOM     16  N   UNL A   1      39.261  30.672  32.112  1.00  0.00    -0.248 NA
ATOM     17  C   UNL A   1      37.315  31.947  31.924  1.00  0.00     0.031 C 
ATOM     18  C   UNL A   1      38.817  29.407  27.852  1.00  0.00     0.029 A 
ATOM     19  N   UNL A   1      40.049  29.193  29.705  1.00  0.00    -0.354 N 
ATOM     20  C   UNL A   1      39.020  31.318  33.317  1.00  0.00     0.074 A 
ATOM     21  C   UNL A   1      37.828  32.119  33.135  1.00  0.00     0.031 C 
ATOM     22  C   UNL A   1      39.787  28.519  27.588  1.00  0.00     0.029 A 
ATOM     23  C   UNL A   1      40.617  28.355  28.778  1.00  0.00     0.049 A 
ATOM     24  H   UNL A   1      40.411  29.319  30.612  1.00  0.00     0.167 HD
ATOM     25  C   UNL A   1      39.724  31.243  34.472  1.00  0.00     0.037 A 
ATOM     26  C   UNL A   1      41.682  27.539  28.875  1.00  0.00     0.037 A 
ATOM     27  C   UNL A   1      40.894  30.426  34.662  1.00  0.00     0.049 A 
ATOM     28  C   UNL A   1      42.434  27.459  30.171  1.00  0.00     0.074 A 
ATOM     29  C   UNL A   1      41.671  30.280  35.798  1.00  0.00     0.029 A 
ATOM     30  N   UNL A   1      41.451  29.609  33.689  1.00  0.00    -0.354 N 
ATOM     31  N   UNL A   1      42.195  28.078  31.301  1.00  0.00    -0.248 NA
ATOM     32  C   UNL A   1      43.605  26.573  30.205  1.00  0.00     0.031 C 
ATOM     33  C   UNL A   1      42.714  29.395  35.506  1.00  0.00     0.029 A 
ATOM     34  C   UNL A   1      42.565  28.960  34.199  1.00  0.00     0.049 A 
ATOM     35  H   UNL A   1      41.108  29.504  32.773  1.00  0.00     0.167 HD
ATOM     36  C   UNL A   1      43.177  27.653  32.182  1.00  0.00     0.074 A 
ATOM     37  C   UNL A   1      44.005  26.707  31.462  1.00  0.00     0.031 C 
ATOM     38  C   UNL A   1      43.377  28.020  33.471  1.00  0.00     0.037 A 
BRANCH  25  39
ATOM     39  C   UNL A   1      39.253  32.070  35.632  1.00  0.00     0.064 A 
ATOM     40  C   UNL A   1      39.721  33.381  35.805  1.00  0.00     0.173 A 
ATOM     41  C   UNL A   1      38.388  31.547  36.603  1.00  0.00     0.173 A 
ATOM     42  F   UNL A   1      40.555  33.926  34.906  1.00  0.00    -0.203 F 
ATOM     43  C   UNL A   1      39.347  34.135  36.914  1.00  0.00     0.198 A 
ATOM     44  C   UNL A   1      37.998  32.311  37.700  1.00  0.00     0.198 A 
ATOM     45  F   UNL A   1      37.904  30.302  36.475  1.00  0.00    -0.203 F 
ATOM     46  F   UNL A   1      39.826  35.377  37.073  1.00  0.00    -0.200 F 
ATOM     47  C   UNL A   1      38.484  33.600  37.859  1.00  0.00     0.200 A 
ATOM     48  F   UNL A   1      37.147  31.802  38.601  1.00  0.00    -0.200 F 
ATOM     49  F   UNL A   1      38.117  34.330  38.922  1.00  0.00    -0.200 F 
ENDBRANCH  25  39
BRANCH  26  50
ATOM     50  C   UNL A   1      42.068  26.710  27.707  1.00  0.00     0.064 A 
ATOM     51  C   UNL A   1      41.504  25.442  27.498  1.00  0.00     0.173 A 
ATOM     52  C   UNL A   1      43.052  27.146  26.811  1.00  0.00     0.173 A 
ATOM     53  F   UNL A   1      40.565  24.980  28.335  1.00  0.00    -0.203 F 
ATOM     54  C   UNL A   1      41.930  24.632  26.448  1.00  0.00     0.198 A 
ATOM     55  C   UNL A   1      43.459  26.345  25.747  1.00  0.00     0.198 A 
ATOM     56  F   UNL A   1      43.607  28.357  26.963  1.00  0.00    -0.203 F 
ATOM     57  F   UNL A   1      41.404  23.410  26.294  1.00  0.00    -0.200 F 
ATOM     58  C   UNL A   1      42.905  25.084  25.573  1.00  0.00     0.200 A 
ATOM     59  F   UNL A   1      44.390  26.791  24.893  1.00  0.00    -0.200 F 
ATOM     60  F   UNL A   1      43.313  24.306  24.562  1.00  0.00    -0.200 F 
ENDBRANCH  26  50
BRANCH  38  61
ATOM     61  C   UNL A   1      44.528  27.390  34.195  1.00  0.00     0.064 A 
ATOM     62  C   UNL A   1      44.352  26.192  34.902  1.00  0.00     0.173 A 
ATOM     63  C   UNL A   1      45.788  28.002  34.235  1.00  0.00     0.173 A 
ATOM     64  F   UNL A   1      43.162  25.571  34.897  1.00  0.00    -0.203 F 
ATOM     65  C   UNL A   1      45.398  25.632  35.631  1.00  0.00     0.198 A 
ATOM     66  C   UNL A   1      46.837  27.430  34.947  1.00  0.00     0.198 A 
ATOM     67  F   UNL A   1      46.005  29.142  33.563  1.00  0.00    -0.203 F 
ATOM     68  F   UNL A   1      45.203  24.497  36.316  1.00  0.00    -0.200 F 
ATOM     69  C   UNL A   1      46.639  26.250  35.650  1.00  0.00     0.200 A 
ATOM     70  F   UNL A   1      48.043  28.015  34.948  1.00  0.00    -0.200 F 
ATOM     71  F   UNL A   1      47.649  25.704  36.342  1.00  0.00    -0.200 F 
ENDBRANCH  38  61
ENDBRANCH  12  13
ENDBRANCH   5   7
ENDBRANCH   2   3
ENDBRANCH   1   2
BRANCH   1  72
ATOM     72  C   UNL A   1      33.573  28.729  24.879  1.00  0.00     0.023 C 
BRANCH  72  73
ATOM     73  C   UNL A   1      33.199  27.249  24.840  1.00  0.00     0.116 C 
BRANCH  73  74
ATOM     74  N   UNL A   1      33.277  26.705  23.496  1.00  0.00    -0.349 N 
ATOM     75  C   UNL A   1      32.252  26.514  22.599  1.00  0.00     0.287 C 
ATOM     76  H   UNL A   1      34.175  26.441  23.190  1.00  0.00     0.163 HD
ATOM     77  O   UNL A   1      32.490  25.869  21.579  1.00  0.00    -0.266 OA
BRANCH  75  78
ATOM     78  C   UNL A   1      30.970  27.099  22.903  1.00  0.00     0.192 A 
ATOM     79  C   UNL A   1      29.844  26.582  23.516  1.00  0.00     0.057 A 
ATOM     80  O   UNL A   1      30.738  28.394  22.533  1.00  0.00    -0.451 OA
ATOM     81  C   UNL A   1      28.876  27.614  23.519  1.00  0.00     0.052 A 
ATOM     82  C   UNL A   1      29.460  28.700  22.902  1.00  0.00     0.135 A 
BRANCH  82  83
ATOM     83  C   UNL A   1      29.007  30.046  22.588  1.00  0.00     0.020 A 
ATOM     84  C   UNL A   1      29.035  31.048  23.569  1.00  0.00     0.012 A 
ATOM     85  C   UNL A   1      28.515  30.358  21.315  1.00  0.00     0.051 A 
ATOM     86  C   UNL A   1      28.578  32.338  23.287  1.00  0.00     0.004 A 
ATOM     87  C   UNL A   1      28.051  31.640  21.047  1.00  0.00     0.123 A 
ATOM     88  C   UNL A   1      28.079  32.633  22.020  1.00  0.00     0.039 A 
ATOM     89  F   UNL A   1      27.561  31.924  19.833  1.00  0.00    -0.207 F 
ENDBRANCH  82  83
ENDBRANCH  75  78
ENDBRANCH  73  74
ENDBRANCH  72  73
ENDBRANCH   1  72
TORSDOF 12
ENDMDL
MODEL 3
REMARK VINA RESULT:     -12.7      2.670      4.736
REMARK SMILES O=C(NCCCCNC(=O)c1ccc(-c2cccc(F)c2)o1)c1ccc(-c2c3nc(c(-c4c(F)c(F)c(F)c(F)c4F)c4ccc([nH]4)c(-c4c(F)c(F)c(F)c(F)c4F)c4nc(c(-c5c(F)c(F)c(F)c(F)c5F)c5ccc2[nH]5)C=C4)C=C3)cc1
REMARK SMILES IDX 5 1 4 2 3 3 1 4 2 5 23 7 24 8 85 9 25 10 84 11 26 12 27 13
REMARK SMILES IDX 28 14 78 15 29 16 83 17 77 18 79 19 30 20 82 21 76 22 75 23
REMARK SMILES IDX 31 25 63 26 43 27 62 28 44 29 47 30 61 31 80 32 45 33 46 34
REMARK SMILES IDX 60 36 81 37 48 38 32 39 33 40 41 41 34 42 35 43 39 44 42 45
REMARK SMILES IDX 36 46 37 47 40 48 38 49 64 50 65 51 73 52 66 53 67 54 71 55
REMARK SMILES IDX 74 56 68 57 69 58 72 59 70 60 49 61 50 62 58 63 51 64 52 65
REMARK SMILES IDX 56 66 59 67 53 68 54 69 57 70 55 71 6 72 7 73 8 74 9 75
REMARK SMILES IDX 10 77 11 78 12 79 22 80 13 81 14 82 15 83 16 84 21 85 17 86
REMARK SMILES IDX 19 87 18 88 20 89
REMARK H PARENT 3 6 79 24 47 35 8 76
REMARK Flexibility Score: inf
ROOT
ATOM      1  C   UNL A   1      31.725  28.688  25.840  1.00  0.00     0.023 C 
ENDROOT
BRANCH   1   2
ATOM      2  C   UNL A   1      32.877  29.684  25.786  1.00  0.00     0.116 C 
BRANCH   2   3
ATOM      3  N   UNL A   1      32.527  30.997  26.306  1.00  0.00    -0.352 N 
ATOM      4  O   UNL A   1      32.680  32.822  27.626  1.00  0.00    -0.269 OA
ATOM      5  C   UNL A   1      33.192  31.784  27.217  1.00  0.00     0.251 C 
ATOM      6  H   UNL A   1      31.691  31.379  25.953  1.00  0.00     0.163 HD
BRANCH   5   7
ATOM      7  C   UNL A   1      34.509  31.358  27.738  1.00  0.00     0.039 A 
ATOM      8  C   UNL A   1      34.742  30.027  28.087  1.00  0.00     0.014 A 
ATOM      9  C   UNL A   1      35.517  32.312  27.901  1.00  0.00     0.014 A 
ATOM     10  C   UNL A   1      35.912  29.687  28.757  1.00  0.00     0.010 A 
ATOM     11  C   UNL A   1      36.727  31.951  28.499  1.00  0.00     0.010 A 
ATOM     12  C   UNL A   1      36.914  30.646  28.979  1.00  0.00    -0.014 A 
BRANCH  12  13
ATOM     13  C   UNL A   1      38.142  30.251  29.716  1.00  0.00     0.031 A 
ATOM     14  C   UNL A   1      38.365  30.689  31.138  1.00  0.00     0.074 A 
ATOM     15  C   UNL A   1      39.025  29.430  29.118  1.00  0.00     0.049 A 
ATOM     16  N   UNL A   1      39.344  30.378  31.951  1.00  0.00    -0.248 NA
ATOM     17  C   UNL A   1      37.367  31.596  31.724  1.00  0.00     0.031 C 
ATOM     18  C   UNL A   1      38.918  28.944  27.742  1.00  0.00     0.029 A 
ATOM     19  N   UNL A   1      40.161  28.830  29.597  1.00  0.00    -0.354 N 
ATOM     20  C   UNL A   1      39.091  31.063  33.132  1.00  0.00     0.074 A 
ATOM     21  C   UNL A   1      37.879  31.826  32.925  1.00  0.00     0.031 C 
ATOM     22  C   UNL A   1      39.909  28.071  27.507  1.00  0.00     0.029 A 
ATOM     23  C   UNL A   1      40.746  27.972  28.699  1.00  0.00     0.049 A 
ATOM     24  H   UNL A   1      40.522  28.999  30.497  1.00  0.00     0.167 HD
ATOM     25  C   UNL A   1      39.801  31.047  34.285  1.00  0.00     0.037 A 
ATOM     26  C   UNL A   1      41.832  27.187  28.822  1.00  0.00     0.037 A 
ATOM     27  C   UNL A   1      40.991  30.267  34.500  1.00  0.00     0.049 A 
ATOM     28  C   UNL A   1      42.590  27.174  30.117  1.00  0.00     0.074 A 
ATOM     29  C   UNL A   1      41.775  30.184  35.639  1.00  0.00     0.029 A 
ATOM     30  N   UNL A   1      41.565  29.428  33.557  1.00  0.00    -0.354 N 
ATOM     31  N   UNL A   1      42.339  27.828  31.224  1.00  0.00    -0.248 NA
ATOM     32  C   UNL A   1      43.782  26.319  30.179  1.00  0.00     0.031 C 
ATOM     33  C   UNL A   1      42.839  29.314  35.375  1.00  0.00     0.029 A 
ATOM     34  C   UNL A   1      42.697  28.827  34.086  1.00  0.00     0.049 A 
ATOM     35  H   UNL A   1      41.221  29.281  32.646  1.00  0.00     0.167 HD
ATOM     36  C   UNL A   1      43.334  27.461  32.117  1.00  0.00     0.074 A 
ATOM     37  C   UNL A   1      44.183  26.509  31.429  1.00  0.00     0.031 C 
ATOM     38  C   UNL A   1      43.529  27.881  33.390  1.00  0.00     0.037 A 
BRANCH  25  39
ATOM     39  C   UNL A   1      39.313  31.906  35.416  1.00  0.00     0.064 A 
ATOM     40  C   UNL A   1      38.464  31.374  36.397  1.00  0.00     0.173 A 
ATOM     41  C   UNL A   1      39.638  33.268  35.494  1.00  0.00     0.173 A 
ATOM     42  F   UNL A   1      38.119  30.078  36.363  1.00  0.00    -0.203 F 
ATOM     43  C   UNL A   1      37.949  32.177  37.411  1.00  0.00     0.198 A 
ATOM     44  C   UNL A   1      39.139  34.064  36.523  1.00  0.00     0.198 A 
ATOM     45  F   UNL A   1      40.457  33.820  34.587  1.00  0.00    -0.203 F 
ATOM     46  F   UNL A   1      37.118  31.654  38.324  1.00  0.00    -0.200 F 
ATOM     47  C   UNL A   1      38.289  33.520  37.474  1.00  0.00     0.200 A 
ATOM     48  F   UNL A   1      39.485  35.356  36.596  1.00  0.00    -0.200 F 
ATOM     49  F   UNL A   1      37.800  34.290  38.457  1.00  0.00    -0.200 F 
ENDBRANCH  25  39
BRANCH  26  50
ATOM     50  C   UNL A   1      42.234  26.324  27.684  1.00  0.00     0.064 A 
ATOM     51  C   UNL A   1      41.692  25.041  27.518  1.00  0.00     0.173 A 
ATOM     52  C   UNL A   1      43.213  26.746  26.776  1.00  0.00     0.173 A 
ATOM     53  F   UNL A   1      40.758  24.593  28.369  1.00  0.00    -0.203 F 
ATOM     54  C   UNL A   1      42.134  24.203  26.497  1.00  0.00     0.198 A 
ATOM     55  C   UNL A   1      43.636  25.915  25.741  1.00  0.00     0.198 A 
ATOM     56  F   UNL A   1      43.747  27.971  26.887  1.00  0.00    -0.203 F 
ATOM     57  F   UNL A   1      41.628  22.967  26.385  1.00  0.00    -0.200 F 
ATOM     58  C   UNL A   1      43.103  24.640  25.609  1.00  0.00     0.200 A 
ATOM     59  F   UNL A   1      44.561  26.347  24.873  1.00  0.00    -0.200 F 
ATOM     60  F   UNL A   1      43.526  23.835  24.626  1.00  0.00    -0.200 F 
ENDBRANCH  26  50
BRANCH  38  61
ATOM     61  C   UNL A   1      44.698  27.307  34.132  1.00  0.00     0.064 A 
ATOM     62  C   UNL A   1      44.554  26.132  34.884  1.00  0.00     0.173 A 
ATOM     63  C   UNL A   1      45.942  27.951  34.144  1.00  0.00     0.173 A 
ATOM     64  F   UNL A   1      43.380  25.482  34.906  1.00  0.00    -0.203 F 
ATOM     65  C   UNL A   1      45.616  25.626  35.628  1.00  0.00     0.198 A 
ATOM     66  C   UNL A   1      47.007  27.432  34.873  1.00  0.00     0.198 A 
ATOM     67  F   UNL A   1      46.129  29.071  33.430  1.00  0.00    -0.203 F 
ATOM     68  F   UNL A   1      45.452  24.512  36.356  1.00  0.00    -0.200 F 
ATOM     69  C   UNL A   1      46.841  26.274  35.619  1.00  0.00     0.200 A 
ATOM     70  F   UNL A   1      48.198  28.046  34.847  1.00  0.00    -0.200 F 
ATOM     71  F   UNL A   1      47.867  25.780  36.327  1.00  0.00    -0.200 F 
ENDBRANCH  38  61
ENDBRANCH  12  13
ENDBRANCH   5   7
ENDBRANCH   2   3
ENDBRANCH   1   2
BRANCH   1  72
ATOM     72  C   UNL A   1      31.975  27.443  26.691  1.00  0.00     0.023 C 
BRANCH  72  73
ATOM     73  C   UNL A   1      31.731  26.114  25.982  1.00  0.00     0.116 C 
BRANCH  73  74
ATOM     74  N   UNL A   1      31.166  25.119  26.876  1.00  0.00    -0.349 N 
ATOM     75  C   UNL A   1      31.286  23.750  26.805  1.00  0.00     0.287 C 
ATOM     76  H   UNL A   1      30.629  25.467  27.625  1.00  0.00     0.163 HD
ATOM     77  O   UNL A   1      30.580  23.069  27.548  1.00  0.00    -0.266 OA
BRANCH  75  78
ATOM     78  C   UNL A   1      32.246  23.203  25.879  1.00  0.00     0.192 A 
ATOM     79  C   UNL A   1      32.095  22.600  24.645  1.00  0.00     0.057 A 
ATOM     80  O   UNL A   1      33.570  23.229  26.219  1.00  0.00    -0.451 OA
ATOM     81  C   UNL A   1      33.392  22.240  24.209  1.00  0.00     0.052 A 
ATOM     82  C   UNL A   1      34.262  22.635  25.204  1.00  0.00     0.135 A 
BRANCH  82  83
ATOM     83  C   UNL A   1      35.704  22.553  25.373  1.00  0.00     0.020 A 
ATOM     84  C   UNL A   1      36.383  21.359  25.084  1.00  0.00     0.012 A 
ATOM     85  C   UNL A   1      36.434  23.649  25.848  1.00  0.00     0.051 A 
ATOM     86  C   UNL A   1      37.765  21.261  25.267  1.00  0.00     0.004 A 
ATOM     87  C   UNL A   1      37.806  23.538  26.039  1.00  0.00     0.123 A 
ATOM     88  C   UNL A   1      38.478  22.355  25.752  1.00  0.00     0.039 A 
ATOM     89  F   UNL A   1      38.493  24.584  26.515  1.00  0.00    -0.207 F 
ENDBRANCH  82  83
ENDBRANCH  75  78
ENDBRANCH  73  74
ENDBRANCH  72  73
ENDBRANCH   1  72
TORSDOF 12
ENDMDL
