MODEL 1
REMARK VINA RESULT:      -9.7      0.000      0.000
REMARK SMILES CCc1nc(COC)cc(OCC(=O)NCCCCNC(=O)c2ccc(-c3c4nc(c(-c5c(F)c(F)c(F)c(F)c5F)c5ccc([nH]5)c(-c5c(F)c(F)c(F)c(F)c5F)c5nc(c(-c6c(F)c(F)c(F)c(F)c6F)c6ccc3[nH]6)C=C5)C=C4)cc2)n1
REMARK SMILES IDX 16 1 15 2 13 3 14 4 12 6 11 7 10 8 3 9 4 10 86 11 5 12 9 13
REMARK SMILES IDX 2 14 1 15 6 16 7 17 8 18 17 19 18 20 19 21 20 22 21 23 22 25
REMARK SMILES IDX 23 26 24 27 85 28 25 29 84 30 26 31 27 32 28 33 78 34 29 35
REMARK SMILES IDX 83 36 77 37 79 38 30 39 82 40 76 41 75 42 31 44 63 45 43 46
REMARK SMILES IDX 62 47 44 48 47 49 61 50 80 51 45 52 46 53 60 55 81 56 48 57
REMARK SMILES IDX 32 58 33 59 41 60 34 61 35 62 39 63 42 64 36 65 37 66 40 67
REMARK SMILES IDX 38 68 64 69 65 70 73 71 66 72 67 73 71 74 74 75 68 76 69 77
REMARK SMILES IDX 72 78 70 79 49 80 50 81 58 82 51 83 52 84 56 85 59 86 53 87
REMARK SMILES IDX 54 88 57 89 55 90
REMARK H PARENT 15 5 20 24 79 43 47 54
REMARK Flexibility Score: inf
ROOT
ATOM      1  C   UNL A   1      46.541  20.501  24.679  1.00  0.00     0.116 C 
ENDROOT
BRANCH   1   2
ATOM      2  N   UNL A   1      45.495  21.083  23.862  1.00  0.00    -0.353 N 
ATOM      3  C   UNL A   1      44.927  22.318  23.968  1.00  0.00     0.258 C 
ATOM      4  O   UNL A   1      44.028  22.627  23.183  1.00  0.00    -0.271 OA
ATOM      5  H   UNL A   1      45.150  20.512  23.136  1.00  0.00     0.163 HD
BRANCH   3   6
ATOM      6  C   UNL A   1      45.421  23.296  25.040  1.00  0.00     0.331 C 
BRANCH   6   7
ATOM      7  O   UNL A   1      46.111  24.444  24.582  1.00  0.00    -0.467 OA
BRANCH   7   8
ATOM      8  C   UNL A   1      45.680  25.669  25.000  1.00  0.00     0.217 A 
ATOM      9  C   UNL A   1      43.806  26.961  25.299  1.00  0.00     0.132 A 
ATOM     10  N   UNL A   1      44.524  28.028  25.682  1.00  0.00    -0.235 NA
ATOM     11  N   UNL A   1      44.343  25.783  24.939  1.00  0.00    -0.198 NA
ATOM     12  C   UNL A   1      45.864  27.893  25.722  1.00  0.00     0.074 A 
ATOM     13  C   UNL A   1      46.489  26.700  25.418  1.00  0.00     0.094 A 
BRANCH   9  14
ATOM     14  C   UNL A   1      42.303  27.061  25.272  1.00  0.00     0.074 C 
ATOM     15  C   UNL A   1      41.756  28.459  25.528  1.00  0.00     0.012 C 
ENDBRANCH   9  14
BRANCH  12  16
ATOM     16  C   UNL A   1      46.689  29.116  26.060  1.00  0.00     0.216 C 
BRANCH  16  17
ATOM     17  O   UNL A   1      46.187  30.320  25.466  1.00  0.00    -0.378 OA
ATOM     18  C   UNL A   1      46.037  31.386  26.393  1.00  0.00     0.195 C 
ENDBRANCH  16  17
ENDBRANCH  12  16
ENDBRANCH   7   8
ENDBRANCH   6   7
ENDBRANCH   3   6
ENDBRANCH   1   2
BRANCH   1  19
ATOM     19  C   UNL A   1      46.121  19.162  25.283  1.00  0.00     0.023 C 
BRANCH  19  20
ATOM     20  C   UNL A   1      44.655  18.778  25.058  1.00  0.00     0.023 C 
BRANCH  20  21
ATOM     21  C   UNL A   1      43.731  18.964  26.258  1.00  0.00     0.116 C 
BRANCH  21  22
ATOM     22  N   UNL A   1      42.323  18.808  25.925  1.00  0.00    -0.352 N 
ATOM     23  C   UNL A   1      41.279  19.677  26.123  1.00  0.00     0.251 C 
ATOM     24  H   UNL A   1      42.085  17.955  25.494  1.00  0.00     0.163 HD
ATOM     25  O   UNL A   1      40.128  19.321  25.885  1.00  0.00    -0.269 OA
BRANCH  23  26
ATOM     26  C   UNL A   1      41.531  21.033  26.658  1.00  0.00     0.039 A 
ATOM     27  C   UNL A   1      41.555  21.214  28.044  1.00  0.00     0.014 A 
ATOM     28  C   UNL A   1      41.746  22.121  25.808  1.00  0.00     0.014 A 
ATOM     29  C   UNL A   1      41.868  22.468  28.576  1.00  0.00     0.010 A 
ATOM     30  C   UNL A   1      42.132  23.350  26.338  1.00  0.00     0.010 A 
ATOM     31  C   UNL A   1      42.200  23.537  27.727  1.00  0.00    -0.014 A 
BRANCH  31  32
ATOM     32  C   UNL A   1      42.631  24.849  28.276  1.00  0.00     0.031 A 
ATOM     33  C   UNL A   1      41.628  25.947  28.501  1.00  0.00     0.074 A 
ATOM     34  C   UNL A   1      43.940  25.076  28.512  1.00  0.00     0.049 A 
ATOM     35  N   UNL A   1      41.822  27.176  28.907  1.00  0.00    -0.248 NA
ATOM     36  C   UNL A   1      40.223  25.627  28.205  1.00  0.00     0.031 C 
ATOM     37  C   UNL A   1      45.017  24.110  28.293  1.00  0.00     0.029 A 
ATOM     38  N   UNL A   1      44.587  26.194  28.978  1.00  0.00    -0.354 N 
ATOM     39  C   UNL A   1      40.570  27.778  28.904  1.00  0.00     0.074 A 
ATOM     40  C   UNL A   1      39.633  26.797  28.402  1.00  0.00     0.031 C 
ATOM     41  C   UNL A   1      46.186  24.667  28.646  1.00  0.00     0.029 A 
ATOM     42  C   UNL A   1      45.949  26.042  29.074  1.00  0.00     0.049 A 
ATOM     43  H   UNL A   1      44.118  27.026  29.220  1.00  0.00     0.167 HD
ATOM     44  C   UNL A   1      40.230  29.026  29.305  1.00  0.00     0.037 A 
ATOM     45  C   UNL A   1      46.901  26.916  29.454  1.00  0.00     0.037 A 
ATOM     46  C   UNL A   1      41.164  29.994  29.821  1.00  0.00     0.049 A 
ATOM     47  C   UNL A   1      46.498  28.305  29.874  1.00  0.00     0.074 A 
ATOM     48  C   UNL A   1      40.908  31.264  30.308  1.00  0.00     0.029 A 
ATOM     49  N   UNL A   1      42.535  29.801  29.912  1.00  0.00    -0.354 N 
ATOM     50  N   UNL A   1      45.302  28.838  29.935  1.00  0.00    -0.248 NA
ATOM     51  C   UNL A   1      47.580  29.211  30.285  1.00  0.00     0.031 C 
ATOM     52  C   UNL A   1      42.129  31.860  30.638  1.00  0.00     0.029 A 
ATOM     53  C   UNL A   1      43.141  30.940  30.418  1.00  0.00     0.049 A 
ATOM     54  H   UNL A   1      43.008  28.977  29.653  1.00  0.00     0.167 HD
ATOM     55  C   UNL A   1      45.483  30.127  30.420  1.00  0.00     0.074 A 
ATOM     56  C   UNL A   1      46.903  30.290  30.651  1.00  0.00     0.031 C 
ATOM     57  C   UNL A   1      44.555  31.088  30.652  1.00  0.00     0.037 A 
BRANCH  44  58
ATOM     58  C   UNL A   1      38.785  29.423  29.200  1.00  0.00     0.064 A 
ATOM     59  C   UNL A   1      38.175  29.666  27.959  1.00  0.00     0.173 A 
ATOM     60  C   UNL A   1      37.988  29.522  30.350  1.00  0.00     0.173 A 
ATOM     61  F   UNL A   1      38.893  29.594  26.828  1.00  0.00    -0.203 F 
ATOM     62  C   UNL A   1      36.832  30.024  27.877  1.00  0.00     0.198 A 
ATOM     63  C   UNL A   1      36.637  29.847  30.262  1.00  0.00     0.198 A 
ATOM     64  F   UNL A   1      38.517  29.294  31.561  1.00  0.00    -0.203 F 
ATOM     65  F   UNL A   1      36.286  30.303  26.686  1.00  0.00    -0.200 F 
ATOM     66  C   UNL A   1      36.062  30.106  29.027  1.00  0.00     0.200 A 
ATOM     67  F   UNL A   1      35.890  29.910  31.373  1.00  0.00    -0.200 F 
ATOM     68  F   UNL A   1      34.767  30.442  28.947  1.00  0.00    -0.200 F 
ENDBRANCH  44  58
BRANCH  45  69
ATOM     69  C   UNL A   1      48.329  26.501  29.472  1.00  0.00     0.064 A 
ATOM     70  C   UNL A   1      49.192  26.843  28.420  1.00  0.00     0.173 A 
ATOM     71  C   UNL A   1      48.856  25.744  30.528  1.00  0.00     0.173 A 
ATOM     72  F   UNL A   1      48.730  27.548  27.377  1.00  0.00    -0.203 F 
ATOM     73  C   UNL A   1      50.520  26.424  28.414  1.00  0.00     0.198 A 
ATOM     74  C   UNL A   1      50.194  25.352  30.535  1.00  0.00     0.198 A 
ATOM     75  F   UNL A   1      48.076  25.393  31.560  1.00  0.00    -0.203 F 
ATOM     76  F   UNL A   1      51.308  26.721  27.371  1.00  0.00    -0.200 F 
ATOM     77  C   UNL A   1      51.023  25.684  29.473  1.00  0.00     0.200 A 
ATOM     78  F   UNL A   1      50.679  24.651  31.568  1.00  0.00    -0.200 F 
ATOM     79  F   UNL A   1      52.301  25.283  29.468  1.00  0.00    -0.200 F 
ENDBRANCH  45  69
BRANCH  57  80
ATOM     80  C   UNL A   1      45.038  32.391  31.226  1.00  0.00     0.064 A 
ATOM     81  C   UNL A   1      45.126  32.602  32.610  1.00  0.00     0.173 A 
ATOM     82  C   UNL A   1      45.455  33.427  30.377  1.00  0.00     0.173 A 
ATOM     83  F   UNL A   1      44.726  31.650  33.466  1.00  0.00    -0.203 F 
ATOM     84  C   UNL A   1      45.586  33.813  33.121  1.00  0.00     0.198 A 
ATOM     85  C   UNL A   1      45.948  34.623  30.891  1.00  0.00     0.198 A 
ATOM     86  F   UNL A   1      45.400  33.275  29.045  1.00  0.00    -0.203 F 
ATOM     87  F   UNL A   1      45.611  34.012  34.447  1.00  0.00    -0.200 F 
ATOM     88  C   UNL A   1      46.003  34.818  32.262  1.00  0.00     0.200 A 
ATOM     89  F   UNL A   1      46.367  35.586  30.060  1.00  0.00    -0.200 F 
ATOM     90  F   UNL A   1      46.455  35.979  32.757  1.00  0.00    -0.200 F 
ENDBRANCH  57  80
ENDBRANCH  31  32
ENDBRANCH  23  26
ENDBRANCH  21  22
ENDBRANCH  20  21
ENDBRANCH  19  20
ENDBRANCH   1  19
TORSDOF 16
ENDMDL
MODEL 2
REMARK VINA RESULT:      -9.5      0.487      7.440
REMARK SMILES CCc1nc(COC)cc(OCC(=O)NCCCCNC(=O)c2ccc(-c3c4nc(c(-c5c(F)c(F)c(F)c(F)c5F)c5ccc([nH]5)c(-c5c(F)c(F)c(F)c(F)c5F)c5nc(c(-c6c(F)c(F)c(F)c(F)c6F)c6ccc3[nH]6)C=C5)C=C4)cc2)n1
REMARK SMILES IDX 16 1 15 2 13 3 14 4 12 6 11 7 10 8 3 9 4 10 86 11 5 12 9 13
REMARK SMILES IDX 2 14 1 15 6 16 7 17 8 18 17 19 18 20 19 21 20 22 21 23 22 25
REMARK SMILES IDX 23 26 24 27 85 28 25 29 84 30 26 31 27 32 28 33 78 34 29 35
REMARK SMILES IDX 83 36 77 37 79 38 30 39 82 40 76 41 75 42 31 44 63 45 43 46
REMARK SMILES IDX 62 47 44 48 47 49 61 50 80 51 45 52 46 53 60 55 81 56 48 57
REMARK SMILES IDX 32 58 33 59 41 60 34 61 35 62 39 63 42 64 36 65 37 66 40 67
REMARK SMILES IDX 38 68 64 69 65 70 73 71 66 72 67 73 71 74 74 75 68 76 69 77
REMARK SMILES IDX 72 78 70 79 49 80 50 81 58 82 51 83 52 84 56 85 59 86 53 87
REMARK SMILES IDX 54 88 57 89 55 90
REMARK H PARENT 15 5 20 24 79 43 47 54
REMARK Flexibility Score: inf
ROOT
ATOM      1  C   UNL A   1      46.514  20.478  24.664  1.00  0.00     0.116 C 
ENDROOT
BRANCH   1   2
ATOM      2  N   UNL A   1      45.442  21.059  23.880  1.00  0.00    -0.353 N 
ATOM      3  C   UNL A   1      44.882  22.296  23.999  1.00  0.00     0.258 C 
ATOM      4  O   UNL A   1      43.957  22.604  23.244  1.00  0.00    -0.271 OA
ATOM      5  H   UNL A   1      45.071  20.486  23.170  1.00  0.00     0.163 HD
BRANCH   3   6
ATOM      6  C   UNL A   1      45.415  23.278  25.049  1.00  0.00     0.331 C 
BRANCH   6   7
ATOM      7  O   UNL A   1      46.076  24.430  24.561  1.00  0.00    -0.467 OA
BRANCH   7   8
ATOM      8  C   UNL A   1      45.674  25.651  25.017  1.00  0.00     0.217 A 
ATOM      9  C   UNL A   1      43.828  26.970  25.372  1.00  0.00     0.132 A 
ATOM     10  N   UNL A   1      44.570  28.012  25.777  1.00  0.00    -0.235 NA
ATOM     11  N   UNL A   1      44.339  25.792  24.974  1.00  0.00    -0.198 NA
ATOM     12  C   UNL A   1      45.908  27.850  25.799  1.00  0.00     0.074 A 
ATOM     13  C   UNL A   1      46.507  26.655  25.455  1.00  0.00     0.094 A 
BRANCH   9  14
ATOM     14  C   UNL A   1      42.327  27.099  25.364  1.00  0.00     0.074 C 
ATOM     15  C   UNL A   1      41.812  28.520  25.551  1.00  0.00     0.012 C 
ENDBRANCH   9  14
BRANCH  12  16
ATOM     16  C   UNL A   1      46.760  29.047  26.162  1.00  0.00     0.216 C 
BRANCH  16  17
ATOM     17  O   UNL A   1      46.314  30.265  25.553  1.00  0.00    -0.378 OA
ATOM     18  C   UNL A   1      46.257  31.360  26.457  1.00  0.00     0.195 C 
ENDBRANCH  16  17
ENDBRANCH  12  16
ENDBRANCH   7   8
ENDBRANCH   6   7
ENDBRANCH   3   6
ENDBRANCH   1   2
BRANCH   1  19
ATOM     19  C   UNL A   1      46.075  19.204  25.384  1.00  0.00     0.023 C 
BRANCH  19  20
ATOM     20  C   UNL A   1      44.617  18.796  25.153  1.00  0.00     0.023 C 
BRANCH  20  21
ATOM     21  C   UNL A   1      43.669  19.037  26.324  1.00  0.00     0.116 C 
BRANCH  21  22
ATOM     22  N   UNL A   1      42.271  18.835  25.979  1.00  0.00    -0.352 N 
ATOM     23  C   UNL A   1      41.200  19.677  26.151  1.00  0.00     0.251 C 
ATOM     24  H   UNL A   1      42.062  17.968  25.560  1.00  0.00     0.163 HD
ATOM     25  O   UNL A   1      40.062  19.283  25.907  1.00  0.00    -0.269 OA
BRANCH  23  26
ATOM     26  C   UNL A   1      41.406  21.048  26.666  1.00  0.00     0.039 A 
ATOM     27  C   UNL A   1      41.358  21.261  28.046  1.00  0.00     0.014 A 
ATOM     28  C   UNL A   1      41.650  22.118  25.801  1.00  0.00     0.014 A 
ATOM     29  C   UNL A   1      41.627  22.532  28.563  1.00  0.00     0.010 A 
ATOM     30  C   UNL A   1      41.993  23.365  26.320  1.00  0.00     0.010 A 
ATOM     31  C   UNL A   1      41.988  23.585  27.706  1.00  0.00    -0.014 A 
BRANCH  31  32
ATOM     32  C   UNL A   1      42.374  24.916  28.244  1.00  0.00     0.031 A 
ATOM     33  C   UNL A   1      43.792  25.183  28.667  1.00  0.00     0.074 A 
ATOM     34  C   UNL A   1      41.432  25.866  28.414  1.00  0.00     0.049 A 
ATOM     35  N   UNL A   1      44.305  26.254  29.219  1.00  0.00    -0.248 NA
ATOM     36  C   UNL A   1      44.758  24.092  28.466  1.00  0.00     0.031 C 
ATOM     37  C   UNL A   1      40.014  25.717  28.085  1.00  0.00     0.029 A 
ATOM     38  N   UNL A   1      41.524  27.142  28.914  1.00  0.00    -0.354 N 
ATOM     39  C   UNL A   1      45.644  25.962  29.442  1.00  0.00     0.074 A 
ATOM     40  C   UNL A   1      45.853  24.595  29.017  1.00  0.00     0.031 C 
ATOM     41  C   UNL A   1      39.374  26.863  28.369  1.00  0.00     0.029 A 
ATOM     42  C   UNL A   1      40.324  27.811  28.940  1.00  0.00     0.049 A 
ATOM     43  H   UNL A   1      42.370  27.539  29.224  1.00  0.00     0.167 HD
ATOM     44  C   UNL A   1      46.616  26.767  29.934  1.00  0.00     0.037 A 
ATOM     45  C   UNL A   1      40.022  29.046  29.385  1.00  0.00     0.037 A 
ATOM     46  C   UNL A   1      46.408  28.133  30.338  1.00  0.00     0.049 A 
ATOM     47  C   UNL A   1      41.118  29.913  29.947  1.00  0.00     0.074 A 
ATOM     48  C   UNL A   1      47.340  29.049  30.794  1.00  0.00     0.029 A 
ATOM     49  N   UNL A   1      45.180  28.780  30.343  1.00  0.00    -0.354 N 
ATOM     50  N   UNL A   1      42.395  29.650  30.085  1.00  0.00    -0.248 NA
ATOM     51  C   UNL A   1      40.729  31.253  30.410  1.00  0.00     0.031 C 
ATOM     52  C   UNL A   1      46.669  30.229  31.129  1.00  0.00     0.029 A 
ATOM     53  C   UNL A   1      45.327  30.072  30.821  1.00  0.00     0.049 A 
ATOM     54  H   UNL A   1      44.330  28.379  30.050  1.00  0.00     0.167 HD
ATOM     55  C   UNL A   1      42.965  30.799  30.617  1.00  0.00     0.074 A 
ATOM     56  C   UNL A   1      41.898  31.766  30.764  1.00  0.00     0.031 C 
ATOM     57  C   UNL A   1      44.258  31.030  30.955  1.00  0.00     0.037 A 
BRANCH  44  58
ATOM     58  C   UNL A   1      47.997  26.192  30.065  1.00  0.00     0.064 A 
ATOM     59  C   UNL A   1      48.907  26.205  28.996  1.00  0.00     0.173 A 
ATOM     60  C   UNL A   1      48.433  25.656  31.287  1.00  0.00     0.173 A 
ATOM     61  F   UNL A   1      48.540  26.697  27.803  1.00  0.00    -0.203 F 
ATOM     62  C   UNL A   1      50.187  25.676  29.136  1.00  0.00     0.198 A 
ATOM     63  C   UNL A   1      49.725  25.159  31.433  1.00  0.00     0.198 A 
ATOM     64  F   UNL A   1      47.608  25.624  32.344  1.00  0.00    -0.203 F 
ATOM     65  F   UNL A   1      51.019  25.653  28.086  1.00  0.00    -0.200 F 
ATOM     66  C   UNL A   1      50.599  25.161  30.355  1.00  0.00     0.200 A 
ATOM     67  F   UNL A   1      50.126  24.676  32.617  1.00  0.00    -0.200 F 
ATOM     68  F   UNL A   1      51.834  24.660  30.492  1.00  0.00    -0.200 F 
ENDBRANCH  44  58
BRANCH  45  69
ATOM     69  C   UNL A   1      38.624  29.546  29.301  1.00  0.00     0.064 A 
ATOM     70  C   UNL A   1      37.842  29.696  30.457  1.00  0.00     0.173 A 
ATOM     71  C   UNL A   1      38.036  29.870  28.071  1.00  0.00     0.173 A 
ATOM     72  F   UNL A   1      38.353  29.379  31.656  1.00  0.00    -0.203 F 
ATOM     73  C   UNL A   1      36.520  30.127  30.381  1.00  0.00     0.198 A 
ATOM     74  C   UNL A   1      36.723  30.333  28.000  1.00  0.00     0.198 A 
ATOM     75  F   UNL A   1      38.740  29.750  26.936  1.00  0.00    -0.203 F 
ATOM     76  F   UNL A   1      35.781  30.211  31.496  1.00  0.00    -0.200 F 
ATOM     77  C   UNL A   1      35.963  30.451  29.154  1.00  0.00     0.200 A 
ATOM     78  F   UNL A   1      36.193  30.659  26.813  1.00  0.00    -0.200 F 
ATOM     79  F   UNL A   1      34.691  30.869  29.081  1.00  0.00    -0.200 F 
ENDBRANCH  45  69
BRANCH  57  80
ATOM     80  C   UNL A   1      44.603  32.397  31.476  1.00  0.00     0.064 A 
ATOM     81  C   UNL A   1      44.633  32.679  32.849  1.00  0.00     0.173 A 
ATOM     82  C   UNL A   1      44.946  33.427  30.587  1.00  0.00     0.173 A 
ATOM     83  F   UNL A   1      44.299  31.734  33.741  1.00  0.00    -0.203 F 
ATOM     84  C   UNL A   1      44.965  33.950  33.312  1.00  0.00     0.198 A 
ATOM     85  C   UNL A   1      45.312  34.687  31.055  1.00  0.00     0.198 A 
ATOM     86  F   UNL A   1      44.941  33.209  29.264  1.00  0.00    -0.203 F 
ATOM     87  F   UNL A   1      44.935  34.211  34.627  1.00  0.00    -0.200 F 
ATOM     88  C   UNL A   1      45.312  34.949  32.416  1.00  0.00     0.200 A 
ATOM     89  F   UNL A   1      45.663  35.645  30.187  1.00  0.00    -0.200 F 
ATOM     90  F   UNL A   1      45.641  36.168  32.864  1.00  0.00    -0.200 F 
ENDBRANCH  57  80
ENDBRANCH  31  32
ENDBRANCH  23  26
ENDBRANCH  21  22
ENDBRANCH  20  21
ENDBRANCH  19  20
ENDBRANCH   1  19
TORSDOF 16
ENDMDL
MODEL 3
REMARK VINA RESULT:      -9.3      0.993      2.101
REMARK SMILES CCc1nc(COC)cc(OCC(=O)NCCCCNC(=O)c2ccc(-c3c4nc(c(-c5c(F)c(F)c(F)c(F)c5F)c5ccc([nH]5)c(-c5c(F)c(F)c(F)c(F)c5F)c5nc(c(-c6c(F)c(F)c(F)c(F)c6F)c6ccc3[nH]6)C=C5)C=C4)cc2)n1
REMARK SMILES IDX 16 1 15 2 13 3 14 4 12 6 11 7 10 8 3 9 4 10 86 11 5 12 9 13
REMARK SMILES IDX 2 14 1 15 6 16 7 17 8 18 17 19 18 20 19 21 20 22 21 23 22 25
REMARK SMILES IDX 23 26 24 27 85 28 25 29 84 30 26 31 27 32 28 33 78 34 29 35
REMARK SMILES IDX 83 36 77 37 79 38 30 39 82 40 76 41 75 42 31 44 63 45 43 46
REMARK SMILES IDX 62 47 44 48 47 49 61 50 80 51 45 52 46 53 60 55 81 56 48 57
REMARK SMILES IDX 32 58 33 59 41 60 34 61 35 62 39 63 42 64 36 65 37 66 40 67
REMARK SMILES IDX 38 68 64 69 65 70 73 71 66 72 67 73 71 74 74 75 68 76 69 77
REMARK SMILES IDX 72 78 70 79 49 80 50 81 58 82 51 83 52 84 56 85 59 86 53 87
REMARK SMILES IDX 54 88 57 89 55 90
REMARK H PARENT 15 5 20 24 79 43 47 54
REMARK Flexibility Score: inf
ROOT
ATOM      1  C   UNL A   1      46.345  19.904  24.789  1.00  0.00     0.116 C 
ENDROOT
BRANCH   1   2
ATOM      2  N   UNL A   1      45.530  20.694  23.888  1.00  0.00    -0.353 N 
ATOM      3  C   UNL A   1      45.129  21.989  24.026  1.00  0.00     0.258 C 
ATOM      4  O   UNL A   1      44.414  22.486  23.152  1.00  0.00    -0.271 OA
ATOM      5  H   UNL A   1      45.227  20.235  23.070  1.00  0.00     0.163 HD
BRANCH   3   6
ATOM      6  C   UNL A   1      45.579  22.803  25.245  1.00  0.00     0.331 C 
BRANCH   6   7
ATOM      7  O   UNL A   1      46.858  23.404  25.168  1.00  0.00    -0.467 OA
BRANCH   7   8
ATOM      8  C   UNL A   1      46.933  24.735  24.877  1.00  0.00     0.217 A 
ATOM      9  C   UNL A   1      45.775  26.714  24.991  1.00  0.00     0.132 A 
ATOM     10  N   UNL A   1      46.741  27.391  24.351  1.00  0.00    -0.235 NA
ATOM     11  N   UNL A   1      45.827  25.398  25.256  1.00  0.00    -0.198 NA
ATOM     12  C   UNL A   1      47.834  26.701  23.970  1.00  0.00     0.074 A 
ATOM     13  C   UNL A   1      47.987  25.358  24.250  1.00  0.00     0.094 A 
BRANCH   9  14
ATOM     14  C   UNL A   1      44.551  27.456  25.463  1.00  0.00     0.074 C 
ATOM     15  C   UNL A   1      43.232  26.757  25.163  1.00  0.00     0.012 C 
ENDBRANCH   9  14
BRANCH  12  16
ATOM     16  C   UNL A   1      48.886  27.431  23.163  1.00  0.00     0.216 C 
BRANCH  16  17
ATOM     17  O   UNL A   1      49.817  28.160  23.972  1.00  0.00    -0.378 OA
ATOM     18  C   UNL A   1      51.111  27.576  24.008  1.00  0.00     0.195 C 
ENDBRANCH  16  17
ENDBRANCH  12  16
ENDBRANCH   7   8
ENDBRANCH   6   7
ENDBRANCH   3   6
ENDBRANCH   1   2
BRANCH   1  19
ATOM     19  C   UNL A   1      45.573  18.724  25.378  1.00  0.00     0.023 C 
BRANCH  19  20
ATOM     20  C   UNL A   1      44.067  18.731  25.103  1.00  0.00     0.023 C 
BRANCH  20  21
ATOM     21  C   UNL A   1      43.171  18.515  26.320  1.00  0.00     0.116 C 
BRANCH  21  22
ATOM     22  N   UNL A   1      41.757  18.687  26.027  1.00  0.00    -0.352 N 
ATOM     23  C   UNL A   1      40.945  19.771  26.256  1.00  0.00     0.251 C 
ATOM     24  H   UNL A   1      41.318  17.915  25.602  1.00  0.00     0.163 HD
ATOM     25  O   UNL A   1      39.737  19.689  26.051  1.00  0.00    -0.269 OA
BRANCH  23  26
ATOM     26  C   UNL A   1      41.515  21.029  26.786  1.00  0.00     0.039 A 
ATOM     27  C   UNL A   1      41.899  22.025  25.884  1.00  0.00     0.014 A 
ATOM     28  C   UNL A   1      41.668  21.234  28.160  1.00  0.00     0.014 A 
ATOM     29  C   UNL A   1      42.367  23.252  26.361  1.00  0.00     0.010 A 
ATOM     30  C   UNL A   1      42.061  22.483  28.636  1.00  0.00     0.010 A 
ATOM     31  C   UNL A   1      42.413  23.506  27.742  1.00  0.00    -0.014 A 
BRANCH  31  32
ATOM     32  C   UNL A   1      42.813  24.840  28.265  1.00  0.00     0.031 A 
ATOM     33  C   UNL A   1      41.780  25.909  28.490  1.00  0.00     0.074 A 
ATOM     34  C   UNL A   1      44.117  25.109  28.476  1.00  0.00     0.049 A 
ATOM     35  N   UNL A   1      41.943  27.150  28.876  1.00  0.00    -0.248 NA
ATOM     36  C   UNL A   1      40.381  25.544  28.222  1.00  0.00     0.031 C 
ATOM     37  C   UNL A   1      45.220  24.173  28.254  1.00  0.00     0.029 A 
ATOM     38  N   UNL A   1      44.737  26.253  28.916  1.00  0.00    -0.354 N 
ATOM     39  C   UNL A   1      40.673  27.714  28.884  1.00  0.00     0.074 A 
ATOM     40  C   UNL A   1      39.758  26.698  28.411  1.00  0.00     0.031 C 
ATOM     41  C   UNL A   1      46.377  24.771  28.581  1.00  0.00     0.029 A 
ATOM     42  C   UNL A   1      46.104  26.143  28.993  1.00  0.00     0.049 A 
ATOM     43  H   UNL A   1      44.247  27.074  29.154  1.00  0.00     0.167 HD
ATOM     44  C   UNL A   1      40.302  28.957  29.272  1.00  0.00     0.037 A 
ATOM     45  C   UNL A   1      47.035  27.052  29.344  1.00  0.00     0.037 A 
ATOM     46  C   UNL A   1      41.214  29.960  29.759  1.00  0.00     0.049 A 
ATOM     47  C   UNL A   1      46.597  28.434  29.751  1.00  0.00     0.074 A 
ATOM     48  C   UNL A   1      40.927  31.229  30.232  1.00  0.00     0.029 A 
ATOM     49  N   UNL A   1      42.591  29.810  29.831  1.00  0.00    -0.354 N 
ATOM     50  N   UNL A   1      45.386  28.932  29.823  1.00  0.00    -0.248 NA
ATOM     51  C   UNL A   1      47.657  29.378  30.131  1.00  0.00     0.031 C 
ATOM     52  C   UNL A   1      42.134  31.867  30.534  1.00  0.00     0.029 A 
ATOM     53  C   UNL A   1      43.170  30.974  30.311  1.00  0.00     0.049 A 
ATOM     54  H   UNL A   1      43.085  28.997  29.576  1.00  0.00     0.167 HD
ATOM     55  C   UNL A   1      45.535  30.232  30.287  1.00  0.00     0.074 A 
ATOM     56  C   UNL A   1      46.953  30.442  30.493  1.00  0.00     0.031 C 
ATOM     57  C   UNL A   1      44.583  31.168  30.520  1.00  0.00     0.037 A 
BRANCH  44  58
ATOM     58  C   UNL A   1      38.844  29.308  29.184  1.00  0.00     0.064 A 
ATOM     59  C   UNL A   1      38.035  29.390  30.329  1.00  0.00     0.173 A 
ATOM     60  C   UNL A   1      38.256  29.605  27.946  1.00  0.00     0.173 A 
ATOM     61  F   UNL A   1      38.543  29.107  31.538  1.00  0.00    -0.203 F 
ATOM     62  C   UNL A   1      36.687  29.725  30.232  1.00  0.00     0.198 A 
ATOM     63  C   UNL A   1      36.916  29.973  27.856  1.00  0.00     0.198 A 
ATOM     64  F   UNL A   1      38.984  29.549  26.821  1.00  0.00    -0.203 F 
ATOM     65  F   UNL A   1      35.922  29.746  31.333  1.00  0.00    -0.200 F 
ATOM     66  C   UNL A   1      36.130  30.025  28.998  1.00  0.00     0.200 A 
ATOM     67  F   UNL A   1      36.384  30.278  26.665  1.00  0.00    -0.200 F 
ATOM     68  F   UNL A   1      34.835  30.355  28.907  1.00  0.00    -0.200 F 
ENDBRANCH  44  58
BRANCH  45  69
ATOM     69  C   UNL A   1      48.475  26.680  29.346  1.00  0.00     0.064 A 
ATOM     70  C   UNL A   1      49.066  26.092  30.474  1.00  0.00     0.173 A 
ATOM     71  C   UNL A   1      49.292  26.916  28.231  1.00  0.00     0.173 A 
ATOM     72  F   UNL A   1      48.331  25.866  31.573  1.00  0.00    -0.203 F 
ATOM     73  C   UNL A   1      50.423  25.778  30.495  1.00  0.00     0.198 A 
ATOM     74  C   UNL A   1      50.643  26.571  28.242  1.00  0.00     0.198 A 
ATOM     75  F   UNL A   1      48.777  27.472  27.125  1.00  0.00    -0.203 F 
ATOM     76  F   UNL A   1      50.972  25.265  31.605  1.00  0.00    -0.200 F 
ATOM     77  C   UNL A   1      51.209  26.011  29.378  1.00  0.00     0.200 A 
ATOM     78  F   UNL A   1      51.395  26.785  27.154  1.00  0.00    -0.200 F 
ATOM     79  F   UNL A   1      52.514  25.706  29.397  1.00  0.00    -0.200 F 
ENDBRANCH  45  69
BRANCH  57  80
ATOM     80  C   UNL A   1      45.034  32.493  31.068  1.00  0.00     0.064 A 
ATOM     81  C   UNL A   1      45.209  32.704  32.443  1.00  0.00     0.173 A 
ATOM     82  C   UNL A   1      45.334  33.553  30.198  1.00  0.00     0.173 A 
ATOM     83  F   UNL A   1      44.922  31.729  33.318  1.00  0.00    -0.203 F 
ATOM     84  C   UNL A   1      45.639  33.937  32.929  1.00  0.00     0.198 A 
ATOM     85  C   UNL A   1      45.797  34.772  30.685  1.00  0.00     0.198 A 
ATOM     86  F   UNL A   1      45.192  33.402  28.873  1.00  0.00    -0.203 F 
ATOM     87  F   UNL A   1      45.747  34.133  34.251  1.00  0.00    -0.200 F 
ATOM     88  C   UNL A   1      45.939  34.966  32.050  1.00  0.00     0.200 A 
ATOM     89  F   UNL A   1      46.104  35.760  29.832  1.00  0.00    -0.200 F 
ATOM     90  F   UNL A   1      46.362  36.148  32.519  1.00  0.00    -0.200 F 
ENDBRANCH  57  80
ENDBRANCH  31  32
ENDBRANCH  23  26
ENDBRANCH  21  22
ENDBRANCH  20  21
ENDBRANCH  19  20
ENDBRANCH   1  19
TORSDOF 16
ENDMDL
