MODEL 1
REMARK VINA RESULT:     -12.9      0.000      0.000
REMARK SMILES C[C@H](Sc1ccccn1)C(=O)N[C@H](C(=O)NCCCCNC(=O)c1ccc(-c2c3nc(c(-c4c(F)c(F)c(F)c(F)c4F)c4ccc([nH]4)c(-c4c(F)c(F)c(F)c(F)c4F)c4nc(c(-c5c(F)c(F)c(F)c(F)c5F)c5ccc2[nH]5)C=C4)C=C3)cc1)c1ccc(F)cc1
REMARK SMILES IDX 17 1 16 2 14 3 15 4 13 6 12 7 10 8 11 9 2 11 1 12 3 13 4 14
REMARK SMILES IDX 5 15 9 16 6 17 8 18 7 19 87 20 88 21 93 22 89 23 92 24 90 25
REMARK SMILES IDX 91 26 18 27 19 28 20 29 21 30 22 31 23 33 24 34 25 35 86 36
REMARK SMILES IDX 26 37 85 38 27 39 28 40 29 41 79 42 30 43 84 44 78 45 80 46
REMARK SMILES IDX 31 47 83 48 77 49 76 50 32 52 64 53 44 54 63 55 45 56 48 57
REMARK SMILES IDX 62 58 81 59 46 60 47 61 61 63 82 64 49 65 33 66 34 67 42 68
REMARK SMILES IDX 35 69 36 70 40 71 43 72 37 73 38 74 41 75 39 76 65 77 66 78
REMARK SMILES IDX 74 79 67 80 68 81 72 82 75 83 69 84 70 85 73 86 71 87 50 88
REMARK SMILES IDX 51 89 59 90 52 91 53 92 57 93 60 94 54 95 55 96 58 97 56 98
REMARK H PARENT 16 5 12 10 21 32 80 51 48 62
REMARK Flexibility Score: inf
ROOT
ATOM      1  C   UNL A   1      33.254  23.097  26.524  1.00  0.00     0.116 C 
ENDROOT
BRANCH   1   2
ATOM      2  N   UNL A   1      31.826  23.098  26.769  1.00  0.00    -0.354 N 
ATOM      3  C   UNL A   1      30.902  24.095  26.561  1.00  0.00     0.247 C 
ATOM      4  O   UNL A   1      29.805  23.915  27.088  1.00  0.00    -0.272 OA
ATOM      5  H   UNL A   1      31.463  22.260  27.137  1.00  0.00     0.163 HD
BRANCH   3   6
ATOM      6  C   UNL A   1      31.284  25.277  25.623  1.00  0.00     0.202 C 
BRANCH   6   7
ATOM      7  N   UNL A   1      30.102  25.473  24.749  1.00  0.00    -0.340 N 
ATOM      8  C   UNL A   1      29.555  26.412  23.953  1.00  0.00     0.234 C 
ATOM      9  O   UNL A   1      28.316  26.328  23.876  1.00  0.00    -0.274 OA
ATOM     10  H   UNL A   1      29.542  24.664  24.751  1.00  0.00     0.164 HD
BRANCH   8  11
ATOM     11  C   UNL A   1      30.252  27.392  23.020  1.00  0.00     0.139 C 
ATOM     12  C   UNL A   1      31.372  26.703  22.236  1.00  0.00     0.030 C 
BRANCH  11  13
ATOM     13  S   UNL A   1      30.732  29.010  23.681  1.00  0.00    -0.093 SA
BRANCH  13  14
ATOM     14  C   UNL A   1      29.531  30.125  23.005  1.00  0.00     0.097 A 
ATOM     15  C   UNL A   1      28.923  31.146  23.724  1.00  0.00     0.035 A 
ATOM     16  N   UNL A   1      29.264  29.909  21.697  1.00  0.00    -0.250 NA
ATOM     17  C   UNL A   1      28.084  32.034  23.054  1.00  0.00     0.004 A 
ATOM     18  C   UNL A   1      28.442  30.777  21.072  1.00  0.00     0.112 A 
ATOM     19  C   UNL A   1      27.845  31.854  21.699  1.00  0.00     0.020 A 
ENDBRANCH  13  14
ENDBRANCH  11  13
ENDBRANCH   8  11
ENDBRANCH   6   7
BRANCH   6  20
ATOM     20  C   UNL A   1      31.991  26.485  26.196  1.00  0.00    -0.016 A 
ATOM     21  C   UNL A   1      33.335  26.716  25.854  1.00  0.00     0.009 A 
ATOM     22  C   UNL A   1      31.402  27.360  27.126  1.00  0.00     0.009 A 
ATOM     23  C   UNL A   1      34.014  27.852  26.300  1.00  0.00     0.039 A 
ATOM     24  C   UNL A   1      32.087  28.484  27.598  1.00  0.00     0.039 A 
ATOM     25  C   UNL A   1      33.376  28.736  27.158  1.00  0.00     0.123 A 
ATOM     26  F   UNL A   1      34.018  29.834  27.574  1.00  0.00    -0.207 F 
ENDBRANCH   6  20
ENDBRANCH   3   6
ENDBRANCH   1   2
BRANCH   1  27
ATOM     27  C   UNL A   1      33.758  21.677  26.276  1.00  0.00     0.023 C 
BRANCH  27  28
ATOM     28  C   UNL A   1      34.955  21.590  25.323  1.00  0.00     0.023 C 
BRANCH  28  29
ATOM     29  C   UNL A   1      36.274  22.112  25.886  1.00  0.00     0.116 C 
BRANCH  29  30
ATOM     30  N   UNL A   1      37.343  21.130  25.813  1.00  0.00    -0.352 N 
ATOM     31  C   UNL A   1      38.691  21.294  26.006  1.00  0.00     0.251 C 
ATOM     32  H   UNL A   1      37.059  20.213  25.594  1.00  0.00     0.163 HD
ATOM     33  O   UNL A   1      39.463  20.371  25.753  1.00  0.00    -0.269 OA
BRANCH  31  34
ATOM     34  C   UNL A   1      39.221  22.588  26.482  1.00  0.00     0.039 A 
ATOM     35  C   UNL A   1      40.308  22.583  27.359  1.00  0.00     0.014 A 
ATOM     36  C   UNL A   1      38.655  23.799  26.072  1.00  0.00     0.014 A 
ATOM     37  C   UNL A   1      40.869  23.792  27.771  1.00  0.00     0.010 A 
ATOM     38  C   UNL A   1      39.263  25.002  26.424  1.00  0.00     0.010 A 
ATOM     39  C   UNL A   1      40.378  25.011  27.277  1.00  0.00    -0.014 A 
BRANCH  39  40
ATOM     40  C   UNL A   1      41.040  26.294  27.625  1.00  0.00     0.031 A 
ATOM     41  C   UNL A   1      42.479  26.537  27.266  1.00  0.00     0.074 A 
ATOM     42  C   UNL A   1      40.350  27.228  28.309  1.00  0.00     0.049 A 
ATOM     43  N   UNL A   1      43.225  27.587  27.502  1.00  0.00    -0.248 NA
ATOM     44  C   UNL A   1      43.183  25.447  26.573  1.00  0.00     0.031 C 
ATOM     45  C   UNL A   1      38.965  27.088  28.763  1.00  0.00     0.029 A 
ATOM     46  N   UNL A   1      40.718  28.476  28.746  1.00  0.00    -0.354 N 
ATOM     47  C   UNL A   1      44.480  27.283  26.992  1.00  0.00     0.074 A 
ATOM     48  C   UNL A   1      44.414  25.929  26.488  1.00  0.00     0.031 C 
ATOM     49  C   UNL A   1      38.590  28.217  29.385  1.00  0.00     0.029 A 
ATOM     50  C   UNL A   1      39.717  29.144  29.410  1.00  0.00     0.049 A 
ATOM     51  H   UNL A   1      41.613  28.857  28.596  1.00  0.00     0.167 HD
ATOM     52  C   UNL A   1      45.581  28.072  26.928  1.00  0.00     0.037 A 
ATOM     53  C   UNL A   1      39.711  30.363  29.981  1.00  0.00     0.037 A 
ATOM     54  C   UNL A   1      45.636  29.424  27.420  1.00  0.00     0.049 A 
ATOM     55  C   UNL A   1      40.951  31.212  29.908  1.00  0.00     0.074 A 
ATOM     56  C   UNL A   1      46.685  30.325  27.349  1.00  0.00     0.029 A 
ATOM     57  N   UNL A   1      44.603  30.068  28.084  1.00  0.00    -0.354 N 
ATOM     58  N   UNL A   1      42.107  30.945  29.350  1.00  0.00    -0.248 NA
ATOM     59  C   UNL A   1      40.882  32.538  30.539  1.00  0.00     0.031 C 
ATOM     60  C   UNL A   1      46.309  31.491  28.022  1.00  0.00     0.029 A 
ATOM     61  C   UNL A   1      45.000  31.343  28.456  1.00  0.00     0.049 A 
ATOM     62  H   UNL A   1      43.717  29.678  28.266  1.00  0.00     0.167 HD
ATOM     63  C   UNL A   1      42.892  32.076  29.536  1.00  0.00     0.074 A 
ATOM     64  C   UNL A   1      42.073  33.039  30.243  1.00  0.00     0.031 C 
ATOM     65  C   UNL A   1      44.175  32.295  29.157  1.00  0.00     0.037 A 
BRANCH  52  66
ATOM     66  C   UNL A   1      46.818  27.492  26.303  1.00  0.00     0.064 A 
ATOM     67  C   UNL A   1      47.063  27.588  24.924  1.00  0.00     0.173 A 
ATOM     68  C   UNL A   1      47.793  26.870  27.097  1.00  0.00     0.173 A 
ATOM     69  F   UNL A   1      46.160  28.164  24.116  1.00  0.00    -0.203 F 
ATOM     70  C   UNL A   1      48.220  27.056  24.361  1.00  0.00     0.198 A 
ATOM     71  C   UNL A   1      48.966  26.370  26.536  1.00  0.00     0.198 A 
ATOM     72  F   UNL A   1      47.616  26.756  28.422  1.00  0.00    -0.203 F 
ATOM     73  F   UNL A   1      48.406  27.113  23.035  1.00  0.00    -0.200 F 
ATOM     74  C   UNL A   1      49.174  26.456  25.168  1.00  0.00     0.200 A 
ATOM     75  F   UNL A   1      49.893  25.805  27.320  1.00  0.00    -0.200 F 
ATOM     76  F   UNL A   1      50.292  25.953  24.626  1.00  0.00    -0.200 F 
ENDBRANCH  52  66
BRANCH  53  77
ATOM     77  C   UNL A   1      38.482  30.864  30.652  1.00  0.00     0.064 A 
ATOM     78  C   UNL A   1      37.424  31.407  29.910  1.00  0.00     0.173 A 
ATOM     79  C   UNL A   1      38.341  30.815  32.047  1.00  0.00     0.173 A 
ATOM     80  F   UNL A   1      37.517  31.492  28.574  1.00  0.00    -0.203 F 
ATOM     81  C   UNL A   1      36.284  31.904  30.538  1.00  0.00     0.198 A 
ATOM     82  C   UNL A   1      37.187  31.283  32.671  1.00  0.00     0.198 A 
ATOM     83  F   UNL A   1      39.321  30.299  32.803  1.00  0.00    -0.203 F 
ATOM     84  F   UNL A   1      35.310  32.464  29.808  1.00  0.00    -0.200 F 
ATOM     85  C   UNL A   1      36.163  31.836  31.918  1.00  0.00     0.200 A 
ATOM     86  F   UNL A   1      37.068  31.199  34.003  1.00  0.00    -0.200 F 
ATOM     87  F   UNL A   1      35.065  32.311  32.521  1.00  0.00    -0.200 F 
ENDBRANCH  53  77
BRANCH  65  88
ATOM     88  C   UNL A   1      44.764  33.643  29.466  1.00  0.00     0.064 A 
ATOM     89  C   UNL A   1      45.475  33.885  30.651  1.00  0.00     0.173 A 
ATOM     90  C   UNL A   1      44.641  34.697  28.547  1.00  0.00     0.173 A 
ATOM     91  F   UNL A   1      45.608  32.916  31.569  1.00  0.00    -0.203 F 
ATOM     92  C   UNL A   1      46.014  35.141  30.918  1.00  0.00     0.198 A 
ATOM     93  C   UNL A   1      45.213  35.941  28.801  1.00  0.00     0.198 A 
ATOM     94  F   UNL A   1      43.978  34.517  27.395  1.00  0.00    -0.203 F 
ATOM     95  F   UNL A   1      46.641  35.364  32.081  1.00  0.00    -0.200 F 
ATOM     96  C   UNL A   1      45.890  36.164  29.990  1.00  0.00     0.200 A 
ATOM     97  F   UNL A   1      45.106  36.923  27.897  1.00  0.00    -0.200 F 
ATOM     98  F   UNL A   1      46.416  37.370  30.246  1.00  0.00    -0.200 F 
ENDBRANCH  65  88
ENDBRANCH  39  40
ENDBRANCH  31  34
ENDBRANCH  29  30
ENDBRANCH  28  29
ENDBRANCH  27  28
ENDBRANCH   1  27
TORSDOF 16
ENDMDL
MODEL 2
REMARK VINA RESULT:     -12.9      2.164      3.035
REMARK SMILES C[C@H](Sc1ccccn1)C(=O)N[C@H](C(=O)NCCCCNC(=O)c1ccc(-c2c3nc(c(-c4c(F)c(F)c(F)c(F)c4F)c4ccc([nH]4)c(-c4c(F)c(F)c(F)c(F)c4F)c4nc(c(-c5c(F)c(F)c(F)c(F)c5F)c5ccc2[nH]5)C=C4)C=C3)cc1)c1ccc(F)cc1
REMARK SMILES IDX 17 1 16 2 14 3 15 4 13 6 12 7 10 8 11 9 2 11 1 12 3 13 4 14
REMARK SMILES IDX 5 15 9 16 6 17 8 18 7 19 87 20 88 21 93 22 89 23 92 24 90 25
REMARK SMILES IDX 91 26 18 27 19 28 20 29 21 30 22 31 23 33 24 34 25 35 86 36
REMARK SMILES IDX 26 37 85 38 27 39 28 40 29 41 79 42 30 43 84 44 78 45 80 46
REMARK SMILES IDX 31 47 83 48 77 49 76 50 32 52 64 53 44 54 63 55 45 56 48 57
REMARK SMILES IDX 62 58 81 59 46 60 47 61 61 63 82 64 49 65 33 66 34 67 42 68
REMARK SMILES IDX 35 69 36 70 40 71 43 72 37 73 38 74 41 75 39 76 65 77 66 78
REMARK SMILES IDX 74 79 67 80 68 81 72 82 75 83 69 84 70 85 73 86 71 87 50 88
REMARK SMILES IDX 51 89 59 90 52 91 53 92 57 93 60 94 54 95 55 96 58 97 56 98
REMARK H PARENT 16 5 12 10 21 32 80 51 48 62
REMARK Flexibility Score: inf
ROOT
ATOM      1  C   UNL A   1      34.063  23.332  26.301  1.00  0.00     0.116 C 
ENDROOT
BRANCH   1   2
ATOM      2  N   UNL A   1      32.661  23.214  26.649  1.00  0.00    -0.354 N 
ATOM      3  C   UNL A   1      31.651  24.142  26.548  1.00  0.00     0.247 C 
ATOM      4  O   UNL A   1      30.615  23.861  27.147  1.00  0.00    -0.272 OA
ATOM      5  H   UNL A   1      32.391  22.339  27.012  1.00  0.00     0.163 HD
BRANCH   3   6
ATOM      6  C   UNL A   1      31.871  25.380  25.629  1.00  0.00     0.202 C 
BRANCH   6   7
ATOM      7  N   UNL A   1      30.691  25.408  24.732  1.00  0.00    -0.340 N 
ATOM      8  C   UNL A   1      30.126  26.199  23.800  1.00  0.00     0.234 C 
ATOM      9  O   UNL A   1      28.889  26.071  23.733  1.00  0.00    -0.274 OA
ATOM     10  H   UNL A   1      30.152  24.594  24.856  1.00  0.00     0.164 HD
BRANCH   8  11
ATOM     11  C   UNL A   1      30.803  27.044  22.731  1.00  0.00     0.139 C 
ATOM     12  C   UNL A   1      31.876  26.240  21.993  1.00  0.00     0.030 C 
BRANCH  11  13
ATOM     13  S   UNL A   1      31.342  28.717  23.175  1.00  0.00    -0.093 SA
BRANCH  13  14
ATOM     14  C   UNL A   1      29.874  29.699  23.013  1.00  0.00     0.097 A 
ATOM     15  C   UNL A   1      29.532  30.736  23.871  1.00  0.00     0.035 A 
ATOM     16  N   UNL A   1      29.110  29.363  21.950  1.00  0.00    -0.250 NA
ATOM     17  C   UNL A   1      28.415  31.514  23.574  1.00  0.00     0.004 A 
ATOM     18  C   UNL A   1      28.029  30.126  21.688  1.00  0.00     0.112 A 
ATOM     19  C   UNL A   1      27.653  31.212  22.455  1.00  0.00     0.020 A 
ENDBRANCH  13  14
ENDBRANCH  11  13
ENDBRANCH   8  11
ENDBRANCH   6   7
BRANCH   6  20
ATOM     20  C   UNL A   1      32.377  26.673  26.229  1.00  0.00    -0.016 A 
ATOM     21  C   UNL A   1      33.700  27.075  25.968  1.00  0.00     0.009 A 
ATOM     22  C   UNL A   1      31.622  27.469  27.108  1.00  0.00     0.009 A 
ATOM     23  C   UNL A   1      34.196  28.292  26.440  1.00  0.00     0.039 A 
ATOM     24  C   UNL A   1      32.125  28.674  27.607  1.00  0.00     0.039 A 
ATOM     25  C   UNL A   1      33.396  29.090  27.245  1.00  0.00     0.123 A 
ATOM     26  F   UNL A   1      33.862  30.265  27.685  1.00  0.00    -0.207 F 
ENDBRANCH   6  20
ENDBRANCH   3   6
ENDBRANCH   1   2
BRANCH   1  27
ATOM     27  C   UNL A   1      34.386  22.485  25.072  1.00  0.00     0.023 C 
BRANCH  27  28
ATOM     28  C   UNL A   1      35.647  22.922  24.319  1.00  0.00     0.023 C 
BRANCH  28  29
ATOM     29  C   UNL A   1      36.740  23.542  25.184  1.00  0.00     0.116 C 
BRANCH  29  30
ATOM     30  N   UNL A   1      37.796  22.599  25.515  1.00  0.00    -0.352 N 
ATOM     31  C   UNL A   1      39.003  22.822  26.128  1.00  0.00     0.251 C 
ATOM     32  H   UNL A   1      37.619  21.663  25.265  1.00  0.00     0.163 HD
ATOM     33  O   UNL A   1      39.835  21.920  26.189  1.00  0.00    -0.269 OA
BRANCH  31  34
ATOM     34  C   UNL A   1      39.318  24.155  26.682  1.00  0.00     0.039 A 
ATOM     35  C   UNL A   1      38.931  24.443  27.992  1.00  0.00     0.014 A 
ATOM     36  C   UNL A   1      39.991  25.116  25.921  1.00  0.00     0.014 A 
ATOM     37  C   UNL A   1      39.275  25.669  28.562  1.00  0.00     0.010 A 
ATOM     38  C   UNL A   1      40.400  26.308  26.515  1.00  0.00     0.010 A 
ATOM     39  C   UNL A   1      40.047  26.597  27.843  1.00  0.00    -0.014 A 
BRANCH  39  40
ATOM     40  C   UNL A   1      40.510  27.856  28.481  1.00  0.00     0.031 A 
ATOM     41  C   UNL A   1      41.947  28.026  28.887  1.00  0.00     0.074 A 
ATOM     42  C   UNL A   1      39.618  28.833  28.735  1.00  0.00     0.049 A 
ATOM     43  N   UNL A   1      42.527  29.047  29.468  1.00  0.00    -0.248 NA
ATOM     44  C   UNL A   1      42.848  26.892  28.631  1.00  0.00     0.031 C 
ATOM     45  C   UNL A   1      38.186  28.765  28.439  1.00  0.00     0.029 A 
ATOM     46  N   UNL A   1      39.780  30.072  29.303  1.00  0.00    -0.354 N 
ATOM     47  C   UNL A   1      43.853  28.676  29.650  1.00  0.00     0.074 A 
ATOM     48  C   UNL A   1      43.980  27.317  29.173  1.00  0.00     0.031 C 
ATOM     49  C   UNL A   1      37.607  29.921  28.797  1.00  0.00     0.029 A 
ATOM     50  C   UNL A   1      38.616  30.797  29.384  1.00  0.00     0.049 A 
ATOM     51  H   UNL A   1      40.649  30.409  29.621  1.00  0.00     0.167 HD
ATOM     52  C   UNL A   1      44.877  29.414  30.146  1.00  0.00     0.037 A 
ATOM     53  C   UNL A   1      38.386  32.026  29.882  1.00  0.00     0.037 A 
ATOM     54  C   UNL A   1      44.746  30.772  30.607  1.00  0.00     0.049 A 
ATOM     55  C   UNL A   1      39.538  32.818  30.441  1.00  0.00     0.074 A 
ATOM     56  C   UNL A   1      45.734  31.623  31.071  1.00  0.00     0.029 A 
ATOM     57  N   UNL A   1      43.552  31.475  30.672  1.00  0.00    -0.354 N 
ATOM     58  N   UNL A   1      40.803  32.488  30.531  1.00  0.00    -0.248 NA
ATOM     59  C   UNL A   1      39.229  34.158  30.960  1.00  0.00     0.031 C 
ATOM     60  C   UNL A   1      45.130  32.818  31.474  1.00  0.00     0.029 A 
ATOM     61  C   UNL A   1      43.774  32.738  31.197  1.00  0.00     0.049 A 
ATOM     62  H   UNL A   1      42.675  31.128  30.386  1.00  0.00     0.167 HD
ATOM     63  C   UNL A   1      41.446  33.586  31.088  1.00  0.00     0.074 A 
ATOM     64  C   UNL A   1      40.432  34.599  31.298  1.00  0.00     0.031 C 
ATOM     65  C   UNL A   1      42.756  33.740  31.399  1.00  0.00     0.037 A 
BRANCH  52  66
ATOM     66  C   UNL A   1      46.231  28.766  30.217  1.00  0.00     0.064 A 
ATOM     67  C   UNL A   1      47.137  28.830  29.146  1.00  0.00     0.173 A 
ATOM     68  C   UNL A   1      46.647  28.110  31.385  1.00  0.00     0.173 A 
ATOM     69  F   UNL A   1      46.788  29.437  28.002  1.00  0.00    -0.203 F 
ATOM     70  C   UNL A   1      48.393  28.236  29.232  1.00  0.00     0.198 A 
ATOM     71  C   UNL A   1      47.916  27.547  31.481  1.00  0.00     0.198 A 
ATOM     72  F   UNL A   1      45.825  28.024  32.443  1.00  0.00    -0.203 F 
ATOM     73  F   UNL A   1      49.219  28.265  28.177  1.00  0.00    -0.200 F 
ATOM     74  C   UNL A   1      48.785  27.603  30.401  1.00  0.00     0.200 A 
ATOM     75  F   UNL A   1      48.299  26.949  32.617  1.00  0.00    -0.200 F 
ATOM     76  F   UNL A   1      49.998  27.039  30.486  1.00  0.00    -0.200 F 
ENDBRANCH  52  66
BRANCH  53  77
ATOM     77  C   UNL A   1      37.012  32.595  29.854  1.00  0.00     0.064 A 
ATOM     78  C   UNL A   1      36.151  32.457  30.951  1.00  0.00     0.173 A 
ATOM     79  C   UNL A   1      36.530  33.284  28.731  1.00  0.00     0.173 A 
ATOM     80  F   UNL A   1      36.558  31.791  32.043  1.00  0.00    -0.203 F 
ATOM     81  C   UNL A   1      34.853  32.962  30.917  1.00  0.00     0.198 A 
ATOM     82  C   UNL A   1      35.243  33.818  28.711  1.00  0.00     0.198 A 
ATOM     83  F   UNL A   1      37.316  33.450  27.657  1.00  0.00    -0.203 F 
ATOM     84  F   UNL A   1      34.034  32.770  31.960  1.00  0.00    -0.200 F 
ATOM     85  C   UNL A   1      34.402  33.648  29.800  1.00  0.00     0.200 A 
ATOM     86  F   UNL A   1      34.819  34.495  27.636  1.00  0.00    -0.200 F 
ATOM     87  F   UNL A   1      33.155  34.138  29.769  1.00  0.00    -0.200 F 
ENDBRANCH  53  77
BRANCH  65  88
ATOM     88  C   UNL A   1      43.179  35.066  31.967  1.00  0.00     0.064 A 
ATOM     89  C   UNL A   1      43.118  35.334  33.342  1.00  0.00     0.173 A 
ATOM     90  C   UNL A   1      43.682  36.069  31.124  1.00  0.00     0.173 A 
ATOM     91  F   UNL A   1      42.630  34.415  34.189  1.00  0.00    -0.203 F 
ATOM     92  C   UNL A   1      43.514  36.569  33.849  1.00  0.00     0.198 A 
ATOM     93  C   UNL A   1      44.112  37.289  31.638  1.00  0.00     0.198 A 
ATOM     94  F   UNL A   1      43.770  35.862  29.802  1.00  0.00    -0.203 F 
ATOM     95  F   UNL A   1      43.395  36.823  35.159  1.00  0.00    -0.200 F 
ATOM     96  C   UNL A   1      44.019  37.542  32.998  1.00  0.00     0.200 A 
ATOM     97  F   UNL A   1      44.614  38.221  30.818  1.00  0.00    -0.200 F 
ATOM     98  F   UNL A   1      44.407  38.727  33.489  1.00  0.00    -0.200 F 
ENDBRANCH  65  88
ENDBRANCH  39  40
ENDBRANCH  31  34
ENDBRANCH  29  30
ENDBRANCH  28  29
ENDBRANCH  27  28
ENDBRANCH   1  27
TORSDOF 16
ENDMDL
MODEL 3
REMARK VINA RESULT:     -12.9      2.519      7.864
REMARK SMILES C[C@H](Sc1ccccn1)C(=O)N[C@H](C(=O)NCCCCNC(=O)c1ccc(-c2c3nc(c(-c4c(F)c(F)c(F)c(F)c4F)c4ccc([nH]4)c(-c4c(F)c(F)c(F)c(F)c4F)c4nc(c(-c5c(F)c(F)c(F)c(F)c5F)c5ccc2[nH]5)C=C4)C=C3)cc1)c1ccc(F)cc1
REMARK SMILES IDX 17 1 16 2 14 3 15 4 13 6 12 7 10 8 11 9 2 11 1 12 3 13 4 14
REMARK SMILES IDX 5 15 9 16 6 17 8 18 7 19 87 20 88 21 93 22 89 23 92 24 90 25
REMARK SMILES IDX 91 26 18 27 19 28 20 29 21 30 22 31 23 33 24 34 25 35 86 36
REMARK SMILES IDX 26 37 85 38 27 39 28 40 29 41 79 42 30 43 84 44 78 45 80 46
REMARK SMILES IDX 31 47 83 48 77 49 76 50 32 52 64 53 44 54 63 55 45 56 48 57
REMARK SMILES IDX 62 58 81 59 46 60 47 61 61 63 82 64 49 65 33 66 34 67 42 68
REMARK SMILES IDX 35 69 36 70 40 71 43 72 37 73 38 74 41 75 39 76 65 77 66 78
REMARK SMILES IDX 74 79 67 80 68 81 72 82 75 83 69 84 70 85 73 86 71 87 50 88
REMARK SMILES IDX 51 89 59 90 52 91 53 92 57 93 60 94 54 95 55 96 58 97 56 98
REMARK H PARENT 16 5 12 10 21 32 80 51 48 62
REMARK Flexibility Score: inf
ROOT
ATOM      1  C   UNL A   1      37.055  22.267  25.262  1.00  0.00     0.116 C 
ENDROOT
BRANCH   1   2
ATOM      2  N   UNL A   1      36.286  22.090  26.478  1.00  0.00    -0.354 N 
ATOM      3  C   UNL A   1      35.047  22.585  26.811  1.00  0.00     0.247 C 
ATOM      4  O   UNL A   1      34.743  22.487  27.999  1.00  0.00    -0.272 OA
ATOM      5  H   UNL A   1      36.714  21.532  27.167  1.00  0.00     0.163 HD
BRANCH   3   6
ATOM      6  C   UNL A   1      34.129  23.116  25.671  1.00  0.00     0.202 C 
BRANCH   6   7
ATOM      7  N   UNL A   1      33.389  21.927  25.186  1.00  0.00    -0.340 N 
ATOM      8  C   UNL A   1      32.445  21.600  24.282  1.00  0.00     0.234 C 
ATOM      9  O   UNL A   1      31.767  20.611  24.617  1.00  0.00    -0.274 OA
ATOM     10  H   UNL A   1      33.677  21.125  25.678  1.00  0.00     0.164 HD
BRANCH   8  11
ATOM     11  C   UNL A   1      32.248  22.143  22.874  1.00  0.00     0.139 C 
ATOM     12  C   UNL A   1      31.797  21.037  21.917  1.00  0.00     0.030 C 
BRANCH  11  13
ATOM     13  S   UNL A   1      33.538  23.209  22.179  1.00  0.00    -0.093 SA
BRANCH  13  14
ATOM     14  C   UNL A   1      32.833  24.834  22.239  1.00  0.00     0.097 A 
ATOM     15  C   UNL A   1      31.523  25.102  22.614  1.00  0.00     0.035 A 
ATOM     16  N   UNL A   1      33.699  25.816  21.902  1.00  0.00    -0.250 NA
ATOM     17  C   UNL A   1      31.116  26.429  22.738  1.00  0.00     0.004 A 
ATOM     18  C   UNL A   1      33.280  27.092  22.022  1.00  0.00     0.112 A 
ATOM     19  C   UNL A   1      32.014  27.446  22.447  1.00  0.00     0.020 A 
ENDBRANCH  13  14
ENDBRANCH  11  13
ENDBRANCH   8  11
ENDBRANCH   6   7
BRANCH   6  20
ATOM     20  C   UNL A   1      33.392  24.424  25.857  1.00  0.00    -0.016 A 
ATOM     21  C   UNL A   1      34.082  25.632  25.652  1.00  0.00     0.009 A 
ATOM     22  C   UNL A   1      32.061  24.508  26.304  1.00  0.00     0.009 A 
ATOM     23  C   UNL A   1      33.432  26.865  25.743  1.00  0.00     0.039 A 
ATOM     24  C   UNL A   1      31.414  25.742  26.425  1.00  0.00     0.039 A 
ATOM     25  C   UNL A   1      32.096  26.907  26.115  1.00  0.00     0.123 A 
ATOM     26  F   UNL A   1      31.465  28.085  26.186  1.00  0.00    -0.207 F 
ENDBRANCH   6  20
ENDBRANCH   3   6
ENDBRANCH   1   2
BRANCH   1  27
ATOM     27  C   UNL A   1      37.043  20.989  24.426  1.00  0.00     0.023 C 
BRANCH  27  28
ATOM     28  C   UNL A   1      37.875  19.843  25.012  1.00  0.00     0.023 C 
BRANCH  28  29
ATOM     29  C   UNL A   1      39.117  20.272  25.789  1.00  0.00     0.116 C 
BRANCH  29  30
ATOM     30  N   UNL A   1      40.117  19.220  25.872  1.00  0.00    -0.352 N 
ATOM     31  C   UNL A   1      41.469  19.319  26.076  1.00  0.00     0.251 C 
ATOM     32  H   UNL A   1      39.774  18.303  25.767  1.00  0.00     0.163 HD
ATOM     33  O   UNL A   1      42.180  18.323  25.965  1.00  0.00    -0.269 OA
BRANCH  31  34
ATOM     34  C   UNL A   1      42.079  20.627  26.393  1.00  0.00     0.039 A 
ATOM     35  C   UNL A   1      42.462  21.459  25.339  1.00  0.00     0.014 A 
ATOM     36  C   UNL A   1      42.272  21.035  27.716  1.00  0.00     0.014 A 
ATOM     37  C   UNL A   1      42.979  22.726  25.611  1.00  0.00     0.010 A 
ATOM     38  C   UNL A   1      42.715  22.329  27.985  1.00  0.00     0.010 A 
ATOM     39  C   UNL A   1      43.072  23.188  26.934  1.00  0.00    -0.014 A 
BRANCH  39  40
ATOM     40  C   UNL A   1      43.517  24.576  27.224  1.00  0.00     0.031 A 
ATOM     41  C   UNL A   1      42.549  25.596  27.753  1.00  0.00     0.074 A 
ATOM     42  C   UNL A   1      44.792  24.927  26.966  1.00  0.00     0.049 A 
ATOM     43  N   UNL A   1      42.754  26.856  28.049  1.00  0.00    -0.248 NA
ATOM     44  C   UNL A   1      41.160  25.154  27.952  1.00  0.00     0.031 C 
ATOM     45  C   UNL A   1      45.812  24.042  26.401  1.00  0.00     0.029 A 
ATOM     46  N   UNL A   1      45.448  26.120  27.141  1.00  0.00    -0.354 N 
ATOM     47  C   UNL A   1      41.525  27.353  28.463  1.00  0.00     0.074 A 
ATOM     48  C   UNL A   1      40.567  26.279  28.324  1.00  0.00     0.031 C 
ATOM     49  C   UNL A   1      46.972  24.712  26.306  1.00  0.00     0.029 A 
ATOM     50  C   UNL A   1      46.769  26.082  26.764  1.00  0.00     0.049 A 
ATOM     51  H   UNL A   1      45.014  26.925  27.504  1.00  0.00     0.167 HD
ATOM     52  C   UNL A   1      41.229  28.587  28.940  1.00  0.00     0.037 A 
ATOM     53  C   UNL A   1      47.709  27.046  26.780  1.00  0.00     0.037 A 
ATOM     54  C   UNL A   1      42.191  29.648  29.088  1.00  0.00     0.049 A 
ATOM     55  C   UNL A   1      47.349  28.411  27.300  1.00  0.00     0.074 A 
ATOM     56  C   UNL A   1      42.003  30.914  29.617  1.00  0.00     0.029 A 
ATOM     57  N   UNL A   1      43.520  29.573  28.699  1.00  0.00    -0.354 N 
ATOM     58  N   UNL A   1      46.204  28.845  27.767  1.00  0.00    -0.248 NA
ATOM     59  C   UNL A   1      48.419  29.420  27.304  1.00  0.00     0.031 C 
ATOM     60  C   UNL A   1      43.201  31.624  29.491  1.00  0.00     0.029 A 
ATOM     61  C   UNL A   1      44.155  30.780  28.946  1.00  0.00     0.049 A 
ATOM     62  H   UNL A   1      43.950  28.780  28.304  1.00  0.00     0.167 HD
ATOM     63  C   UNL A   1      46.420  30.164  28.146  1.00  0.00     0.074 A 
ATOM     64  C   UNL A   1      47.813  30.453  27.871  1.00  0.00     0.031 C 
ATOM     65  C   UNL A   1      45.544  31.055  28.671  1.00  0.00     0.037 A 
BRANCH  52  66
ATOM     66  C   UNL A   1      39.806  28.857  29.337  1.00  0.00     0.064 A 
ATOM     67  C   UNL A   1      38.862  29.338  28.415  1.00  0.00     0.173 A 
ATOM     68  C   UNL A   1      39.366  28.593  30.643  1.00  0.00     0.173 A 
ATOM     69  F   UNL A   1      39.229  29.617  27.156  1.00  0.00    -0.203 F 
ATOM     70  C   UNL A   1      37.543  29.572  28.795  1.00  0.00     0.198 A 
ATOM     71  C   UNL A   1      38.039  28.795  31.010  1.00  0.00     0.198 A 
ATOM     72  F   UNL A   1      40.223  28.125  31.563  1.00  0.00    -0.203 F 
ATOM     73  F   UNL A   1      36.674  30.081  27.910  1.00  0.00    -0.200 F 
ATOM     74  C   UNL A   1      37.130  29.293  30.088  1.00  0.00     0.200 A 
ATOM     75  F   UNL A   1      37.639  28.509  32.256  1.00  0.00    -0.200 F 
ATOM     76  F   UNL A   1      35.858  29.510  30.449  1.00  0.00    -0.200 F 
ENDBRANCH  52  66
BRANCH  53  77
ATOM     77  C   UNL A   1      49.087  26.748  26.308  1.00  0.00     0.064 A 
ATOM     78  C   UNL A   1      50.053  26.227  27.180  1.00  0.00     0.173 A 
ATOM     79  C   UNL A   1      49.470  26.981  24.978  1.00  0.00     0.173 A 
ATOM     80  F   UNL A   1      49.743  26.004  28.466  1.00  0.00    -0.203 F 
ATOM     81  C   UNL A   1      51.353  25.976  26.749  1.00  0.00     0.198 A 
ATOM     82  C   UNL A   1      50.761  26.697  24.540  1.00  0.00     0.198 A 
ATOM     83  F   UNL A   1      48.582  27.472  24.100  1.00  0.00    -0.203 F 
ATOM     84  F   UNL A   1      52.270  25.527  27.618  1.00  0.00    -0.200 F 
ATOM     85  C   UNL A   1      51.705  26.205  25.428  1.00  0.00     0.200 A 
ATOM     86  F   UNL A   1      51.091  26.904  23.258  1.00  0.00    -0.200 F 
ATOM     87  F   UNL A   1      52.955  25.958  25.012  1.00  0.00    -0.200 F 
ENDBRANCH  53  77
BRANCH  65  88
ATOM     88  C   UNL A   1      46.073  32.418  29.019  1.00  0.00     0.064 A 
ATOM     89  C   UNL A   1      46.637  32.695  30.273  1.00  0.00     0.173 A 
ATOM     90  C   UNL A   1      46.043  33.452  28.071  1.00  0.00     0.173 A 
ATOM     91  F   UNL A   1      46.676  31.746  31.220  1.00  0.00    -0.203 F 
ATOM     92  C   UNL A   1      47.122  33.964  30.576  1.00  0.00     0.198 A 
ATOM     93  C   UNL A   1      46.562  34.711  28.364  1.00  0.00     0.198 A 
ATOM     94  F   UNL A   1      45.522  33.240  26.853  1.00  0.00    -0.203 F 
ATOM     95  F   UNL A   1      47.605  34.221  31.799  1.00  0.00    -0.200 F 
ATOM     96  C   UNL A   1      47.092  34.968  29.619  1.00  0.00     0.200 A 
ATOM     97  F   UNL A   1      46.546  35.674  27.433  1.00  0.00    -0.200 F 
ATOM     98  F   UNL A   1      47.566  36.187  29.909  1.00  0.00    -0.200 F 
ENDBRANCH  65  88
ENDBRANCH  39  40
ENDBRANCH  31  34
ENDBRANCH  29  30
ENDBRANCH  28  29
ENDBRANCH  27  28
ENDBRANCH   1  27
TORSDOF 16
ENDMDL
