MODEL 1
REMARK VINA RESULT:     -13.8      0.000      0.000
REMARK SMILES COc1ccccc1C(=O)N1[C@@H](C(=O)NCCCCNC(=O)c2ccc(-c3c4nc(c(-c5c(F)c(F)c(F)c(F)c5F)c5ccc([nH]5)c(-c5c(F)c(F)c(F)c(F)c5F)c5nc(c(-c6c(F)c(F)c(F)c(F)c6F)c6ccc3[nH]6)C=C5)C=C4)cc2)COC12CC[NH+](Cc1ccccc1)CC2
REMARK SMILES IDX 17 1 16 2 15 3 13 4 14 5 12 7 11 8 88 9 86 10 87 11 89 12
REMARK SMILES IDX 100 13 90 14 99 15 91 16 9 18 10 19 8 20 3 21 4 22 5 23 7 24
REMARK SMILES IDX 6 25 2 26 1 27 92 28 93 29 94 30 98 31 95 32 97 33 96 34
REMARK SMILES IDX 18 35 19 36 20 37 21 38 22 40 23 41 24 42 85 43 25 44 84 45
REMARK SMILES IDX 26 46 27 47 28 48 78 49 29 50 83 51 77 52 79 53 30 54 82 55
REMARK SMILES IDX 76 56 75 57 31 59 63 60 43 61 62 62 44 63 47 64 61 65 80 66
REMARK SMILES IDX 45 67 46 68 60 70 81 71 48 72 32 73 33 74 41 75 34 76 35 77
REMARK SMILES IDX 39 78 42 79 36 80 37 81 40 82 38 83 64 84 65 85 73 86 66 87
REMARK SMILES IDX 67 88 71 89 74 90 68 91 69 92 72 93 70 94 49 95 50 96 58 97
REMARK SMILES IDX 51 98 52 99 56 100 59 101 53 102 54 103 57 104 55 105
REMARK H PARENT 15 6 91 17 20 39 79 58 47 69
REMARK Flexibility Score: inf
ROOT
ATOM      1  C   UNL A   1      32.605  30.280  25.786  1.00  0.00     0.023 C 
ENDROOT
BRANCH   1   2
ATOM      2  C   UNL A   1      33.128  28.938  26.275  1.00  0.00     0.116 C 
BRANCH   2   3
ATOM      3  N   UNL A   1      32.115  28.046  26.787  1.00  0.00    -0.354 N 
ATOM      4  C   UNL A   1      31.888  26.729  26.493  1.00  0.00     0.245 C 
ATOM      5  O   UNL A   1      31.024  26.167  27.176  1.00  0.00    -0.273 OA
ATOM      6  H   UNL A   1      31.498  28.442  27.445  1.00  0.00     0.163 HD
BRANCH   4   7
ATOM      7  C   UNL A   1      32.631  25.952  25.375  1.00  0.00     0.203 C 
ATOM      8  N   UNL A   1      31.933  24.782  24.854  1.00  0.00    -0.295 N 
ATOM      9  C   UNL A   1      32.743  23.576  25.081  1.00  0.00     0.155 C 
ATOM     10  C   UNL A   1      33.974  25.423  25.806  1.00  0.00     0.198 C 
ATOM     11  O   UNL A   1      33.755  24.016  26.029  1.00  0.00    -0.352 OA
ATOM     12  C   UNL A   1      31.984  22.384  25.673  1.00  0.00     0.120 C 
ATOM     13  C   UNL A   1      33.551  23.104  23.866  1.00  0.00     0.120 C 
ATOM     14  C   UNL A   1      32.898  21.204  25.991  1.00  0.00     0.267 C 
ATOM     15  C   UNL A   1      34.457  21.919  24.266  1.00  0.00     0.267 C 
ATOM     16  N   UNL A   1      33.756  20.797  24.887  1.00  0.00    -0.331 N 
ATOM     17  H   UNL A   1      34.503  20.259  25.324  1.00  0.00     0.348 HD
BRANCH   8  18
ATOM     18  C   UNL A   1      30.973  25.002  23.870  1.00  0.00     0.260 C 
ATOM     19  O   UNL A   1      30.591  24.079  23.145  1.00  0.00    -0.269 OA
BRANCH  18  20
ATOM     20  C   UNL A   1      30.418  26.344  23.549  1.00  0.00     0.082 A 
ATOM     21  C   UNL A   1      31.064  27.283  22.736  1.00  0.00     0.131 A 
ATOM     22  C   UNL A   1      30.442  28.494  22.396  1.00  0.00     0.047 A 
ATOM     23  C   UNL A   1      29.112  28.718  22.739  1.00  0.00     0.004 A 
ATOM     24  C   UNL A   1      29.066  26.575  23.863  1.00  0.00     0.018 A 
ATOM     25  C   UNL A   1      28.413  27.742  23.444  1.00  0.00     0.001 A 
BRANCH  21  26
ATOM     26  O   UNL A   1      32.285  27.047  22.162  1.00  0.00    -0.496 OA
ATOM     27  C   UNL A   1      33.181  28.105  22.520  1.00  0.00     0.278 C 
ENDBRANCH  21  26
ENDBRANCH  18  20
ENDBRANCH   8  18
BRANCH  16  28
ATOM     28  C   UNL A   1      33.236  19.752  23.999  1.00  0.00     0.299 C 
BRANCH  28  29
ATOM     29  C   UNL A   1      33.446  18.318  24.429  1.00  0.00     0.006 A 
ATOM     30  C   UNL A   1      34.693  17.699  24.298  1.00  0.00     0.009 A 
ATOM     31  C   UNL A   1      32.388  17.590  25.004  1.00  0.00     0.009 A 
ATOM     32  C   UNL A   1      34.883  16.402  24.775  1.00  0.00     0.001 A 
ATOM     33  C   UNL A   1      32.599  16.319  25.536  1.00  0.00     0.001 A 
ATOM     34  C   UNL A   1      33.852  15.727  25.426  1.00  0.00     0.000 A 
ENDBRANCH  28  29
ENDBRANCH  16  28
ENDBRANCH   4   7
ENDBRANCH   2   3
ENDBRANCH   1   2
BRANCH   1  35
ATOM     35  C   UNL A   1      32.079  31.201  26.875  1.00  0.00     0.023 C 
BRANCH  35  36
ATOM     36  C   UNL A   1      33.095  32.183  27.451  1.00  0.00     0.116 C 
BRANCH  36  37
ATOM     37  N   UNL A   1      32.589  33.542  27.616  1.00  0.00    -0.352 N 
ATOM     38  C   UNL A   1      33.045  34.549  28.433  1.00  0.00     0.251 C 
ATOM     39  H   UNL A   1      31.807  33.770  27.063  1.00  0.00     0.163 HD
ATOM     40  O   UNL A   1      32.460  35.626  28.496  1.00  0.00    -0.269 OA
BRANCH  38  41
ATOM     41  C   UNL A   1      34.227  34.302  29.282  1.00  0.00     0.039 A 
ATOM     42  C   UNL A   1      34.038  33.785  30.566  1.00  0.00     0.014 A 
ATOM     43  C   UNL A   1      35.513  34.482  28.770  1.00  0.00     0.014 A 
ATOM     44  C   UNL A   1      35.141  33.333  31.290  1.00  0.00     0.010 A 
ATOM     45  C   UNL A   1      36.600  33.954  29.457  1.00  0.00     0.010 A 
ATOM     46  C   UNL A   1      36.422  33.353  30.714  1.00  0.00    -0.014 A 
BRANCH  46  47
ATOM     47  C   UNL A   1      37.580  32.704  31.381  1.00  0.00     0.031 A 
ATOM     48  C   UNL A   1      38.265  31.533  30.737  1.00  0.00     0.074 A 
ATOM     49  C   UNL A   1      37.943  33.103  32.617  1.00  0.00     0.049 A 
ATOM     50  N   UNL A   1      39.221  30.774  31.208  1.00  0.00    -0.248 NA
ATOM     51  C   UNL A   1      37.792  31.142  29.400  1.00  0.00     0.031 C 
ATOM     52  C   UNL A   1      37.306  34.177  33.384  1.00  0.00     0.029 A 
ATOM     53  N   UNL A   1      38.924  32.636  33.458  1.00  0.00    -0.354 N 
ATOM     54  C   UNL A   1      39.442  29.802  30.241  1.00  0.00     0.074 A 
ATOM     55  C   UNL A   1      38.496  30.043  29.173  1.00  0.00     0.031 C 
ATOM     56  C   UNL A   1      37.919  34.295  34.573  1.00  0.00     0.029 A 
ATOM     57  C   UNL A   1      38.967  33.285  34.670  1.00  0.00     0.049 A 
ATOM     58  H   UNL A   1      39.537  31.906  33.216  1.00  0.00     0.167 HD
ATOM     59  C   UNL A   1      40.365  28.813  30.238  1.00  0.00     0.037 A 
ATOM     60  C   UNL A   1      39.756  33.079  35.742  1.00  0.00     0.037 A 
ATOM     61  C   UNL A   1      41.342  28.611  31.274  1.00  0.00     0.049 A 
ATOM     62  C   UNL A   1      40.799  31.995  35.691  1.00  0.00     0.074 A 
ATOM     63  C   UNL A   1      42.393  27.711  31.302  1.00  0.00     0.029 A 
ATOM     64  N   UNL A   1      41.387  29.318  32.465  1.00  0.00    -0.354 N 
ATOM     65  N   UNL A   1      41.066  31.150  34.726  1.00  0.00    -0.248 NA
ATOM     66  C   UNL A   1      41.654  31.840  36.878  1.00  0.00     0.031 C 
ATOM     67  C   UNL A   1      43.049  27.844  32.530  1.00  0.00     0.029 A 
ATOM     68  C   UNL A   1      42.431  28.855  33.248  1.00  0.00     0.049 A 
ATOM     69  H   UNL A   1      40.769  30.042  32.717  1.00  0.00     0.167 HD
ATOM     70  C   UNL A   1      42.130  30.380  35.178  1.00  0.00     0.074 A 
ATOM     71  C   UNL A   1      42.472  30.870  36.496  1.00  0.00     0.031 C 
ATOM     72  C   UNL A   1      42.763  29.357  34.555  1.00  0.00     0.037 A 
BRANCH  59  73
ATOM     73  C   UNL A   1      40.378  27.873  29.070  1.00  0.00     0.064 A 
ATOM     74  C   UNL A   1      39.603  26.704  29.057  1.00  0.00     0.173 A 
ATOM     75  C   UNL A   1      41.124  28.181  27.922  1.00  0.00     0.173 A 
ATOM     76  F   UNL A   1      38.880  26.362  30.135  1.00  0.00    -0.203 F 
ATOM     77  C   UNL A   1      39.588  25.868  27.945  1.00  0.00     0.198 A 
ATOM     78  C   UNL A   1      41.088  27.356  26.803  1.00  0.00     0.198 A 
ATOM     79  F   UNL A   1      41.879  29.290  27.884  1.00  0.00    -0.203 F 
ATOM     80  F   UNL A   1      38.867  24.738  27.968  1.00  0.00    -0.200 F 
ATOM     81  C   UNL A   1      40.323  26.199  26.816  1.00  0.00     0.200 A 
ATOM     82  F   UNL A   1      41.790  27.681  25.708  1.00  0.00    -0.200 F 
ATOM     83  F   UNL A   1      40.297  25.399  25.741  1.00  0.00    -0.200 F 
ENDBRANCH  59  73
BRANCH  60  84
ATOM     84  C   UNL A   1      39.599  33.920  36.958  1.00  0.00     0.064 A 
ATOM     85  C   UNL A   1      38.826  33.482  38.042  1.00  0.00     0.173 A 
ATOM     86  C   UNL A   1      40.195  35.186  37.050  1.00  0.00     0.173 A 
ATOM     87  F   UNL A   1      38.218  32.288  37.991  1.00  0.00    -0.203 F 
ATOM     88  C   UNL A   1      38.634  34.289  39.161  1.00  0.00     0.198 A 
ATOM     89  C   UNL A   1      40.025  35.981  38.181  1.00  0.00     0.198 A 
ATOM     90  F   UNL A   1      40.948  35.650  36.041  1.00  0.00    -0.203 F 
ATOM     91  F   UNL A   1      37.847  33.867  40.161  1.00  0.00    -0.200 F 
ATOM     92  C   UNL A   1      39.236  35.536  39.233  1.00  0.00     0.200 A 
ATOM     93  F   UNL A   1      40.618  37.180  38.251  1.00  0.00    -0.200 F 
ATOM     94  F   UNL A   1      39.048  36.313  40.308  1.00  0.00    -0.200 F 
ENDBRANCH  60  84
BRANCH  72  95
ATOM     95  C   UNL A   1      43.904  28.712  35.283  1.00  0.00     0.064 A 
ATOM     96  C   UNL A   1      45.226  29.143  35.102  1.00  0.00     0.173 A 
ATOM     97  C   UNL A   1      43.667  27.681  36.205  1.00  0.00     0.173 A 
ATOM     98  F   UNL A   1      45.503  30.115  34.218  1.00  0.00    -0.203 F 
ATOM     99  C   UNL A   1      46.273  28.552  35.804  1.00  0.00     0.198 A 
ATOM    100  C   UNL A   1      44.714  27.110  36.924  1.00  0.00     0.198 A 
ATOM    101  F   UNL A   1      42.420  27.237  36.417  1.00  0.00    -0.203 F 
ATOM    102  F   UNL A   1      47.533  28.952  35.584  1.00  0.00    -0.200 F 
ATOM    103  C   UNL A   1      46.016  27.542  36.719  1.00  0.00     0.200 A 
ATOM    104  F   UNL A   1      44.462  26.143  37.817  1.00  0.00    -0.200 F 
ATOM    105  F   UNL A   1      47.024  26.980  37.399  1.00  0.00    -0.200 F 
ENDBRANCH  72  95
ENDBRANCH  46  47
ENDBRANCH  38  41
ENDBRANCH  36  37
ENDBRANCH  35  36
ENDBRANCH   1  35
TORSDOF 16
ENDMDL
MODEL 2
REMARK VINA RESULT:     -13.8      1.331      6.971
REMARK SMILES COc1ccccc1C(=O)N1[C@@H](C(=O)NCCCCNC(=O)c2ccc(-c3c4nc(c(-c5c(F)c(F)c(F)c(F)c5F)c5ccc([nH]5)c(-c5c(F)c(F)c(F)c(F)c5F)c5nc(c(-c6c(F)c(F)c(F)c(F)c6F)c6ccc3[nH]6)C=C5)C=C4)cc2)COC12CC[NH+](Cc1ccccc1)CC2
REMARK SMILES IDX 17 1 16 2 15 3 13 4 14 5 12 7 11 8 88 9 86 10 87 11 89 12
REMARK SMILES IDX 100 13 90 14 99 15 91 16 9 18 10 19 8 20 3 21 4 22 5 23 7 24
REMARK SMILES IDX 6 25 2 26 1 27 92 28 93 29 94 30 98 31 95 32 97 33 96 34
REMARK SMILES IDX 18 35 19 36 20 37 21 38 22 40 23 41 24 42 85 43 25 44 84 45
REMARK SMILES IDX 26 46 27 47 28 48 78 49 29 50 83 51 77 52 79 53 30 54 82 55
REMARK SMILES IDX 76 56 75 57 31 59 63 60 43 61 62 62 44 63 47 64 61 65 80 66
REMARK SMILES IDX 45 67 46 68 60 70 81 71 48 72 32 73 33 74 41 75 34 76 35 77
REMARK SMILES IDX 39 78 42 79 36 80 37 81 40 82 38 83 64 84 65 85 73 86 66 87
REMARK SMILES IDX 67 88 71 89 74 90 68 91 69 92 72 93 70 94 49 95 50 96 58 97
REMARK SMILES IDX 51 98 52 99 56 100 59 101 53 102 54 103 57 104 55 105
REMARK H PARENT 15 6 91 17 20 39 79 58 47 69
REMARK Flexibility Score: inf
ROOT
ATOM      1  C   UNL A   1      31.079  30.489  25.162  1.00  0.00     0.023 C 
ENDROOT
BRANCH   1   2
ATOM      2  C   UNL A   1      32.064  29.402  25.561  1.00  0.00     0.116 C 
BRANCH   2   3
ATOM      3  N   UNL A   1      31.533  28.409  26.465  1.00  0.00    -0.354 N 
ATOM      4  C   UNL A   1      31.727  27.055  26.478  1.00  0.00     0.245 C 
ATOM      5  O   UNL A   1      31.249  26.453  27.448  1.00  0.00    -0.273 OA
ATOM      6  H   UNL A   1      30.946  28.757  27.175  1.00  0.00     0.163 HD
BRANCH   4   7
ATOM      7  C   UNL A   1      32.479  26.277  25.367  1.00  0.00     0.203 C 
ATOM      8  N   UNL A   1      31.810  25.077  24.877  1.00  0.00    -0.295 N 
ATOM      9  C   UNL A   1      32.658  23.900  25.119  1.00  0.00     0.155 C 
ATOM     10  C   UNL A   1      33.842  25.797  25.791  1.00  0.00     0.198 C 
ATOM     11  O   UNL A   1      33.667  24.389  26.045  1.00  0.00    -0.352 OA
ATOM     12  C   UNL A   1      31.942  22.698  25.743  1.00  0.00     0.120 C 
ATOM     13  C   UNL A   1      33.465  23.427  23.903  1.00  0.00     0.120 C 
ATOM     14  C   UNL A   1      32.893  21.552  26.073  1.00  0.00     0.267 C 
ATOM     15  C   UNL A   1      34.410  22.278  24.314  1.00  0.00     0.267 C 
ATOM     16  N   UNL A   1      33.750  21.149  24.966  1.00  0.00    -0.331 N 
ATOM     17  H   UNL A   1      34.518  20.642  25.405  1.00  0.00     0.348 HD
BRANCH   8  18
ATOM     18  C   UNL A   1      30.832  25.249  23.902  1.00  0.00     0.260 C 
ATOM     19  O   UNL A   1      30.393  24.282  23.272  1.00  0.00    -0.269 OA
BRANCH  18  20
ATOM     20  C   UNL A   1      30.324  26.579  23.474  1.00  0.00     0.082 A 
ATOM     21  C   UNL A   1      30.978  27.409  22.557  1.00  0.00     0.131 A 
ATOM     22  C   UNL A   1      30.396  28.611  22.125  1.00  0.00     0.047 A 
ATOM     23  C   UNL A   1      29.090  28.925  22.487  1.00  0.00     0.004 A 
ATOM     24  C   UNL A   1      28.994  26.899  23.808  1.00  0.00     0.018 A 
ATOM     25  C   UNL A   1      28.376  28.050  23.302  1.00  0.00     0.001 A 
BRANCH  21  26
ATOM     26  O   UNL A   1      32.168  27.067  21.970  1.00  0.00    -0.496 OA
ATOM     27  C   UNL A   1      33.175  28.000  22.378  1.00  0.00     0.278 C 
ENDBRANCH  21  26
ENDBRANCH  18  20
ENDBRANCH   8  18
BRANCH  16  28
ATOM     28  C   UNL A   1      33.251  20.071  24.106  1.00  0.00     0.299 C 
BRANCH  28  29
ATOM     29  C   UNL A   1      33.454  18.654  24.590  1.00  0.00     0.006 A 
ATOM     30  C   UNL A   1      32.471  17.997  25.337  1.00  0.00     0.009 A 
ATOM     31  C   UNL A   1      34.632  17.957  24.264  1.00  0.00     0.009 A 
ATOM     32  C   UNL A   1      32.647  16.662  25.704  1.00  0.00     0.001 A 
ATOM     33  C   UNL A   1      34.776  16.607  24.578  1.00  0.00     0.001 A 
ATOM     34  C   UNL A   1      33.777  15.958  25.295  1.00  0.00     0.000 A 
ENDBRANCH  28  29
ENDBRANCH  16  28
ENDBRANCH   4   7
ENDBRANCH   2   3
ENDBRANCH   1   2
BRANCH   1  35
ATOM     35  C   UNL A   1      31.043  31.695  26.088  1.00  0.00     0.023 C 
BRANCH  35  36
ATOM     36  C   UNL A   1      32.307  31.930  26.910  1.00  0.00     0.116 C 
BRANCH  36  37
ATOM     37  N   UNL A   1      32.504  33.315  27.323  1.00  0.00    -0.352 N 
ATOM     38  C   UNL A   1      33.576  33.889  27.968  1.00  0.00     0.251 C 
ATOM     39  H   UNL A   1      31.763  33.928  27.111  1.00  0.00     0.163 HD
ATOM     40  O   UNL A   1      33.554  35.070  28.300  1.00  0.00    -0.269 OA
BRANCH  38  41
ATOM     41  C   UNL A   1      34.741  33.048  28.305  1.00  0.00     0.039 A 
ATOM     42  C   UNL A   1      36.010  33.631  28.316  1.00  0.00     0.014 A 
ATOM     43  C   UNL A   1      34.562  31.725  28.709  1.00  0.00     0.014 A 
ATOM     44  C   UNL A   1      37.085  32.919  28.851  1.00  0.00     0.010 A 
ATOM     45  C   UNL A   1      35.614  31.050  29.318  1.00  0.00     0.010 A 
ATOM     46  C   UNL A   1      36.881  31.649  29.415  1.00  0.00    -0.014 A 
BRANCH  46  47
ATOM     47  C   UNL A   1      37.960  30.953  30.162  1.00  0.00     0.031 A 
ATOM     48  C   UNL A   1      38.239  31.308  31.594  1.00  0.00     0.074 A 
ATOM     49  C   UNL A   1      38.758  30.079  29.514  1.00  0.00     0.049 A 
ATOM     50  N   UNL A   1      39.199  30.886  32.377  1.00  0.00    -0.248 NA
ATOM     51  C   UNL A   1      37.341  32.291  32.221  1.00  0.00     0.031 C 
ATOM     52  C   UNL A   1      38.640  29.708  28.102  1.00  0.00     0.029 A 
ATOM     53  N   UNL A   1      39.841  29.359  29.953  1.00  0.00    -0.354 N 
ATOM     54  C   UNL A   1      39.037  31.572  33.574  1.00  0.00     0.074 A 
ATOM     55  C   UNL A   1      37.912  32.465  33.403  1.00  0.00     0.031 C 
ATOM     56  C   UNL A   1      39.602  28.823  27.796  1.00  0.00     0.029 A 
ATOM     57  C   UNL A   1      40.427  28.589  28.976  1.00  0.00     0.049 A 
ATOM     58  H   UNL A   1      40.169  29.392  30.881  1.00  0.00     0.167 HD
ATOM     59  C   UNL A   1      39.752  31.450  34.716  1.00  0.00     0.037 A 
ATOM     60  C   UNL A   1      41.512  27.794  29.024  1.00  0.00     0.037 A 
ATOM     61  C   UNL A   1      40.834  30.520  34.902  1.00  0.00     0.049 A 
ATOM     62  C   UNL A   1      42.262  27.650  30.321  1.00  0.00     0.074 A 
ATOM     63  C   UNL A   1      41.539  30.241  36.060  1.00  0.00     0.029 A 
ATOM     64  N   UNL A   1      41.368  29.721  33.904  1.00  0.00    -0.354 N 
ATOM     65  N   UNL A   1      42.034  28.226  31.476  1.00  0.00    -0.248 NA
ATOM     66  C   UNL A   1      43.418  26.741  30.323  1.00  0.00     0.031 C 
ATOM     67  C   UNL A   1      42.529  29.302  35.751  1.00  0.00     0.029 A 
ATOM     68  C   UNL A   1      42.413  28.968  34.412  1.00  0.00     0.049 A 
ATOM     69  H   UNL A   1      41.051  29.693  32.972  1.00  0.00     0.167 HD
ATOM     70  C   UNL A   1      43.000  27.736  32.344  1.00  0.00     0.074 A 
ATOM     71  C   UNL A   1      43.805  26.800  31.589  1.00  0.00     0.031 C 
ATOM     72  C   UNL A   1      43.202  28.037  33.650  1.00  0.00     0.037 A 
BRANCH  59  73
ATOM     73  C   UNL A   1      39.382  32.334  35.869  1.00  0.00     0.064 A 
ATOM     74  C   UNL A   1      38.449  31.932  36.836  1.00  0.00     0.173 A 
ATOM     75  C   UNL A   1      40.020  33.572  36.045  1.00  0.00     0.173 A 
ATOM     76  F   UNL A   1      37.806  30.761  36.706  1.00  0.00    -0.203 F 
ATOM     77  C   UNL A   1      38.153  32.744  37.926  1.00  0.00     0.198 A 
ATOM     78  C   UNL A   1      39.740  34.370  37.149  1.00  0.00     0.198 A 
ATOM     79  F   UNL A   1      40.924  34.000  35.150  1.00  0.00    -0.203 F 
ATOM     80  F   UNL A   1      37.233  32.355  38.819  1.00  0.00    -0.200 F 
ATOM     81  C   UNL A   1      38.806  33.958  38.088  1.00  0.00     0.200 A 
ATOM     82  F   UNL A   1      40.379  35.538  37.310  1.00  0.00    -0.200 F 
ATOM     83  F   UNL A   1      38.529  34.733  39.146  1.00  0.00    -0.200 F 
ENDBRANCH  59  73
BRANCH  60  84
ATOM     84  C   UNL A   1      41.957  27.061  27.810  1.00  0.00     0.064 A 
ATOM     85  C   UNL A   1      41.503  25.761  27.546  1.00  0.00     0.173 A 
ATOM     86  C   UNL A   1      42.862  27.632  26.904  1.00  0.00     0.173 A 
ATOM     87  F   UNL A   1      40.653  25.164  28.395  1.00  0.00    -0.203 F 
ATOM     88  C   UNL A   1      41.957  25.051  26.438  1.00  0.00     0.198 A 
ATOM     89  C   UNL A   1      43.296  26.931  25.781  1.00  0.00     0.198 A 
ATOM     90  F   UNL A   1      43.324  28.875  27.109  1.00  0.00    -0.203 F 
ATOM     91  F   UNL A   1      41.548  23.791  26.238  1.00  0.00    -0.200 F 
ATOM     92  C   UNL A   1      42.851  25.637  25.553  1.00  0.00     0.200 A 
ATOM     93  F   UNL A   1      44.150  27.506  24.923  1.00  0.00    -0.200 F 
ATOM     94  F   UNL A   1      43.291  24.953  24.489  1.00  0.00    -0.200 F 
ENDBRANCH  60  84
BRANCH  72  95
ATOM     95  C   UNL A   1      44.325  27.333  34.351  1.00  0.00     0.064 A 
ATOM     96  C   UNL A   1      45.604  27.901  34.437  1.00  0.00     0.173 A 
ATOM     97  C   UNL A   1      44.107  26.099  34.981  1.00  0.00     0.173 A 
ATOM     98  F   UNL A   1      45.864  29.072  33.836  1.00  0.00    -0.203 F 
ATOM     99  C   UNL A   1      46.630  27.248  35.114  1.00  0.00     0.198 A 
ATOM    100  C   UNL A   1      45.129  25.462  35.679  1.00  0.00     0.198 A 
ATOM    101  F   UNL A   1      42.899  25.518  34.931  1.00  0.00    -0.203 F 
ATOM    102  F   UNL A   1      47.856  27.790  35.149  1.00  0.00    -0.200 F 
ATOM    103  C   UNL A   1      46.391  26.034  35.740  1.00  0.00     0.200 A 
ATOM    104  F   UNL A   1      44.892  24.295  36.294  1.00  0.00    -0.200 F 
ATOM    105  F   UNL A   1      47.379  25.411  36.397  1.00  0.00    -0.200 F 
ENDBRANCH  72  95
ENDBRANCH  46  47
ENDBRANCH  38  41
ENDBRANCH  36  37
ENDBRANCH  35  36
ENDBRANCH   1  35
TORSDOF 16
ENDMDL
MODEL 3
REMARK VINA RESULT:     -13.8      5.351     11.272
REMARK SMILES COc1ccccc1C(=O)N1[C@@H](C(=O)NCCCCNC(=O)c2ccc(-c3c4nc(c(-c5c(F)c(F)c(F)c(F)c5F)c5ccc([nH]5)c(-c5c(F)c(F)c(F)c(F)c5F)c5nc(c(-c6c(F)c(F)c(F)c(F)c6F)c6ccc3[nH]6)C=C5)C=C4)cc2)COC12CC[NH+](Cc1ccccc1)CC2
REMARK SMILES IDX 17 1 16 2 15 3 13 4 14 5 12 7 11 8 88 9 86 10 87 11 89 12
REMARK SMILES IDX 100 13 90 14 99 15 91 16 9 18 10 19 8 20 3 21 4 22 5 23 7 24
REMARK SMILES IDX 6 25 2 26 1 27 92 28 93 29 94 30 98 31 95 32 97 33 96 34
REMARK SMILES IDX 18 35 19 36 20 37 21 38 22 40 23 41 24 42 85 43 25 44 84 45
REMARK SMILES IDX 26 46 27 47 28 48 78 49 29 50 83 51 77 52 79 53 30 54 82 55
REMARK SMILES IDX 76 56 75 57 31 59 63 60 43 61 62 62 44 63 47 64 61 65 80 66
REMARK SMILES IDX 45 67 46 68 60 70 81 71 48 72 32 73 33 74 41 75 34 76 35 77
REMARK SMILES IDX 39 78 42 79 36 80 37 81 40 82 38 83 64 84 65 85 73 86 66 87
REMARK SMILES IDX 67 88 71 89 74 90 68 91 69 92 72 93 70 94 49 95 50 96 58 97
REMARK SMILES IDX 51 98 52 99 56 100 59 101 53 102 54 103 57 104 55 105
REMARK H PARENT 15 6 91 17 20 39 79 58 47 69
REMARK Flexibility Score: inf
ROOT
ATOM      1  C   UNL A   1      36.725  21.265  25.670  1.00  0.00     0.023 C 
ENDROOT
BRANCH   1   2
ATOM      2  C   UNL A   1      36.565  22.723  25.267  1.00  0.00     0.116 C 
BRANCH   2   3
ATOM      3  N   UNL A   1      36.101  22.929  23.916  1.00  0.00    -0.354 N 
ATOM      4  C   UNL A   1      35.032  23.654  23.465  1.00  0.00     0.245 C 
ATOM      5  O   UNL A   1      34.937  23.765  22.236  1.00  0.00    -0.273 OA
ATOM      6  H   UNL A   1      36.631  22.482  23.216  1.00  0.00     0.163 HD
BRANCH   4   7
ATOM      7  C   UNL A   1      33.975  24.305  24.394  1.00  0.00     0.203 C 
ATOM      8  N   UNL A   1      32.671  24.549  23.787  1.00  0.00    -0.295 N 
ATOM      9  C   UNL A   1      32.368  25.988  23.818  1.00  0.00     0.155 C 
ATOM     10  C   UNL A   1      34.394  25.649  24.929  1.00  0.00     0.198 C 
ATOM     11  O   UNL A   1      33.647  26.600  24.146  1.00  0.00    -0.352 OA
ATOM     12  C   UNL A   1      31.853  26.574  22.500  1.00  0.00     0.120 C 
ATOM     13  C   UNL A   1      31.442  26.426  24.958  1.00  0.00     0.120 C 
ATOM     14  C   UNL A   1      31.666  28.087  22.562  1.00  0.00     0.267 C 
ATOM     15  C   UNL A   1      31.309  27.965  24.965  1.00  0.00     0.267 C 
ATOM     16  N   UNL A   1      30.875  28.546  23.697  1.00  0.00    -0.331 N 
ATOM     17  H   UNL A   1      31.108  29.534  23.792  1.00  0.00     0.348 HD
BRANCH   8  18
ATOM     18  C   UNL A   1      31.778  23.482  23.748  1.00  0.00     0.260 C 
ATOM     19  O   UNL A   1      30.567  23.678  23.611  1.00  0.00    -0.269 OA
BRANCH  18  20
ATOM     20  C   UNL A   1      32.180  22.067  23.966  1.00  0.00     0.082 A 
ATOM     21  C   UNL A   1      32.367  21.492  25.229  1.00  0.00     0.131 A 
ATOM     22  C   UNL A   1      32.654  20.125  25.366  1.00  0.00     0.047 A 
ATOM     23  C   UNL A   1      32.610  19.287  24.257  1.00  0.00     0.004 A 
ATOM     24  C   UNL A   1      32.113  21.200  22.860  1.00  0.00     0.018 A 
ATOM     25  C   UNL A   1      32.305  19.819  23.007  1.00  0.00     0.001 A 
BRANCH  21  26
ATOM     26  O   UNL A   1      32.201  22.196  26.392  1.00  0.00    -0.496 OA
ATOM     27  C   UNL A   1      33.267  21.870  27.291  1.00  0.00     0.278 C 
ENDBRANCH  21  26
ENDBRANCH  18  20
ENDBRANCH   8  18
BRANCH  16  28
ATOM     28  C   UNL A   1      29.432  28.690  23.478  1.00  0.00     0.299 C 
BRANCH  28  29
ATOM     29  C   UNL A   1      28.949  30.011  22.925  1.00  0.00     0.006 A 
ATOM     30  C   UNL A   1      29.057  31.190  23.670  1.00  0.00     0.009 A 
ATOM     31  C   UNL A   1      28.411  30.080  21.627  1.00  0.00     0.009 A 
ATOM     32  C   UNL A   1      28.678  32.409  23.108  1.00  0.00     0.001 A 
ATOM     33  C   UNL A   1      28.095  31.307  21.047  1.00  0.00     0.001 A 
ATOM     34  C   UNL A   1      28.234  32.475  21.789  1.00  0.00     0.000 A 
ENDBRANCH  28  29
ENDBRANCH  16  28
ENDBRANCH   4   7
ENDBRANCH   2   3
ENDBRANCH   1   2
BRANCH   1  35
ATOM     35  C   UNL A   1      37.932  20.562  25.069  1.00  0.00     0.023 C 
BRANCH  35  36
ATOM     36  C   UNL A   1      39.216  20.646  25.890  1.00  0.00     0.116 C 
BRANCH  36  37
ATOM     37  N   UNL A   1      40.027  19.433  25.861  1.00  0.00    -0.352 N 
ATOM     38  C   UNL A   1      41.376  19.280  26.078  1.00  0.00     0.251 C 
ATOM     39  H   UNL A   1      39.537  18.604  25.655  1.00  0.00     0.163 HD
ATOM     40  O   UNL A   1      41.917  18.185  25.953  1.00  0.00    -0.269 OA
BRANCH  38  41
ATOM     41  C   UNL A   1      42.186  20.468  26.414  1.00  0.00     0.039 A 
ATOM     42  C   UNL A   1      42.791  21.185  25.379  1.00  0.00     0.014 A 
ATOM     43  C   UNL A   1      42.254  20.925  27.730  1.00  0.00     0.014 A 
ATOM     44  C   UNL A   1      43.363  22.428  25.651  1.00  0.00     0.010 A 
ATOM     45  C   UNL A   1      42.748  22.200  27.984  1.00  0.00     0.010 A 
ATOM     46  C   UNL A   1      43.286  22.973  26.943  1.00  0.00    -0.014 A 
BRANCH  46  47
ATOM     47  C   UNL A   1      43.711  24.370  27.218  1.00  0.00     0.031 A 
ATOM     48  C   UNL A   1      42.712  25.383  27.699  1.00  0.00     0.074 A 
ATOM     49  C   UNL A   1      44.973  24.749  26.931  1.00  0.00     0.049 A 
ATOM     50  N   UNL A   1      42.869  26.668  27.895  1.00  0.00    -0.248 NA
ATOM     51  C   UNL A   1      41.349  24.897  27.962  1.00  0.00     0.031 C 
ATOM     52  C   UNL A   1      46.017  23.878  26.385  1.00  0.00     0.029 A 
ATOM     53  N   UNL A   1      45.589  25.972  27.038  1.00  0.00    -0.354 N 
ATOM     54  C   UNL A   1      41.621  27.145  28.276  1.00  0.00     0.074 A 
ATOM     55  C   UNL A   1      40.710  26.022  28.246  1.00  0.00     0.031 C 
ATOM     56  C   UNL A   1      47.144  24.590  26.218  1.00  0.00     0.029 A 
ATOM     57  C   UNL A   1      46.895  25.973  26.609  1.00  0.00     0.049 A 
ATOM     58  H   UNL A   1      45.136  26.773  27.388  1.00  0.00     0.167 HD
ATOM     59  C   UNL A   1      41.276  28.403  28.636  1.00  0.00     0.037 A 
ATOM     60  C   UNL A   1      47.787  26.978  26.529  1.00  0.00     0.037 A 
ATOM     61  C   UNL A   1      42.196  29.505  28.720  1.00  0.00     0.049 A 
ATOM     62  C   UNL A   1      47.382  28.358  26.974  1.00  0.00     0.074 A 
ATOM     63  C   UNL A   1      41.964  30.786  29.189  1.00  0.00     0.029 A 
ATOM     64  N   UNL A   1      43.524  29.457  28.324  1.00  0.00    -0.354 N 
ATOM     65  N   UNL A   1      46.227  28.773  27.431  1.00  0.00    -0.248 NA
ATOM     66  C   UNL A   1      48.409  29.409  26.897  1.00  0.00     0.031 C 
ATOM     67  C   UNL A   1      43.141  31.527  29.037  1.00  0.00     0.029 A 
ATOM     68  C   UNL A   1      44.115  30.695  28.511  1.00  0.00     0.049 A 
ATOM     69  H   UNL A   1      43.977  28.662  27.962  1.00  0.00     0.167 HD
ATOM     70  C   UNL A   1      46.391  30.122  27.716  1.00  0.00     0.074 A 
ATOM     71  C   UNL A   1      47.764  30.452  27.399  1.00  0.00     0.031 C 
ATOM     72  C   UNL A   1      45.484  31.007  28.196  1.00  0.00     0.037 A 
BRANCH  59  73
ATOM     73  C   UNL A   1      39.840  28.661  28.984  1.00  0.00     0.064 A 
ATOM     74  C   UNL A   1      39.358  28.492  30.289  1.00  0.00     0.173 A 
ATOM     75  C   UNL A   1      38.953  29.147  28.011  1.00  0.00     0.173 A 
ATOM     76  F   UNL A   1      40.166  28.020  31.252  1.00  0.00    -0.203 F 
ATOM     77  C   UNL A   1      38.034  28.782  30.606  1.00  0.00     0.198 A 
ATOM     78  C   UNL A   1      37.637  29.460  28.336  1.00  0.00     0.198 A 
ATOM     79  F   UNL A   1      39.368  29.328  26.748  1.00  0.00    -0.203 F 
ATOM     80  F   UNL A   1      37.585  28.581  31.852  1.00  0.00    -0.200 F 
ATOM     81  C   UNL A   1      37.177  29.275  29.632  1.00  0.00     0.200 A 
ATOM     82  F   UNL A   1      36.813  29.945  27.397  1.00  0.00    -0.200 F 
ATOM     83  F   UNL A   1      35.906  29.567  29.942  1.00  0.00    -0.200 F 
ENDBRANCH  59  73
BRANCH  60  84
ATOM     84  C   UNL A   1      49.158  26.723  26.013  1.00  0.00     0.064 A 
ATOM     85  C   UNL A   1      50.177  26.277  26.867  1.00  0.00     0.173 A 
ATOM     86  C   UNL A   1      49.483  26.944  24.668  1.00  0.00     0.173 A 
ATOM     87  F   UNL A   1      49.919  26.074  28.167  1.00  0.00    -0.203 F 
ATOM     88  C   UNL A   1      51.475  26.087  26.399  1.00  0.00     0.198 A 
ATOM     89  C   UNL A   1      50.776  26.727  24.195  1.00  0.00     0.198 A 
ATOM     90  F   UNL A   1      48.543  27.367  23.809  1.00  0.00    -0.203 F 
ATOM     91  F   UNL A   1      52.442  25.711  27.248  1.00  0.00    -0.200 F 
ATOM     92  C   UNL A   1      51.774  26.309  25.063  1.00  0.00     0.200 A 
ATOM     93  F   UNL A   1      51.057  26.931  22.901  1.00  0.00    -0.200 F 
ATOM     94  F   UNL A   1      53.023  26.129  24.615  1.00  0.00    -0.200 F 
ENDBRANCH  60  84
BRANCH  72  95
ATOM     95  C   UNL A   1      45.952  32.413  28.426  1.00  0.00     0.064 A 
ATOM     96  C   UNL A   1      45.832  33.396  27.432  1.00  0.00     0.173 A 
ATOM     97  C   UNL A   1      46.485  32.791  29.667  1.00  0.00     0.173 A 
ATOM     98  F   UNL A   1      45.344  33.077  26.224  1.00  0.00    -0.203 F 
ATOM     99  C   UNL A   1      46.246  34.703  27.669  1.00  0.00     0.198 A 
ATOM    100  C   UNL A   1      46.873  34.106  29.907  1.00  0.00     0.198 A 
ATOM    101  F   UNL A   1      46.614  31.888  30.651  1.00  0.00    -0.203 F 
ATOM    102  F   UNL A   1      46.161  35.617  26.691  1.00  0.00    -0.200 F 
ATOM    103  C   UNL A   1      46.759  35.059  28.907  1.00  0.00     0.200 A 
ATOM    104  F   UNL A   1      47.357  34.450  31.109  1.00  0.00    -0.200 F 
ATOM    105  F   UNL A   1      47.151  36.320  29.134  1.00  0.00    -0.200 F 
ENDBRANCH  72  95
ENDBRANCH  46  47
ENDBRANCH  38  41
ENDBRANCH  36  37
ENDBRANCH  35  36
ENDBRANCH   1  35
TORSDOF 16
ENDMDL
