MODEL 1
REMARK VINA RESULT:     -12.9      0.000      0.000
REMARK SMILES O=C(NCCCCNC(=O)[C@@H]1CN(c2nccc(N3CCC(O)CC3)n2)CC[NH2+]1)c1ccc(-c2c3nc(c(-c4c(F)c(F)c(F)c(F)c4F)c4ccc([nH]4)c(-c4c(F)c(F)c(F)c(F)c4F)c4nc(c(-c5c(F)c(F)c(F)c(F)c5F)c5ccc2[nH]5)C=C4)C=C3)cc1
REMARK SMILES IDX 6 1 5 2 4 3 3 4 1 5 2 6 30 8 31 9 92 10 32 11 91 12 33 13
REMARK SMILES IDX 34 14 35 15 85 16 36 17 90 18 84 19 86 20 37 21 89 22 83 23
REMARK SMILES IDX 82 24 38 26 70 27 50 28 69 29 51 30 54 31 68 32 87 33 52 34
REMARK SMILES IDX 53 35 67 37 88 38 55 39 39 40 40 41 48 42 41 43 42 44 46 45
REMARK SMILES IDX 49 46 43 47 44 48 47 49 45 50 71 51 72 52 80 53 73 54 74 55
REMARK SMILES IDX 78 56 81 57 75 58 76 59 79 60 77 61 56 62 57 63 65 64 58 65
REMARK SMILES IDX 59 66 63 67 66 68 60 69 61 70 64 71 62 72 7 73 8 74 9 75
REMARK SMILES IDX 10 77 11 78 12 79 29 80 13 81 28 82 27 85 14 86 15 87 26 88
REMARK SMILES IDX 16 89 18 90 17 91 19 92 20 93 25 94 21 95 24 96 22 97 23 98
REMARK H PARENT 3 7 86 25 54 36 8 76 29 83 29 84 23 99
REMARK Flexibility Score: inf
ROOT
ATOM      1  C   UNL A   1      31.539  30.390  26.443  1.00  0.00     0.023 C 
ENDROOT
BRANCH   1   2
ATOM      2  C   UNL A   1      31.484  31.917  26.495  1.00  0.00     0.023 C 
BRANCH   2   3
ATOM      3  C   UNL A   1      32.646  32.592  27.210  1.00  0.00     0.116 C 
BRANCH   3   4
ATOM      4  N   UNL A   1      32.370  33.969  27.595  1.00  0.00    -0.352 N 
ATOM      5  O   UNL A   1      32.580  35.864  28.809  1.00  0.00    -0.269 OA
ATOM      6  C   UNL A   1      33.010  34.749  28.530  1.00  0.00     0.251 C 
ATOM      7  H   UNL A   1      31.624  34.401  27.119  1.00  0.00     0.163 HD
BRANCH   6   8
ATOM      8  C   UNL A   1      34.201  34.221  29.229  1.00  0.00     0.039 A 
ATOM      9  C   UNL A   1      35.483  34.531  28.774  1.00  0.00     0.014 A 
ATOM     10  C   UNL A   1      34.032  33.386  30.338  1.00  0.00     0.014 A 
ATOM     11  C   UNL A   1      36.583  33.885  29.324  1.00  0.00     0.010 A 
ATOM     12  C   UNL A   1      35.148  32.806  30.950  1.00  0.00     0.010 A 
ATOM     13  C   UNL A   1      36.432  33.022  30.424  1.00  0.00    -0.014 A 
BRANCH  13  14
ATOM     14  C   UNL A   1      37.644  32.411  31.023  1.00  0.00     0.031 A 
ATOM     15  C   UNL A   1      38.107  32.777  32.406  1.00  0.00     0.074 A 
ATOM     16  C   UNL A   1      38.291  31.459  30.323  1.00  0.00     0.049 A 
ATOM     17  N   UNL A   1      39.100  32.277  33.101  1.00  0.00    -0.248 NA
ATOM     18  C   UNL A   1      37.372  33.844  33.099  1.00  0.00     0.031 C 
ATOM     19  C   UNL A   1      37.946  31.040  28.962  1.00  0.00     0.029 A 
ATOM     20  N   UNL A   1      39.345  30.651  30.663  1.00  0.00    -0.354 N 
ATOM     21  C   UNL A   1      39.113  32.970  34.304  1.00  0.00     0.074 A 
ATOM     22  C   UNL A   1      38.049  33.949  34.235  1.00  0.00     0.031 C 
ATOM     23  C   UNL A   1      38.733  30.015  28.605  1.00  0.00     0.029 A 
ATOM     24  C   UNL A   1      39.672  29.743  29.687  1.00  0.00     0.049 A 
ATOM     25  H   UNL A   1      39.822  30.717  31.521  1.00  0.00     0.167 HD
ATOM     26  C   UNL A   1      39.932  32.795  35.370  1.00  0.00     0.037 A 
ATOM     27  C   UNL A   1      40.627  28.795  29.661  1.00  0.00     0.037 A 
ATOM     28  C   UNL A   1      40.984  31.812  35.436  1.00  0.00     0.049 A 
ATOM     29  C   UNL A   1      41.509  28.617  30.861  1.00  0.00     0.074 A 
ATOM     30  C   UNL A   1      41.864  31.556  36.474  1.00  0.00     0.029 A 
ATOM     31  N   UNL A   1      41.295  30.918  34.422  1.00  0.00    -0.354 N 
ATOM     32  N   UNL A   1      41.498  29.270  31.998  1.00  0.00    -0.248 NA
ATOM     33  C   UNL A   1      42.537  27.573  30.776  1.00  0.00     0.031 C 
ATOM     34  C   UNL A   1      42.729  30.530  36.075  1.00  0.00     0.029 A 
ATOM     35  C   UNL A   1      42.360  30.117  34.806  1.00  0.00     0.049 A 
ATOM     36  H   UNL A   1      40.829  30.861  33.557  1.00  0.00     0.167 HD
ATOM     37  C   UNL A   1      42.511  28.716  32.764  1.00  0.00     0.074 A 
ATOM     38  C   UNL A   1      43.095  27.649  31.975  1.00  0.00     0.031 C 
ATOM     39  C   UNL A   1      42.932  29.067  34.004  1.00  0.00     0.037 A 
BRANCH  26  40
ATOM     40  C   UNL A   1      39.728  33.687  36.560  1.00  0.00     0.064 A 
ATOM     41  C   UNL A   1      40.325  34.953  36.639  1.00  0.00     0.173 A 
ATOM     42  C   UNL A   1      38.876  33.298  37.605  1.00  0.00     0.173 A 
ATOM     43  F   UNL A   1      41.157  35.367  35.671  1.00  0.00    -0.203 F 
ATOM     44  C   UNL A   1      40.090  35.791  37.727  1.00  0.00     0.198 A 
ATOM     45  C   UNL A   1      38.623  34.147  38.679  1.00  0.00     0.198 A 
ATOM     46  F   UNL A   1      38.273  32.100  37.576  1.00  0.00    -0.203 F 
ATOM     47  F   UNL A   1      40.698  36.984  37.795  1.00  0.00    -0.200 F 
ATOM     48  C   UNL A   1      39.233  35.392  38.741  1.00  0.00     0.200 A 
ATOM     49  F   UNL A   1      37.785  33.766  39.654  1.00  0.00    -0.200 F 
ATOM     50  F   UNL A   1      38.999  36.204  39.781  1.00  0.00    -0.200 F 
ENDBRANCH  26  40
BRANCH  27  51
ATOM     51  C   UNL A   1      40.788  27.947  28.452  1.00  0.00     0.064 A 
ATOM     52  C   UNL A   1      40.128  26.717  28.334  1.00  0.00     0.173 A 
ATOM     53  C   UNL A   1      41.595  28.362  27.382  1.00  0.00     0.173 A 
ATOM     54  F   UNL A   1      39.360  26.271  29.339  1.00  0.00    -0.203 F 
ATOM     55  C   UNL A   1      40.283  25.926  27.198  1.00  0.00     0.198 A 
ATOM     56  C   UNL A   1      41.724  27.585  26.234  1.00  0.00     0.198 A 
ATOM     57  F   UNL A   1      42.242  29.536  27.444  1.00  0.00    -0.203 F 
ATOM     58  F   UNL A   1      39.674  24.735  27.127  1.00  0.00    -0.200 F 
ATOM     59  C   UNL A   1      41.075  26.364  26.146  1.00  0.00     0.200 A 
ATOM     60  F   UNL A   1      42.475  28.022  25.213  1.00  0.00    -0.200 F 
ATOM     61  F   UNL A   1      41.214  25.606  25.050  1.00  0.00    -0.200 F 
ENDBRANCH  27  51
BRANCH  39  62
ATOM     62  C   UNL A   1      44.073  28.281  34.576  1.00  0.00     0.064 A 
ATOM     63  C   UNL A   1      45.402  28.690  34.400  1.00  0.00     0.173 A 
ATOM     64  C   UNL A   1      43.834  27.111  35.313  1.00  0.00     0.173 A 
ATOM     65  F   UNL A   1      45.681  29.792  33.688  1.00  0.00    -0.203 F 
ATOM     66  C   UNL A   1      46.455  27.938  34.913  1.00  0.00     0.198 A 
ATOM     67  C   UNL A   1      44.889  26.376  35.846  1.00  0.00     0.198 A 
ATOM     68  F   UNL A   1      42.580  26.681  35.513  1.00  0.00    -0.203 F 
ATOM     69  F   UNL A   1      47.721  28.318  34.685  1.00  0.00    -0.200 F 
ATOM     70  C   UNL A   1      46.198  26.784  35.638  1.00  0.00     0.200 A 
ATOM     71  F   UNL A   1      44.639  25.266  36.555  1.00  0.00    -0.200 F 
ATOM     72  F   UNL A   1      47.214  26.059  36.127  1.00  0.00    -0.200 F 
ENDBRANCH  39  62
ENDBRANCH  13  14
ENDBRANCH   6   8
ENDBRANCH   3   4
ENDBRANCH   2   3
ENDBRANCH   1   2
BRANCH   1  73
ATOM     73  C   UNL A   1      32.898  29.801  26.069  1.00  0.00     0.116 C 
BRANCH  73  74
ATOM     74  N   UNL A   1      33.085  29.723  24.631  1.00  0.00    -0.351 N 
ATOM     75  C   UNL A   1      32.526  28.865  23.727  1.00  0.00     0.280 C 
ATOM     76  H   UNL A   1      33.705  30.387  24.252  1.00  0.00     0.163 HD
ATOM     77  O   UNL A   1      32.867  28.972  22.545  1.00  0.00    -0.268 OA
BRANCH  75  78
ATOM     78  C   UNL A   1      31.555  27.775  24.197  1.00  0.00     0.292 C 
ATOM     79  C   UNL A   1      32.201  26.418  23.850  1.00  0.00     0.195 C 
ATOM     80  N   UNL A   1      30.220  27.988  23.553  1.00  0.00    -0.333 N 
ATOM     81  N   UNL A   1      31.251  25.343  24.096  1.00  0.00    -0.329 N 
ATOM     82  C   UNL A   1      29.343  26.838  23.866  1.00  0.00     0.283 C 
ATOM     83  H   UNL A   1      30.336  28.065  22.543  1.00  0.00     0.347 HD
ATOM     84  H   UNL A   1      29.800  28.846  23.910  1.00  0.00     0.347 HD
ATOM     85  C   UNL A   1      29.937  25.455  23.495  1.00  0.00     0.181 C 
BRANCH  81  86
ATOM     86  C   UNL A   1      31.689  24.176  24.647  1.00  0.00     0.227 A 
ATOM     87  N   UNL A   1      30.807  23.347  25.218  1.00  0.00    -0.221 NA
ATOM     88  N   UNL A   1      33.010  23.941  24.613  1.00  0.00    -0.196 NA
ATOM     89  C   UNL A   1      31.296  22.197  25.706  1.00  0.00     0.119 A 
ATOM     90  C   UNL A   1      33.483  22.810  25.158  1.00  0.00     0.134 A 
ATOM     91  C   UNL A   1      32.630  21.870  25.691  1.00  0.00     0.067 A 
BRANCH  90  92
ATOM     92  N   UNL A   1      34.848  22.651  25.212  1.00  0.00    -0.356 N 
ATOM     93  C   UNL A   1      35.478  21.638  26.034  1.00  0.00     0.121 C 
ATOM     94  C   UNL A   1      35.678  23.549  24.420  1.00  0.00     0.121 C 
ATOM     95  C   UNL A   1      36.422  20.805  25.165  1.00  0.00     0.053 C 
ATOM     96  C   UNL A   1      36.641  22.750  23.550  1.00  0.00     0.053 C 
ATOM     97  C   UNL A   1      37.378  21.675  24.348  1.00  0.00     0.118 C 
BRANCH  97  98
ATOM     98  O   UNL A   1      38.366  22.261  25.195  1.00  0.00    -0.393 OA
ATOM     99  H   UNL A   1      37.948  22.575  26.011  1.00  0.00     0.210 HD
ENDBRANCH  97  98
ENDBRANCH  90  92
ENDBRANCH  81  86
ENDBRANCH  75  78
ENDBRANCH  73  74
ENDBRANCH   1  73
TORSDOF 14
ENDMDL
MODEL 2
REMARK VINA RESULT:     -12.9      0.491      1.983
REMARK SMILES O=C(NCCCCNC(=O)[C@@H]1CN(c2nccc(N3CCC(O)CC3)n2)CC[NH2+]1)c1ccc(-c2c3nc(c(-c4c(F)c(F)c(F)c(F)c4F)c4ccc([nH]4)c(-c4c(F)c(F)c(F)c(F)c4F)c4nc(c(-c5c(F)c(F)c(F)c(F)c5F)c5ccc2[nH]5)C=C4)C=C3)cc1
REMARK SMILES IDX 6 1 5 2 4 3 3 4 1 5 2 6 30 8 31 9 92 10 32 11 91 12 33 13
REMARK SMILES IDX 34 14 35 15 85 16 36 17 90 18 84 19 86 20 37 21 89 22 83 23
REMARK SMILES IDX 82 24 38 26 70 27 50 28 69 29 51 30 54 31 68 32 87 33 52 34
REMARK SMILES IDX 53 35 67 37 88 38 55 39 39 40 40 41 48 42 41 43 42 44 46 45
REMARK SMILES IDX 49 46 43 47 44 48 47 49 45 50 71 51 72 52 80 53 73 54 74 55
REMARK SMILES IDX 78 56 81 57 75 58 76 59 79 60 77 61 56 62 57 63 65 64 58 65
REMARK SMILES IDX 59 66 63 67 66 68 60 69 61 70 64 71 62 72 7 73 8 74 9 75
REMARK SMILES IDX 10 77 11 78 12 79 29 80 13 81 28 82 27 85 14 86 15 87 26 88
REMARK SMILES IDX 16 89 18 90 17 91 19 92 20 93 25 94 21 95 24 96 22 97 23 98
REMARK H PARENT 3 7 86 25 54 36 8 76 29 83 29 84 23 99
REMARK Flexibility Score: inf
ROOT
ATOM      1  C   UNL A   1      31.536  30.850  25.924  1.00  0.00     0.023 C 
ENDROOT
BRANCH   1   2
ATOM      2  C   UNL A   1      31.328  32.029  26.876  1.00  0.00     0.023 C 
BRANCH   2   3
ATOM      3  C   UNL A   1      32.583  32.813  27.235  1.00  0.00     0.116 C 
BRANCH   3   4
ATOM      4  N   UNL A   1      32.315  34.189  27.626  1.00  0.00    -0.352 N 
ATOM      5  O   UNL A   1      32.528  36.072  28.856  1.00  0.00    -0.269 OA
ATOM      6  C   UNL A   1      32.950  34.955  28.575  1.00  0.00     0.251 C 
ATOM      7  H   UNL A   1      31.579  34.632  27.144  1.00  0.00     0.163 HD
BRANCH   6   8
ATOM      8  C   UNL A   1      34.128  34.411  29.285  1.00  0.00     0.039 A 
ATOM      9  C   UNL A   1      35.410  34.576  28.758  1.00  0.00     0.014 A 
ATOM     10  C   UNL A   1      33.944  33.706  30.478  1.00  0.00     0.014 A 
ATOM     11  C   UNL A   1      36.481  33.906  29.335  1.00  0.00     0.010 A 
ATOM     12  C   UNL A   1      35.039  33.107  31.109  1.00  0.00     0.010 A 
ATOM     13  C   UNL A   1      36.313  33.172  30.522  1.00  0.00    -0.014 A 
BRANCH  13  14
ATOM     14  C   UNL A   1      37.501  32.533  31.140  1.00  0.00     0.031 A 
ATOM     15  C   UNL A   1      37.951  32.889  32.530  1.00  0.00     0.074 A 
ATOM     16  C   UNL A   1      38.137  31.566  30.451  1.00  0.00     0.049 A 
ATOM     17  N   UNL A   1      38.921  32.367  33.241  1.00  0.00    -0.248 NA
ATOM     18  C   UNL A   1      37.230  33.973  33.211  1.00  0.00     0.031 C 
ATOM     19  C   UNL A   1      37.803  31.154  29.085  1.00  0.00     0.029 A 
ATOM     20  N   UNL A   1      39.166  30.734  30.807  1.00  0.00    -0.354 N 
ATOM     21  C   UNL A   1      38.931  33.061  34.443  1.00  0.00     0.074 A 
ATOM     22  C   UNL A   1      37.891  34.064  34.357  1.00  0.00     0.031 C 
ATOM     23  C   UNL A   1      38.571  30.111  28.740  1.00  0.00     0.029 A 
ATOM     24  C   UNL A   1      39.487  29.817  29.837  1.00  0.00     0.049 A 
ATOM     25  H   UNL A   1      39.631  30.789  31.673  1.00  0.00     0.167 HD
ATOM     26  C   UNL A   1      39.729  32.868  35.522  1.00  0.00     0.037 A 
ATOM     27  C   UNL A   1      40.420  28.847  29.826  1.00  0.00     0.037 A 
ATOM     28  C   UNL A   1      40.757  31.861  35.605  1.00  0.00     0.049 A 
ATOM     29  C   UNL A   1      41.279  28.651  31.040  1.00  0.00     0.074 A 
ATOM     30  C   UNL A   1      41.615  31.585  36.657  1.00  0.00     0.029 A 
ATOM     31  N   UNL A   1      41.063  30.958  34.596  1.00  0.00    -0.354 N 
ATOM     32  N   UNL A   1      41.265  29.304  32.177  1.00  0.00    -0.248 NA
ATOM     33  C   UNL A   1      42.284  27.583  30.971  1.00  0.00     0.031 C 
ATOM     34  C   UNL A   1      42.461  30.539  36.272  1.00  0.00     0.029 A 
ATOM     35  C   UNL A   1      42.103  30.133  34.997  1.00  0.00     0.049 A 
ATOM     36  H   UNL A   1      40.609  30.912  33.724  1.00  0.00     0.167 HD
ATOM     37  C   UNL A   1      42.254  28.728  32.958  1.00  0.00     0.074 A 
ATOM     38  C   UNL A   1      42.825  27.647  32.180  1.00  0.00     0.031 C 
ATOM     39  C   UNL A   1      42.663  29.069  34.205  1.00  0.00     0.037 A 
BRANCH  26  40
ATOM     40  C   UNL A   1      39.527  33.765  36.708  1.00  0.00     0.064 A 
ATOM     41  C   UNL A   1      38.721  33.381  37.790  1.00  0.00     0.173 A 
ATOM     42  C   UNL A   1      40.198  34.995  36.795  1.00  0.00     0.173 A 
ATOM     43  F   UNL A   1      38.050  32.220  37.752  1.00  0.00    -0.203 F 
ATOM     44  C   UNL A   1      38.581  34.202  38.907  1.00  0.00     0.198 A 
ATOM     45  C   UNL A   1      40.075  35.802  37.923  1.00  0.00     0.198 A 
ATOM     46  F   UNL A   1      40.987  35.407  35.791  1.00  0.00    -0.203 F 
ATOM     47  F   UNL A   1      37.779  33.828  39.914  1.00  0.00    -0.200 F 
ATOM     48  C   UNL A   1      39.264  35.406  38.976  1.00  0.00     0.200 A 
ATOM     49  F   UNL A   1      40.745  36.961  37.995  1.00  0.00    -0.200 F 
ATOM     50  F   UNL A   1      39.137  36.189  40.057  1.00  0.00    -0.200 F 
ENDBRANCH  26  40
BRANCH  27  51
ATOM     51  C   UNL A   1      40.581  27.995  28.621  1.00  0.00     0.064 A 
ATOM     52  C   UNL A   1      41.399  28.391  27.555  1.00  0.00     0.173 A 
ATOM     53  C   UNL A   1      39.929  26.757  28.520  1.00  0.00     0.173 A 
ATOM     54  F   UNL A   1      42.029  29.575  27.599  1.00  0.00    -0.203 F 
ATOM     55  C   UNL A   1      41.547  27.588  26.427  1.00  0.00     0.198 A 
ATOM     56  C   UNL A   1      40.101  25.941  27.405  1.00  0.00     0.198 A 
ATOM     57  F   UNL A   1      39.140  26.330  29.517  1.00  0.00    -0.203 F 
ATOM     58  F   UNL A   1      42.302  28.008  25.403  1.00  0.00    -0.200 F 
ATOM     59  C   UNL A   1      40.903  26.361  26.355  1.00  0.00     0.200 A 
ATOM     60  F   UNL A   1      39.493  24.748  27.350  1.00  0.00    -0.200 F 
ATOM     61  F   UNL A   1      41.055  25.586  25.273  1.00  0.00    -0.200 F 
ENDBRANCH  27  51
BRANCH  39  62
ATOM     62  C   UNL A   1      43.776  28.258  34.795  1.00  0.00     0.064 A 
ATOM     63  C   UNL A   1      43.522  27.073  35.502  1.00  0.00     0.173 A 
ATOM     64  C   UNL A   1      45.110  28.664  34.647  1.00  0.00     0.173 A 
ATOM     65  F   UNL A   1      42.260  26.654  35.684  1.00  0.00    -0.203 F 
ATOM     66  C   UNL A   1      44.562  26.342  36.069  1.00  0.00     0.198 A 
ATOM     67  C   UNL A   1      46.149  27.916  35.194  1.00  0.00     0.198 A 
ATOM     68  F   UNL A   1      45.405  29.788  33.976  1.00  0.00    -0.203 F 
ATOM     69  F   UNL A   1      44.291  25.243  36.787  1.00  0.00    -0.200 F 
ATOM     70  C   UNL A   1      45.874  26.762  35.911  1.00  0.00     0.200 A 
ATOM     71  F   UNL A   1      47.418  28.318  35.034  1.00  0.00    -0.200 F 
ATOM     72  F   UNL A   1      46.873  26.058  36.462  1.00  0.00    -0.200 F 
ENDBRANCH  39  62
ENDBRANCH  13  14
ENDBRANCH   6   8
ENDBRANCH   3   4
ENDBRANCH   2   3
ENDBRANCH   1   2
BRANCH   1  73
ATOM     73  C   UNL A   1      32.830  30.065  26.136  1.00  0.00     0.116 C 
BRANCH  73  74
ATOM     74  N   UNL A   1      33.464  29.704  24.881  1.00  0.00    -0.351 N 
ATOM     75  C   UNL A   1      33.224  28.639  24.060  1.00  0.00     0.280 C 
ATOM     76  H   UNL A   1      34.171  30.317  24.577  1.00  0.00     0.163 HD
ATOM     77  O   UNL A   1      33.922  28.523  23.048  1.00  0.00    -0.268 OA
BRANCH  75  78
ATOM     78  C   UNL A   1      32.156  27.604  24.432  1.00  0.00     0.292 C 
ATOM     79  C   UNL A   1      32.708  26.223  24.024  1.00  0.00     0.195 C 
ATOM     80  N   UNL A   1      30.865  27.958  23.760  1.00  0.00    -0.333 N 
ATOM     81  N   UNL A   1      31.670  25.213  24.175  1.00  0.00    -0.329 N 
ATOM     82  C   UNL A   1      29.892  26.864  23.975  1.00  0.00     0.283 C 
ATOM     83  H   UNL A   1      31.023  28.083  22.761  1.00  0.00     0.347 HD
ATOM     84  H   UNL A   1      30.499  28.824  24.155  1.00  0.00     0.347 HD
ATOM     85  C   UNL A   1      30.391  25.462  23.540  1.00  0.00     0.181 C 
BRANCH  81  86
ATOM     86  C   UNL A   1      31.998  23.985  24.668  1.00  0.00     0.227 A 
ATOM     87  N   UNL A   1      31.028  23.102  24.931  1.00  0.00    -0.221 NA
ATOM     88  N   UNL A   1      33.299  23.745  24.896  1.00  0.00    -0.196 NA
ATOM     89  C   UNL A   1      31.418  21.899  25.376  1.00  0.00     0.119 A 
ATOM     90  C   UNL A   1      33.661  22.553  25.395  1.00  0.00     0.134 A 
ATOM     91  C   UNL A   1      32.729  21.565  25.615  1.00  0.00     0.067 A 
BRANCH  90  92
ATOM     92  N   UNL A   1      34.984  22.378  25.728  1.00  0.00    -0.356 N 
ATOM     93  C   UNL A   1      35.622  21.077  25.707  1.00  0.00     0.121 C 
ATOM     94  C   UNL A   1      35.756  23.547  26.126  1.00  0.00     0.121 C 
ATOM     95  C   UNL A   1      36.886  21.153  24.850  1.00  0.00     0.053 C 
ATOM     96  C   UNL A   1      37.031  23.647  25.298  1.00  0.00     0.053 C 
ATOM     97  C   UNL A   1      37.789  22.320  25.251  1.00  0.00     0.118 C 
BRANCH  97  98
ATOM     98  O   UNL A   1      38.423  22.053  26.501  1.00  0.00    -0.393 OA
ATOM     99  H   UNL A   1      39.281  21.630  26.345  1.00  0.00     0.210 HD
ENDBRANCH  97  98
ENDBRANCH  90  92
ENDBRANCH  81  86
ENDBRANCH  75  78
ENDBRANCH  73  74
ENDBRANCH   1  73
TORSDOF 14
ENDMDL
MODEL 3
REMARK VINA RESULT:     -12.8      5.064     11.056
REMARK SMILES O=C(NCCCCNC(=O)[C@@H]1CN(c2nccc(N3CCC(O)CC3)n2)CC[NH2+]1)c1ccc(-c2c3nc(c(-c4c(F)c(F)c(F)c(F)c4F)c4ccc([nH]4)c(-c4c(F)c(F)c(F)c(F)c4F)c4nc(c(-c5c(F)c(F)c(F)c(F)c5F)c5ccc2[nH]5)C=C4)C=C3)cc1
REMARK SMILES IDX 6 1 5 2 4 3 3 4 1 5 2 6 30 8 31 9 92 10 32 11 91 12 33 13
REMARK SMILES IDX 34 14 35 15 85 16 36 17 90 18 84 19 86 20 37 21 89 22 83 23
REMARK SMILES IDX 82 24 38 26 70 27 50 28 69 29 51 30 54 31 68 32 87 33 52 34
REMARK SMILES IDX 53 35 67 37 88 38 55 39 39 40 40 41 48 42 41 43 42 44 46 45
REMARK SMILES IDX 49 46 43 47 44 48 47 49 45 50 71 51 72 52 80 53 73 54 74 55
REMARK SMILES IDX 78 56 81 57 75 58 76 59 79 60 77 61 56 62 57 63 65 64 58 65
REMARK SMILES IDX 59 66 63 67 66 68 60 69 61 70 64 71 62 72 7 73 8 74 9 75
REMARK SMILES IDX 10 77 11 78 12 79 29 80 13 81 28 82 27 85 14 86 15 87 26 88
REMARK SMILES IDX 16 89 18 90 17 91 19 92 20 93 25 94 21 95 24 96 22 97 23 98
REMARK H PARENT 3 7 86 25 54 36 8 76 29 83 29 84 23 99
REMARK Flexibility Score: inf
ROOT
ATOM      1  C   UNL A   1      37.088  21.073  24.569  1.00  0.00     0.023 C 
ENDROOT
BRANCH   1   2
ATOM      2  C   UNL A   1      37.971  19.892  24.976  1.00  0.00     0.023 C 
BRANCH   2   3
ATOM      3  C   UNL A   1      39.145  20.232  25.884  1.00  0.00     0.116 C 
BRANCH   3   4
ATOM      4  N   UNL A   1      40.176  19.205  25.908  1.00  0.00    -0.352 N 
ATOM      5  O   UNL A   1      42.279  18.382  25.988  1.00  0.00    -0.269 OA
ATOM      6  C   UNL A   1      41.530  19.347  26.104  1.00  0.00     0.251 C 
ATOM      7  H   UNL A   1      39.861  18.283  25.767  1.00  0.00     0.163 HD
BRANCH   6   8
ATOM      8  C   UNL A   1      42.087  20.680  26.419  1.00  0.00     0.039 A 
ATOM      9  C   UNL A   1      42.297  21.065  27.743  1.00  0.00     0.014 A 
ATOM     10  C   UNL A   1      42.380  21.565  25.376  1.00  0.00     0.014 A 
ATOM     11  C   UNL A   1      42.645  22.378  28.031  1.00  0.00     0.010 A 
ATOM     12  C   UNL A   1      42.818  22.861  25.664  1.00  0.00     0.010 A 
ATOM     13  C   UNL A   1      42.920  23.290  26.997  1.00  0.00    -0.014 A 
BRANCH  13  14
ATOM     14  C   UNL A   1      43.358  24.663  27.354  1.00  0.00     0.031 A 
ATOM     15  C   UNL A   1      44.744  25.152  27.039  1.00  0.00     0.074 A 
ATOM     16  C   UNL A   1      42.458  25.495  27.911  1.00  0.00     0.049 A 
ATOM     17  N   UNL A   1      45.256  26.346  27.214  1.00  0.00    -0.248 NA
ATOM     18  C   UNL A   1      45.682  24.181  26.458  1.00  0.00     0.031 C 
ATOM     19  C   UNL A   1      41.091  25.122  28.284  1.00  0.00     0.029 A 
ATOM     20  N   UNL A   1      42.538  26.826  28.230  1.00  0.00    -0.354 N 
ATOM     21  C   UNL A   1      46.571  26.268  26.777  1.00  0.00     0.074 A 
ATOM     22  C   UNL A   1      46.792  24.900  26.355  1.00  0.00     0.031 C 
ATOM     23  C   UNL A   1      40.443  26.210  28.726  1.00  0.00     0.029 A 
ATOM     24  C   UNL A   1      41.364  27.341  28.720  1.00  0.00     0.049 A 
ATOM     25  H   UNL A   1      43.358  27.360  28.121  1.00  0.00     0.167 HD
ATOM     26  C   UNL A   1      47.503  27.251  26.723  1.00  0.00     0.037 A 
ATOM     27  C   UNL A   1      41.059  28.588  29.125  1.00  0.00     0.037 A 
ATOM     28  C   UNL A   1      47.274  28.613  27.136  1.00  0.00     0.049 A 
ATOM     29  C   UNL A   1      42.107  29.657  29.041  1.00  0.00     0.074 A 
ATOM     30  C   UNL A   1      48.155  29.682  27.116  1.00  0.00     0.029 A 
ATOM     31  N   UNL A   1      46.075  29.095  27.640  1.00  0.00    -0.354 N 
ATOM     32  N   UNL A   1      43.342  29.571  28.608  1.00  0.00    -0.248 NA
ATOM     33  C   UNL A   1      41.723  30.997  29.502  1.00  0.00     0.031 C 
ATOM     34  C   UNL A   1      47.498  30.802  27.639  1.00  0.00     0.029 A 
ATOM     35  C   UNL A   1      46.196  30.443  27.945  1.00  0.00     0.049 A 
ATOM     36  H   UNL A   1      45.259  28.559  27.765  1.00  0.00     0.167 HD
ATOM     37  C   UNL A   1      43.881  30.841  28.741  1.00  0.00     0.074 A 
ATOM     38  C   UNL A   1      42.827  31.689  29.262  1.00  0.00     0.031 C 
ATOM     39  C   UNL A   1      45.139  31.267  28.470  1.00  0.00     0.037 A 
BRANCH  26  40
ATOM     40  C   UNL A   1      48.863  26.895  26.198  1.00  0.00     0.064 A 
ATOM     41  C   UNL A   1      49.833  26.299  27.017  1.00  0.00     0.173 A 
ATOM     42  C   UNL A   1      49.181  27.095  24.845  1.00  0.00     0.173 A 
ATOM     43  F   UNL A   1      49.583  26.097  28.320  1.00  0.00    -0.203 F 
ATOM     44  C   UNL A   1      51.076  25.929  26.506  1.00  0.00     0.198 A 
ATOM     45  C   UNL A   1      50.414  26.702  24.332  1.00  0.00     0.198 A 
ATOM     46  F   UNL A   1      48.287  27.655  24.017  1.00  0.00    -0.203 F 
ATOM     47  F   UNL A   1      51.997  25.390  27.315  1.00  0.00    -0.200 F 
ATOM     48  C   UNL A   1      51.361  26.123  25.163  1.00  0.00     0.200 A 
ATOM     49  F   UNL A   1      50.686  26.879  23.031  1.00  0.00    -0.200 F 
ATOM     50  F   UNL A   1      52.553  25.756  24.671  1.00  0.00    -0.200 F 
ENDBRANCH  26  40
BRANCH  27  51
ATOM     51  C   UNL A   1      39.698  28.880  29.643  1.00  0.00     0.064 A 
ATOM     52  C   UNL A   1      39.377  28.681  30.992  1.00  0.00     0.173 A 
ATOM     53  C   UNL A   1      38.696  29.381  28.799  1.00  0.00     0.173 A 
ATOM     54  F   UNL A   1      40.298  28.186  31.833  1.00  0.00    -0.203 F 
ATOM     55  C   UNL A   1      38.100  28.956  31.474  1.00  0.00     0.198 A 
ATOM     56  C   UNL A   1      37.429  29.686  29.288  1.00  0.00     0.198 A 
ATOM     57  F   UNL A   1      38.956  29.596  27.501  1.00  0.00    -0.203 F 
ATOM     58  F   UNL A   1      37.806  28.718  32.759  1.00  0.00    -0.200 F 
ATOM     59  C   UNL A   1      37.129  29.465  30.624  1.00  0.00     0.200 A 
ATOM     60  F   UNL A   1      36.501  30.195  28.467  1.00  0.00    -0.200 F 
ATOM     61  F   UNL A   1      35.904  29.739  31.091  1.00  0.00    -0.200 F 
ENDBRANCH  27  51
BRANCH  39  62
ATOM     62  C   UNL A   1      45.432  32.714  28.729  1.00  0.00     0.064 A 
ATOM     63  C   UNL A   1      45.944  33.146  29.961  1.00  0.00     0.173 A 
ATOM     64  C   UNL A   1      45.204  33.676  27.735  1.00  0.00     0.173 A 
ATOM     65  F   UNL A   1      46.161  32.264  30.948  1.00  0.00    -0.203 F 
ATOM     66  C   UNL A   1      46.187  34.496  30.200  1.00  0.00     0.198 A 
ATOM     67  C   UNL A   1      45.472  35.022  27.969  1.00  0.00     0.198 A 
ATOM     68  F   UNL A   1      44.719  33.312  26.538  1.00  0.00    -0.203 F 
ATOM     69  F   UNL A   1      46.624  34.893  31.403  1.00  0.00    -0.200 F 
ATOM     70  C   UNL A   1      45.955  35.431  29.203  1.00  0.00     0.200 A 
ATOM     71  F   UNL A   1      45.256  35.925  27.002  1.00  0.00    -0.200 F 
ATOM     72  F   UNL A   1      46.185  36.731  29.437  1.00  0.00    -0.200 F 
ENDBRANCH  39  62
ENDBRANCH  13  14
ENDBRANCH   6   8
ENDBRANCH   3   4
ENDBRANCH   2   3
ENDBRANCH   1   2
BRANCH   1  73
ATOM     73  C   UNL A   1      36.684  22.005  25.710  1.00  0.00     0.116 C 
BRANCH  73  74
ATOM     74  N   UNL A   1      35.594  21.462  26.501  1.00  0.00    -0.351 N 
ATOM     75  C   UNL A   1      34.247  21.634  26.360  1.00  0.00     0.280 C 
ATOM     76  H   UNL A   1      35.867  20.883  27.249  1.00  0.00     0.163 HD
ATOM     77  O   UNL A   1      33.507  21.090  27.185  1.00  0.00    -0.268 OA
BRANCH  75  78
ATOM     78  C   UNL A   1      33.696  22.526  25.241  1.00  0.00     0.292 C 
ATOM     79  C   UNL A   1      32.735  23.535  25.902  1.00  0.00     0.195 C 
ATOM     80  N   UNL A   1      33.047  21.671  24.198  1.00  0.00    -0.333 N 
ATOM     81  N   UNL A   1      32.032  24.290  24.876  1.00  0.00    -0.329 N 
ATOM     82  C   UNL A   1      32.364  22.541  23.215  1.00  0.00     0.283 C 
ATOM     83  H   UNL A   1      32.367  21.052  24.638  1.00  0.00     0.347 HD
ATOM     84  H   UNL A   1      33.755  21.110  23.724  1.00  0.00     0.347 HD
ATOM     85  C   UNL A   1      31.356  23.544  23.833  1.00  0.00     0.181 C 
BRANCH  81  86
ATOM     86  C   UNL A   1      31.813  25.624  25.059  1.00  0.00     0.227 A 
ATOM     87  N   UNL A   1      32.337  26.235  26.128  1.00  0.00    -0.221 NA
ATOM     88  N   UNL A   1      31.041  26.247  24.155  1.00  0.00    -0.196 NA
ATOM     89  C   UNL A   1      32.118  27.554  26.229  1.00  0.00     0.119 A 
ATOM     90  C   UNL A   1      30.790  27.555  24.308  1.00  0.00     0.134 A 
ATOM     91  C   UNL A   1      31.359  28.271  25.336  1.00  0.00     0.067 A 
BRANCH  90  92
ATOM     92  N   UNL A   1      29.903  28.140  23.434  1.00  0.00    -0.356 N 
ATOM     93  C   UNL A   1      28.615  27.551  23.126  1.00  0.00     0.121 C 
ATOM     94  C   UNL A   1      30.290  29.389  22.791  1.00  0.00     0.121 C 
ATOM     95  C   UNL A   1      27.520  28.592  23.362  1.00  0.00     0.053 C 
ATOM     96  C   UNL A   1      29.213  30.446  22.997  1.00  0.00     0.053 C 
ATOM     97  C   UNL A   1      27.819  29.918  22.661  1.00  0.00     0.118 C 
BRANCH  97  98
ATOM     98  O   UNL A   1      27.653  29.783  21.250  1.00  0.00    -0.393 OA
ATOM     99  H   UNL A   1      27.351  30.627  20.878  1.00  0.00     0.210 HD
ENDBRANCH  97  98
ENDBRANCH  90  92
ENDBRANCH  81  86
ENDBRANCH  75  78
ENDBRANCH  73  74
ENDBRANCH   1  73
TORSDOF 14
ENDMDL
