MODEL 1
REMARK VINA RESULT:     -12.6      0.000      0.000
REMARK SMILES CC(=O)N1CCC2(CC1)C[C@H](C(=O)NCCCCNC(=O)c1ccc(-c3c4nc(c(-c5c(F)c(F)c(F)c(F)c5F)c5ccc([nH]5)c(-c5c(F)c(F)c(F)c(F)c5F)c5nc(c(-c6c(F)c(F)c(F)c(F)c6F)c6ccc3[nH]6)C=C5)C=C4)cc1)[N@H+](Cc1ncc[nH]1)C2
REMARK SMILES IDX 16 1 15 2 14 3 12 4 13 5 11 7 1 8 2 9 3 10 4 11 5 12 9 13
REMARK SMILES IDX 6 14 8 15 7 16 10 17 92 18 85 19 86 21 87 22 88 23 91 24
REMARK SMILES IDX 89 25 90 26 17 28 18 29 19 30 20 31 21 33 22 34 23 35 84 36
REMARK SMILES IDX 24 37 83 38 25 39 26 40 27 41 77 42 28 43 82 44 76 45 78 46
REMARK SMILES IDX 29 47 81 48 75 49 74 50 30 52 62 53 42 54 61 55 43 56 46 57
REMARK SMILES IDX 60 58 79 59 44 60 45 61 59 63 80 64 47 65 31 66 32 67 40 68
REMARK SMILES IDX 33 69 34 70 38 71 41 72 35 73 36 74 39 75 37 76 63 77 64 78
REMARK SMILES IDX 72 79 65 80 66 81 70 82 73 83 67 84 68 85 71 86 69 87 48 88
REMARK SMILES IDX 49 89 57 90 50 91 51 92 55 93 58 94 52 95 53 96 56 97 54 98
REMARK H PARENT 14 6 85 20 91 27 19 32 78 51 46 62
REMARK Flexibility Score: inf
ROOT
ATOM      1  C   UNL A   1      31.353  27.736  26.395  1.00  0.00     0.023 C 
ENDROOT
BRANCH   1   2
ATOM      2  C   UNL A   1      30.704  26.528  25.722  1.00  0.00     0.116 C 
BRANCH   2   3
ATOM      3  N   UNL A   1      30.551  25.427  26.648  1.00  0.00    -0.351 N 
ATOM      4  C   UNL A   1      31.131  24.187  26.620  1.00  0.00     0.278 C 
ATOM      5  O   UNL A   1      30.542  23.307  27.250  1.00  0.00    -0.268 OA
ATOM      6  H   UNL A   1      29.943  25.592  27.405  1.00  0.00     0.163 HD
BRANCH   4   7
ATOM      7  C   UNL A   1      32.375  23.972  25.730  1.00  0.00     0.275 C 
ATOM      8  C   UNL A   1      39.489  22.980  26.122  1.00  0.00     0.114 C 
ATOM      9  C   UNL A   1      38.620  21.811  25.758  1.00  0.00     0.219 C 
ATOM     10  O   UNL A   1      38.938  20.675  26.115  1.00  0.00    -0.275 OA
ATOM     11  N   UNL A   1      37.408  22.085  25.150  1.00  0.00    -0.343 N 
ATOM     12  C   UNL A   1      36.319  21.176  25.419  1.00  0.00     0.120 C 
ATOM     13  C   UNL A   1      37.030  23.281  24.399  1.00  0.00     0.120 C 
ATOM     14  C   UNL A   1      35.312  21.935  26.278  1.00  0.00     0.034 C 
ATOM     15  C   UNL A   1      35.882  24.040  25.077  1.00  0.00     0.034 C 
ATOM     16  C   UNL A   1      34.697  23.140  25.535  1.00  0.00     0.029 C 
ATOM     17  C   UNL A   1      33.739  23.961  26.438  1.00  0.00     0.088 C 
ATOM     18  C   UNL A   1      33.773  22.679  24.385  1.00  0.00     0.270 C 
ATOM     19  N   UNL A   1      32.386  22.776  24.859  1.00  0.00    -0.318 N 
ATOM     20  H   UNL A   1      31.726  22.904  24.092  1.00  0.00     0.349 HD
BRANCH  19  21
ATOM     21  C   UNL A   1      31.775  21.529  25.365  1.00  0.00     0.339 C 
BRANCH  21  22
ATOM     22  C   UNL A   1      32.363  20.201  24.965  1.00  0.00     0.161 A 
ATOM     23  N   UNL A   1      32.452  19.668  23.759  1.00  0.00    -0.236 NA
ATOM     24  N   UNL A   1      32.876  19.324  25.898  1.00  0.00    -0.344 N 
ATOM     25  C   UNL A   1      32.934  18.397  23.931  1.00  0.00     0.131 A 
ATOM     26  C   UNL A   1      33.175  18.150  25.259  1.00  0.00     0.104 A 
ATOM     27  H   UNL A   1      33.006  19.510  26.856  1.00  0.00     0.167 HD
ENDBRANCH  21  22
ENDBRANCH  19  21
ENDBRANCH   4   7
ENDBRANCH   2   3
ENDBRANCH   1   2
BRANCH   1  28
ATOM     28  C   UNL A   1      32.815  27.977  26.016  1.00  0.00     0.023 C 
BRANCH  28  29
ATOM     29  C   UNL A   1      33.728  28.366  27.171  1.00  0.00     0.116 C 
BRANCH  29  30
ATOM     30  N   UNL A   1      33.678  29.787  27.475  1.00  0.00    -0.352 N 
ATOM     31  C   UNL A   1      34.629  30.587  28.062  1.00  0.00     0.251 C 
ATOM     32  H   UNL A   1      32.841  30.242  27.224  1.00  0.00     0.163 HD
ATOM     33  O   UNL A   1      34.359  31.737  28.377  1.00  0.00    -0.269 OA
BRANCH  31  34
ATOM     34  C   UNL A   1      35.975  30.039  28.343  1.00  0.00     0.039 A 
ATOM     35  C   UNL A   1      36.957  30.129  27.353  1.00  0.00     0.014 A 
ATOM     36  C   UNL A   1      36.272  29.457  29.577  1.00  0.00     0.014 A 
ATOM     37  C   UNL A   1      38.258  29.700  27.629  1.00  0.00     0.010 A 
ATOM     38  C   UNL A   1      37.586  29.106  29.878  1.00  0.00     0.010 A 
ATOM     39  C   UNL A   1      38.592  29.224  28.907  1.00  0.00    -0.014 A 
BRANCH  39  40
ATOM     40  C   UNL A   1      39.989  28.852  29.248  1.00  0.00     0.031 A 
ATOM     41  C   UNL A   1      40.854  29.798  30.036  1.00  0.00     0.074 A 
ATOM     42  C   UNL A   1      40.500  27.690  28.796  1.00  0.00     0.049 A 
ATOM     43  N   UNL A   1      42.115  29.683  30.372  1.00  0.00    -0.248 NA
ATOM     44  C   UNL A   1      40.226  31.051  30.485  1.00  0.00     0.031 C 
ATOM     45  C   UNL A   1      39.779  26.710  27.982  1.00  0.00     0.029 A 
ATOM     46  N   UNL A   1      41.750  27.140  28.945  1.00  0.00    -0.354 N 
ATOM     47  C   UNL A   1      42.430  30.847  31.060  1.00  0.00     0.074 A 
ATOM     48  C   UNL A   1      41.249  31.682  31.044  1.00  0.00     0.031 C 
ATOM     49  C   UNL A   1      40.589  25.671  27.722  1.00  0.00     0.029 A 
ATOM     50  C   UNL A   1      41.899  25.930  28.312  1.00  0.00     0.049 A 
ATOM     51  H   UNL A   1      42.471  27.574  29.457  1.00  0.00     0.167 HD
ATOM     52  C   UNL A   1      43.592  31.179  31.672  1.00  0.00     0.037 A 
ATOM     53  C   UNL A   1      42.975  25.126  28.208  1.00  0.00     0.037 A 
ATOM     54  C   UNL A   1      44.761  30.340  31.701  1.00  0.00     0.049 A 
ATOM     55  C   UNL A   1      44.261  25.531  28.879  1.00  0.00     0.074 A 
ATOM     56  C   UNL A   1      45.969  30.565  32.337  1.00  0.00     0.029 A 
ATOM     57  N   UNL A   1      44.869  29.114  31.060  1.00  0.00    -0.354 N 
ATOM     58  N   UNL A   1      44.525  26.602  29.589  1.00  0.00    -0.248 NA
ATOM     59  C   UNL A   1      45.398  24.609  28.742  1.00  0.00     0.031 C 
ATOM     60  C   UNL A   1      46.827  29.503  32.036  1.00  0.00     0.029 A 
ATOM     61  C   UNL A   1      46.133  28.583  31.266  1.00  0.00     0.049 A 
ATOM     62  H   UNL A   1      44.155  28.685  30.536  1.00  0.00     0.167 HD
ATOM     63  C   UNL A   1      45.841  26.467  30.007  1.00  0.00     0.074 A 
ATOM     64  C   UNL A   1      46.318  25.203  29.489  1.00  0.00     0.031 C 
ATOM     65  C   UNL A   1      46.589  27.316  30.754  1.00  0.00     0.037 A 
BRANCH  52  66
ATOM     66  C   UNL A   1      43.658  32.508  32.369  1.00  0.00     0.064 A 
ATOM     67  C   UNL A   1      44.025  33.680  31.688  1.00  0.00     0.173 A 
ATOM     68  C   UNL A   1      43.300  32.622  33.721  1.00  0.00     0.173 A 
ATOM     69  F   UNL A   1      44.385  33.625  30.396  1.00  0.00    -0.203 F 
ATOM     70  C   UNL A   1      44.057  34.909  32.340  1.00  0.00     0.198 A 
ATOM     71  C   UNL A   1      43.302  33.860  34.362  1.00  0.00     0.198 A 
ATOM     72  F   UNL A   1      42.935  31.537  34.419  1.00  0.00    -0.203 F 
ATOM     73  F   UNL A   1      44.457  36.005  31.680  1.00  0.00    -0.200 F 
ATOM     74  C   UNL A   1      43.687  34.999  33.673  1.00  0.00     0.200 A 
ATOM     75  F   UNL A   1      42.929  33.948  35.645  1.00  0.00    -0.200 F 
ATOM     76  F   UNL A   1      43.706  36.186  34.296  1.00  0.00    -0.200 F 
ENDBRANCH  52  66
BRANCH  53  77
ATOM     77  C   UNL A   1      42.886  23.851  27.447  1.00  0.00     0.064 A 
ATOM     78  C   UNL A   1      42.519  22.655  28.080  1.00  0.00     0.173 A 
ATOM     79  C   UNL A   1      43.188  23.794  26.078  1.00  0.00     0.173 A 
ATOM     80  F   UNL A   1      42.240  22.652  29.392  1.00  0.00    -0.203 F 
ATOM     81  C   UNL A   1      42.490  21.449  27.384  1.00  0.00     0.198 A 
ATOM     82  C   UNL A   1      43.125  22.594  25.374  1.00  0.00     0.198 A 
ATOM     83  F   UNL A   1      43.540  24.910  25.421  1.00  0.00    -0.203 F 
ATOM     84  F   UNL A   1      42.195  20.312  28.029  1.00  0.00    -0.200 F 
ATOM     85  C   UNL A   1      42.788  21.420  26.030  1.00  0.00     0.200 A 
ATOM     86  F   UNL A   1      43.398  22.574  24.063  1.00  0.00    -0.200 F 
ATOM     87  F   UNL A   1      42.760  20.260  25.360  1.00  0.00    -0.200 F 
ENDBRANCH  53  77
BRANCH  65  88
ATOM     88  C   UNL A   1      47.988  26.887  31.097  1.00  0.00     0.064 A 
ATOM     89  C   UNL A   1      49.092  27.273  30.322  1.00  0.00     0.173 A 
ATOM     90  C   UNL A   1      48.230  26.110  32.240  1.00  0.00     0.173 A 
ATOM     91  F   UNL A   1      48.915  28.004  29.211  1.00  0.00    -0.203 F 
ATOM     92  C   UNL A   1      50.381  26.873  30.663  1.00  0.00     0.198 A 
ATOM     93  C   UNL A   1      49.523  25.740  32.598  1.00  0.00     0.198 A 
ATOM     94  F   UNL A   1      47.210  25.719  33.021  1.00  0.00    -0.203 F 
ATOM     95  F   UNL A   1      51.415  27.208  29.878  1.00  0.00    -0.200 F 
ATOM     96  C   UNL A   1      50.596  26.114  31.804  1.00  0.00     0.200 A 
ATOM     97  F   UNL A   1      49.730  25.023  33.710  1.00  0.00    -0.200 F 
ATOM     98  F   UNL A   1      51.839  25.737  32.135  1.00  0.00    -0.200 F 
ENDBRANCH  65  88
ENDBRANCH  39  40
ENDBRANCH  31  34
ENDBRANCH  29  30
ENDBRANCH  28  29
ENDBRANCH   1  28
TORSDOF 13
ENDMDL
MODEL 2
REMARK VINA RESULT:     -12.5      0.232      1.583
REMARK SMILES CC(=O)N1CCC2(CC1)C[C@H](C(=O)NCCCCNC(=O)c1ccc(-c3c4nc(c(-c5c(F)c(F)c(F)c(F)c5F)c5ccc([nH]5)c(-c5c(F)c(F)c(F)c(F)c5F)c5nc(c(-c6c(F)c(F)c(F)c(F)c6F)c6ccc3[nH]6)C=C5)C=C4)cc1)[N@H+](Cc1ncc[nH]1)C2
REMARK SMILES IDX 16 1 15 2 14 3 12 4 13 5 11 7 1 8 2 9 3 10 4 11 5 12 9 13
REMARK SMILES IDX 6 14 8 15 7 16 10 17 92 18 85 19 86 21 87 22 88 23 91 24
REMARK SMILES IDX 89 25 90 26 17 28 18 29 19 30 20 31 21 33 22 34 23 35 84 36
REMARK SMILES IDX 24 37 83 38 25 39 26 40 27 41 77 42 28 43 82 44 76 45 78 46
REMARK SMILES IDX 29 47 81 48 75 49 74 50 30 52 62 53 42 54 61 55 43 56 46 57
REMARK SMILES IDX 60 58 79 59 44 60 45 61 59 63 80 64 47 65 31 66 32 67 40 68
REMARK SMILES IDX 33 69 34 70 38 71 41 72 35 73 36 74 39 75 37 76 63 77 64 78
REMARK SMILES IDX 72 79 65 80 66 81 70 82 73 83 67 84 68 85 71 86 69 87 48 88
REMARK SMILES IDX 49 89 57 90 50 91 51 92 55 93 58 94 52 95 53 96 56 97 54 98
REMARK H PARENT 14 6 85 20 91 27 19 32 78 51 46 62
REMARK Flexibility Score: inf
ROOT
ATOM      1  C   UNL A   1      31.401  27.916  25.913  1.00  0.00     0.023 C 
ENDROOT
BRANCH   1   2
ATOM      2  C   UNL A   1      30.674  26.676  25.398  1.00  0.00     0.116 C 
BRANCH   2   3
ATOM      3  N   UNL A   1      30.550  25.670  26.430  1.00  0.00    -0.351 N 
ATOM      4  C   UNL A   1      31.155  24.444  26.519  1.00  0.00     0.278 C 
ATOM      5  O   UNL A   1      30.589  23.620  27.240  1.00  0.00    -0.268 OA
ATOM      6  H   UNL A   1      29.946  25.898  27.173  1.00  0.00     0.163 HD
BRANCH   4   7
ATOM      7  C   UNL A   1      32.395  24.165  25.643  1.00  0.00     0.275 C 
ATOM      8  C   UNL A   1      39.459  22.883  26.105  1.00  0.00     0.114 C 
ATOM      9  C   UNL A   1      38.544  21.746  25.751  1.00  0.00     0.219 C 
ATOM     10  O   UNL A   1      38.812  20.603  26.126  1.00  0.00    -0.275 OA
ATOM     11  N   UNL A   1      37.349  22.062  25.129  1.00  0.00    -0.343 N 
ATOM     12  C   UNL A   1      36.220  21.203  25.402  1.00  0.00     0.120 C 
ATOM     13  C   UNL A   1      37.027  23.262  24.359  1.00  0.00     0.120 C 
ATOM     14  C   UNL A   1      35.240  22.015  26.242  1.00  0.00     0.034 C 
ATOM     15  C   UNL A   1      35.907  24.077  25.016  1.00  0.00     0.034 C 
ATOM     16  C   UNL A   1      34.681  23.234  25.478  1.00  0.00     0.029 C 
ATOM     17  C   UNL A   1      33.752  24.107  26.362  1.00  0.00     0.088 C 
ATOM     18  C   UNL A   1      33.748  22.796  24.327  1.00  0.00     0.270 C 
ATOM     19  N   UNL A   1      32.362  22.957  24.789  1.00  0.00    -0.318 N 
ATOM     20  H   UNL A   1      31.714  23.102  24.015  1.00  0.00     0.349 HD
BRANCH  19  21
ATOM     21  C   UNL A   1      31.696  21.744  25.307  1.00  0.00     0.339 C 
BRANCH  21  22
ATOM     22  C   UNL A   1      32.190  20.387  24.878  1.00  0.00     0.161 A 
ATOM     23  N   UNL A   1      32.154  19.838  23.676  1.00  0.00    -0.236 NA
ATOM     24  N   UNL A   1      32.743  19.498  25.777  1.00  0.00    -0.344 N 
ATOM     25  C   UNL A   1      32.593  18.549  23.825  1.00  0.00     0.131 A 
ATOM     26  C   UNL A   1      32.936  18.306  25.132  1.00  0.00     0.104 A 
ATOM     27  H   UNL A   1      32.962  19.689  26.718  1.00  0.00     0.167 HD
ENDBRANCH  21  22
ENDBRANCH  19  21
ENDBRANCH   4   7
ENDBRANCH   2   3
ENDBRANCH   1   2
BRANCH   1  28
ATOM     28  C   UNL A   1      32.258  27.690  27.160  1.00  0.00     0.023 C 
BRANCH  28  29
ATOM     29  C   UNL A   1      33.632  28.346  27.127  1.00  0.00     0.116 C 
BRANCH  29  30
ATOM     30  N   UNL A   1      33.583  29.771  27.414  1.00  0.00    -0.352 N 
ATOM     31  C   UNL A   1      34.531  30.576  28.000  1.00  0.00     0.251 C 
ATOM     32  H   UNL A   1      32.750  30.225  27.150  1.00  0.00     0.163 HD
ATOM     33  O   UNL A   1      34.260  31.731  28.299  1.00  0.00    -0.269 OA
BRANCH  31  34
ATOM     34  C   UNL A   1      35.873  30.028  28.300  1.00  0.00     0.039 A 
ATOM     35  C   UNL A   1      36.873  30.133  27.330  1.00  0.00     0.014 A 
ATOM     36  C   UNL A   1      36.148  29.432  29.533  1.00  0.00     0.014 A 
ATOM     37  C   UNL A   1      38.169  29.704  27.627  1.00  0.00     0.010 A 
ATOM     38  C   UNL A   1      37.456  29.081  29.855  1.00  0.00     0.010 A 
ATOM     39  C   UNL A   1      38.480  29.213  28.905  1.00  0.00    -0.014 A 
BRANCH  39  40
ATOM     40  C   UNL A   1      39.872  28.841  29.268  1.00  0.00     0.031 A 
ATOM     41  C   UNL A   1      40.720  29.781  30.081  1.00  0.00     0.074 A 
ATOM     42  C   UNL A   1      40.394  27.685  28.813  1.00  0.00     0.049 A 
ATOM     43  N   UNL A   1      41.974  29.665  30.440  1.00  0.00    -0.248 NA
ATOM     44  C   UNL A   1      40.081  31.027  30.532  1.00  0.00     0.031 C 
ATOM     45  C   UNL A   1      39.691  26.711  27.976  1.00  0.00     0.029 A 
ATOM     46  N   UNL A   1      41.642  27.136  28.980  1.00  0.00    -0.354 N 
ATOM     47  C   UNL A   1      42.273  30.822  31.146  1.00  0.00     0.074 A 
ATOM     48  C   UNL A   1      41.091  31.655  31.116  1.00  0.00     0.031 C 
ATOM     49  C   UNL A   1      40.508  25.677  27.721  1.00  0.00     0.029 A 
ATOM     50  C   UNL A   1      41.806  25.933  28.338  1.00  0.00     0.049 A 
ATOM     51  H   UNL A   1      42.353  27.566  29.510  1.00  0.00     0.167 HD
ATOM     52  C   UNL A   1      43.423  31.151  31.783  1.00  0.00     0.037 A 
ATOM     53  C   UNL A   1      42.885  25.133  28.245  1.00  0.00     0.037 A 
ATOM     54  C   UNL A   1      44.593  30.314  31.825  1.00  0.00     0.049 A 
ATOM     55  C   UNL A   1      44.158  25.533  28.945  1.00  0.00     0.074 A 
ATOM     56  C   UNL A   1      45.789  30.535  32.486  1.00  0.00     0.029 A 
ATOM     57  N   UNL A   1      44.716  29.095  31.174  1.00  0.00    -0.354 N 
ATOM     58  N   UNL A   1      44.406  26.597  29.670  1.00  0.00    -0.248 NA
ATOM     59  C   UNL A   1      45.300  24.616  28.819  1.00  0.00     0.031 C 
ATOM     60  C   UNL A   1      46.655  29.478  32.190  1.00  0.00     0.029 A 
ATOM     61  C   UNL A   1      45.978  28.565  31.397  1.00  0.00     0.049 A 
ATOM     62  H   UNL A   1      44.013  28.669  30.632  1.00  0.00     0.167 HD
ATOM     63  C   UNL A   1      45.715  26.462  30.112  1.00  0.00     0.074 A 
ATOM     64  C   UNL A   1      46.204  25.204  29.589  1.00  0.00     0.031 C 
ATOM     65  C   UNL A   1      46.447  27.304  30.881  1.00  0.00     0.037 A 
BRANCH  52  66
ATOM     66  C   UNL A   1      43.473  32.473  32.495  1.00  0.00     0.064 A 
ATOM     67  C   UNL A   1      43.144  32.588  33.855  1.00  0.00     0.173 A 
ATOM     68  C   UNL A   1      43.904  33.628  31.826  1.00  0.00     0.173 A 
ATOM     69  F   UNL A   1      42.717  31.516  34.540  1.00  0.00    -0.203 F 
ATOM     70  C   UNL A   1      43.219  33.814  34.510  1.00  0.00     0.198 A 
ATOM     71  C   UNL A   1      44.009  34.846  32.493  1.00  0.00     0.198 A 
ATOM     72  F   UNL A   1      44.237  33.574  30.528  1.00  0.00    -0.203 F 
ATOM     73  F   UNL A   1      42.854  33.908  35.797  1.00  0.00    -0.200 F 
ATOM     74  C   UNL A   1      43.660  34.940  33.831  1.00  0.00     0.200 A 
ATOM     75  F   UNL A   1      44.450  35.929  31.839  1.00  0.00    -0.200 F 
ATOM     76  F   UNL A   1      43.745  36.117  34.466  1.00  0.00    -0.200 F 
ENDBRANCH  52  66
BRANCH  53  77
ATOM     77  C   UNL A   1      42.814  23.865  27.470  1.00  0.00     0.064 A 
ATOM     78  C   UNL A   1      42.434  22.663  28.083  1.00  0.00     0.173 A 
ATOM     79  C   UNL A   1      43.147  23.823  26.107  1.00  0.00     0.173 A 
ATOM     80  F   UNL A   1      42.126  22.646  29.388  1.00  0.00    -0.203 F 
ATOM     81  C   UNL A   1      42.420  21.464  27.374  1.00  0.00     0.198 A 
ATOM     82  C   UNL A   1      43.100  22.630  25.390  1.00  0.00     0.198 A 
ATOM     83  F   UNL A   1      43.512  24.945  25.469  1.00  0.00    -0.203 F 
ATOM     84  F   UNL A   1      42.112  20.321  28.001  1.00  0.00    -0.200 F 
ATOM     85  C   UNL A   1      42.748  21.448  26.027  1.00  0.00     0.200 A 
ATOM     86  F   UNL A   1      43.401  22.623  24.085  1.00  0.00    -0.200 F 
ATOM     87  F   UNL A   1      42.736  20.295  25.344  1.00  0.00    -0.200 F 
ENDBRANCH  53  77
BRANCH  65  88
ATOM     88  C   UNL A   1      47.840  26.874  31.246  1.00  0.00     0.064 A 
ATOM     89  C   UNL A   1      48.088  25.997  32.312  1.00  0.00     0.173 A 
ATOM     90  C   UNL A   1      48.937  27.318  30.492  1.00  0.00     0.173 A 
ATOM     91  F   UNL A   1      47.076  25.555  33.073  1.00  0.00    -0.203 F 
ATOM     92  C   UNL A   1      49.386  25.603  32.626  1.00  0.00     0.198 A 
ATOM     93  C   UNL A   1      50.230  26.894  30.787  1.00  0.00     0.198 A 
ATOM     94  F   UNL A   1      48.755  28.152  29.457  1.00  0.00    -0.203 F 
ATOM     95  F   UNL A   1      49.605  24.807  33.682  1.00  0.00    -0.200 F 
ATOM     96  C   UNL A   1      50.454  26.045  31.860  1.00  0.00     0.200 A 
ATOM     97  F   UNL A   1      51.258  27.309  30.035  1.00  0.00    -0.200 F 
ATOM     98  F   UNL A   1      51.702  25.658  32.159  1.00  0.00    -0.200 F 
ENDBRANCH  65  88
ENDBRANCH  39  40
ENDBRANCH  31  34
ENDBRANCH  29  30
ENDBRANCH  28  29
ENDBRANCH   1  28
TORSDOF 13
ENDMDL
MODEL 3
REMARK VINA RESULT:     -12.5      1.309      2.193
REMARK SMILES CC(=O)N1CCC2(CC1)C[C@H](C(=O)NCCCCNC(=O)c1ccc(-c3c4nc(c(-c5c(F)c(F)c(F)c(F)c5F)c5ccc([nH]5)c(-c5c(F)c(F)c(F)c(F)c5F)c5nc(c(-c6c(F)c(F)c(F)c(F)c6F)c6ccc3[nH]6)C=C5)C=C4)cc1)[N@H+](Cc1ncc[nH]1)C2
REMARK SMILES IDX 16 1 15 2 14 3 12 4 13 5 11 7 1 8 2 9 3 10 4 11 5 12 9 13
REMARK SMILES IDX 6 14 8 15 7 16 10 17 92 18 85 19 86 21 87 22 88 23 91 24
REMARK SMILES IDX 89 25 90 26 17 28 18 29 19 30 20 31 21 33 22 34 23 35 84 36
REMARK SMILES IDX 24 37 83 38 25 39 26 40 27 41 77 42 28 43 82 44 76 45 78 46
REMARK SMILES IDX 29 47 81 48 75 49 74 50 30 52 62 53 42 54 61 55 43 56 46 57
REMARK SMILES IDX 60 58 79 59 44 60 45 61 59 63 80 64 47 65 31 66 32 67 40 68
REMARK SMILES IDX 33 69 34 70 38 71 41 72 35 73 36 74 39 75 37 76 63 77 64 78
REMARK SMILES IDX 72 79 65 80 66 81 70 82 73 83 67 84 68 85 71 86 69 87 48 88
REMARK SMILES IDX 49 89 57 90 50 91 51 92 55 93 58 94 52 95 53 96 56 97 54 98
REMARK H PARENT 14 6 85 20 91 27 19 32 78 51 46 62
REMARK Flexibility Score: inf
ROOT
ATOM      1  C   UNL A   1      31.452  27.863  26.537  1.00  0.00     0.023 C 
ENDROOT
BRANCH   1   2
ATOM      2  C   UNL A   1      30.841  26.688  25.775  1.00  0.00     0.116 C 
BRANCH   2   3
ATOM      3  N   UNL A   1      30.616  25.554  26.644  1.00  0.00    -0.351 N 
ATOM      4  C   UNL A   1      31.131  24.288  26.564  1.00  0.00     0.278 C 
ATOM      5  O   UNL A   1      30.487  23.411  27.143  1.00  0.00    -0.268 OA
ATOM      6  H   UNL A   1      30.007  25.715  27.401  1.00  0.00     0.163 HD
BRANCH   4   7
ATOM      7  C   UNL A   1      32.375  24.049  25.681  1.00  0.00     0.275 C 
ATOM      8  C   UNL A   1      39.479  22.993  26.107  1.00  0.00     0.114 C 
ATOM      9  C   UNL A   1      38.599  21.827  25.756  1.00  0.00     0.219 C 
ATOM     10  O   UNL A   1      38.905  20.693  26.128  1.00  0.00    -0.275 OA
ATOM     11  N   UNL A   1      37.391  22.106  25.140  1.00  0.00    -0.343 N 
ATOM     12  C   UNL A   1      36.292  21.211  25.418  1.00  0.00     0.120 C 
ATOM     13  C   UNL A   1      37.028  23.296  24.373  1.00  0.00     0.120 C 
ATOM     14  C   UNL A   1      35.291  21.990  26.263  1.00  0.00     0.034 C 
ATOM     15  C   UNL A   1      35.885  24.074  25.037  1.00  0.00     0.034 C 
ATOM     16  C   UNL A   1      34.690  23.192  25.504  1.00  0.00     0.029 C 
ATOM     17  C   UNL A   1      33.737  24.034  26.393  1.00  0.00     0.088 C 
ATOM     18  C   UNL A   1      33.765  22.726  24.357  1.00  0.00     0.270 C 
ATOM     19  N   UNL A   1      32.377  22.842  24.825  1.00  0.00    -0.318 N 
ATOM     20  H   UNL A   1      31.721  22.967  24.055  1.00  0.00     0.349 HD
BRANCH  19  21
ATOM     21  C   UNL A   1      31.753  21.608  25.345  1.00  0.00     0.339 C 
BRANCH  21  22
ATOM     22  C   UNL A   1      32.297  20.268  24.923  1.00  0.00     0.161 A 
ATOM     23  N   UNL A   1      32.335  19.737  23.714  1.00  0.00    -0.236 NA
ATOM     24  N   UNL A   1      32.821  19.377  25.837  1.00  0.00    -0.344 N 
ATOM     25  C   UNL A   1      32.794  18.455  23.867  1.00  0.00     0.131 A 
ATOM     26  C   UNL A   1      33.073  18.198  25.187  1.00  0.00     0.104 A 
ATOM     27  H   UNL A   1      32.986  19.558  26.791  1.00  0.00     0.167 HD
ENDBRANCH  21  22
ENDBRANCH  19  21
ENDBRANCH   4   7
ENDBRANCH   2   3
ENDBRANCH   1   2
BRANCH   1  28
ATOM     28  C   UNL A   1      32.945  27.729  26.837  1.00  0.00     0.023 C 
BRANCH  28  29
ATOM     29  C   UNL A   1      33.842  28.724  26.112  1.00  0.00     0.116 C 
BRANCH  29  30
ATOM     30  N   UNL A   1      33.683  30.085  26.599  1.00  0.00    -0.352 N 
ATOM     31  C   UNL A   1      34.442  30.778  27.512  1.00  0.00     0.251 C 
ATOM     32  H   UNL A   1      32.921  30.581  26.221  1.00  0.00     0.163 HD
ATOM     33  O   UNL A   1      34.073  31.872  27.917  1.00  0.00    -0.269 OA
BRANCH  31  34
ATOM     34  C   UNL A   1      35.692  30.180  28.030  1.00  0.00     0.039 A 
ATOM     35  C   UNL A   1      36.851  30.269  27.256  1.00  0.00     0.014 A 
ATOM     36  C   UNL A   1      35.726  29.551  29.277  1.00  0.00     0.014 A 
ATOM     37  C   UNL A   1      38.061  29.791  27.765  1.00  0.00     0.010 A 
ATOM     38  C   UNL A   1      36.946  29.149  29.816  1.00  0.00     0.010 A 
ATOM     39  C   UNL A   1      38.125  29.265  29.065  1.00  0.00    -0.014 A 
BRANCH  39  40
ATOM     40  C   UNL A   1      39.419  28.839  29.659  1.00  0.00     0.031 A 
ATOM     41  C   UNL A   1      40.039  29.634  30.776  1.00  0.00     0.074 A 
ATOM     42  C   UNL A   1      40.067  27.772  29.152  1.00  0.00     0.049 A 
ATOM     43  N   UNL A   1      41.190  29.462  31.376  1.00  0.00    -0.248 NA
ATOM     44  C   UNL A   1      39.274  30.791  31.268  1.00  0.00     0.031 C 
ATOM     45  C   UNL A   1      39.595  26.947  28.038  1.00  0.00     0.029 A 
ATOM     46  N   UNL A   1      41.268  27.203  29.497  1.00  0.00    -0.354 N 
ATOM     47  C   UNL A   1      41.290  30.490  32.304  1.00  0.00     0.074 A 
ATOM     48  C   UNL A   1      40.113  31.316  32.149  1.00  0.00     0.031 C 
ATOM     49  C   UNL A   1      40.484  25.968  27.807  1.00  0.00     0.029 A 
ATOM     50  C   UNL A   1      41.609  26.121  28.724  1.00  0.00     0.049 A 
ATOM     51  H   UNL A   1      41.833  27.541  30.230  1.00  0.00     0.167 HD
ATOM     52  C   UNL A   1      42.264  30.710  33.219  1.00  0.00     0.037 A 
ATOM     53  C   UNL A   1      42.711  25.346  28.743  1.00  0.00     0.037 A 
ATOM     54  C   UNL A   1      43.426  29.877  33.382  1.00  0.00     0.049 A 
ATOM     55  C   UNL A   1      43.788  25.627  29.757  1.00  0.00     0.074 A 
ATOM     56  C   UNL A   1      44.443  29.988  34.314  1.00  0.00     0.029 A 
ATOM     57  N   UNL A   1      43.729  28.780  32.589  1.00  0.00    -0.354 N 
ATOM     58  N   UNL A   1      43.837  26.560  30.678  1.00  0.00    -0.248 NA
ATOM     59  C   UNL A   1      44.962  24.742  29.739  1.00  0.00     0.031 C 
ATOM     60  C   UNL A   1      45.389  28.993  34.050  1.00  0.00     0.029 A 
ATOM     61  C   UNL A   1      44.931  28.221  32.995  1.00  0.00     0.049 A 
ATOM     62  H   UNL A   1      43.174  28.448  31.847  1.00  0.00     0.167 HD
ATOM     63  C   UNL A   1      45.024  26.354  31.366  1.00  0.00     0.074 A 
ATOM     64  C   UNL A   1      45.659  25.198  30.771  1.00  0.00     0.031 C 
ATOM     65  C   UNL A   1      45.544  27.061  32.400  1.00  0.00     0.037 A 
BRANCH  52  66
ATOM     66  C   UNL A   1      42.112  31.899  34.126  1.00  0.00     0.064 A 
ATOM     67  C   UNL A   1      42.591  33.168  33.761  1.00  0.00     0.173 A 
ATOM     68  C   UNL A   1      41.437  31.782  35.349  1.00  0.00     0.173 A 
ATOM     69  F   UNL A   1      43.253  33.334  32.605  1.00  0.00    -0.203 F 
ATOM     70  C   UNL A   1      42.422  34.266  34.599  1.00  0.00     0.198 A 
ATOM     71  C   UNL A   1      41.240  32.890  36.170  1.00  0.00     0.198 A 
ATOM     72  F   UNL A   1      40.953  30.595  35.744  1.00  0.00    -0.203 F 
ATOM     73  F   UNL A   1      42.929  35.457  34.250  1.00  0.00    -0.200 F 
ATOM     74  C   UNL A   1      41.738  34.129  35.797  1.00  0.00     0.200 A 
ATOM     75  F   UNL A   1      40.566  32.759  37.320  1.00  0.00    -0.200 F 
ATOM     76  F   UNL A   1      41.565  35.191  36.597  1.00  0.00    -0.200 F 
ENDBRANCH  52  66
BRANCH  53  77
ATOM     77  C   UNL A   1      42.852  24.221  27.779  1.00  0.00     0.064 A 
ATOM     78  C   UNL A   1      43.315  24.441  26.474  1.00  0.00     0.173 A 
ATOM     79  C   UNL A   1      42.506  22.908  28.133  1.00  0.00     0.173 A 
ATOM     80  F   UNL A   1      43.640  25.681  26.080  1.00  0.00    -0.203 F 
ATOM     81  C   UNL A   1      43.395  23.400  25.552  1.00  0.00     0.198 A 
ATOM     82  C   UNL A   1      42.619  21.862  27.221  1.00  0.00     0.198 A 
ATOM     83  F   UNL A   1      42.062  22.640  29.370  1.00  0.00    -0.203 F 
ATOM     84  F   UNL A   1      43.783  23.651  24.294  1.00  0.00    -0.200 F 
ATOM     85  C   UNL A   1      43.052  22.110  25.927  1.00  0.00     0.200 A 
ATOM     86  F   UNL A   1      42.301  20.614  27.593  1.00  0.00    -0.200 F 
ATOM     87  F   UNL A   1      43.128  21.108  25.040  1.00  0.00    -0.200 F 
ENDBRANCH  53  77
BRANCH  65  88
ATOM     88  C   UNL A   1      46.841  26.577  32.987  1.00  0.00     0.064 A 
ATOM     89  C   UNL A   1      46.878  25.624  34.015  1.00  0.00     0.173 A 
ATOM     90  C   UNL A   1      48.063  27.047  32.484  1.00  0.00     0.173 A 
ATOM     91  F   UNL A   1      45.737  25.154  34.542  1.00  0.00    -0.203 F 
ATOM     92  C   UNL A   1      48.091  25.182  34.537  1.00  0.00     0.198 A 
ATOM     93  C   UNL A   1      49.275  26.577  32.984  1.00  0.00     0.198 A 
ATOM     94  F   UNL A   1      48.085  27.954  31.494  1.00  0.00    -0.203 F 
ATOM     95  F   UNL A   1      48.101  24.312  35.557  1.00  0.00    -0.200 F 
ATOM     96  C   UNL A   1      49.287  25.652  34.016  1.00  0.00     0.200 A 
ATOM     97  F   UNL A   1      50.428  27.019  32.467  1.00  0.00    -0.200 F 
ATOM     98  F   UNL A   1      50.453  25.219  34.515  1.00  0.00    -0.200 F 
ENDBRANCH  65  88
ENDBRANCH  39  40
ENDBRANCH  31  34
ENDBRANCH  29  30
ENDBRANCH  28  29
ENDBRANCH   1  28
TORSDOF 13
ENDMDL
