MODEL 1
REMARK VINA RESULT:     -14.2      0.000      0.000
REMARK SMILES Cc1cccc(CC(=O)N2CCC3(CCC(=O)N([C@H](C)C(=O)NCCCCNC(=O)c4ccc(-c5c6nc(c(-c7c(F)c(F)c(F)c(F)c7F)c7ccc([nH]7)c(-c7c(F)c(F)c(F)c(F)c7F)c7nc(c(-c8c(F)c(F)c(F)c(F)c8F)c8ccc5[nH]8)C=C7)C=C6)cc4)C3)CC2)c1
REMARK SMILES IDX 25 1 24 2 23 3 21 4 22 5 19 7 20 8 18 9 8 10 9 11 10 12
REMARK SMILES IDX 11 13 96 14 12 15 95 16 13 17 14 18 94 19 15 20 16 21 17 22
REMARK SMILES IDX 7 23 6 24 1 25 2 26 3 27 97 28 4 29 5 30 26 31 27 32 28 33
REMARK SMILES IDX 29 34 30 36 31 37 32 38 93 39 33 40 92 41 34 42 35 43 36 44
REMARK SMILES IDX 86 45 37 46 91 47 85 48 87 49 38 50 90 51 84 52 83 53 39 55
REMARK SMILES IDX 71 56 51 57 70 58 52 59 55 60 69 61 88 62 53 63 54 64 68 66
REMARK SMILES IDX 89 67 56 68 40 69 41 70 49 71 42 72 43 73 47 74 50 75 44 76
REMARK SMILES IDX 45 77 48 78 46 79 72 80 73 81 81 82 74 83 75 84 79 85 82 86
REMARK SMILES IDX 76 87 77 88 80 89 78 90 57 91 58 92 66 93 59 94 60 95 64 96
REMARK SMILES IDX 67 97 61 98 62 99 65 100 63 101
REMARK H PARENT 23 6 28 35 87 54 55 65
REMARK Flexibility Score: inf
ROOT
ATOM      1  C   UNL A   1      31.980  31.200  26.472  1.00  0.00     0.023 C 
ENDROOT
BRANCH   1   2
ATOM      2  C   UNL A   1      31.626  30.034  25.555  1.00  0.00     0.116 C 
BRANCH   2   3
ATOM      3  N   UNL A   1      31.164  28.847  26.260  1.00  0.00    -0.354 N 
ATOM      4  C   UNL A   1      31.688  27.583  26.278  1.00  0.00     0.242 C 
ATOM      5  O   UNL A   1      31.293  26.816  27.163  1.00  0.00    -0.273 OA
ATOM      6  H   UNL A   1      30.355  28.973  26.806  1.00  0.00     0.163 HD
BRANCH   4   7
ATOM      7  C   UNL A   1      32.712  27.102  25.219  1.00  0.00     0.171 C 
ATOM      8  C   UNL A   1      34.044  26.672  25.840  1.00  0.00     0.042 C 
BRANCH   7   9
ATOM      9  N   UNL A   1      32.258  26.168  24.172  1.00  0.00    -0.330 N 
ATOM     10  C   UNL A   1      33.028  19.717  25.153  1.00  0.00     0.226 C 
ATOM     11  O   UNL A   1      32.580  19.255  26.209  1.00  0.00    -0.275 OA
ATOM     12  N   UNL A   1      32.462  20.851  24.585  1.00  0.00    -0.342 N 
ATOM     13  C   UNL A   1      31.623  21.722  25.405  1.00  0.00     0.120 C 
ATOM     14  C   UNL A   1      32.523  21.243  23.186  1.00  0.00     0.120 C 
ATOM     15  C   UNL A   1      32.114  23.175  25.301  1.00  0.00     0.030 C 
ATOM     16  C   UNL A   1      33.144  22.625  23.066  1.00  0.00     0.030 C 
ATOM     17  C   UNL A   1      32.305  23.674  23.839  1.00  0.00    -0.008 C 
ATOM     18  C   UNL A   1      30.959  23.864  23.097  1.00  0.00     0.019 C 
ATOM     19  C   UNL A   1      33.079  25.012  23.834  1.00  0.00     0.127 C 
ATOM     20  C   UNL A   1      30.193  25.085  23.554  1.00  0.00     0.101 C 
ATOM     21  C   UNL A   1      31.051  26.320  23.517  1.00  0.00     0.223 C 
ATOM     22  O   UNL A   1      30.621  27.378  23.071  1.00  0.00    -0.275 OA
BRANCH  10  23
ATOM     23  C   UNL A   1      34.354  19.165  24.626  1.00  0.00     0.135 C 
BRANCH  23  24
ATOM     24  C   UNL A   1      35.630  19.889  24.963  1.00  0.00    -0.038 A 
ATOM     25  C   UNL A   1      36.690  23.442  25.872  1.00  0.00     0.044 C 
ATOM     26  C   UNL A   1      36.751  21.980  25.542  1.00  0.00    -0.051 A 
ATOM     27  C   UNL A   1      37.986  21.350  25.354  1.00  0.00     0.003 A 
ATOM     28  C   UNL A   1      35.579  21.235  25.371  1.00  0.00     0.007 A 
ATOM     29  C   UNL A   1      38.048  19.999  25.004  1.00  0.00     0.001 A 
ATOM     30  C   UNL A   1      36.875  19.269  24.809  1.00  0.00     0.004 A 
ENDBRANCH  23  24
ENDBRANCH  10  23
ENDBRANCH   7   9
ENDBRANCH   4   7
ENDBRANCH   2   3
ENDBRANCH   1   2
BRANCH   1  31
ATOM     31  C   UNL A   1      32.936  30.859  27.613  1.00  0.00     0.023 C 
BRANCH  31  32
ATOM     32  C   UNL A   1      34.415  30.907  27.251  1.00  0.00     0.116 C 
BRANCH  32  33
ATOM     33  N   UNL A   1      35.231  31.779  28.080  1.00  0.00    -0.352 N 
ATOM     34  C   UNL A   1      36.355  31.492  28.844  1.00  0.00     0.251 C 
ATOM     35  H   UNL A   1      34.941  32.720  28.103  1.00  0.00     0.163 HD
ATOM     36  O   UNL A   1      36.820  32.353  29.569  1.00  0.00    -0.269 OA
BRANCH  34  37
ATOM     37  C   UNL A   1      37.082  30.202  28.671  1.00  0.00     0.039 A 
ATOM     38  C   UNL A   1      37.136  29.327  29.768  1.00  0.00     0.014 A 
ATOM     39  C   UNL A   1      37.862  29.938  27.553  1.00  0.00     0.014 A 
ATOM     40  C   UNL A   1      38.156  28.381  29.847  1.00  0.00     0.010 A 
ATOM     41  C   UNL A   1      38.947  29.098  27.679  1.00  0.00     0.010 A 
ATOM     42  C   UNL A   1      39.133  28.375  28.858  1.00  0.00    -0.014 A 
BRANCH  42  43
ATOM     43  C   UNL A   1      40.434  27.738  28.992  1.00  0.00     0.031 A 
ATOM     44  C   UNL A   1      40.599  26.306  28.692  1.00  0.00     0.074 A 
ATOM     45  C   UNL A   1      41.520  28.517  29.195  1.00  0.00     0.049 A 
ATOM     46  N   UNL A   1      41.628  25.610  29.033  1.00  0.00    -0.248 NA
ATOM     47  C   UNL A   1      39.580  25.525  28.008  1.00  0.00     0.031 C 
ATOM     48  C   UNL A   1      42.925  28.162  28.997  1.00  0.00     0.029 A 
ATOM     49  N   UNL A   1      41.568  29.767  29.838  1.00  0.00    -0.354 N 
ATOM     50  C   UNL A   1      41.567  24.412  28.359  1.00  0.00     0.074 A 
ATOM     51  C   UNL A   1      40.229  24.372  27.815  1.00  0.00     0.031 C 
ATOM     52  C   UNL A   1      43.681  28.962  29.766  1.00  0.00     0.029 A 
ATOM     53  C   UNL A   1      42.767  29.728  30.592  1.00  0.00     0.049 A 
ATOM     54  H   UNL A   1      40.917  30.502  29.777  1.00  0.00     0.167 HD
ATOM     55  C   UNL A   1      42.712  23.677  28.235  1.00  0.00     0.037 A 
ATOM     56  C   UNL A   1      42.741  29.696  31.956  1.00  0.00     0.037 A 
ATOM     57  C   UNL A   1      43.803  24.268  29.023  1.00  0.00     0.049 A 
ATOM     58  C   UNL A   1      43.455  28.516  32.582  1.00  0.00     0.074 A 
ATOM     59  C   UNL A   1      44.945  24.989  28.710  1.00  0.00     0.029 A 
ATOM     60  N   UNL A   1      43.647  24.392  30.399  1.00  0.00    -0.354 N 
ATOM     61  N   UNL A   1      43.829  27.439  31.947  1.00  0.00    -0.248 NA
ATOM     62  C   UNL A   1      43.720  28.432  34.011  1.00  0.00     0.031 C 
ATOM     63  C   UNL A   1      45.497  25.505  29.917  1.00  0.00     0.029 A 
ATOM     64  C   UNL A   1      44.693  25.099  30.964  1.00  0.00     0.049 A 
ATOM     65  H   UNL A   1      42.888  24.024  30.907  1.00  0.00     0.167 HD
ATOM     66  C   UNL A   1      44.330  26.514  32.838  1.00  0.00     0.074 A 
ATOM     67  C   UNL A   1      44.221  27.189  34.119  1.00  0.00     0.031 C 
ATOM     68  C   UNL A   1      44.745  25.274  32.415  1.00  0.00     0.037 A 
BRANCH  55  69
ATOM     69  C   UNL A   1      42.930  22.576  27.206  1.00  0.00     0.064 A 
ATOM     70  C   UNL A   1      42.213  21.359  27.286  1.00  0.00     0.173 A 
ATOM     71  C   UNL A   1      43.868  22.616  26.157  1.00  0.00     0.173 A 
ATOM     72  F   UNL A   1      41.196  21.197  28.141  1.00  0.00    -0.203 F 
ATOM     73  C   UNL A   1      42.505  20.251  26.481  1.00  0.00     0.198 A 
ATOM     74  C   UNL A   1      44.195  21.495  25.383  1.00  0.00     0.198 A 
ATOM     75  F   UNL A   1      44.455  23.753  25.778  1.00  0.00    -0.203 F 
ATOM     76  F   UNL A   1      41.794  19.122  26.621  1.00  0.00    -0.200 F 
ATOM     77  C   UNL A   1      43.523  20.306  25.555  1.00  0.00     0.200 A 
ATOM     78  F   UNL A   1      45.165  21.587  24.460  1.00  0.00    -0.200 F 
ATOM     79  F   UNL A   1      43.830  19.236  24.810  1.00  0.00    -0.200 F 
ENDBRANCH  55  69
BRANCH  56  80
ATOM     80  C   UNL A   1      41.537  30.359  32.533  1.00  0.00     0.064 A 
ATOM     81  C   UNL A   1      41.469  31.767  32.528  1.00  0.00     0.173 A 
ATOM     82  C   UNL A   1      40.344  29.656  32.738  1.00  0.00     0.173 A 
ATOM     83  F   UNL A   1      42.584  32.493  32.341  1.00  0.00    -0.203 F 
ATOM     84  C   UNL A   1      40.248  32.435  32.598  1.00  0.00     0.198 A 
ATOM     85  C   UNL A   1      39.124  30.331  32.833  1.00  0.00     0.198 A 
ATOM     86  F   UNL A   1      40.335  28.316  32.741  1.00  0.00    -0.203 F 
ATOM     87  F   UNL A   1      40.207  33.769  32.473  1.00  0.00    -0.200 F 
ATOM     88  C   UNL A   1      39.073  31.714  32.724  1.00  0.00     0.200 A 
ATOM     89  F   UNL A   1      37.984  29.632  32.928  1.00  0.00    -0.200 F 
ATOM     90  F   UNL A   1      37.891  32.344  32.703  1.00  0.00    -0.200 F 
ENDBRANCH  56  80
BRANCH  68  91
ATOM     91  C   UNL A   1      45.213  24.077  33.250  1.00  0.00     0.064 A 
ATOM     92  C   UNL A   1      44.422  22.985  33.641  1.00  0.00     0.173 A 
ATOM     93  C   UNL A   1      46.558  24.005  33.720  1.00  0.00     0.173 A 
ATOM     94  F   UNL A   1      43.103  22.964  33.444  1.00  0.00    -0.203 F 
ATOM     95  C   UNL A   1      44.947  21.876  34.322  1.00  0.00     0.198 A 
ATOM     96  C   UNL A   1      47.073  22.913  34.419  1.00  0.00     0.198 A 
ATOM     97  F   UNL A   1      47.438  24.995  33.528  1.00  0.00    -0.203 F 
ATOM     98  F   UNL A   1      44.143  20.845  34.621  1.00  0.00    -0.200 F 
ATOM     99  C   UNL A   1      46.272  21.834  34.700  1.00  0.00     0.200 A 
ATOM    100  F   UNL A   1      48.355  22.921  34.811  1.00  0.00    -0.200 F 
ATOM    101  F   UNL A   1      46.767  20.774  35.352  1.00  0.00    -0.200 F 
ENDBRANCH  68  91
ENDBRANCH  42  43
ENDBRANCH  34  37
ENDBRANCH  32  33
ENDBRANCH  31  32
ENDBRANCH   1  31
TORSDOF 14
ENDMDL
MODEL 2
REMARK VINA RESULT:     -14.0      3.761     10.237
REMARK SMILES Cc1cccc(CC(=O)N2CCC3(CCC(=O)N([C@H](C)C(=O)NCCCCNC(=O)c4ccc(-c5c6nc(c(-c7c(F)c(F)c(F)c(F)c7F)c7ccc([nH]7)c(-c7c(F)c(F)c(F)c(F)c7F)c7nc(c(-c8c(F)c(F)c(F)c(F)c8F)c8ccc5[nH]8)C=C7)C=C6)cc4)C3)CC2)c1
REMARK SMILES IDX 25 1 24 2 23 3 21 4 22 5 19 7 20 8 18 9 8 10 9 11 10 12
REMARK SMILES IDX 11 13 96 14 12 15 95 16 13 17 14 18 94 19 15 20 16 21 17 22
REMARK SMILES IDX 7 23 6 24 1 25 2 26 3 27 97 28 4 29 5 30 26 31 27 32 28 33
REMARK SMILES IDX 29 34 30 36 31 37 32 38 93 39 33 40 92 41 34 42 35 43 36 44
REMARK SMILES IDX 86 45 37 46 91 47 85 48 87 49 38 50 90 51 84 52 83 53 39 55
REMARK SMILES IDX 71 56 51 57 70 58 52 59 55 60 69 61 88 62 53 63 54 64 68 66
REMARK SMILES IDX 89 67 56 68 40 69 41 70 49 71 42 72 43 73 47 74 50 75 44 76
REMARK SMILES IDX 45 77 48 78 46 79 72 80 73 81 81 82 74 83 75 84 79 85 82 86
REMARK SMILES IDX 76 87 77 88 80 89 78 90 57 91 58 92 66 93 59 94 60 95 64 96
REMARK SMILES IDX 67 97 61 98 62 99 65 100 63 101
REMARK H PARENT 23 6 28 35 87 54 55 65
REMARK Flexibility Score: inf
ROOT
ATOM      1  C   UNL A   1      37.780  20.915  25.001  1.00  0.00     0.023 C 
ENDROOT
BRANCH   1   2
ATOM      2  C   UNL A   1      37.343  22.352  24.737  1.00  0.00     0.116 C 
BRANCH   2   3
ATOM      3  N   UNL A   1      36.432  22.496  23.612  1.00  0.00    -0.354 N 
ATOM      4  C   UNL A   1      35.222  23.130  23.544  1.00  0.00     0.242 C 
ATOM      5  O   UNL A   1      34.763  23.362  22.419  1.00  0.00    -0.273 OA
ATOM      6  H   UNL A   1      36.732  22.074  22.775  1.00  0.00     0.163 HD
BRANCH   4   7
ATOM      7  C   UNL A   1      34.425  23.521  24.814  1.00  0.00     0.171 C 
ATOM      8  C   UNL A   1      35.019  24.735  25.532  1.00  0.00     0.042 C 
BRANCH   7   9
ATOM      9  N   UNL A   1      32.954  23.587  24.731  1.00  0.00    -0.330 N 
ATOM     10  C   UNL A   1      30.157  29.174  22.701  1.00  0.00     0.226 C 
ATOM     11  O   UNL A   1      30.558  29.642  21.629  1.00  0.00    -0.275 OA
ATOM     12  N   UNL A   1      30.224  27.808  22.941  1.00  0.00    -0.342 N 
ATOM     13  C   UNL A   1      31.109  26.979  22.127  1.00  0.00     0.120 C 
ATOM     14  C   UNL A   1      29.409  27.051  23.878  1.00  0.00     0.120 C 
ATOM     15  C   UNL A   1      32.021  26.137  23.034  1.00  0.00     0.030 C 
ATOM     16  C   UNL A   1      30.305  26.329  24.871  1.00  0.00     0.030 C 
ATOM     17  C   UNL A   1      31.259  25.351  24.141  1.00  0.00    -0.008 C 
ATOM     18  C   UNL A   1      30.417  24.185  23.567  1.00  0.00     0.019 C 
ATOM     19  C   UNL A   1      32.262  24.790  25.176  1.00  0.00     0.127 C 
ATOM     20  C   UNL A   1      31.254  23.007  23.121  1.00  0.00     0.101 C 
ATOM     21  C   UNL A   1      32.196  22.558  24.205  1.00  0.00     0.223 C 
ATOM     22  O   UNL A   1      32.350  21.369  24.458  1.00  0.00    -0.275 OA
BRANCH  10  23
ATOM     23  C   UNL A   1      29.820  30.145  23.834  1.00  0.00     0.135 C 
BRANCH  23  24
ATOM     24  C   UNL A   1      30.868  30.444  24.873  1.00  0.00    -0.038 A 
ATOM     25  C   UNL A   1      33.952  28.728  26.329  1.00  0.00     0.044 C 
ATOM     26  C   UNL A   1      32.858  29.728  26.093  1.00  0.00    -0.051 A 
ATOM     27  C   UNL A   1      32.701  30.818  26.956  1.00  0.00     0.003 A 
ATOM     28  C   UNL A   1      31.954  29.564  25.038  1.00  0.00     0.007 A 
ATOM     29  C   UNL A   1      31.658  31.728  26.767  1.00  0.00     0.001 A 
ATOM     30  C   UNL A   1      30.744  31.544  25.729  1.00  0.00     0.004 A 
ENDBRANCH  23  24
ENDBRANCH  10  23
ENDBRANCH   7   9
ENDBRANCH   4   7
ENDBRANCH   2   3
ENDBRANCH   1   2
BRANCH   1  31
ATOM     31  C   UNL A   1      39.111  20.767  25.735  1.00  0.00     0.023 C 
BRANCH  31  32
ATOM     32  C   UNL A   1      39.567  22.004  26.498  1.00  0.00     0.116 C 
BRANCH  32  33
ATOM     33  N   UNL A   1      40.975  22.338  26.358  1.00  0.00    -0.352 N 
ATOM     34  C   UNL A   1      41.602  23.577  26.330  1.00  0.00     0.251 C 
ATOM     35  H   UNL A   1      41.578  21.564  26.269  1.00  0.00     0.163 HD
ATOM     36  O   UNL A   1      42.792  23.639  26.078  1.00  0.00    -0.269 OA
BRANCH  34  37
ATOM     37  C   UNL A   1      40.873  24.807  26.753  1.00  0.00     0.039 A 
ATOM     38  C   UNL A   1      41.009  25.956  25.957  1.00  0.00     0.014 A 
ATOM     39  C   UNL A   1      40.247  24.906  27.988  1.00  0.00     0.014 A 
ATOM     40  C   UNL A   1      40.778  27.212  26.514  1.00  0.00     0.010 A 
ATOM     41  C   UNL A   1      40.142  26.143  28.586  1.00  0.00     0.010 A 
ATOM     42  C   UNL A   1      40.480  27.292  27.869  1.00  0.00    -0.014 A 
BRANCH  42  43
ATOM     43  C   UNL A   1      40.593  28.505  28.666  1.00  0.00     0.031 A 
ATOM     44  C   UNL A   1      39.521  29.513  28.648  1.00  0.00     0.074 A 
ATOM     45  C   UNL A   1      41.593  28.595  29.571  1.00  0.00     0.049 A 
ATOM     46  N   UNL A   1      39.649  30.714  29.098  1.00  0.00    -0.248 NA
ATOM     47  C   UNL A   1      38.209  29.254  28.074  1.00  0.00     0.031 C 
ATOM     48  C   UNL A   1      41.693  29.513  30.704  1.00  0.00     0.029 A 
ATOM     49  N   UNL A   1      42.856  27.980  29.514  1.00  0.00    -0.354 N 
ATOM     50  C   UNL A   1      38.393  31.271  29.174  1.00  0.00     0.074 A 
ATOM     51  C   UNL A   1      37.550  30.360  28.436  1.00  0.00     0.031 C 
ATOM     52  C   UNL A   1      42.988  29.656  31.027  1.00  0.00     0.029 A 
ATOM     53  C   UNL A   1      43.749  28.965  30.004  1.00  0.00     0.049 A 
ATOM     54  H   UNL A   1      43.071  27.070  29.205  1.00  0.00     0.167 HD
ATOM     55  C   UNL A   1      38.214  32.362  29.976  1.00  0.00     0.037 A 
ATOM     56  C   UNL A   1      44.663  29.558  29.183  1.00  0.00     0.037 A 
ATOM     57  C   UNL A   1      39.500  32.843  30.504  1.00  0.00     0.049 A 
ATOM     58  C   UNL A   1      44.574  31.069  29.112  1.00  0.00     0.074 A 
ATOM     59  C   UNL A   1      40.124  32.784  31.740  1.00  0.00     0.029 A 
ATOM     60  N   UNL A   1      40.480  33.258  29.608  1.00  0.00    -0.354 N 
ATOM     61  N   UNL A   1      43.567  31.783  29.532  1.00  0.00    -0.248 NA
ATOM     62  C   UNL A   1      45.596  31.882  28.469  1.00  0.00     0.031 C 
ATOM     63  C   UNL A   1      41.472  33.214  31.585  1.00  0.00     0.029 A 
ATOM     64  C   UNL A   1      41.670  33.535  30.255  1.00  0.00     0.049 A 
ATOM     65  H   UNL A   1      40.343  33.344  28.637  1.00  0.00     0.167 HD
ATOM     66  C   UNL A   1      43.754  33.108  29.199  1.00  0.00     0.074 A 
ATOM     67  C   UNL A   1      45.038  33.103  28.519  1.00  0.00     0.031 C 
ATOM     68  C   UNL A   1      42.803  34.055  29.491  1.00  0.00     0.037 A 
BRANCH  55  69
ATOM     69  C   UNL A   1      36.868  32.844  30.499  1.00  0.00     0.064 A 
ATOM     70  C   UNL A   1      36.004  33.604  29.677  1.00  0.00     0.173 A 
ATOM     71  C   UNL A   1      36.387  32.655  31.809  1.00  0.00     0.173 A 
ATOM     72  F   UNL A   1      36.242  33.771  28.371  1.00  0.00    -0.203 F 
ATOM     73  C   UNL A   1      34.845  34.224  30.161  1.00  0.00     0.198 A 
ATOM     74  C   UNL A   1      35.256  33.312  32.309  1.00  0.00     0.198 A 
ATOM     75  F   UNL A   1      36.940  31.771  32.642  1.00  0.00    -0.203 F 
ATOM     76  F   UNL A   1      34.079  34.943  29.329  1.00  0.00    -0.200 F 
ATOM     77  C   UNL A   1      34.491  34.110  31.488  1.00  0.00     0.200 A 
ATOM     78  F   UNL A   1      34.911  33.153  33.595  1.00  0.00    -0.200 F 
ATOM     79  F   UNL A   1      33.405  34.732  31.963  1.00  0.00    -0.200 F 
ENDBRANCH  55  69
BRANCH  56  80
ATOM     80  C   UNL A   1      45.090  28.683  28.055  1.00  0.00     0.064 A 
ATOM     81  C   UNL A   1      46.011  27.646  28.310  1.00  0.00     0.173 A 
ATOM     82  C   UNL A   1      44.356  28.614  26.864  1.00  0.00     0.173 A 
ATOM     83  F   UNL A   1      46.747  27.663  29.433  1.00  0.00    -0.203 F 
ATOM     84  C   UNL A   1      46.101  26.533  27.476  1.00  0.00     0.198 A 
ATOM     85  C   UNL A   1      44.467  27.508  26.019  1.00  0.00     0.198 A 
ATOM     86  F   UNL A   1      43.453  29.559  26.567  1.00  0.00    -0.203 F 
ATOM     87  F   UNL A   1      46.902  25.511  27.809  1.00  0.00    -0.200 F 
ATOM     88  C   UNL A   1      45.308  26.453  26.344  1.00  0.00     0.200 A 
ATOM     89  F   UNL A   1      43.681  27.418  24.937  1.00  0.00    -0.200 F 
ATOM     90  F   UNL A   1      45.324  25.347  25.588  1.00  0.00    -0.200 F 
ENDBRANCH  56  80
BRANCH  68  91
ATOM     91  C   UNL A   1      42.766  35.537  29.103  1.00  0.00     0.064 A 
ATOM     92  C   UNL A   1      42.205  36.068  27.931  1.00  0.00     0.173 A 
ATOM     93  C   UNL A   1      43.348  36.522  29.954  1.00  0.00     0.173 A 
ATOM     94  F   UNL A   1      41.772  35.287  26.940  1.00  0.00    -0.203 F 
ATOM     95  C   UNL A   1      42.120  37.449  27.691  1.00  0.00     0.198 A 
ATOM     96  C   UNL A   1      43.287  37.893  29.703  1.00  0.00     0.198 A 
ATOM     97  F   UNL A   1      44.013  36.202  31.072  1.00  0.00    -0.203 F 
ATOM     98  F   UNL A   1      41.526  37.888  26.573  1.00  0.00    -0.200 F 
ATOM     99  C   UNL A   1      42.649  38.361  28.580  1.00  0.00     0.200 A 
ATOM    100  F   UNL A   1      43.848  38.752  30.566  1.00  0.00    -0.200 F 
ATOM    101  F   UNL A   1      42.567  39.676  28.345  1.00  0.00    -0.200 F 
ENDBRANCH  68  91
ENDBRANCH  42  43
ENDBRANCH  34  37
ENDBRANCH  32  33
ENDBRANCH  31  32
ENDBRANCH   1  31
TORSDOF 14
ENDMDL
MODEL 3
REMARK VINA RESULT:     -13.6      2.148      3.448
REMARK SMILES Cc1cccc(CC(=O)N2CCC3(CCC(=O)N([C@H](C)C(=O)NCCCCNC(=O)c4ccc(-c5c6nc(c(-c7c(F)c(F)c(F)c(F)c7F)c7ccc([nH]7)c(-c7c(F)c(F)c(F)c(F)c7F)c7nc(c(-c8c(F)c(F)c(F)c(F)c8F)c8ccc5[nH]8)C=C7)C=C6)cc4)C3)CC2)c1
REMARK SMILES IDX 25 1 24 2 23 3 21 4 22 5 19 7 20 8 18 9 8 10 9 11 10 12
REMARK SMILES IDX 11 13 96 14 12 15 95 16 13 17 14 18 94 19 15 20 16 21 17 22
REMARK SMILES IDX 7 23 6 24 1 25 2 26 3 27 97 28 4 29 5 30 26 31 27 32 28 33
REMARK SMILES IDX 29 34 30 36 31 37 32 38 93 39 33 40 92 41 34 42 35 43 36 44
REMARK SMILES IDX 86 45 37 46 91 47 85 48 87 49 38 50 90 51 84 52 83 53 39 55
REMARK SMILES IDX 71 56 51 57 70 58 52 59 55 60 69 61 88 62 53 63 54 64 68 66
REMARK SMILES IDX 89 67 56 68 40 69 41 70 49 71 42 72 43 73 47 74 50 75 44 76
REMARK SMILES IDX 45 77 48 78 46 79 72 80 73 81 81 82 74 83 75 84 79 85 82 86
REMARK SMILES IDX 76 87 77 88 80 89 78 90 57 91 58 92 66 93 59 94 60 95 64 96
REMARK SMILES IDX 67 97 61 98 62 99 65 100 63 101
REMARK H PARENT 23 6 28 35 87 54 55 65
REMARK Flexibility Score: inf
ROOT
ATOM      1  C   UNL A   1      32.566  30.931  26.854  1.00  0.00     0.023 C 
ENDROOT
BRANCH   1   2
ATOM      2  C   UNL A   1      31.771  30.056  25.890  1.00  0.00     0.116 C 
BRANCH   2   3
ATOM      3  N   UNL A   1      31.275  28.823  26.483  1.00  0.00    -0.354 N 
ATOM      4  C   UNL A   1      31.726  27.540  26.337  1.00  0.00     0.242 C 
ATOM      5  O   UNL A   1      31.328  26.700  27.151  1.00  0.00    -0.273 OA
ATOM      6  H   UNL A   1      30.499  28.929  27.079  1.00  0.00     0.163 HD
BRANCH   4   7
ATOM      7  C   UNL A   1      32.673  27.128  25.182  1.00  0.00     0.171 C 
ATOM      8  C   UNL A   1      34.077  26.761  25.673  1.00  0.00     0.042 C 
BRANCH   7   9
ATOM      9  N   UNL A   1      32.175  26.185  24.163  1.00  0.00    -0.330 N 
ATOM     10  C   UNL A   1      32.965  19.742  25.173  1.00  0.00     0.226 C 
ATOM     11  O   UNL A   1      32.558  19.291  26.251  1.00  0.00    -0.275 OA
ATOM     12  N   UNL A   1      32.380  20.872  24.618  1.00  0.00    -0.342 N 
ATOM     13  C   UNL A   1      31.577  21.753  25.462  1.00  0.00     0.120 C 
ATOM     14  C   UNL A   1      32.387  21.251  23.214  1.00  0.00     0.120 C 
ATOM     15  C   UNL A   1      32.068  23.204  25.325  1.00  0.00     0.030 C 
ATOM     16  C   UNL A   1      33.006  22.629  23.056  1.00  0.00     0.030 C 
ATOM     17  C   UNL A   1      32.202  23.688  23.851  1.00  0.00    -0.008 C 
ATOM     18  C   UNL A   1      30.827  23.876  23.163  1.00  0.00     0.019 C 
ATOM     19  C   UNL A   1      32.979  25.024  23.804  1.00  0.00     0.127 C 
ATOM     20  C   UNL A   1      30.084  25.104  23.638  1.00  0.00     0.101 C 
ATOM     21  C   UNL A   1      30.944  26.336  23.555  1.00  0.00     0.223 C 
ATOM     22  O   UNL A   1      30.499  27.390  23.117  1.00  0.00    -0.275 OA
BRANCH  10  23
ATOM     23  C   UNL A   1      34.267  19.181  24.599  1.00  0.00     0.135 C 
BRANCH  23  24
ATOM     24  C   UNL A   1      35.561  19.890  24.898  1.00  0.00    -0.038 A 
ATOM     25  C   UNL A   1      36.698  23.448  25.685  1.00  0.00     0.044 C 
ATOM     26  C   UNL A   1      36.727  21.975  25.398  1.00  0.00    -0.051 A 
ATOM     27  C   UNL A   1      37.948  21.318  25.214  1.00  0.00     0.003 A 
ATOM     28  C   UNL A   1      35.540  21.249  25.266  1.00  0.00     0.007 A 
ATOM     29  C   UNL A   1      37.980  19.956  24.904  1.00  0.00     0.001 A 
ATOM     30  C   UNL A   1      36.792  19.242  24.747  1.00  0.00     0.004 A 
ENDBRANCH  23  24
ENDBRANCH  10  23
ENDBRANCH   7   9
ENDBRANCH   4   7
ENDBRANCH   2   3
ENDBRANCH   1   2
BRANCH   1  31
ATOM     31  C   UNL A   1      33.907  30.349  27.300  1.00  0.00     0.023 C 
BRANCH  31  32
ATOM     32  C   UNL A   1      34.858  31.346  27.949  1.00  0.00     0.116 C 
BRANCH  32  33
ATOM     33  N   UNL A   1      34.264  32.619  28.325  1.00  0.00    -0.352 N 
ATOM     34  C   UNL A   1      34.661  33.542  29.283  1.00  0.00     0.251 C 
ATOM     35  H   UNL A   1      33.454  32.864  27.821  1.00  0.00     0.163 HD
ATOM     36  O   UNL A   1      33.943  34.497  29.525  1.00  0.00    -0.269 OA
BRANCH  34  37
ATOM     37  C   UNL A   1      36.014  33.461  29.902  1.00  0.00     0.039 A 
ATOM     38  C   UNL A   1      37.100  33.977  29.177  1.00  0.00     0.014 A 
ATOM     39  C   UNL A   1      36.255  32.723  31.054  1.00  0.00     0.014 A 
ATOM     40  C   UNL A   1      38.389  33.520  29.446  1.00  0.00     0.010 A 
ATOM     41  C   UNL A   1      37.502  32.169  31.244  1.00  0.00     0.010 A 
ATOM     42  C   UNL A   1      38.552  32.513  30.391  1.00  0.00    -0.014 A 
BRANCH  42  43
ATOM     43  C   UNL A   1      39.738  31.678  30.506  1.00  0.00     0.031 A 
ATOM     44  C   UNL A   1      39.776  30.345  29.883  1.00  0.00     0.074 A 
ATOM     45  C   UNL A   1      40.867  32.222  31.012  1.00  0.00     0.049 A 
ATOM     46  N   UNL A   1      40.659  29.445  30.152  1.00  0.00    -0.248 NA
ATOM     47  C   UNL A   1      38.781  29.900  28.920  1.00  0.00     0.031 C 
ATOM     48  C   UNL A   1      42.235  31.720  30.889  1.00  0.00     0.029 A 
ATOM     49  N   UNL A   1      40.969  33.270  31.945  1.00  0.00    -0.354 N 
ATOM     50  C   UNL A   1      40.555  28.456  29.202  1.00  0.00     0.074 A 
ATOM     51  C   UNL A   1      39.312  28.739  28.522  1.00  0.00     0.031 C 
ATOM     52  C   UNL A   1      42.962  32.202  31.909  1.00  0.00     0.029 A 
ATOM     53  C   UNL A   1      42.036  32.884  32.793  1.00  0.00     0.049 A 
ATOM     54  H   UNL A   1      40.422  34.086  31.996  1.00  0.00     0.167 HD
ATOM     55  C   UNL A   1      41.613  27.609  29.027  1.00  0.00     0.037 A 
ATOM     56  C   UNL A   1      41.814  32.544  34.095  1.00  0.00     0.037 A 
ATOM     57  C   UNL A   1      42.643  27.838  30.052  1.00  0.00     0.049 A 
ATOM     58  C   UNL A   1      42.289  31.160  34.486  1.00  0.00     0.074 A 
ATOM     59  C   UNL A   1      43.893  28.436  30.053  1.00  0.00     0.029 A 
ATOM     60  N   UNL A   1      42.309  27.664  31.390  1.00  0.00    -0.354 N 
ATOM     61  N   UNL A   1      42.622  30.215  33.651  1.00  0.00    -0.248 NA
ATOM     62  C   UNL A   1      42.337  30.713  35.871  1.00  0.00     0.031 C 
ATOM     63  C   UNL A   1      44.325  28.574  31.402  1.00  0.00     0.029 A 
ATOM     64  C   UNL A   1      43.338  28.062  32.223  1.00  0.00     0.049 A 
ATOM     65  H   UNL A   1      41.448  27.305  31.705  1.00  0.00     0.167 HD
ATOM     66  C   UNL A   1      42.881  29.046  34.336  1.00  0.00     0.074 A 
ATOM     67  C   UNL A   1      42.670  29.419  35.724  1.00  0.00     0.031 C 
ATOM     68  C   UNL A   1      43.204  27.890  33.669  1.00  0.00     0.037 A 
BRANCH  55  69
ATOM     69  C   UNL A   1      41.846  26.754  27.790  1.00  0.00     0.064 A 
ATOM     70  C   UNL A   1      41.100  25.570  27.579  1.00  0.00     0.173 A 
ATOM     71  C   UNL A   1      42.822  26.995  26.804  1.00  0.00     0.173 A 
ATOM     72  F   UNL A   1      40.050  25.255  28.345  1.00  0.00    -0.203 F 
ATOM     73  C   UNL A   1      41.398  24.657  26.559  1.00  0.00     0.198 A 
ATOM     74  C   UNL A   1      43.154  26.062  25.814  1.00  0.00     0.198 A 
ATOM     75  F   UNL A   1      43.445  28.171  26.702  1.00  0.00    -0.203 F 
ATOM     76  F   UNL A   1      40.659  23.546  26.426  1.00  0.00    -0.200 F 
ATOM     77  C   UNL A   1      42.450  24.884  25.700  1.00  0.00     0.200 A 
ATOM     78  F   UNL A   1      44.158  26.325  24.964  1.00  0.00    -0.200 F 
ATOM     79  F   UNL A   1      42.762  23.994  24.749  1.00  0.00    -0.200 F 
ENDBRANCH  55  69
BRANCH  56  80
ATOM     80  C   UNL A   1      40.625  33.226  34.682  1.00  0.00     0.064 A 
ATOM     81  C   UNL A   1      39.398  32.533  34.728  1.00  0.00     0.173 A 
ATOM     82  C   UNL A   1      40.760  34.354  35.502  1.00  0.00     0.173 A 
ATOM     83  F   UNL A   1      39.211  31.448  33.959  1.00  0.00    -0.203 F 
ATOM     84  C   UNL A   1      38.404  32.878  35.641  1.00  0.00     0.198 A 
ATOM     85  C   UNL A   1      39.750  34.710  36.399  1.00  0.00     0.198 A 
ATOM     86  F   UNL A   1      41.905  35.050  35.518  1.00  0.00    -0.203 F 
ATOM     87  F   UNL A   1      37.297  32.127  35.740  1.00  0.00    -0.200 F 
ATOM     88  C   UNL A   1      38.592  33.951  36.494  1.00  0.00     0.200 A 
ATOM     89  F   UNL A   1      39.942  35.733  37.243  1.00  0.00    -0.200 F 
ATOM     90  F   UNL A   1      37.679  34.233  37.434  1.00  0.00    -0.200 F 
ENDBRANCH  56  80
BRANCH  68  91
ATOM     91  C   UNL A   1      43.407  26.477  34.229  1.00  0.00     0.064 A 
ATOM     92  C   UNL A   1      42.422  25.682  34.834  1.00  0.00     0.173 A 
ATOM     93  C   UNL A   1      44.690  25.857  34.179  1.00  0.00     0.173 A 
ATOM     94  F   UNL A   1      41.211  26.160  35.126  1.00  0.00    -0.203 F 
ATOM     95  C   UNL A   1      42.659  24.357  35.234  1.00  0.00     0.198 A 
ATOM     96  C   UNL A   1      44.932  24.549  34.601  1.00  0.00     0.198 A 
ATOM     97  F   UNL A   1      45.777  26.493  33.723  1.00  0.00    -0.203 F 
ATOM     98  F   UNL A   1      41.657  23.639  35.761  1.00  0.00    -0.200 F 
ATOM     99  C   UNL A   1      43.909  23.787  35.107  1.00  0.00     0.200 A 
ATOM    100  F   UNL A   1      46.168  24.038  34.503  1.00  0.00    -0.200 F 
ATOM    101  F   UNL A   1      44.130  22.524  35.493  1.00  0.00    -0.200 F 
ENDBRANCH  68  91
ENDBRANCH  42  43
ENDBRANCH  34  37
ENDBRANCH  32  33
ENDBRANCH  31  32
ENDBRANCH   1  31
TORSDOF 14
ENDMDL
