MODEL 1
REMARK VINA RESULT:     -13.1      0.000      0.000
REMARK SMILES [H]/N=c1\ccc2c(C)c(CC(=O)NCCCCNC(=O)c3ccc(-c4c5nc(c(-c6c(F)c(F)c(F)c(F)c6F)c6ccc([nH]6)c(-c6c(F)c(F)c(F)c(F)c6F)c6nc(c(-c7c(F)c(F)c(F)c(F)c7F)c7ccc4[nH]7)C=C6)C=C5)cc3)c(O)oc-2c1
REMARK SMILES IDX 15 1 14 2 13 3 11 4 12 5 10 7 9 8 8 9 7 10 6 11 5 12 87 13
REMARK SMILES IDX 84 14 4 15 88 16 86 17 3 18 2 19 1 20 85 21 16 23 17 24
REMARK SMILES IDX 18 25 19 26 20 28 21 29 22 30 83 31 23 32 82 33 24 34 25 35
REMARK SMILES IDX 26 36 76 37 27 38 81 39 75 40 77 41 28 42 80 43 74 44 73 45
REMARK SMILES IDX 29 47 61 48 41 49 60 50 42 51 45 52 59 53 78 54 43 55 44 56
REMARK SMILES IDX 58 58 79 59 46 60 30 61 31 62 39 63 32 64 33 65 37 66 40 67
REMARK SMILES IDX 34 68 35 69 38 70 36 71 62 72 63 73 71 74 64 75 65 76 69 77
REMARK SMILES IDX 72 78 66 79 67 80 70 81 68 82 47 83 48 84 56 85 49 86 50 87
REMARK SMILES IDX 54 88 57 89 51 90 52 91 55 92 53 93
REMARK H PARENT 13 6 85 22 18 27 77 46 45 57
REMARK Flexibility Score: inf
ROOT
ATOM      1  C   UNL A   1      32.115  30.346  26.664  1.00  0.00     0.023 C 
ENDROOT
BRANCH   1   2
ATOM      2  C   UNL A   1      31.625  29.750  25.344  1.00  0.00     0.116 C 
BRANCH   2   3
ATOM      3  N   UNL A   1      32.670  29.716  24.340  1.00  0.00    -0.356 N 
ATOM      4  C   UNL A   1      33.067  28.686  23.540  1.00  0.00     0.224 C 
ATOM      5  O   UNL A   1      34.011  28.879  22.771  1.00  0.00    -0.275 OA
ATOM      6  H   UNL A   1      33.165  30.559  24.218  1.00  0.00     0.163 HD
BRANCH   4   7
ATOM      7  C   UNL A   1      32.324  27.351  23.558  1.00  0.00     0.143 C 
BRANCH   7   8
ATOM      8  C   UNL A   1      33.207  26.127  23.728  1.00  0.00     0.046 A 
ATOM      9  C   UNL A   1      33.048  26.394  26.276  1.00  0.00     0.046 C 
ATOM     10  C   UNL A   1      33.449  25.562  25.076  1.00  0.00    -0.029 A 
ATOM     11  C   UNL A   1      34.027  24.338  25.189  1.00  0.00     0.021 A 
ATOM     12  C   UNL A   1      34.197  23.660  26.475  1.00  0.00     0.014 A 
ATOM     13  C   UNL A   1      34.494  23.645  23.985  1.00  0.00     0.140 A 
ATOM     14  C   UNL A   1      33.741  25.494  22.659  1.00  0.00     0.286 A 
ATOM     15  C   UNL A   1      34.737  22.436  26.559  1.00  0.00     0.028 A 
ATOM     16  C   UNL A   1      35.041  22.424  24.045  1.00  0.00     0.075 A 
ATOM     17  O   UNL A   1      34.404  24.289  22.765  1.00  0.00    -0.425 OA
ATOM     18  C   UNL A   1      35.191  21.723  25.339  1.00  0.00     0.058 A 
ATOM     19  N   UNL A   1      35.704  20.538  25.370  1.00  0.00    -0.301 NA
ATOM     20  H   UNL A   1      35.805  20.067  26.229  1.00  0.00     0.188 HD
BRANCH  14  21
ATOM     21  O   UNL A   1      33.616  25.976  21.373  1.00  0.00    -0.480 OA
ATOM     22  H   UNL A   1      33.886  25.449  20.646  1.00  0.00     0.297 HD
ENDBRANCH  14  21
ENDBRANCH   7   8
ENDBRANCH   4   7
ENDBRANCH   2   3
ENDBRANCH   1   2
BRANCH   1  23
ATOM     23  C   UNL A   1      31.734  31.811  26.891  1.00  0.00     0.023 C 
BRANCH  23  24
ATOM     24  C   UNL A   1      32.876  32.723  27.323  1.00  0.00     0.116 C 
BRANCH  24  25
ATOM     25  N   UNL A   1      32.449  34.068  27.676  1.00  0.00    -0.352 N 
ATOM     26  C   UNL A   1      33.000  34.920  28.606  1.00  0.00     0.251 C 
ATOM     27  H   UNL A   1      31.667  34.413  27.187  1.00  0.00     0.163 HD
ATOM     28  O   UNL A   1      32.476  36.001  28.853  1.00  0.00    -0.269 OA
BRANCH  26  29
ATOM     29  C   UNL A   1      34.206  34.495  29.348  1.00  0.00     0.039 A 
ATOM     30  C   UNL A   1      35.478  34.678  28.800  1.00  0.00     0.014 A 
ATOM     31  C   UNL A   1      34.054  33.847  30.576  1.00  0.00     0.014 A 
ATOM     32  C   UNL A   1      36.575  34.066  29.395  1.00  0.00     0.010 A 
ATOM     33  C   UNL A   1      35.170  33.297  31.212  1.00  0.00     0.010 A 
ATOM     34  C   UNL A   1      36.431  33.355  30.599  1.00  0.00    -0.014 A 
BRANCH  34  35
ATOM     35  C   UNL A   1      37.608  32.655  31.174  1.00  0.00     0.031 A 
ATOM     36  C   UNL A   1      38.087  32.979  32.564  1.00  0.00     0.074 A 
ATOM     37  C   UNL A   1      38.197  31.669  30.471  1.00  0.00     0.049 A 
ATOM     38  N   UNL A   1      39.076  32.450  33.241  1.00  0.00    -0.248 NA
ATOM     39  C   UNL A   1      37.361  34.031  33.296  1.00  0.00     0.031 C 
ATOM     40  C   UNL A   1      37.808  31.247  29.125  1.00  0.00     0.029 A 
ATOM     41  N   UNL A   1      39.224  30.821  30.803  1.00  0.00    -0.354 N 
ATOM     42  C   UNL A   1      39.099  33.108  34.464  1.00  0.00     0.074 A 
ATOM     43  C   UNL A   1      38.043  34.096  34.433  1.00  0.00     0.031 C 
ATOM     44  C   UNL A   1      38.543  30.183  28.768  1.00  0.00     0.029 A 
ATOM     45  C   UNL A   1      39.494  29.884  29.834  1.00  0.00     0.049 A 
ATOM     46  H   UNL A   1      39.719  30.877  31.651  1.00  0.00     0.167 HD
ATOM     47  C   UNL A   1      39.917  32.896  35.521  1.00  0.00     0.037 A 
ATOM     48  C   UNL A   1      40.411  28.899  29.806  1.00  0.00     0.037 A 
ATOM     49  C   UNL A   1      40.951  31.896  35.565  1.00  0.00     0.049 A 
ATOM     50  C   UNL A   1      41.334  28.720  30.979  1.00  0.00     0.074 A 
ATOM     51  C   UNL A   1      41.834  31.613  36.593  1.00  0.00     0.029 A 
ATOM     52  N   UNL A   1      41.234  31.008  34.539  1.00  0.00    -0.354 N 
ATOM     53  N   UNL A   1      41.354  29.360  32.120  1.00  0.00    -0.248 NA
ATOM     54  C   UNL A   1      42.372  27.686  30.852  1.00  0.00     0.031 C 
ATOM     55  C   UNL A   1      42.667  30.570  36.180  1.00  0.00     0.029 A 
ATOM     56  C   UNL A   1      42.282  30.181  34.909  1.00  0.00     0.049 A 
ATOM     57  H   UNL A   1      40.759  30.969  33.677  1.00  0.00     0.167 HD
ATOM     58  C   UNL A   1      42.392  28.804  32.852  1.00  0.00     0.074 A 
ATOM     59  C   UNL A   1      42.969  27.757  32.034  1.00  0.00     0.031 C 
ATOM     60  C   UNL A   1      42.834  29.137  34.088  1.00  0.00     0.037 A 
BRANCH  47  61
ATOM     61  C   UNL A   1      39.736  33.753  36.738  1.00  0.00     0.064 A 
ATOM     62  C   UNL A   1      40.310  35.030  36.821  1.00  0.00     0.173 A 
ATOM     63  C   UNL A   1      38.896  33.339  37.782  1.00  0.00     0.173 A 
ATOM     64  F   UNL A   1      41.127  35.467  35.851  1.00  0.00    -0.203 F 
ATOM     65  C   UNL A   1      40.048  35.862  37.906  1.00  0.00     0.198 A 
ATOM     66  C   UNL A   1      38.621  34.181  38.856  1.00  0.00     0.198 A 
ATOM     67  F   UNL A   1      38.319  32.129  37.745  1.00  0.00    -0.203 F 
ATOM     68  F   UNL A   1      40.616  37.074  37.972  1.00  0.00    -0.200 F 
ATOM     69  C   UNL A   1      39.196  35.442  38.917  1.00  0.00     0.200 A 
ATOM     70  F   UNL A   1      37.787  33.779  39.826  1.00  0.00    -0.200 F 
ATOM     71  F   UNL A   1      38.928  36.253  39.950  1.00  0.00    -0.200 F 
ENDBRANCH  47  61
BRANCH  48  72
ATOM     72  C   UNL A   1      40.495  27.998  28.628  1.00  0.00     0.064 A 
ATOM     73  C   UNL A   1      41.249  28.356  27.503  1.00  0.00     0.173 A 
ATOM     74  C   UNL A   1      39.826  26.766  28.604  1.00  0.00     0.173 A 
ATOM     75  F   UNL A   1      41.888  29.535  27.472  1.00  0.00    -0.203 F 
ATOM     76  C   UNL A   1      41.322  27.520  26.392  1.00  0.00     0.198 A 
ATOM     77  C   UNL A   1      39.921  25.918  27.503  1.00  0.00     0.198 A 
ATOM     78  F   UNL A   1      39.091  26.378  29.657  1.00  0.00    -0.203 F 
ATOM     79  F   UNL A   1      42.019  27.902  25.313  1.00  0.00    -0.200 F 
ATOM     80  C   UNL A   1      40.664  26.299  26.395  1.00  0.00     0.200 A 
ATOM     81  F   UNL A   1      39.295  24.735  27.515  1.00  0.00    -0.200 F 
ATOM     82  F   UNL A   1      40.739  25.492  25.328  1.00  0.00    -0.200 F 
ENDBRANCH  48  72
BRANCH  60  83
ATOM     83  C   UNL A   1      43.982  28.351  34.645  1.00  0.00     0.064 A 
ATOM     84  C   UNL A   1      45.305  28.790  34.495  1.00  0.00     0.173 A 
ATOM     85  C   UNL A   1      43.751  27.186  35.391  1.00  0.00     0.173 A 
ATOM     86  F   UNL A   1      45.573  29.892  33.779  1.00  0.00    -0.203 F 
ATOM     87  C   UNL A   1      46.359  28.081  35.063  1.00  0.00     0.198 A 
ATOM     88  C   UNL A   1      44.807  26.493  35.976  1.00  0.00     0.198 A 
ATOM     89  F   UNL A   1      42.502  26.732  35.567  1.00  0.00    -0.203 F 
ATOM     90  F   UNL A   1      47.620  28.501  34.883  1.00  0.00    -0.200 F 
ATOM     91  C   UNL A   1      46.109  26.939  35.809  1.00  0.00     0.200 A 
ATOM     92  F   UNL A   1      44.563  25.396  36.705  1.00  0.00    -0.200 F 
ATOM     93  F   UNL A   1      47.125  26.264  36.364  1.00  0.00    -0.200 F 
ENDBRANCH  60  83
ENDBRANCH  34  35
ENDBRANCH  26  29
ENDBRANCH  24  25
ENDBRANCH  23  24
ENDBRANCH   1  23
TORSDOF 13
ENDMDL
MODEL 2
REMARK VINA RESULT:     -13.0      0.842      1.818
REMARK SMILES [H]/N=c1\ccc2c(C)c(CC(=O)NCCCCNC(=O)c3ccc(-c4c5nc(c(-c6c(F)c(F)c(F)c(F)c6F)c6ccc([nH]6)c(-c6c(F)c(F)c(F)c(F)c6F)c6nc(c(-c7c(F)c(F)c(F)c(F)c7F)c7ccc4[nH]7)C=C6)C=C5)cc3)c(O)oc-2c1
REMARK SMILES IDX 15 1 14 2 13 3 11 4 12 5 10 7 9 8 8 9 7 10 6 11 5 12 87 13
REMARK SMILES IDX 84 14 4 15 88 16 86 17 3 18 2 19 1 20 85 21 16 23 17 24
REMARK SMILES IDX 18 25 19 26 20 28 21 29 22 30 83 31 23 32 82 33 24 34 25 35
REMARK SMILES IDX 26 36 76 37 27 38 81 39 75 40 77 41 28 42 80 43 74 44 73 45
REMARK SMILES IDX 29 47 61 48 41 49 60 50 42 51 45 52 59 53 78 54 43 55 44 56
REMARK SMILES IDX 58 58 79 59 46 60 30 61 31 62 39 63 32 64 33 65 37 66 40 67
REMARK SMILES IDX 34 68 35 69 38 70 36 71 62 72 63 73 71 74 64 75 65 76 69 77
REMARK SMILES IDX 72 78 66 79 67 80 70 81 68 82 47 83 48 84 56 85 49 86 50 87
REMARK SMILES IDX 54 88 57 89 51 90 52 91 55 92 53 93
REMARK H PARENT 13 6 85 22 18 27 77 46 45 57
REMARK Flexibility Score: inf
ROOT
ATOM      1  C   UNL A   1      31.843  30.459  26.742  1.00  0.00     0.023 C 
ENDROOT
BRANCH   1   2
ATOM      2  C   UNL A   1      32.765  29.988  25.616  1.00  0.00     0.116 C 
BRANCH   2   3
ATOM      3  N   UNL A   1      32.031  29.668  24.408  1.00  0.00    -0.356 N 
ATOM      4  C   UNL A   1      32.391  28.867  23.365  1.00  0.00     0.224 C 
ATOM      5  O   UNL A   1      31.611  28.763  22.417  1.00  0.00    -0.275 OA
ATOM      6  H   UNL A   1      31.146  30.091  24.328  1.00  0.00     0.163 HD
BRANCH   4   7
ATOM      7  C   UNL A   1      33.698  28.075  23.402  1.00  0.00     0.143 C 
BRANCH   7   8
ATOM      8  C   UNL A   1      33.535  26.573  23.550  1.00  0.00     0.046 A 
ATOM      9  C   UNL A   1      34.003  26.792  26.064  1.00  0.00     0.046 C 
ATOM     10  C   UNL A   1      33.541  25.950  24.894  1.00  0.00    -0.029 A 
ATOM     11  C   UNL A   1      33.148  24.656  25.028  1.00  0.00     0.021 A 
ATOM     12  C   UNL A   1      33.016  24.001  26.329  1.00  0.00     0.014 A 
ATOM     13  C   UNL A   1      32.826  23.871  23.833  1.00  0.00     0.140 A 
ATOM     14  C   UNL A   1      33.323  25.782  22.473  1.00  0.00     0.286 A 
ATOM     15  C   UNL A   1      32.591  22.734  26.440  1.00  0.00     0.028 A 
ATOM     16  C   UNL A   1      32.405  22.602  23.918  1.00  0.00     0.075 A 
ATOM     17  O   UNL A   1      33.003  24.445  22.588  1.00  0.00    -0.425 OA
ATOM     18  C   UNL A   1      32.244  21.944  25.232  1.00  0.00     0.058 A 
ATOM     19  N   UNL A   1      31.819  20.726  25.291  1.00  0.00    -0.301 NA
ATOM     20  H   UNL A   1      31.710  20.284  26.164  1.00  0.00     0.188 HD
BRANCH  14  21
ATOM     21  O   UNL A   1      33.355  26.263  21.182  1.00  0.00    -0.480 OA
ATOM     22  H   UNL A   1      34.106  26.734  20.875  1.00  0.00     0.297 HD
ENDBRANCH  14  21
ENDBRANCH   7   8
ENDBRANCH   4   7
ENDBRANCH   2   3
ENDBRANCH   1   2
BRANCH   1  23
ATOM     23  C   UNL A   1      31.577  31.967  26.770  1.00  0.00     0.023 C 
BRANCH  23  24
ATOM     24  C   UNL A   1      32.703  32.817  27.344  1.00  0.00     0.116 C 
BRANCH  24  25
ATOM     25  N   UNL A   1      32.311  34.187  27.638  1.00  0.00    -0.352 N 
ATOM     26  C   UNL A   1      32.887  35.066  28.527  1.00  0.00     0.251 C 
ATOM     27  H   UNL A   1      31.535  34.529  27.137  1.00  0.00     0.163 HD
ATOM     28  O   UNL A   1      32.390  36.169  28.728  1.00  0.00    -0.269 OA
BRANCH  26  29
ATOM     29  C   UNL A   1      34.086  34.645  29.282  1.00  0.00     0.039 A 
ATOM     30  C   UNL A   1      35.356  34.737  28.708  1.00  0.00     0.014 A 
ATOM     31  C   UNL A   1      33.926  34.092  30.555  1.00  0.00     0.014 A 
ATOM     32  C   UNL A   1      36.436  34.124  29.332  1.00  0.00     0.010 A 
ATOM     33  C   UNL A   1      35.029  33.543  31.215  1.00  0.00     0.010 A 
ATOM     34  C   UNL A   1      36.282  33.506  30.584  1.00  0.00    -0.014 A 
BRANCH  34  35
ATOM     35  C   UNL A   1      37.439  32.800  31.193  1.00  0.00     0.031 A 
ATOM     36  C   UNL A   1      37.896  33.143  32.586  1.00  0.00     0.074 A 
ATOM     37  C   UNL A   1      38.027  31.794  30.519  1.00  0.00     0.049 A 
ATOM     38  N   UNL A   1      38.866  32.613  33.291  1.00  0.00    -0.248 NA
ATOM     39  C   UNL A   1      37.172  34.218  33.286  1.00  0.00     0.031 C 
ATOM     40  C   UNL A   1      37.657  31.354  29.174  1.00  0.00     0.029 A 
ATOM     41  N   UNL A   1      39.035  30.938  30.884  1.00  0.00    -0.354 N 
ATOM     42  C   UNL A   1      38.875  33.292  34.502  1.00  0.00     0.074 A 
ATOM     43  C   UNL A   1      37.834  34.294  34.433  1.00  0.00     0.031 C 
ATOM     44  C   UNL A   1      38.383  30.274  28.849  1.00  0.00     0.029 A 
ATOM     45  C   UNL A   1      39.311  29.981  29.938  1.00  0.00     0.049 A 
ATOM     46  H   UNL A   1      39.516  31.003  31.741  1.00  0.00     0.167 HD
ATOM     47  C   UNL A   1      39.672  33.089  35.577  1.00  0.00     0.037 A 
ATOM     48  C   UNL A   1      40.214  28.983  29.944  1.00  0.00     0.037 A 
ATOM     49  C   UNL A   1      40.691  32.075  35.658  1.00  0.00     0.049 A 
ATOM     50  C   UNL A   1      41.113  28.812  31.137  1.00  0.00     0.074 A 
ATOM     51  C   UNL A   1      41.550  31.799  36.707  1.00  0.00     0.029 A 
ATOM     52  N   UNL A   1      40.979  31.165  34.653  1.00  0.00    -0.354 N 
ATOM     53  N   UNL A   1      41.121  29.474  32.267  1.00  0.00    -0.248 NA
ATOM     54  C   UNL A   1      42.139  27.763  31.047  1.00  0.00     0.031 C 
ATOM     55  C   UNL A   1      42.377  30.738  36.328  1.00  0.00     0.029 A 
ATOM     56  C   UNL A   1      42.009  30.332  35.057  1.00  0.00     0.049 A 
ATOM     57  H   UNL A   1      40.520  31.118  33.784  1.00  0.00     0.167 HD
ATOM     58  C   UNL A   1      42.138  28.916  33.027  1.00  0.00     0.074 A 
ATOM     59  C   UNL A   1      42.715  27.847  32.238  1.00  0.00     0.031 C 
ATOM     60  C   UNL A   1      42.562  29.265  34.265  1.00  0.00     0.037 A 
BRANCH  47  61
ATOM     61  C   UNL A   1      39.480  33.970  36.775  1.00  0.00     0.064 A 
ATOM     62  C   UNL A   1      38.710  33.553  37.870  1.00  0.00     0.173 A 
ATOM     63  C   UNL A   1      40.156  35.196  36.874  1.00  0.00     0.173 A 
ATOM     64  F   UNL A   1      38.038  32.393  37.819  1.00  0.00    -0.203 F 
ATOM     65  C   UNL A   1      38.625  34.330  39.022  1.00  0.00     0.198 A 
ATOM     66  C   UNL A   1      40.085  35.961  38.034  1.00  0.00     0.198 A 
ATOM     67  F   UNL A   1      40.910  35.634  35.855  1.00  0.00    -0.203 F 
ATOM     68  F   UNL A   1      37.874  33.919  40.053  1.00  0.00    -0.200 F 
ATOM     69  C   UNL A   1      39.321  35.528  39.108  1.00  0.00     0.200 A 
ATOM     70  F   UNL A   1      40.767  37.111  38.120  1.00  0.00    -0.200 F 
ATOM     71  F   UNL A   1      39.255  36.263  40.225  1.00  0.00    -0.200 F 
ENDBRANCH  47  61
BRANCH  48  72
ATOM     72  C   UNL A   1      40.307  28.061  28.784  1.00  0.00     0.064 A 
ATOM     73  C   UNL A   1      39.654  26.821  28.798  1.00  0.00     0.173 A 
ATOM     74  C   UNL A   1      41.046  28.399  27.641  1.00  0.00     0.173 A 
ATOM     75  F   UNL A   1      38.953  26.445  29.879  1.00  0.00    -0.203 F 
ATOM     76  C   UNL A   1      39.746  25.949  27.717  1.00  0.00     0.198 A 
ATOM     77  C   UNL A   1      41.116  27.537  26.550  1.00  0.00     0.198 A 
ATOM     78  F   UNL A   1      41.689  29.574  27.580  1.00  0.00    -0.203 F 
ATOM     79  F   UNL A   1      39.144  24.752  27.770  1.00  0.00    -0.200 F 
ATOM     80  C   UNL A   1      40.472  26.309  26.591  1.00  0.00     0.200 A 
ATOM     81  F   UNL A   1      41.806  27.895  25.459  1.00  0.00    -0.200 F 
ATOM     82  F   UNL A   1      40.555  25.472  25.548  1.00  0.00    -0.200 F 
ENDBRANCH  48  72
BRANCH  60  83
ATOM     83  C   UNL A   1      43.688  28.474  34.857  1.00  0.00     0.064 A 
ATOM     84  C   UNL A   1      45.020  28.894  34.726  1.00  0.00     0.173 A 
ATOM     85  C   UNL A   1      43.428  27.325  35.617  1.00  0.00     0.173 A 
ATOM     86  F   UNL A   1      45.316  29.980  33.997  1.00  0.00    -0.203 F 
ATOM     87  C   UNL A   1      46.053  28.181  35.325  1.00  0.00     0.198 A 
ATOM     88  C   UNL A   1      44.463  26.628  36.234  1.00  0.00     0.198 A 
ATOM     89  F   UNL A   1      42.170  26.890  35.776  1.00  0.00    -0.203 F 
ATOM     90  F   UNL A   1      47.323  28.582  35.163  1.00  0.00    -0.200 F 
ATOM     91  C   UNL A   1      45.774  27.055  36.085  1.00  0.00     0.200 A 
ATOM     92  F   UNL A   1      44.191  25.546  36.976  1.00  0.00    -0.200 F 
ATOM     93  F   UNL A   1      46.771  26.376  36.671  1.00  0.00    -0.200 F 
ENDBRANCH  60  83
ENDBRANCH  34  35
ENDBRANCH  26  29
ENDBRANCH  24  25
ENDBRANCH  23  24
ENDBRANCH   1  23
TORSDOF 13
ENDMDL
MODEL 3
REMARK VINA RESULT:     -12.9      5.369     11.141
REMARK SMILES [H]/N=c1\ccc2c(C)c(CC(=O)NCCCCNC(=O)c3ccc(-c4c5nc(c(-c6c(F)c(F)c(F)c(F)c6F)c6ccc([nH]6)c(-c6c(F)c(F)c(F)c(F)c6F)c6nc(c(-c7c(F)c(F)c(F)c(F)c7F)c7ccc4[nH]7)C=C6)C=C5)cc3)c(O)oc-2c1
REMARK SMILES IDX 15 1 14 2 13 3 11 4 12 5 10 7 9 8 8 9 7 10 6 11 5 12 87 13
REMARK SMILES IDX 84 14 4 15 88 16 86 17 3 18 2 19 1 20 85 21 16 23 17 24
REMARK SMILES IDX 18 25 19 26 20 28 21 29 22 30 83 31 23 32 82 33 24 34 25 35
REMARK SMILES IDX 26 36 76 37 27 38 81 39 75 40 77 41 28 42 80 43 74 44 73 45
REMARK SMILES IDX 29 47 61 48 41 49 60 50 42 51 45 52 59 53 78 54 43 55 44 56
REMARK SMILES IDX 58 58 79 59 46 60 30 61 31 62 39 63 32 64 33 65 37 66 40 67
REMARK SMILES IDX 34 68 35 69 38 70 36 71 62 72 63 73 71 74 64 75 65 76 69 77
REMARK SMILES IDX 72 78 66 79 67 80 70 81 68 82 47 83 48 84 56 85 49 86 50 87
REMARK SMILES IDX 54 88 57 89 51 90 52 91 55 92 53 93
REMARK H PARENT 13 6 85 22 18 27 77 46 45 57
REMARK Flexibility Score: inf
ROOT
ATOM      1  C   UNL A   1      36.940  21.226  25.006  1.00  0.00     0.023 C 
ENDROOT
BRANCH   1   2
ATOM      2  C   UNL A   1      35.473  20.803  25.094  1.00  0.00     0.116 C 
BRANCH   2   3
ATOM      3  N   UNL A   1      34.910  21.058  26.405  1.00  0.00    -0.356 N 
ATOM      4  C   UNL A   1      33.835  21.821  26.750  1.00  0.00     0.224 C 
ATOM      5  O   UNL A   1      33.552  21.919  27.946  1.00  0.00    -0.275 OA
ATOM      6  H   UNL A   1      35.372  20.616  27.155  1.00  0.00     0.163 HD
BRANCH   4   7
ATOM      7  C   UNL A   1      32.972  22.486  25.679  1.00  0.00     0.143 C 
BRANCH   7   8
ATOM      8  C   UNL A   1      32.708  23.966  25.894  1.00  0.00     0.046 A 
ATOM      9  C   UNL A   1      34.827  24.515  24.553  1.00  0.00     0.046 C 
ATOM     10  C   UNL A   1      33.546  24.980  25.213  1.00  0.00    -0.029 A 
ATOM     11  C   UNL A   1      33.149  26.280  25.214  1.00  0.00     0.021 A 
ATOM     12  C   UNL A   1      33.856  27.323  24.471  1.00  0.00     0.014 A 
ATOM     13  C   UNL A   1      31.958  26.671  25.974  1.00  0.00     0.140 A 
ATOM     14  C   UNL A   1      31.675  24.391  26.658  1.00  0.00     0.286 A 
ATOM     15  C   UNL A   1      33.425  28.592  24.457  1.00  0.00     0.028 A 
ATOM     16  C   UNL A   1      31.511  27.933  25.979  1.00  0.00     0.075 A 
ATOM     17  O   UNL A   1      31.308  25.718  26.736  1.00  0.00    -0.425 OA
ATOM     18  C   UNL A   1      32.207  28.986  25.208  1.00  0.00     0.058 A 
ATOM     19  N   UNL A   1      31.746  30.193  25.213  1.00  0.00    -0.301 NA
ATOM     20  H   UNL A   1      32.206  30.898  24.700  1.00  0.00     0.188 HD
BRANCH  14  21
ATOM     21  O   UNL A   1      30.877  23.523  27.373  1.00  0.00    -0.480 OA
ATOM     22  H   UNL A   1      31.192  23.146  28.172  1.00  0.00     0.297 HD
ENDBRANCH  14  21
ENDBRANCH   7   8
ENDBRANCH   4   7
ENDBRANCH   2   3
ENDBRANCH   1   2
BRANCH   1  23
ATOM     23  C   UNL A   1      37.945  20.071  24.993  1.00  0.00     0.023 C 
BRANCH  23  24
ATOM     24  C   UNL A   1      39.239  20.322  25.756  1.00  0.00     0.116 C 
BRANCH  24  25
ATOM     25  N   UNL A   1      40.136  19.176  25.781  1.00  0.00    -0.352 N 
ATOM     26  C   UNL A   1      41.484  19.156  26.057  1.00  0.00     0.251 C 
ATOM     27  H   UNL A   1      39.726  18.305  25.575  1.00  0.00     0.163 HD
ATOM     28  O   UNL A   1      42.128  18.117  25.958  1.00  0.00    -0.269 OA
BRANCH  26  29
ATOM     29  C   UNL A   1      42.164  20.417  26.423  1.00  0.00     0.039 A 
ATOM     30  C   UNL A   1      42.212  20.837  27.754  1.00  0.00     0.014 A 
ATOM     31  C   UNL A   1      42.702  21.216  25.411  1.00  0.00     0.014 A 
ATOM     32  C   UNL A   1      42.642  22.125  28.051  1.00  0.00     0.010 A 
ATOM     33  C   UNL A   1      43.203  22.483  25.722  1.00  0.00     0.010 A 
ATOM     34  C   UNL A   1      43.126  22.969  27.036  1.00  0.00    -0.014 A 
BRANCH  34  35
ATOM     35  C   UNL A   1      43.514  24.363  27.375  1.00  0.00     0.031 A 
ATOM     36  C   UNL A   1      44.909  24.856  27.099  1.00  0.00     0.074 A 
ATOM     37  C   UNL A   1      42.583  25.207  27.857  1.00  0.00     0.049 A 
ATOM     38  N   UNL A   1      45.418  26.048  27.299  1.00  0.00    -0.248 NA
ATOM     39  C   UNL A   1      45.860  23.894  26.520  1.00  0.00     0.031 C 
ATOM     40  C   UNL A   1      41.192  24.852  28.143  1.00  0.00     0.029 A 
ATOM     41  N   UNL A   1      42.654  26.543  28.160  1.00  0.00    -0.354 N 
ATOM     42  C   UNL A   1      46.741  25.974  26.884  1.00  0.00     0.074 A 
ATOM     43  C   UNL A   1      46.971  24.615  26.445  1.00  0.00     0.031 C 
ATOM     44  C   UNL A   1      40.526  25.953  28.521  1.00  0.00     0.029 A 
ATOM     45  C   UNL A   1      41.455  27.079  28.562  1.00  0.00     0.049 A 
ATOM     46  H   UNL A   1      43.485  27.068  28.097  1.00  0.00     0.167 HD
ATOM     47  C   UNL A   1      47.674  26.954  26.859  1.00  0.00     0.037 A 
ATOM     48  C   UNL A   1      41.139  28.336  28.928  1.00  0.00     0.037 A 
ATOM     49  C   UNL A   1      47.439  28.314  27.270  1.00  0.00     0.049 A 
ATOM     50  C   UNL A   1      42.210  29.391  28.932  1.00  0.00     0.074 A 
ATOM     51  C   UNL A   1      48.328  29.375  27.285  1.00  0.00     0.029 A 
ATOM     52  N   UNL A   1      46.226  28.801  27.729  1.00  0.00    -0.354 N 
ATOM     53  N   UNL A   1      43.460  29.301  28.553  1.00  0.00    -0.248 NA
ATOM     54  C   UNL A   1      41.826  30.720  29.427  1.00  0.00     0.031 C 
ATOM     55  C   UNL A   1      47.659  30.499  27.777  1.00  0.00     0.029 A 
ATOM     56  C   UNL A   1      46.346  30.147  28.036  1.00  0.00     0.049 A 
ATOM     57  H   UNL A   1      45.401  28.271  27.822  1.00  0.00     0.167 HD
ATOM     58  C   UNL A   1      44.009  30.559  28.750  1.00  0.00     0.074 A 
ATOM     59  C   UNL A   1      42.951  31.403  29.265  1.00  0.00     0.031 C 
ATOM     60  C   UNL A   1      45.280  30.975  28.534  1.00  0.00     0.037 A 
BRANCH  47  61
ATOM     61  C   UNL A   1      49.046  26.612  26.363  1.00  0.00     0.064 A 
ATOM     62  C   UNL A   1      49.424  26.862  25.036  1.00  0.00     0.173 A 
ATOM     63  C   UNL A   1      50.023  26.127  27.246  1.00  0.00     0.173 A 
ATOM     64  F   UNL A   1      48.522  27.316  24.152  1.00  0.00    -0.203 F 
ATOM     65  C   UNL A   1      50.731  26.641  24.611  1.00  0.00     0.198 A 
ATOM     66  C   UNL A   1      51.334  25.927  26.823  1.00  0.00     0.198 A 
ATOM     67  F   UNL A   1      49.712  25.879  28.527  1.00  0.00    -0.203 F 
ATOM     68  F   UNL A   1      51.068  26.875  23.335  1.00  0.00    -0.200 F 
ATOM     69  C   UNL A   1      51.688  26.184  25.507  1.00  0.00     0.200 A 
ATOM     70  F   UNL A   1      52.260  25.498  27.692  1.00  0.00    -0.200 F 
ATOM     71  F   UNL A   1      52.950  25.994  25.101  1.00  0.00    -0.200 F 
ENDBRANCH  47  61
BRANCH  48  72
ATOM     72  C   UNL A   1      39.744  28.667  29.313  1.00  0.00     0.064 A 
ATOM     73  C   UNL A   1      39.299  28.480  30.629  1.00  0.00     0.173 A 
ATOM     74  C   UNL A   1      38.831  29.176  28.379  1.00  0.00     0.173 A 
ATOM     75  F   UNL A   1      40.131  27.975  31.552  1.00  0.00    -0.203 F 
ATOM     76  C   UNL A   1      37.989  28.780  30.993  1.00  0.00     0.198 A 
ATOM     77  C   UNL A   1      37.528  29.500  28.750  1.00  0.00     0.198 A 
ATOM     78  F   UNL A   1      39.209  29.372  27.107  1.00  0.00    -0.203 F 
ATOM     79  F   UNL A   1      37.576  28.556  32.248  1.00  0.00    -0.200 F 
ATOM     80  C   UNL A   1      37.106  29.295  30.055  1.00  0.00     0.200 A 
ATOM     81  F   UNL A   1      36.683  30.010  27.845  1.00  0.00    -0.200 F 
ATOM     82  F   UNL A   1      35.847  29.589  30.407  1.00  0.00    -0.200 F 
ENDBRANCH  48  72
BRANCH  60  83
ATOM     83  C   UNL A   1      45.596  32.409  28.829  1.00  0.00     0.064 A 
ATOM     84  C   UNL A   1      46.115  32.799  30.071  1.00  0.00     0.173 A 
ATOM     85  C   UNL A   1      45.442  33.390  27.838  1.00  0.00     0.173 A 
ATOM     86  F   UNL A   1      46.267  31.897  31.052  1.00  0.00    -0.203 F 
ATOM     87  C   UNL A   1      46.456  34.125  30.316  1.00  0.00     0.198 A 
ATOM     88  C   UNL A   1      45.805  34.711  28.081  1.00  0.00     0.198 A 
ATOM     89  F   UNL A   1      44.955  33.062  26.632  1.00  0.00    -0.203 F 
ATOM     90  F   UNL A   1      46.922  34.483  31.521  1.00  0.00    -0.200 F 
ATOM     91  C   UNL A   1      46.309  35.078  29.319  1.00  0.00     0.200 A 
ATOM     92  F   UNL A   1      45.673  35.629  27.113  1.00  0.00    -0.200 F 
ATOM     93  F   UNL A   1      46.648  36.353  29.554  1.00  0.00    -0.200 F 
ENDBRANCH  60  83
ENDBRANCH  34  35
ENDBRANCH  26  29
ENDBRANCH  24  25
ENDBRANCH  23  24
ENDBRANCH   1  23
TORSDOF 13
ENDMDL
