MODEL 1
REMARK VINA RESULT:     -12.5      0.000      0.000
REMARK SMILES CC[C@](C)(C(=O)NCCCCNC(=O)c1ccc(-c2c3nc(c(-c4c(F)c(F)c(F)c(F)c4F)c4ccc([nH]4)c(-c4c(F)c(F)c(F)c(F)c4F)c4nc(c(-c5c(F)c(F)c(F)c(F)c5F)c5ccc2[nH]5)C=C4)C=C3)cc1)n1nnnc1Cc1cccc(Cl)c1
REMARK SMILES IDX 9 1 8 2 7 3 5 4 6 5 3 7 4 8 2 9 1 10 78 11 79 12 82 13 80 14
REMARK SMILES IDX 81 15 83 16 84 17 85 18 90 19 86 20 88 21 87 22 89 23 10 24
REMARK SMILES IDX 11 25 12 26 13 27 14 29 15 30 16 31 77 32 17 33 76 34 18 35
REMARK SMILES IDX 19 36 20 37 70 38 21 39 75 40 69 41 71 42 22 43 74 44 68 45
REMARK SMILES IDX 67 46 23 48 55 49 35 50 54 51 36 52 39 53 53 54 72 55 37 56
REMARK SMILES IDX 38 57 52 59 73 60 40 61 24 62 25 63 33 64 26 65 27 66 31 67
REMARK SMILES IDX 34 68 28 69 29 70 32 71 30 72 56 73 57 74 65 75 58 76 59 77
REMARK SMILES IDX 63 78 66 79 60 80 61 81 64 82 62 83 41 84 42 85 50 86 43 87
REMARK SMILES IDX 44 88 48 89 51 90 45 91 46 92 49 93 47 94
REMARK H PARENT 7 6 12 28 71 47 39 58
REMARK Flexibility Score: inf
ROOT
ATOM      1  C   UNL A   1      31.678  30.110  26.477  1.00  0.00     0.023 C 
ENDROOT
BRANCH   1   2
ATOM      2  C   UNL A   1      33.055  29.577  26.090  1.00  0.00     0.116 C 
BRANCH   2   3
ATOM      3  N   UNL A   1      33.301  29.680  24.656  1.00  0.00    -0.354 N 
ATOM      4  C   UNL A   1      33.337  28.721  23.663  1.00  0.00     0.247 C 
ATOM      5  O   UNL A   1      33.742  29.120  22.571  1.00  0.00    -0.272 OA
ATOM      6  H   UNL A   1      33.472  30.597  24.340  1.00  0.00     0.163 HD
BRANCH   4   7
ATOM      7  C   UNL A   1      32.915  27.249  23.983  1.00  0.00     0.142 C 
ATOM      8  C   UNL A   1      33.362  26.454  22.729  1.00  0.00     0.048 C 
BRANCH   7   9
ATOM      9  C   UNL A   1      33.594  26.931  25.357  1.00  0.00     0.037 C 
ATOM     10  C   UNL A   1      34.409  25.661  25.463  1.00  0.00     0.007 C 
ENDBRANCH   7   9
BRANCH   7  11
ATOM     11  N   UNL A   1      31.453  27.068  24.173  1.00  0.00    -0.214 N 
ATOM     12  N   UNL A   1      30.992  26.180  25.078  1.00  0.00    -0.044 NA
ATOM     13  C   UNL A   1      30.365  27.529  23.435  1.00  0.00     0.156 A 
ATOM     14  N   UNL A   1      29.675  26.238  25.018  1.00  0.00    -0.024 NA
ATOM     15  N   UNL A   1      29.272  27.069  24.019  1.00  0.00    -0.113 NA
BRANCH  13  16
ATOM     16  C   UNL A   1      30.353  28.419  22.226  1.00  0.00     0.114 C 
BRANCH  16  17
ATOM     17  C   UNL A   1      29.650  29.750  22.425  1.00  0.00    -0.039 A 
ATOM     18  C   UNL A   1      29.561  30.325  23.706  1.00  0.00     0.004 A 
ATOM     19  C   UNL A   1      29.063  30.428  21.348  1.00  0.00     0.024 A 
ATOM     20  C   UNL A   1      28.985  31.585  23.890  1.00  0.00     0.002 A 
ATOM     21  C   UNL A   1      28.467  31.675  21.540  1.00  0.00     0.041 A 
ATOM     22  C   UNL A   1      28.443  32.263  22.802  1.00  0.00     0.020 A 
ATOM     23  Cl  UNL A   1      27.757  32.497  20.206  1.00  0.00    -0.084 Cl
ENDBRANCH  16  17
ENDBRANCH  13  16
ENDBRANCH   7  11
ENDBRANCH   4   7
ENDBRANCH   2   3
ENDBRANCH   1   2
BRANCH   1  24
ATOM     24  C   UNL A   1      31.577  31.631  26.507  1.00  0.00     0.023 C 
BRANCH  24  25
ATOM     25  C   UNL A   1      32.754  32.336  27.169  1.00  0.00     0.116 C 
BRANCH  25  26
ATOM     26  N   UNL A   1      32.468  33.723  27.505  1.00  0.00    -0.352 N 
ATOM     27  C   UNL A   1      33.064  34.527  28.444  1.00  0.00     0.251 C 
ATOM     28  H   UNL A   1      31.746  34.143  26.986  1.00  0.00     0.163 HD
ATOM     29  O   UNL A   1      32.595  35.634  28.693  1.00  0.00    -0.269 OA
BRANCH  27  30
ATOM     30  C   UNL A   1      34.249  34.042  29.181  1.00  0.00     0.039 A 
ATOM     31  C   UNL A   1      34.056  33.215  30.289  1.00  0.00     0.014 A 
ATOM     32  C   UNL A   1      35.542  34.374  28.766  1.00  0.00     0.014 A 
ATOM     33  C   UNL A   1      35.162  32.662  30.936  1.00  0.00     0.010 A 
ATOM     34  C   UNL A   1      36.638  33.756  29.358  1.00  0.00     0.010 A 
ATOM     35  C   UNL A   1      36.460  32.890  30.448  1.00  0.00    -0.014 A 
BRANCH  35  36
ATOM     36  C   UNL A   1      37.631  32.208  31.057  1.00  0.00     0.031 A 
ATOM     37  C   UNL A   1      38.120  32.603  32.422  1.00  0.00     0.074 A 
ATOM     38  C   UNL A   1      38.279  31.258  30.354  1.00  0.00     0.049 A 
ATOM     39  N   UNL A   1      39.134  32.132  33.104  1.00  0.00    -0.248 NA
ATOM     40  C   UNL A   1      37.391  33.683  33.104  1.00  0.00     0.031 C 
ATOM     41  C   UNL A   1      37.938  30.829  28.995  1.00  0.00     0.029 A 
ATOM     42  N   UNL A   1      39.363  30.482  30.681  1.00  0.00    -0.354 N 
ATOM     43  C   UNL A   1      39.162  32.854  34.289  1.00  0.00     0.074 A 
ATOM     44  C   UNL A   1      38.105  33.839  34.210  1.00  0.00     0.031 C 
ATOM     45  C   UNL A   1      38.772  29.848  28.620  1.00  0.00     0.029 A 
ATOM     46  C   UNL A   1      39.733  29.605  29.690  1.00  0.00     0.049 A 
ATOM     47  H   UNL A   1      39.831  30.548  31.545  1.00  0.00     0.167 HD
ATOM     48  C   UNL A   1      39.975  32.691  35.360  1.00  0.00     0.037 A 
ATOM     49  C   UNL A   1      40.739  28.710  29.648  1.00  0.00     0.037 A 
ATOM     50  C   UNL A   1      41.019  31.702  35.442  1.00  0.00     0.049 A 
ATOM     51  C   UNL A   1      41.637  28.565  30.847  1.00  0.00     0.074 A 
ATOM     52  C   UNL A   1      41.867  31.429  36.500  1.00  0.00     0.029 A 
ATOM     53  N   UNL A   1      41.360  30.826  34.422  1.00  0.00    -0.354 N 
ATOM     54  N   UNL A   1      41.602  29.201  31.993  1.00  0.00    -0.248 NA
ATOM     55  C   UNL A   1      42.711  27.566  30.750  1.00  0.00     0.031 C 
ATOM     56  C   UNL A   1      42.755  30.423  36.104  1.00  0.00     0.029 A 
ATOM     57  C   UNL A   1      42.421  30.027  34.818  1.00  0.00     0.049 A 
ATOM     58  H   UNL A   1      40.914  30.778  33.545  1.00  0.00     0.167 HD
ATOM     59  C   UNL A   1      42.626  28.662  32.761  1.00  0.00     0.074 A 
ATOM     60  C   UNL A   1      43.245  27.627  31.960  1.00  0.00     0.031 C 
ATOM     61  C   UNL A   1      43.024  28.998  34.012  1.00  0.00     0.037 A 
BRANCH  48  62
ATOM     62  C   UNL A   1      39.764  33.592  36.543  1.00  0.00     0.064 A 
ATOM     63  C   UNL A   1      40.375  34.853  36.619  1.00  0.00     0.173 A 
ATOM     64  C   UNL A   1      38.893  33.223  37.578  1.00  0.00     0.173 A 
ATOM     65  F   UNL A   1      41.227  35.251  35.661  1.00  0.00    -0.203 F 
ATOM     66  C   UNL A   1      40.137  35.702  37.697  1.00  0.00     0.198 A 
ATOM     67  C   UNL A   1      38.633  34.088  38.639  1.00  0.00     0.198 A 
ATOM     68  F   UNL A   1      38.279  32.031  37.553  1.00  0.00    -0.203 F 
ATOM     69  F   UNL A   1      40.764  36.885  37.767  1.00  0.00    -0.200 F 
ATOM     70  C   UNL A   1      39.259  35.323  38.700  1.00  0.00     0.200 A 
ATOM     71  F   UNL A   1      37.773  33.725  39.600  1.00  0.00    -0.200 F 
ATOM     72  F   UNL A   1      39.017  36.148  39.728  1.00  0.00    -0.200 F 
ENDBRANCH  48  62
BRANCH  49  73
ATOM     73  C   UNL A   1      40.950  27.872  28.437  1.00  0.00     0.064 A 
ATOM     74  C   UNL A   1      41.751  28.320  27.377  1.00  0.00     0.173 A 
ATOM     75  C   UNL A   1      40.327  26.623  28.298  1.00  0.00     0.173 A 
ATOM     76  F   UNL A   1      42.355  29.516  27.453  1.00  0.00    -0.203 F 
ATOM     77  C   UNL A   1      41.888  27.571  26.209  1.00  0.00     0.198 A 
ATOM     78  C   UNL A   1      40.495  25.858  27.146  1.00  0.00     0.198 A 
ATOM     79  F   UNL A   1      39.556  26.142  29.285  1.00  0.00    -0.203 F 
ATOM     80  F   UNL A   1      42.604  28.055  25.186  1.00  0.00    -0.200 F 
ATOM     81  C   UNL A   1      41.263  26.339  26.096  1.00  0.00     0.200 A 
ATOM     82  F   UNL A   1      39.902  24.660  27.048  1.00  0.00    -0.200 F 
ATOM     83  F   UNL A   1      41.391  25.620  24.972  1.00  0.00    -0.200 F 
ENDBRANCH  49  73
BRANCH  61  84
ATOM     84  C   UNL A   1      44.161  28.213  34.602  1.00  0.00     0.064 A 
ATOM     85  C   UNL A   1      45.494  28.636  34.480  1.00  0.00     0.173 A 
ATOM     86  C   UNL A   1      43.914  27.025  35.309  1.00  0.00     0.173 A 
ATOM     87  F   UNL A   1      45.787  29.756  33.802  1.00  0.00    -0.203 F 
ATOM     88  C   UNL A   1      46.537  27.879  35.007  1.00  0.00     0.198 A 
ATOM     89  C   UNL A   1      44.957  26.291  35.867  1.00  0.00     0.198 A 
ATOM     90  F   UNL A   1      42.658  26.579  35.464  1.00  0.00    -0.203 F 
ATOM     91  F   UNL A   1      47.805  28.270  34.818  1.00  0.00    -0.200 F 
ATOM     92  C   UNL A   1      46.268  26.712  35.704  1.00  0.00     0.200 A 
ATOM     93  F   UNL A   1      44.693  25.172  36.555  1.00  0.00    -0.200 F 
ATOM     94  F   UNL A   1      47.273  25.985  36.211  1.00  0.00    -0.200 F 
ENDBRANCH  61  84
ENDBRANCH  35  36
ENDBRANCH  27  30
ENDBRANCH  25  26
ENDBRANCH  24  25
ENDBRANCH   1  24
TORSDOF 15
ENDMDL
MODEL 2
REMARK VINA RESULT:     -12.5      5.811     10.646
REMARK SMILES CC[C@](C)(C(=O)NCCCCNC(=O)c1ccc(-c2c3nc(c(-c4c(F)c(F)c(F)c(F)c4F)c4ccc([nH]4)c(-c4c(F)c(F)c(F)c(F)c4F)c4nc(c(-c5c(F)c(F)c(F)c(F)c5F)c5ccc2[nH]5)C=C4)C=C3)cc1)n1nnnc1Cc1cccc(Cl)c1
REMARK SMILES IDX 9 1 8 2 7 3 5 4 6 5 3 7 4 8 2 9 1 10 78 11 79 12 82 13 80 14
REMARK SMILES IDX 81 15 83 16 84 17 85 18 90 19 86 20 88 21 87 22 89 23 10 24
REMARK SMILES IDX 11 25 12 26 13 27 14 29 15 30 16 31 77 32 17 33 76 34 18 35
REMARK SMILES IDX 19 36 20 37 70 38 21 39 75 40 69 41 71 42 22 43 74 44 68 45
REMARK SMILES IDX 67 46 23 48 55 49 35 50 54 51 36 52 39 53 53 54 72 55 37 56
REMARK SMILES IDX 38 57 52 59 73 60 40 61 24 62 25 63 33 64 26 65 27 66 31 67
REMARK SMILES IDX 34 68 28 69 29 70 32 71 30 72 56 73 57 74 65 75 58 76 59 77
REMARK SMILES IDX 63 78 66 79 60 80 61 81 64 82 62 83 41 84 42 85 50 86 43 87
REMARK SMILES IDX 44 88 48 89 51 90 45 91 46 92 49 93 47 94
REMARK H PARENT 7 6 12 28 71 47 39 58
REMARK Flexibility Score: inf
ROOT
ATOM      1  C   UNL A   1      37.224  20.908  24.613  1.00  0.00     0.023 C 
ENDROOT
BRANCH   1   2
ATOM      2  C   UNL A   1      36.084  21.217  25.579  1.00  0.00     0.116 C 
BRANCH   2   3
ATOM      3  N   UNL A   1      34.903  20.401  25.316  1.00  0.00    -0.354 N 
ATOM      4  C   UNL A   1      33.559  20.716  25.303  1.00  0.00     0.247 C 
ATOM      5  O   UNL A   1      32.801  19.750  25.209  1.00  0.00    -0.272 OA
ATOM      6  H   UNL A   1      35.101  19.459  25.111  1.00  0.00     0.163 HD
BRANCH   4   7
ATOM      7  C   UNL A   1      33.103  22.207  25.439  1.00  0.00     0.142 C 
ATOM      8  C   UNL A   1      31.555  22.121  25.465  1.00  0.00     0.048 C 
BRANCH   7   9
ATOM      9  C   UNL A   1      33.849  22.734  26.710  1.00  0.00     0.037 C 
ATOM     10  C   UNL A   1      33.341  22.285  28.063  1.00  0.00     0.007 C 
ENDBRANCH   7   9
BRANCH   7  11
ATOM     11  N   UNL A   1      33.520  23.070  24.305  1.00  0.00    -0.214 N 
ATOM     12  N   UNL A   1      33.488  22.593  23.043  1.00  0.00    -0.044 NA
ATOM     13  C   UNL A   1      34.154  24.310  24.277  1.00  0.00     0.156 A 
ATOM     14  N   UNL A   1      33.912  23.571  22.265  1.00  0.00    -0.024 NA
ATOM     15  N   UNL A   1      34.317  24.638  23.007  1.00  0.00    -0.113 NA
BRANCH  13  16
ATOM     16  C   UNL A   1      34.563  25.188  25.425  1.00  0.00     0.114 C 
BRANCH  16  17
ATOM     17  C   UNL A   1      33.516  26.203  25.850  1.00  0.00    -0.039 A 
ATOM     18  C   UNL A   1      32.149  25.873  25.820  1.00  0.00     0.004 A 
ATOM     19  C   UNL A   1      33.883  27.490  26.267  1.00  0.00     0.024 A 
ATOM     20  C   UNL A   1      31.183  26.772  26.281  1.00  0.00     0.002 A 
ATOM     21  C   UNL A   1      32.913  28.392  26.704  1.00  0.00     0.041 A 
ATOM     22  C   UNL A   1      31.568  28.031  26.731  1.00  0.00     0.020 A 
ATOM     23  Cl  UNL A   1      33.381  29.966  27.220  1.00  0.00    -0.084 Cl
ENDBRANCH  16  17
ENDBRANCH  13  16
ENDBRANCH   7  11
ENDBRANCH   4   7
ENDBRANCH   2   3
ENDBRANCH   1   2
BRANCH   1  24
ATOM     24  C   UNL A   1      38.109  19.741  25.037  1.00  0.00     0.023 C 
BRANCH  24  25
ATOM     25  C   UNL A   1      39.338  20.132  25.846  1.00  0.00     0.116 C 
BRANCH  25  26
ATOM     26  N   UNL A   1      40.358  19.094  25.866  1.00  0.00    -0.352 N 
ATOM     27  C   UNL A   1      41.707  19.209  26.093  1.00  0.00     0.251 C 
ATOM     28  H   UNL A   1      40.035  18.181  25.693  1.00  0.00     0.163 HD
ATOM     29  O   UNL A   1      42.443  18.240  25.928  1.00  0.00    -0.269 OA
BRANCH  27  30
ATOM     30  C   UNL A   1      42.275  20.510  26.499  1.00  0.00     0.039 A 
ATOM     31  C   UNL A   1      42.829  21.335  25.518  1.00  0.00     0.014 A 
ATOM     32  C   UNL A   1      42.236  20.930  27.832  1.00  0.00     0.014 A 
ATOM     33  C   UNL A   1      43.276  22.611  25.863  1.00  0.00     0.010 A 
ATOM     34  C   UNL A   1      42.603  22.231  28.158  1.00  0.00     0.010 A 
ATOM     35  C   UNL A   1      43.124  23.087  27.177  1.00  0.00    -0.014 A 
BRANCH  35  36
ATOM     36  C   UNL A   1      43.487  24.486  27.525  1.00  0.00     0.031 A 
ATOM     37  C   UNL A   1      44.927  24.915  27.563  1.00  0.00     0.074 A 
ATOM     38  C   UNL A   1      42.511  25.358  27.846  1.00  0.00     0.049 A 
ATOM     39  N   UNL A   1      45.431  26.086  27.862  1.00  0.00    -0.248 NA
ATOM     40  C   UNL A   1      45.935  23.891  27.250  1.00  0.00     0.031 C 
ATOM     41  C   UNL A   1      41.081  25.046  27.903  1.00  0.00     0.029 A 
ATOM     42  N   UNL A   1      42.572  26.686  28.190  1.00  0.00    -0.354 N 
ATOM     43  C   UNL A   1      46.809  25.940  27.770  1.00  0.00     0.074 A 
ATOM     44  C   UNL A   1      47.067  24.552  27.451  1.00  0.00     0.031 C 
ATOM     45  C   UNL A   1      40.400  26.155  28.228  1.00  0.00     0.029 A 
ATOM     46  C   UNL A   1      41.343  27.247  28.443  1.00  0.00     0.049 A 
ATOM     47  H   UNL A   1      43.417  27.188  28.249  1.00  0.00     0.167 HD
ATOM     48  C   UNL A   1      47.771  26.883  27.907  1.00  0.00     0.037 A 
ATOM     49  C   UNL A   1      41.016  28.500  28.812  1.00  0.00     0.037 A 
ATOM     50  C   UNL A   1      47.511  28.266  28.212  1.00  0.00     0.049 A 
ATOM     51  C   UNL A   1      42.109  29.522  28.974  1.00  0.00     0.074 A 
ATOM     52  C   UNL A   1      48.414  29.308  28.329  1.00  0.00     0.029 A 
ATOM     53  N   UNL A   1      46.254  28.800  28.455  1.00  0.00    -0.354 N 
ATOM     54  N   UNL A   1      43.403  29.389  28.806  1.00  0.00    -0.248 NA
ATOM     55  C   UNL A   1      41.694  30.876  29.368  1.00  0.00     0.031 C 
ATOM     56  C   UNL A   1      47.711  30.461  28.692  1.00  0.00     0.029 A 
ATOM     57  C   UNL A   1      46.360  30.152  28.742  1.00  0.00     0.049 A 
ATOM     58  H   UNL A   1      45.409  28.294  28.426  1.00  0.00     0.167 HD
ATOM     59  C   UNL A   1      43.951  30.641  29.046  1.00  0.00     0.074 A 
ATOM     60  C   UNL A   1      42.846  31.529  29.342  1.00  0.00     0.031 C 
ATOM     61  C   UNL A   1      45.251  31.024  29.030  1.00  0.00     0.037 A 
BRANCH  48  62
ATOM     62  C   UNL A   1      49.199  26.460  27.716  1.00  0.00     0.064 A 
ATOM     63  C   UNL A   1      49.751  26.305  26.435  1.00  0.00     0.173 A 
ATOM     64  C   UNL A   1      50.043  26.270  28.820  1.00  0.00     0.173 A 
ATOM     65  F   UNL A   1      48.984  26.463  25.345  1.00  0.00    -0.203 F 
ATOM     66  C   UNL A   1      51.089  25.958  26.268  1.00  0.00     0.198 A 
ATOM     67  C   UNL A   1      51.389  25.954  28.648  1.00  0.00     0.198 A 
ATOM     68  F   UNL A   1      49.568  26.409  30.067  1.00  0.00    -0.203 F 
ATOM     69  F   UNL A   1      51.583  25.777  25.034  1.00  0.00    -0.200 F 
ATOM     70  C   UNL A   1      51.908  25.793  27.374  1.00  0.00     0.200 A 
ATOM     71  F   UNL A   1      52.183  25.809  29.718  1.00  0.00    -0.200 F 
ATOM     72  F   UNL A   1      53.200  25.476  27.211  1.00  0.00    -0.200 F 
ENDBRANCH  48  62
BRANCH  49  73
ATOM     73  C   UNL A   1      39.594  28.869  29.045  1.00  0.00     0.064 A 
ATOM     74  C   UNL A   1      39.013  28.748  30.316  1.00  0.00     0.173 A 
ATOM     75  C   UNL A   1      38.775  29.313  27.996  1.00  0.00     0.173 A 
ATOM     76  F   UNL A   1      39.748  28.310  31.349  1.00  0.00    -0.203 F 
ATOM     77  C   UNL A   1      37.661  29.019  30.520  1.00  0.00     0.198 A 
ATOM     78  C   UNL A   1      37.433  29.620  28.210  1.00  0.00     0.198 A 
ATOM     79  F   UNL A   1      39.280  29.455  26.762  1.00  0.00    -0.203 F 
ATOM     80  F   UNL A   1      37.118  28.829  31.730  1.00  0.00    -0.200 F 
ATOM     81  C   UNL A   1      36.873  29.458  29.468  1.00  0.00     0.200 A 
ATOM     82  F   UNL A   1      36.679  30.061  27.193  1.00  0.00    -0.200 F 
ATOM     83  F   UNL A   1      35.572  29.715  29.663  1.00  0.00    -0.200 F 
ENDBRANCH  49  73
BRANCH  61  84
ATOM     84  C   UNL A   1      45.542  32.471  29.309  1.00  0.00     0.064 A 
ATOM     85  C   UNL A   1      45.565  33.431  28.285  1.00  0.00     0.173 A 
ATOM     86  C   UNL A   1      45.792  32.906  30.620  1.00  0.00     0.173 A 
ATOM     87  F   UNL A   1      45.347  33.066  27.012  1.00  0.00    -0.203 F 
ATOM     88  C   UNL A   1      45.866  34.762  28.558  1.00  0.00     0.198 A 
ATOM     89  C   UNL A   1      46.056  34.245  30.894  1.00  0.00     0.198 A 
ATOM     90  F   UNL A   1      45.774  32.033  31.638  1.00  0.00    -0.203 F 
ATOM     91  F   UNL A   1      45.948  35.647  27.555  1.00  0.00    -0.200 F 
ATOM     92  C   UNL A   1      46.106  35.169  29.861  1.00  0.00     0.200 A 
ATOM     93  F   UNL A   1      46.271  34.640  32.156  1.00  0.00    -0.200 F 
ATOM     94  F   UNL A   1      46.395  36.452  30.123  1.00  0.00    -0.200 F 
ENDBRANCH  61  84
ENDBRANCH  35  36
ENDBRANCH  27  30
ENDBRANCH  25  26
ENDBRANCH  24  25
ENDBRANCH   1  24
TORSDOF 15
ENDMDL
MODEL 3
REMARK VINA RESULT:     -12.4      1.728      3.388
REMARK SMILES CC[C@](C)(C(=O)NCCCCNC(=O)c1ccc(-c2c3nc(c(-c4c(F)c(F)c(F)c(F)c4F)c4ccc([nH]4)c(-c4c(F)c(F)c(F)c(F)c4F)c4nc(c(-c5c(F)c(F)c(F)c(F)c5F)c5ccc2[nH]5)C=C4)C=C3)cc1)n1nnnc1Cc1cccc(Cl)c1
REMARK SMILES IDX 9 1 8 2 7 3 5 4 6 5 3 7 4 8 2 9 1 10 78 11 79 12 82 13 80 14
REMARK SMILES IDX 81 15 83 16 84 17 85 18 90 19 86 20 88 21 87 22 89 23 10 24
REMARK SMILES IDX 11 25 12 26 13 27 14 29 15 30 16 31 77 32 17 33 76 34 18 35
REMARK SMILES IDX 19 36 20 37 70 38 21 39 75 40 69 41 71 42 22 43 74 44 68 45
REMARK SMILES IDX 67 46 23 48 55 49 35 50 54 51 36 52 39 53 53 54 72 55 37 56
REMARK SMILES IDX 38 57 52 59 73 60 40 61 24 62 25 63 33 64 26 65 27 66 31 67
REMARK SMILES IDX 34 68 28 69 29 70 32 71 30 72 56 73 57 74 65 75 58 76 59 77
REMARK SMILES IDX 63 78 66 79 60 80 61 81 64 82 62 83 41 84 42 85 50 86 43 87
REMARK SMILES IDX 44 88 48 89 51 90 45 91 46 92 49 93 47 94
REMARK H PARENT 7 6 12 28 71 47 39 58
REMARK Flexibility Score: inf
ROOT
ATOM      1  C   UNL A   1      31.709  30.422  26.525  1.00  0.00     0.023 C 
ENDROOT
BRANCH   1   2
ATOM      2  C   UNL A   1      31.411  29.873  25.132  1.00  0.00     0.116 C 
BRANCH   2   3
ATOM      3  N   UNL A   1      32.629  29.583  24.383  1.00  0.00    -0.354 N 
ATOM      4  C   UNL A   1      33.015  28.471  23.660  1.00  0.00     0.247 C 
ATOM      5  O   UNL A   1      34.187  28.479  23.284  1.00  0.00    -0.272 OA
ATOM      6  H   UNL A   1      33.293  30.310  24.395  1.00  0.00     0.163 HD
BRANCH   4   7
ATOM      7  C   UNL A   1      31.996  27.311  23.407  1.00  0.00     0.142 C 
ATOM      8  C   UNL A   1      30.785  28.018  22.746  1.00  0.00     0.048 C 
BRANCH   7   9
ATOM      9  C   UNL A   1      32.797  26.255  22.575  1.00  0.00     0.037 C 
ATOM     10  C   UNL A   1      32.170  25.741  21.298  1.00  0.00     0.007 C 
ENDBRANCH   7   9
BRANCH   7  11
ATOM     11  N   UNL A   1      31.539  26.629  24.645  1.00  0.00    -0.214 N 
ATOM     12  N   UNL A   1      30.230  26.621  24.970  1.00  0.00    -0.044 NA
ATOM     13  C   UNL A   1      32.250  26.102  25.721  1.00  0.00     0.156 A 
ATOM     14  N   UNL A   1      30.133  25.955  26.105  1.00  0.00    -0.024 NA
ATOM     15  N   UNL A   1      31.365  25.620  26.577  1.00  0.00    -0.113 NA
BRANCH  13  16
ATOM     16  C   UNL A   1      33.736  26.018  25.921  1.00  0.00     0.114 C 
BRANCH  16  17
ATOM     17  C   UNL A   1      34.328  24.638  25.694  1.00  0.00    -0.039 A 
ATOM     18  C   UNL A   1      34.075  23.594  26.603  1.00  0.00     0.004 A 
ATOM     19  C   UNL A   1      35.149  24.375  24.589  1.00  0.00     0.024 A 
ATOM     20  C   UNL A   1      34.551  22.303  26.364  1.00  0.00     0.002 A 
ATOM     21  C   UNL A   1      35.642  23.089  24.367  1.00  0.00     0.041 A 
ATOM     22  C   UNL A   1      35.330  22.049  25.239  1.00  0.00     0.020 A 
ATOM     23  Cl  UNL A   1      36.642  22.781  23.001  1.00  0.00    -0.084 Cl
ENDBRANCH  16  17
ENDBRANCH  13  16
ENDBRANCH   7  11
ENDBRANCH   4   7
ENDBRANCH   2   3
ENDBRANCH   1   2
BRANCH   1  24
ATOM     24  C   UNL A   1      31.528  31.930  26.659  1.00  0.00     0.023 C 
BRANCH  24  25
ATOM     25  C   UNL A   1      32.740  32.672  27.208  1.00  0.00     0.116 C 
BRANCH  25  26
ATOM     26  N   UNL A   1      32.435  34.037  27.610  1.00  0.00    -0.352 N 
ATOM     27  C   UNL A   1      33.015  34.802  28.591  1.00  0.00     0.251 C 
ATOM     28  H   UNL A   1      31.711  34.474  27.106  1.00  0.00     0.163 HD
ATOM     29  O   UNL A   1      32.530  35.890  28.890  1.00  0.00    -0.269 OA
BRANCH  27  30
ATOM     30  C   UNL A   1      34.200  34.295  29.312  1.00  0.00     0.039 A 
ATOM     31  C   UNL A   1      34.007  33.517  30.456  1.00  0.00     0.014 A 
ATOM     32  C   UNL A   1      35.492  34.557  28.849  1.00  0.00     0.014 A 
ATOM     33  C   UNL A   1      35.108  32.943  31.092  1.00  0.00     0.010 A 
ATOM     34  C   UNL A   1      36.580  33.915  29.433  1.00  0.00     0.010 A 
ATOM     35  C   UNL A   1      36.399  33.099  30.559  1.00  0.00    -0.014 A 
BRANCH  35  36
ATOM     36  C   UNL A   1      37.559  32.391  31.160  1.00  0.00     0.031 A 
ATOM     37  C   UNL A   1      38.061  32.770  32.525  1.00  0.00     0.074 A 
ATOM     38  C   UNL A   1      38.184  31.431  30.451  1.00  0.00     0.049 A 
ATOM     39  N   UNL A   1      39.069  32.277  33.200  1.00  0.00    -0.248 NA
ATOM     40  C   UNL A   1      37.357  33.863  33.214  1.00  0.00     0.031 C 
ATOM     41  C   UNL A   1      37.829  31.014  29.092  1.00  0.00     0.029 A 
ATOM     42  N   UNL A   1      39.254  30.632  30.771  1.00  0.00    -0.354 N 
ATOM     43  C   UNL A   1      39.116  32.994  34.389  1.00  0.00     0.074 A 
ATOM     44  C   UNL A   1      38.079  34.000  34.318  1.00  0.00     0.031 C 
ATOM     45  C   UNL A   1      38.642  30.018  28.710  1.00  0.00     0.029 A 
ATOM     46  C   UNL A   1      39.602  29.752  29.774  1.00  0.00     0.049 A 
ATOM     47  H   UNL A   1      39.727  30.685  31.633  1.00  0.00     0.167 HD
ATOM     48  C   UNL A   1      39.930  32.810  35.455  1.00  0.00     0.037 A 
ATOM     49  C   UNL A   1      40.589  28.837  29.724  1.00  0.00     0.037 A 
ATOM     50  C   UNL A   1      40.955  31.800  35.529  1.00  0.00     0.049 A 
ATOM     51  C   UNL A   1      41.490  28.669  30.920  1.00  0.00     0.074 A 
ATOM     52  C   UNL A   1      41.802  31.506  36.582  1.00  0.00     0.029 A 
ATOM     53  N   UNL A   1      41.274  30.922  34.503  1.00  0.00    -0.354 N 
ATOM     54  N   UNL A   1      41.472  29.301  32.068  1.00  0.00    -0.248 NA
ATOM     55  C   UNL A   1      42.543  27.649  30.814  1.00  0.00     0.031 C 
ATOM     56  C   UNL A   1      42.668  30.485  36.178  1.00  0.00     0.029 A 
ATOM     57  C   UNL A   1      42.321  30.101  34.892  1.00  0.00     0.049 A 
ATOM     58  H   UNL A   1      40.823  30.886  33.628  1.00  0.00     0.167 HD
ATOM     59  C   UNL A   1      42.489  28.739  32.829  1.00  0.00     0.074 A 
ATOM     60  C   UNL A   1      43.084  27.695  32.022  1.00  0.00     0.031 C 
ATOM     61  C   UNL A   1      42.899  29.062  34.080  1.00  0.00     0.037 A 
BRANCH  48  62
ATOM     62  C   UNL A   1      39.743  33.711  36.642  1.00  0.00     0.064 A 
ATOM     63  C   UNL A   1      40.362  34.969  36.710  1.00  0.00     0.173 A 
ATOM     64  C   UNL A   1      38.886  33.345  37.691  1.00  0.00     0.173 A 
ATOM     65  F   UNL A   1      41.200  35.364  35.739  1.00  0.00    -0.203 F 
ATOM     66  C   UNL A   1      40.145  35.818  37.793  1.00  0.00     0.198 A 
ATOM     67  C   UNL A   1      38.647  34.209  38.757  1.00  0.00     0.198 A 
ATOM     68  F   UNL A   1      38.267  32.156  37.674  1.00  0.00    -0.203 F 
ATOM     69  F   UNL A   1      40.779  36.997  37.854  1.00  0.00    -0.200 F 
ATOM     70  C   UNL A   1      39.280  35.441  38.809  1.00  0.00     0.200 A 
ATOM     71  F   UNL A   1      37.801  33.850  39.731  1.00  0.00    -0.200 F 
ATOM     72  F   UNL A   1      39.059  36.266  39.842  1.00  0.00    -0.200 F 
ENDBRANCH  48  62
BRANCH  49  73
ATOM     73  C   UNL A   1      40.779  28.000  28.510  1.00  0.00     0.064 A 
ATOM     74  C   UNL A   1      41.560  28.448  27.435  1.00  0.00     0.173 A 
ATOM     75  C   UNL A   1      40.154  26.751  28.382  1.00  0.00     0.173 A 
ATOM     76  F   UNL A   1      42.164  29.645  27.500  1.00  0.00    -0.203 F 
ATOM     77  C   UNL A   1      41.675  27.700  26.265  1.00  0.00     0.198 A 
ATOM     78  C   UNL A   1      40.301  25.986  27.226  1.00  0.00     0.198 A 
ATOM     79  F   UNL A   1      39.402  26.269  29.382  1.00  0.00    -0.203 F 
ATOM     80  F   UNL A   1      42.372  28.185  25.229  1.00  0.00    -0.200 F 
ATOM     81  C   UNL A   1      41.049  26.468  26.163  1.00  0.00     0.200 A 
ATOM     82  F   UNL A   1      39.707  24.787  27.139  1.00  0.00    -0.200 F 
ATOM     83  F   UNL A   1      41.156  25.749  25.037  1.00  0.00    -0.200 F 
ENDBRANCH  49  73
BRANCH  61  84
ATOM     84  C   UNL A   1      44.023  28.252  34.661  1.00  0.00     0.064 A 
ATOM     85  C   UNL A   1      43.789  27.061  35.365  1.00  0.00     0.173 A 
ATOM     86  C   UNL A   1      45.355  28.668  34.503  1.00  0.00     0.173 A 
ATOM     87  F   UNL A   1      42.534  26.626  35.558  1.00  0.00    -0.203 F 
ATOM     88  C   UNL A   1      44.841  26.340  35.924  1.00  0.00     0.198 A 
ATOM     89  C   UNL A   1      46.406  27.924  35.030  1.00  0.00     0.198 A 
ATOM     90  F   UNL A   1      45.637  29.794  33.831  1.00  0.00    -0.203 F 
ATOM     91  F   UNL A   1      44.586  25.242  36.649  1.00  0.00    -0.200 F 
ATOM     92  C   UNL A   1      46.148  26.768  35.751  1.00  0.00     0.200 A 
ATOM     93  F   UNL A   1      47.670  28.330  34.848  1.00  0.00    -0.200 F 
ATOM     94  F   UNL A   1      47.160  26.072  36.288  1.00  0.00    -0.200 F 
ENDBRANCH  61  84
ENDBRANCH  35  36
ENDBRANCH  27  30
ENDBRANCH  25  26
ENDBRANCH  24  25
ENDBRANCH   1  24
TORSDOF 15
ENDMDL
