MODEL 1
REMARK VINA RESULT:     -11.6      0.000      0.000
REMARK SMILES C[C@@H](Oc1ccc(N)cc1)C(=O)NCCCCNC(=O)c1ccc(-c2c3nc(c(-c4c(F)c(F)c(F)c(F)c4F)c4ccc([nH]4)c(-c4c(F)c(F)c(F)c(F)c4F)c4nc(c(-c5c(F)c(F)c(F)c(F)c5F)c5ccc2[nH]5)C=C4)C=C3)cc1
REMARK SMILES IDX 15 1 14 2 13 3 11 4 12 5 2 7 1 8 3 9 4 10 5 11 10 12 6 13
REMARK SMILES IDX 9 14 7 15 8 16 16 19 17 20 18 21 19 22 20 24 21 25 22 26
REMARK SMILES IDX 83 27 23 28 82 29 24 30 25 31 26 32 76 33 27 34 81 35 75 36
REMARK SMILES IDX 77 37 28 38 80 39 74 40 73 41 29 43 61 44 41 45 60 46 42 47
REMARK SMILES IDX 45 48 59 49 78 50 43 51 44 52 58 54 79 55 46 56 30 57 31 58
REMARK SMILES IDX 39 59 32 60 33 61 37 62 40 63 34 64 35 65 38 66 36 67 62 68
REMARK SMILES IDX 63 69 71 70 64 71 65 72 69 73 72 74 66 75 67 76 70 77 68 78
REMARK SMILES IDX 47 79 48 80 56 81 49 82 50 83 54 84 57 85 51 86 52 87 55 88
REMARK SMILES IDX 53 89
REMARK H PARENT 13 6 8 17 8 18 18 23 77 42 45 53
REMARK Flexibility Score: inf
ROOT
ATOM      1  C   UNL A   1      31.616  30.746  26.136  1.00  0.00     0.023 C 
ENDROOT
BRANCH   1   2
ATOM      2  C   UNL A   1      32.375  29.802  27.064  1.00  0.00     0.116 C 
BRANCH   2   3
ATOM      3  N   UNL A   1      31.653  28.563  27.302  1.00  0.00    -0.353 N 
ATOM      4  C   UNL A   1      31.637  27.409  26.563  1.00  0.00     0.260 C 
ATOM      5  O   UNL A   1      30.966  26.464  26.988  1.00  0.00    -0.271 OA
ATOM      6  H   UNL A   1      31.093  28.552  28.112  1.00  0.00     0.163 HD
BRANCH   4   7
ATOM      7  C   UNL A   1      32.371  27.325  25.215  1.00  0.00     0.258 C 
ATOM      8  C   UNL A   1      33.627  26.478  25.411  1.00  0.00     0.064 C 
BRANCH   7   9
ATOM      9  O   UNL A   1      31.424  26.816  24.270  1.00  0.00    -0.481 OA
BRANCH   9  10
ATOM     10  C   UNL A   1      30.549  27.708  23.734  1.00  0.00     0.120 A 
ATOM     11  C   UNL A   1      30.985  28.796  22.986  1.00  0.00     0.048 A 
ATOM     12  C   UNL A   1      29.199  27.374  23.748  1.00  0.00     0.048 A 
ATOM     13  C   UNL A   1      30.061  29.590  22.303  1.00  0.00     0.029 A 
ATOM     14  C   UNL A   1      28.278  28.162  23.050  1.00  0.00     0.029 A 
ATOM     15  C   UNL A   1      28.697  29.294  22.346  1.00  0.00     0.032 A 
BRANCH  15  16
ATOM     16  N   UNL A   1      27.802  30.020  21.579  1.00  0.00    -0.399 N 
ATOM     17  H   UNL A   1      26.882  29.692  21.453  1.00  0.00     0.156 HD
ATOM     18  H   UNL A   1      28.085  30.864  21.160  1.00  0.00     0.156 HD
ENDBRANCH  15  16
ENDBRANCH   9  10
ENDBRANCH   7   9
ENDBRANCH   4   7
ENDBRANCH   2   3
ENDBRANCH   1   2
BRANCH   1  19
ATOM     19  C   UNL A   1      31.382  32.146  26.701  1.00  0.00     0.023 C 
BRANCH  19  20
ATOM     20  C   UNL A   1      32.628  32.853  27.221  1.00  0.00     0.116 C 
BRANCH  20  21
ATOM     21  N   UNL A   1      32.383  34.225  27.636  1.00  0.00    -0.352 N 
ATOM     22  C   UNL A   1      33.010  34.958  28.615  1.00  0.00     0.251 C 
ATOM     23  H   UNL A   1      31.668  34.694  27.148  1.00  0.00     0.163 HD
ATOM     24  O   UNL A   1      32.596  36.073  28.916  1.00  0.00    -0.269 OA
BRANCH  22  25
ATOM     25  C   UNL A   1      34.165  34.382  29.334  1.00  0.00     0.039 A 
ATOM     26  C   UNL A   1      33.931  33.614  30.478  1.00  0.00     0.014 A 
ATOM     27  C   UNL A   1      35.469  34.576  28.871  1.00  0.00     0.014 A 
ATOM     28  C   UNL A   1      34.999  32.977  31.113  1.00  0.00     0.010 A 
ATOM     29  C   UNL A   1      36.521  33.880  29.460  1.00  0.00     0.010 A 
ATOM     30  C   UNL A   1      36.297  33.073  30.585  1.00  0.00    -0.014 A 
BRANCH  30  31
ATOM     31  C   UNL A   1      37.430  32.327  31.189  1.00  0.00     0.031 A 
ATOM     32  C   UNL A   1      37.937  32.700  32.553  1.00  0.00     0.074 A 
ATOM     33  C   UNL A   1      38.047  31.362  30.480  1.00  0.00     0.049 A 
ATOM     34  N   UNL A   1      38.962  32.224  33.216  1.00  0.00    -0.248 NA
ATOM     35  C   UNL A   1      37.214  33.772  33.255  1.00  0.00     0.031 C 
ATOM     36  C   UNL A   1      37.682  30.944  29.125  1.00  0.00     0.029 A 
ATOM     37  N   UNL A   1      39.122  30.569  30.794  1.00  0.00    -0.354 N 
ATOM     38  C   UNL A   1      39.011  32.942  34.402  1.00  0.00     0.074 A 
ATOM     39  C   UNL A   1      37.951  33.926  34.346  1.00  0.00     0.031 C 
ATOM     40  C   UNL A   1      38.507  29.959  28.733  1.00  0.00     0.029 A 
ATOM     41  C   UNL A   1      39.480  29.703  29.789  1.00  0.00     0.049 A 
ATOM     42  H   UNL A   1      39.592  30.615  31.658  1.00  0.00     0.167 HD
ATOM     43  C   UNL A   1      39.848  32.779  35.455  1.00  0.00     0.037 A 
ATOM     44  C   UNL A   1      40.487  28.810  29.723  1.00  0.00     0.037 A 
ATOM     45  C   UNL A   1      40.889  31.787  35.516  1.00  0.00     0.049 A 
ATOM     46  C   UNL A   1      41.406  28.653  30.905  1.00  0.00     0.074 A 
ATOM     47  C   UNL A   1      41.754  31.509  36.558  1.00  0.00     0.029 A 
ATOM     48  N   UNL A   1      41.205  30.911  34.488  1.00  0.00    -0.354 N 
ATOM     49  N   UNL A   1      41.401  29.292  32.049  1.00  0.00    -0.248 NA
ATOM     50  C   UNL A   1      42.468  27.644  30.787  1.00  0.00     0.031 C 
ATOM     51  C   UNL A   1      42.624  30.494  36.145  1.00  0.00     0.029 A 
ATOM     52  C   UNL A   1      42.267  30.104  34.864  1.00  0.00     0.049 A 
ATOM     53  H   UNL A   1      40.744  30.870  33.619  1.00  0.00     0.167 HD
ATOM     54  C   UNL A   1      42.436  28.746  32.796  1.00  0.00     0.074 A 
ATOM     55  C   UNL A   1      43.038  27.712  31.981  1.00  0.00     0.031 C 
ATOM     56  C   UNL A   1      42.850  29.073  34.045  1.00  0.00     0.037 A 
BRANCH  43  57
ATOM     57  C   UNL A   1      39.667  33.695  36.631  1.00  0.00     0.064 A 
ATOM     58  C   UNL A   1      40.282  34.956  36.680  1.00  0.00     0.173 A 
ATOM     59  C   UNL A   1      38.841  33.327  37.704  1.00  0.00     0.173 A 
ATOM     60  F   UNL A   1      41.090  35.353  35.686  1.00  0.00    -0.203 F 
ATOM     61  C   UNL A   1      40.103  35.799  37.774  1.00  0.00     0.198 A 
ATOM     62  C   UNL A   1      38.639  34.186  38.781  1.00  0.00     0.198 A 
ATOM     63  F   UNL A   1      38.224  32.136  37.704  1.00  0.00    -0.203 F 
ATOM     64  F   UNL A   1      40.742  36.977  37.822  1.00  0.00    -0.200 F 
ATOM     65  C   UNL A   1      39.276  35.417  38.819  1.00  0.00     0.200 A 
ATOM     66  F   UNL A   1      37.829  33.820  39.784  1.00  0.00    -0.200 F 
ATOM     67  F   UNL A   1      39.097  36.232  39.868  1.00  0.00    -0.200 F 
ENDBRANCH  43  57
BRANCH  44  68
ATOM     68  C   UNL A   1      40.666  27.981  28.503  1.00  0.00     0.064 A 
ATOM     69  C   UNL A   1      41.443  28.436  27.430  1.00  0.00     0.173 A 
ATOM     70  C   UNL A   1      40.061  26.722  28.383  1.00  0.00     0.173 A 
ATOM     71  F   UNL A   1      42.025  29.644  27.489  1.00  0.00    -0.203 F 
ATOM     72  C   UNL A   1      41.591  27.673  26.273  1.00  0.00     0.198 A 
ATOM     73  C   UNL A   1      40.233  25.947  27.238  1.00  0.00     0.198 A 
ATOM     74  F   UNL A   1      39.311  26.237  29.384  1.00  0.00    -0.203 F 
ATOM     75  F   UNL A   1      42.301  28.154  25.243  1.00  0.00    -0.200 F 
ATOM     76  C   UNL A   1      40.991  26.428  26.180  1.00  0.00     0.200 A 
ATOM     77  F   UNL A   1      39.664  24.737  27.158  1.00  0.00    -0.200 F 
ATOM     78  F   UNL A   1      41.136  25.693  25.069  1.00  0.00    -0.200 F 
ENDBRANCH  44  68
BRANCH  56  79
ATOM     79  C   UNL A   1      43.987  28.281  34.623  1.00  0.00     0.064 A 
ATOM     80  C   UNL A   1      43.772  27.080  35.314  1.00  0.00     0.173 A 
ATOM     81  C   UNL A   1      45.312  28.710  34.447  1.00  0.00     0.173 A 
ATOM     82  F   UNL A   1      42.523  26.635  35.522  1.00  0.00    -0.203 F 
ATOM     83  C   UNL A   1      44.840  26.351  35.830  1.00  0.00     0.198 A 
ATOM     84  C   UNL A   1      46.379  27.963  34.938  1.00  0.00     0.198 A 
ATOM     85  F   UNL A   1      45.573  29.849  33.788  1.00  0.00    -0.203 F 
ATOM     86  F   UNL A   1      44.608  25.231  36.528  1.00  0.00    -0.200 F 
ATOM     87  C   UNL A   1      46.142  26.788  35.635  1.00  0.00     0.200 A 
ATOM     88  F   UNL A   1      47.636  28.381  34.737  1.00  0.00    -0.200 F 
ATOM     89  F   UNL A   1      47.169  26.081  36.125  1.00  0.00    -0.200 F 
ENDBRANCH  56  79
ENDBRANCH  30  31
ENDBRANCH  22  25
ENDBRANCH  20  21
ENDBRANCH  19  20
ENDBRANCH   1  19
TORSDOF 14
ENDMDL
MODEL 2
REMARK VINA RESULT:     -11.6      0.531      7.586
REMARK SMILES C[C@@H](Oc1ccc(N)cc1)C(=O)NCCCCNC(=O)c1ccc(-c2c3nc(c(-c4c(F)c(F)c(F)c(F)c4F)c4ccc([nH]4)c(-c4c(F)c(F)c(F)c(F)c4F)c4nc(c(-c5c(F)c(F)c(F)c(F)c5F)c5ccc2[nH]5)C=C4)C=C3)cc1
REMARK SMILES IDX 15 1 14 2 13 3 11 4 12 5 2 7 1 8 3 9 4 10 5 11 10 12 6 13
REMARK SMILES IDX 9 14 7 15 8 16 16 19 17 20 18 21 19 22 20 24 21 25 22 26
REMARK SMILES IDX 83 27 23 28 82 29 24 30 25 31 26 32 76 33 27 34 81 35 75 36
REMARK SMILES IDX 77 37 28 38 80 39 74 40 73 41 29 43 61 44 41 45 60 46 42 47
REMARK SMILES IDX 45 48 59 49 78 50 43 51 44 52 58 54 79 55 46 56 30 57 31 58
REMARK SMILES IDX 39 59 32 60 33 61 37 62 40 63 34 64 35 65 38 66 36 67 62 68
REMARK SMILES IDX 63 69 71 70 64 71 65 72 69 73 72 74 66 75 67 76 70 77 68 78
REMARK SMILES IDX 47 79 48 80 56 81 49 82 50 83 54 84 57 85 51 86 52 87 55 88
REMARK SMILES IDX 53 89
REMARK H PARENT 13 6 8 17 8 18 18 23 77 42 45 53
REMARK Flexibility Score: inf
ROOT
ATOM      1  C   UNL A   1      31.709  30.744  26.088  1.00  0.00     0.023 C 
ENDROOT
BRANCH   1   2
ATOM      2  C   UNL A   1      32.527  29.730  26.883  1.00  0.00     0.116 C 
BRANCH   2   3
ATOM      3  N   UNL A   1      31.781  28.513  27.158  1.00  0.00    -0.353 N 
ATOM      4  C   UNL A   1      31.686  27.365  26.417  1.00  0.00     0.260 C 
ATOM      5  O   UNL A   1      31.012  26.438  26.876  1.00  0.00    -0.271 OA
ATOM      6  H   UNL A   1      31.270  28.514  28.000  1.00  0.00     0.163 HD
BRANCH   4   7
ATOM      7  C   UNL A   1      32.336  27.266  25.027  1.00  0.00     0.258 C 
ATOM      8  C   UNL A   1      33.575  26.381  25.146  1.00  0.00     0.064 C 
BRANCH   7   9
ATOM      9  O   UNL A   1      31.321  26.791  24.138  1.00  0.00    -0.481 OA
BRANCH   9  10
ATOM     10  C   UNL A   1      30.437  27.710  23.664  1.00  0.00     0.120 A 
ATOM     11  C   UNL A   1      30.863  28.831  22.960  1.00  0.00     0.048 A 
ATOM     12  C   UNL A   1      29.087  27.380  23.691  1.00  0.00     0.048 A 
ATOM     13  C   UNL A   1      29.927  29.660  22.336  1.00  0.00     0.029 A 
ATOM     14  C   UNL A   1      28.155  28.203  23.052  1.00  0.00     0.029 A 
ATOM     15  C   UNL A   1      28.563  29.366  22.394  1.00  0.00     0.032 A 
BRANCH  15  16
ATOM     16  N   UNL A   1      27.655  30.131  21.682  1.00  0.00    -0.399 N 
ATOM     17  H   UNL A   1      27.710  30.174  20.700  1.00  0.00     0.156 HD
ATOM     18  H   UNL A   1      26.953  30.630  22.158  1.00  0.00     0.156 HD
ENDBRANCH  15  16
ENDBRANCH   9  10
ENDBRANCH   7   9
ENDBRANCH   4   7
ENDBRANCH   2   3
ENDBRANCH   1   2
BRANCH   1  19
ATOM     19  C   UNL A   1      31.405  32.043  26.830  1.00  0.00     0.023 C 
BRANCH  19  20
ATOM     20  C   UNL A   1      32.627  32.807  27.328  1.00  0.00     0.116 C 
BRANCH  20  21
ATOM     21  N   UNL A   1      32.351  34.204  27.630  1.00  0.00    -0.352 N 
ATOM     22  C   UNL A   1      32.966  35.029  28.540  1.00  0.00     0.251 C 
ATOM     23  H   UNL A   1      31.624  34.614  27.108  1.00  0.00     0.163 HD
ATOM     24  O   UNL A   1      32.528  36.156  28.750  1.00  0.00    -0.269 OA
BRANCH  22  25
ATOM     25  C   UNL A   1      34.137  34.541  29.298  1.00  0.00     0.039 A 
ATOM     26  C   UNL A   1      33.937  33.995  30.569  1.00  0.00     0.014 A 
ATOM     27  C   UNL A   1      35.421  34.598  28.750  1.00  0.00     0.014 A 
ATOM     28  C   UNL A   1      35.015  33.437  31.258  1.00  0.00     0.010 A 
ATOM     29  C   UNL A   1      36.479  33.973  29.405  1.00  0.00     0.010 A 
ATOM     30  C   UNL A   1      36.286  33.385  30.664  1.00  0.00    -0.014 A 
BRANCH  30  31
ATOM     31  C   UNL A   1      37.424  32.711  31.339  1.00  0.00     0.031 A 
ATOM     32  C   UNL A   1      38.123  31.560  30.673  1.00  0.00     0.074 A 
ATOM     33  C   UNL A   1      37.782  33.091  32.581  1.00  0.00     0.049 A 
ATOM     34  N   UNL A   1      39.082  30.794  31.131  1.00  0.00    -0.248 NA
ATOM     35  C   UNL A   1      37.664  31.203  29.322  1.00  0.00     0.031 C 
ATOM     36  C   UNL A   1      37.148  34.160  33.355  1.00  0.00     0.029 A 
ATOM     37  N   UNL A   1      38.757  32.609  33.419  1.00  0.00    -0.354 N 
ATOM     38  C   UNL A   1      39.330  29.862  30.133  1.00  0.00     0.074 A 
ATOM     39  C   UNL A   1      38.385  30.120  29.068  1.00  0.00     0.031 C 
ATOM     40  C   UNL A   1      37.762  34.265  34.544  1.00  0.00     0.029 A 
ATOM     41  C   UNL A   1      38.805  33.248  34.634  1.00  0.00     0.049 A 
ATOM     42  H   UNL A   1      39.365  31.876  33.172  1.00  0.00     0.167 HD
ATOM     43  C   UNL A   1      40.279  28.896  30.097  1.00  0.00     0.037 A 
ATOM     44  C   UNL A   1      39.594  33.032  35.704  1.00  0.00     0.037 A 
ATOM     45  C   UNL A   1      41.230  28.655  31.149  1.00  0.00     0.049 A 
ATOM     46  C   UNL A   1      40.636  31.948  35.639  1.00  0.00     0.074 A 
ATOM     47  C   UNL A   1      42.262  27.734  31.185  1.00  0.00     0.029 A 
ATOM     48  N   UNL A   1      41.263  29.340  32.356  1.00  0.00    -0.354 N 
ATOM     49  N   UNL A   1      40.907  31.117  34.663  1.00  0.00    -0.248 NA
ATOM     50  C   UNL A   1      41.487  31.777  36.825  1.00  0.00     0.031 C 
ATOM     51  C   UNL A   1      42.893  27.832  32.430  1.00  0.00     0.029 A 
ATOM     52  C   UNL A   1      42.287  28.848  33.150  1.00  0.00     0.049 A 
ATOM     53  H   UNL A   1      40.650  30.067  32.609  1.00  0.00     0.167 HD
ATOM     54  C   UNL A   1      41.974  30.345  35.103  1.00  0.00     0.074 A 
ATOM     55  C   UNL A   1      42.312  30.818  36.429  1.00  0.00     0.031 C 
ATOM     56  C   UNL A   1      42.615  29.335  34.466  1.00  0.00     0.037 A 
BRANCH  43  57
ATOM     57  C   UNL A   1      40.335  28.028  28.873  1.00  0.00     0.064 A 
ATOM     58  C   UNL A   1      41.104  28.387  27.754  1.00  0.00     0.173 A 
ATOM     59  C   UNL A   1      39.645  26.808  28.828  1.00  0.00     0.173 A 
ATOM     60  F   UNL A   1      41.774  29.549  27.740  1.00  0.00    -0.203 F 
ATOM     61  C   UNL A   1      41.153  27.572  26.626  1.00  0.00     0.198 A 
ATOM     62  C   UNL A   1      39.722  25.979  27.712  1.00  0.00     0.198 A 
ATOM     63  F   UNL A   1      38.901  26.413  29.873  1.00  0.00    -0.203 F 
ATOM     64  F   UNL A   1      41.852  27.961  25.550  1.00  0.00    -0.200 F 
ATOM     65  C   UNL A   1      40.469  26.366  26.609  1.00  0.00     0.200 A 
ATOM     66  F   UNL A   1      39.071  24.809  27.702  1.00  0.00    -0.200 F 
ATOM     67  F   UNL A   1      40.523  25.578  25.526  1.00  0.00    -0.200 F 
ENDBRANCH  43  57
BRANCH  44  68
ATOM     68  C   UNL A   1      39.444  33.873  36.920  1.00  0.00     0.064 A 
ATOM     69  C   UNL A   1      40.072  35.122  37.012  1.00  0.00     0.173 A 
ATOM     70  C   UNL A   1      38.677  33.445  38.012  1.00  0.00     0.173 A 
ATOM     71  F   UNL A   1      40.834  35.566  36.001  1.00  0.00    -0.203 F 
ATOM     72  C   UNL A   1      39.956  35.903  38.162  1.00  0.00     0.198 A 
ATOM     73  C   UNL A   1      38.538  34.238  39.149  1.00  0.00     0.198 A 
ATOM     74  F   UNL A   1      38.051  32.259  37.971  1.00  0.00    -0.203 F 
ATOM     75  F   UNL A   1      40.606  37.072  38.243  1.00  0.00    -0.200 F 
ATOM     76  C   UNL A   1      39.185  35.463  39.226  1.00  0.00     0.200 A 
ATOM     77  F   UNL A   1      37.779  33.817  40.169  1.00  0.00    -0.200 F 
ATOM     78  F   UNL A   1      39.071  36.215  40.329  1.00  0.00    -0.200 F 
ENDBRANCH  44  68
BRANCH  56  79
ATOM     79  C   UNL A   1      43.772  28.695  35.178  1.00  0.00     0.064 A 
ATOM     80  C   UNL A   1      45.079  29.185  35.049  1.00  0.00     0.173 A 
ATOM     81  C   UNL A   1      43.561  27.601  36.032  1.00  0.00     0.173 A 
ATOM     82  F   UNL A   1      45.335  30.219  34.233  1.00  0.00    -0.203 F 
ATOM     83  C   UNL A   1      46.137  28.588  35.730  1.00  0.00     0.198 A 
ATOM     84  C   UNL A   1      44.616  27.026  36.735  1.00  0.00     0.198 A 
ATOM     85  F   UNL A   1      42.328  27.098  36.196  1.00  0.00    -0.203 F 
ATOM     86  F   UNL A   1      47.385  29.043  35.555  1.00  0.00    -0.200 F 
ATOM     87  C   UNL A   1      45.903  27.515  36.577  1.00  0.00     0.200 A 
ATOM     88  F   UNL A   1      44.386  25.999  37.563  1.00  0.00    -0.200 F 
ATOM     89  F   UNL A   1      46.922  26.947  37.238  1.00  0.00    -0.200 F 
ENDBRANCH  56  79
ENDBRANCH  30  31
ENDBRANCH  22  25
ENDBRANCH  20  21
ENDBRANCH  19  20
ENDBRANCH   1  19
TORSDOF 14
ENDMDL
MODEL 3
REMARK VINA RESULT:     -11.4      6.354     10.529
REMARK SMILES C[C@@H](Oc1ccc(N)cc1)C(=O)NCCCCNC(=O)c1ccc(-c2c3nc(c(-c4c(F)c(F)c(F)c(F)c4F)c4ccc([nH]4)c(-c4c(F)c(F)c(F)c(F)c4F)c4nc(c(-c5c(F)c(F)c(F)c(F)c5F)c5ccc2[nH]5)C=C4)C=C3)cc1
REMARK SMILES IDX 15 1 14 2 13 3 11 4 12 5 2 7 1 8 3 9 4 10 5 11 10 12 6 13
REMARK SMILES IDX 9 14 7 15 8 16 16 19 17 20 18 21 19 22 20 24 21 25 22 26
REMARK SMILES IDX 83 27 23 28 82 29 24 30 25 31 26 32 76 33 27 34 81 35 75 36
REMARK SMILES IDX 77 37 28 38 80 39 74 40 73 41 29 43 61 44 41 45 60 46 42 47
REMARK SMILES IDX 45 48 59 49 78 50 43 51 44 52 58 54 79 55 46 56 30 57 31 58
REMARK SMILES IDX 39 59 32 60 33 61 37 62 40 63 34 64 35 65 38 66 36 67 62 68
REMARK SMILES IDX 63 69 71 70 64 71 65 72 69 73 72 74 66 75 67 76 70 77 68 78
REMARK SMILES IDX 47 79 48 80 56 81 49 82 50 83 54 84 57 85 51 86 52 87 55 88
REMARK SMILES IDX 53 89
REMARK H PARENT 13 6 8 17 8 18 18 23 77 42 45 53
REMARK Flexibility Score: inf
ROOT
ATOM      1  C   UNL A   1      36.970  20.715  25.053  1.00  0.00     0.023 C 
ENDROOT
BRANCH   1   2
ATOM      2  C   UNL A   1      37.339  22.134  24.630  1.00  0.00     0.116 C 
BRANCH   2   3
ATOM      3  N   UNL A   1      36.529  22.608  23.520  1.00  0.00    -0.353 N 
ATOM      4  C   UNL A   1      35.252  23.105  23.524  1.00  0.00     0.260 C 
ATOM      5  O   UNL A   1      34.779  23.481  22.448  1.00  0.00    -0.271 OA
ATOM      6  H   UNL A   1      36.961  22.565  22.636  1.00  0.00     0.163 HD
BRANCH   4   7
ATOM      7  C   UNL A   1      34.416  23.120  24.813  1.00  0.00     0.258 C 
ATOM      8  C   UNL A   1      34.392  24.552  25.345  1.00  0.00     0.064 C 
BRANCH   7   9
ATOM      9  O   UNL A   1      33.140  22.566  24.475  1.00  0.00    -0.481 OA
BRANCH   9  10
ATOM     10  C   UNL A   1      33.045  21.209  24.449  1.00  0.00     0.120 A 
ATOM     11  C   UNL A   1      33.232  20.445  25.596  1.00  0.00     0.048 A 
ATOM     12  C   UNL A   1      32.522  20.622  23.302  1.00  0.00     0.048 A 
ATOM     13  C   UNL A   1      32.955  19.076  25.575  1.00  0.00     0.029 A 
ATOM     14  C   UNL A   1      32.231  19.254  23.291  1.00  0.00     0.029 A 
ATOM     15  C   UNL A   1      32.472  18.463  24.417  1.00  0.00     0.032 A 
BRANCH  15  16
ATOM     16  N   UNL A   1      32.098  17.131  24.438  1.00  0.00    -0.399 N 
ATOM     17  H   UNL A   1      31.916  16.683  25.296  1.00  0.00     0.156 HD
ATOM     18  H   UNL A   1      32.012  16.630  23.595  1.00  0.00     0.156 HD
ENDBRANCH  15  16
ENDBRANCH   9  10
ENDBRANCH   7   9
ENDBRANCH   4   7
ENDBRANCH   2   3
ENDBRANCH   1   2
BRANCH   1  19
ATOM     19  C   UNL A   1      38.113  19.706  24.974  1.00  0.00     0.023 C 
BRANCH  19  20
ATOM     20  C   UNL A   1      39.366  20.084  25.756  1.00  0.00     0.116 C 
BRANCH  20  21
ATOM     21  N   UNL A   1      40.338  19.005  25.846  1.00  0.00    -0.352 N 
ATOM     22  C   UNL A   1      41.688  19.075  26.090  1.00  0.00     0.251 C 
ATOM     23  H   UNL A   1      39.977  18.098  25.714  1.00  0.00     0.163 HD
ATOM     24  O   UNL A   1      42.385  18.068  26.016  1.00  0.00    -0.269 OA
BRANCH  22  25
ATOM     25  C   UNL A   1      42.309  20.379  26.404  1.00  0.00     0.039 A 
ATOM     26  C   UNL A   1      42.903  21.109  25.371  1.00  0.00     0.014 A 
ATOM     27  C   UNL A   1      42.285  20.891  27.705  1.00  0.00     0.014 A 
ATOM     28  C   UNL A   1      43.404  22.386  25.628  1.00  0.00     0.010 A 
ATOM     29  C   UNL A   1      42.715  22.193  27.942  1.00  0.00     0.010 A 
ATOM     30  C   UNL A   1      43.277  22.954  26.906  1.00  0.00    -0.014 A 
BRANCH  30  31
ATOM     31  C   UNL A   1      43.717  24.347  27.177  1.00  0.00     0.031 A 
ATOM     32  C   UNL A   1      42.734  25.365  27.680  1.00  0.00     0.074 A 
ATOM     33  C   UNL A   1      44.984  24.711  26.901  1.00  0.00     0.049 A 
ATOM     34  N   UNL A   1      42.904  26.645  27.901  1.00  0.00    -0.248 NA
ATOM     35  C   UNL A   1      41.368  24.887  27.946  1.00  0.00     0.031 C 
ATOM     36  C   UNL A   1      46.019  23.828  26.359  1.00  0.00     0.029 A 
ATOM     37  N   UNL A   1      45.614  25.924  27.023  1.00  0.00    -0.354 N 
ATOM     38  C   UNL A   1      41.671  27.124  28.318  1.00  0.00     0.074 A 
ATOM     39  C   UNL A   1      40.745  26.012  28.265  1.00  0.00     0.031 C 
ATOM     40  C   UNL A   1      47.159  24.524  26.214  1.00  0.00     0.029 A 
ATOM     41  C   UNL A   1      46.926  25.908  26.615  1.00  0.00     0.049 A 
ATOM     42  H   UNL A   1      45.169  26.730  27.373  1.00  0.00     0.167 HD
ATOM     43  C   UNL A   1      41.344  28.372  28.732  1.00  0.00     0.037 A 
ATOM     44  C   UNL A   1      47.835  26.901  26.559  1.00  0.00     0.037 A 
ATOM     45  C   UNL A   1      42.272  29.470  28.801  1.00  0.00     0.049 A 
ATOM     46  C   UNL A   1      47.445  28.279  27.020  1.00  0.00     0.074 A 
ATOM     47  C   UNL A   1      42.051  30.758  29.256  1.00  0.00     0.029 A 
ATOM     48  N   UNL A   1      43.600  29.409  28.402  1.00  0.00    -0.354 N 
ATOM     49  N   UNL A   1      46.293  28.705  27.477  1.00  0.00    -0.248 NA
ATOM     50  C   UNL A   1      48.487  29.314  26.964  1.00  0.00     0.031 C 
ATOM     51  C   UNL A   1      43.233  31.488  29.091  1.00  0.00     0.029 A 
ATOM     52  C   UNL A   1      44.204  30.642  28.582  1.00  0.00     0.049 A 
ATOM     53  H   UNL A   1      44.045  28.607  28.043  1.00  0.00     0.167 HD
ATOM     54  C   UNL A   1      46.477  30.045  27.787  1.00  0.00     0.074 A 
ATOM     55  C   UNL A   1      47.857  30.359  27.483  1.00  0.00     0.031 C 
ATOM     56  C   UNL A   1      45.582  30.936  28.280  1.00  0.00     0.037 A 
BRANCH  43  57
ATOM     57  C   UNL A   1      39.922  28.613  29.147  1.00  0.00     0.064 A 
ATOM     58  C   UNL A   1      39.491  28.374  30.462  1.00  0.00     0.173 A 
ATOM     59  C   UNL A   1      38.987  29.123  28.234  1.00  0.00     0.173 A 
ATOM     60  F   UNL A   1      40.342  27.876  31.371  1.00  0.00    -0.203 F 
ATOM     61  C   UNL A   1      38.170  28.606  30.837  1.00  0.00     0.198 A 
ATOM     62  C   UNL A   1      37.675  29.385  28.621  1.00  0.00     0.198 A 
ATOM     63  F   UNL A   1      39.348  29.376  26.967  1.00  0.00    -0.203 F 
ATOM     64  F   UNL A   1      37.770  28.321  32.084  1.00  0.00    -0.200 F 
ATOM     65  C   UNL A   1      37.266  29.119  29.919  1.00  0.00     0.200 A 
ATOM     66  F   UNL A   1      36.806  29.892  27.736  1.00  0.00    -0.200 F 
ATOM     67  F   UNL A   1      35.997  29.349  30.283  1.00  0.00    -0.200 F 
ENDBRANCH  43  57
BRANCH  44  68
ATOM     68  C   UNL A   1      49.210  26.621  26.068  1.00  0.00     0.064 A 
ATOM     69  C   UNL A   1      49.575  26.911  24.747  1.00  0.00     0.173 A 
ATOM     70  C   UNL A   1      50.182  26.057  26.906  1.00  0.00     0.173 A 
ATOM     71  F   UNL A   1      48.673  27.431  23.901  1.00  0.00    -0.203 F 
ATOM     72  C   UNL A   1      50.855  26.625  24.274  1.00  0.00     0.198 A 
ATOM     73  C   UNL A   1      51.471  25.799  26.441  1.00  0.00     0.198 A 
ATOM     74  F   UNL A   1      49.886  25.768  28.182  1.00  0.00    -0.203 F 
ATOM     75  F   UNL A   1      51.162  26.868  22.993  1.00  0.00    -0.200 F 
ATOM     76  C   UNL A   1      51.803  26.076  25.122  1.00  0.00     0.200 A 
ATOM     77  F   UNL A   1      52.388  25.283  27.269  1.00  0.00    -0.200 F 
ATOM     78  F   UNL A   1      53.034  25.805  24.670  1.00  0.00    -0.200 F 
ENDBRANCH  44  68
BRANCH  56  79
ATOM     79  C   UNL A   1      46.076  32.328  28.556  1.00  0.00     0.064 A 
ATOM     80  C   UNL A   1      46.000  33.341  27.590  1.00  0.00     0.173 A 
ATOM     81  C   UNL A   1      46.594  32.659  29.818  1.00  0.00     0.173 A 
ATOM     82  F   UNL A   1      45.527  33.071  26.364  1.00  0.00    -0.203 F 
ATOM     83  C   UNL A   1      46.449  34.629  27.869  1.00  0.00     0.198 A 
ATOM     84  C   UNL A   1      47.013  33.955  30.103  1.00  0.00     0.198 A 
ATOM     85  F   UNL A   1      46.682  31.727  30.779  1.00  0.00    -0.203 F 
ATOM     86  F   UNL A   1      46.411  35.570  26.915  1.00  0.00    -0.200 F 
ATOM     87  C   UNL A   1      46.947  34.937  29.126  1.00  0.00     0.200 A 
ATOM     88  F   UNL A   1      47.481  34.253  31.322  1.00  0.00    -0.200 F 
ATOM     89  F   UNL A   1      47.370  36.180  29.395  1.00  0.00    -0.200 F 
ENDBRANCH  56  79
ENDBRANCH  30  31
ENDBRANCH  22  25
ENDBRANCH  20  21
ENDBRANCH  19  20
ENDBRANCH   1  19
TORSDOF 14
ENDMDL
