MODEL 1
REMARK VINA RESULT:     -12.1      0.000      0.000
REMARK SMILES C[C@H](Oc1ccnc2c(F)cc(F)cc12)C(=O)NCCCCNC(=O)c1ccc(-c2c3nc(c(-c4c(F)c(F)c(F)c(F)c4F)c4ccc([nH]4)c(-c4c(F)c(F)c(F)c(F)c4F)c4nc(c(-c5c(F)c(F)c(F)c(F)c5F)c5ccc2[nH]5)C=C4)C=C3)cc1
REMARK SMILES IDX 20 1 19 2 18 3 16 4 17 5 2 7 1 8 3 9 4 10 5 11 15 12 6 13
REMARK SMILES IDX 8 14 14 15 7 16 9 17 12 18 10 19 11 20 13 21 21 22 22 23
REMARK SMILES IDX 23 24 24 25 25 27 26 28 27 29 88 30 28 31 87 32 29 33 30 34
REMARK SMILES IDX 31 35 81 36 32 37 86 38 80 39 82 40 33 41 85 42 79 43 78 44
REMARK SMILES IDX 34 46 66 47 46 48 65 49 47 50 50 51 64 52 83 53 48 54 49 55
REMARK SMILES IDX 63 57 84 58 51 59 35 60 36 61 44 62 37 63 38 64 42 65 45 66
REMARK SMILES IDX 39 67 40 68 43 69 41 70 67 71 68 72 76 73 69 74 70 75 74 76
REMARK SMILES IDX 77 77 71 78 72 79 75 80 73 81 52 82 53 83 61 84 54 85 55 86
REMARK SMILES IDX 59 87 62 88 56 89 57 90 60 91 58 92
REMARK H PARENT 18 6 23 26 82 45 50 56
REMARK Flexibility Score: inf
ROOT
ATOM      1  C   UNL A   1      37.097  20.752  24.809  1.00  0.00     0.023 C 
ENDROOT
BRANCH   1   2
ATOM      2  C   UNL A   1      35.649  20.298  24.977  1.00  0.00     0.116 C 
BRANCH   2   3
ATOM      3  N   UNL A   1      35.045  20.791  26.199  1.00  0.00    -0.353 N 
ATOM      4  C   UNL A   1      34.658  22.053  26.539  1.00  0.00     0.260 C 
ATOM      5  O   UNL A   1      34.154  22.221  27.653  1.00  0.00    -0.271 OA
ATOM      6  H   UNL A   1      34.890  20.109  26.892  1.00  0.00     0.163 HD
BRANCH   4   7
ATOM      7  C   UNL A   1      34.822  23.236  25.564  1.00  0.00     0.258 C 
ATOM      8  C   UNL A   1      36.131  23.967  25.855  1.00  0.00     0.064 C 
BRANCH   7   9
ATOM      9  O   UNL A   1      33.760  24.186  25.566  1.00  0.00    -0.480 OA
BRANCH   9  10
ATOM     10  C   UNL A   1      33.653  25.052  24.502  1.00  0.00     0.131 A 
ATOM     11  C   UNL A   1      33.539  24.652  23.175  1.00  0.00     0.067 A 
ATOM     12  C   UNL A   1      33.665  26.431  24.815  1.00  0.00     0.048 A 
ATOM     13  C   UNL A   1      33.412  25.629  22.209  1.00  0.00     0.115 A 
ATOM     14  C   UNL A   1      33.525  27.353  23.754  1.00  0.00     0.110 A 
ATOM     15  C   UNL A   1      33.792  26.916  26.138  1.00  0.00     0.053 A 
ATOM     16  N   UNL A   1      33.398  26.949  22.474  1.00  0.00    -0.253 NA
ATOM     17  C   UNL A   1      33.515  28.716  24.067  1.00  0.00     0.152 A 
ATOM     18  C   UNL A   1      33.774  28.280  26.397  1.00  0.00     0.127 A 
ATOM     19  F   UNL A   1      33.378  29.623  23.086  1.00  0.00    -0.204 F 
ATOM     20  C   UNL A   1      33.635  29.191  25.370  1.00  0.00     0.080 A 
ATOM     21  F   UNL A   1      33.885  28.715  27.658  1.00  0.00    -0.207 F 
ENDBRANCH   9  10
ENDBRANCH   7   9
ENDBRANCH   4   7
ENDBRANCH   2   3
ENDBRANCH   1   2
BRANCH   1  22
ATOM     22  C   UNL A   1      38.154  19.664  25.002  1.00  0.00     0.023 C 
BRANCH  22  23
ATOM     23  C   UNL A   1      39.357  20.062  25.849  1.00  0.00     0.116 C 
BRANCH  23  24
ATOM     24  N   UNL A   1      40.370  19.021  25.918  1.00  0.00    -0.352 N 
ATOM     25  C   UNL A   1      41.721  19.149  26.122  1.00  0.00     0.251 C 
ATOM     26  H   UNL A   1      40.042  18.101  25.802  1.00  0.00     0.163 HD
ATOM     27  O   UNL A   1      42.464  18.178  26.034  1.00  0.00    -0.269 OA
BRANCH  25  28
ATOM     28  C   UNL A   1      42.282  20.481  26.420  1.00  0.00     0.039 A 
ATOM     29  C   UNL A   1      42.731  21.276  25.363  1.00  0.00     0.014 A 
ATOM     30  C   UNL A   1      42.336  20.949  27.736  1.00  0.00     0.014 A 
ATOM     31  C   UNL A   1      43.176  22.572  25.619  1.00  0.00     0.010 A 
ATOM     32  C   UNL A   1      42.729  22.261  27.984  1.00  0.00     0.010 A 
ATOM     33  C   UNL A   1      43.153  23.081  26.927  1.00  0.00    -0.014 A 
BRANCH  33  34
ATOM     34  C   UNL A   1      43.598  24.465  27.215  1.00  0.00     0.031 A 
ATOM     35  C   UNL A   1      42.599  25.482  27.683  1.00  0.00     0.074 A 
ATOM     36  C   UNL A   1      44.883  24.812  27.015  1.00  0.00     0.049 A 
ATOM     37  N   UNL A   1      42.773  26.751  27.945  1.00  0.00    -0.248 NA
ATOM     38  C   UNL A   1      41.216  25.013  27.862  1.00  0.00     0.031 C 
ATOM     39  C   UNL A   1      45.936  23.916  26.538  1.00  0.00     0.029 A 
ATOM     40  N   UNL A   1      45.518  26.017  27.183  1.00  0.00    -0.354 N 
ATOM     41  C   UNL A   1      41.528  27.231  28.321  1.00  0.00     0.074 A 
ATOM     42  C   UNL A   1      40.594  26.133  28.201  1.00  0.00     0.031 C 
ATOM     43  C   UNL A   1      47.092  24.597  26.470  1.00  0.00     0.029 A 
ATOM     44  C   UNL A   1      46.855  25.982  26.872  1.00  0.00     0.049 A 
ATOM     45  H   UNL A   1      45.058  26.830  27.496  1.00  0.00     0.167 HD
ATOM     46  C   UNL A   1      41.198  28.470  28.755  1.00  0.00     0.037 A 
ATOM     47  C   UNL A   1      47.781  26.958  26.907  1.00  0.00     0.037 A 
ATOM     48  C   UNL A   1      42.131  29.556  28.889  1.00  0.00     0.049 A 
ATOM     49  C   UNL A   1      47.381  28.337  27.357  1.00  0.00     0.074 A 
ATOM     50  C   UNL A   1      41.901  30.837  29.357  1.00  0.00     0.029 A 
ATOM     51  N   UNL A   1      43.473  29.487  28.549  1.00  0.00    -0.354 N 
ATOM     52  N   UNL A   1      46.210  28.767  27.758  1.00  0.00    -0.248 NA
ATOM     53  C   UNL A   1      48.432  29.365  27.361  1.00  0.00     0.031 C 
ATOM     54  C   UNL A   1      43.098  31.554  29.269  1.00  0.00     0.029 A 
ATOM     55  C   UNL A   1      44.082  30.709  28.781  1.00  0.00     0.049 A 
ATOM     56  H   UNL A   1      43.927  28.687  28.197  1.00  0.00     0.167 HD
ATOM     57  C   UNL A   1      46.385  30.106  28.082  1.00  0.00     0.074 A 
ATOM     58  C   UNL A   1      47.779  30.416  27.840  1.00  0.00     0.031 C 
ATOM     59  C   UNL A   1      45.472  30.997  28.539  1.00  0.00     0.037 A 
BRANCH  46  60
ATOM     60  C   UNL A   1      39.767  28.710  29.133  1.00  0.00     0.064 A 
ATOM     61  C   UNL A   1      39.307  28.462  30.435  1.00  0.00     0.173 A 
ATOM     62  C   UNL A   1      38.858  29.226  28.199  1.00  0.00     0.173 A 
ATOM     63  F   UNL A   1      40.137  27.954  31.359  1.00  0.00    -0.203 F 
ATOM     64  C   UNL A   1      37.982  28.704  30.783  1.00  0.00     0.198 A 
ATOM     65  C   UNL A   1      37.538  29.490  28.558  1.00  0.00     0.198 A 
ATOM     66  F   UNL A   1      39.249  29.482  26.943  1.00  0.00    -0.203 F 
ATOM     67  F   UNL A   1      37.555  28.422  32.022  1.00  0.00    -0.200 F 
ATOM     68  C   UNL A   1      37.101  29.224  29.848  1.00  0.00     0.200 A 
ATOM     69  F   UNL A   1      36.690  30.001  27.656  1.00  0.00    -0.200 F 
ATOM     70  F   UNL A   1      35.826  29.463  30.187  1.00  0.00    -0.200 F 
ENDBRANCH  46  60
BRANCH  47  71
ATOM     71  C   UNL A   1      49.187  26.654  26.542  1.00  0.00     0.064 A 
ATOM     72  C   UNL A   1      49.624  26.782  25.216  1.00  0.00     0.173 A 
ATOM     73  C   UNL A   1      50.123  26.248  27.504  1.00  0.00     0.173 A 
ATOM     74  F   UNL A   1      48.759  27.148  24.259  1.00  0.00    -0.203 F 
ATOM     75  C   UNL A   1      50.944  26.508  24.865  1.00  0.00     0.198 A 
ATOM     76  C   UNL A   1      51.448  25.994  27.154  1.00  0.00     0.198 A 
ATOM     77  F   UNL A   1      49.753  26.112  28.786  1.00  0.00    -0.203 F 
ATOM     78  F   UNL A   1      51.329  26.609  23.586  1.00  0.00    -0.200 F 
ATOM     79  C   UNL A   1      51.857  26.120  25.835  1.00  0.00     0.200 A 
ATOM     80  F   UNL A   1      52.328  25.628  28.095  1.00  0.00    -0.200 F 
ATOM     81  F   UNL A   1      53.127  25.863  25.498  1.00  0.00    -0.200 F 
ENDBRANCH  47  71
BRANCH  59  82
ATOM     82  C   UNL A   1      45.946  32.389  28.825  1.00  0.00     0.064 A 
ATOM     83  C   UNL A   1      46.488  32.734  30.071  1.00  0.00     0.173 A 
ATOM     84  C   UNL A   1      45.929  33.367  27.818  1.00  0.00     0.173 A 
ATOM     85  F   UNL A   1      46.513  31.837  31.068  1.00  0.00    -0.203 F 
ATOM     86  C   UNL A   1      46.991  34.011  30.301  1.00  0.00     0.198 A 
ATOM     87  C   UNL A   1      46.455  34.635  28.045  1.00  0.00     0.198 A 
ATOM     88  F   UNL A   1      45.426  33.083  26.608  1.00  0.00    -0.203 F 
ATOM     89  F   UNL A   1      47.482  34.329  31.508  1.00  0.00    -0.200 F 
ATOM     90  C   UNL A   1      46.983  34.958  29.286  1.00  0.00     0.200 A 
ATOM     91  F   UNL A   1      46.459  35.544  27.060  1.00  0.00    -0.200 F 
ATOM     92  F   UNL A   1      47.484  36.181  29.506  1.00  0.00    -0.200 F 
ENDBRANCH  59  82
ENDBRANCH  33  34
ENDBRANCH  25  28
ENDBRANCH  23  24
ENDBRANCH  22  23
ENDBRANCH   1  22
TORSDOF 13
ENDMDL
MODEL 2
REMARK VINA RESULT:     -12.1      5.896     11.115
REMARK SMILES C[C@H](Oc1ccnc2c(F)cc(F)cc12)C(=O)NCCCCNC(=O)c1ccc(-c2c3nc(c(-c4c(F)c(F)c(F)c(F)c4F)c4ccc([nH]4)c(-c4c(F)c(F)c(F)c(F)c4F)c4nc(c(-c5c(F)c(F)c(F)c(F)c5F)c5ccc2[nH]5)C=C4)C=C3)cc1
REMARK SMILES IDX 20 1 19 2 18 3 16 4 17 5 2 7 1 8 3 9 4 10 5 11 15 12 6 13
REMARK SMILES IDX 8 14 14 15 7 16 9 17 12 18 10 19 11 20 13 21 21 22 22 23
REMARK SMILES IDX 23 24 24 25 25 27 26 28 27 29 88 30 28 31 87 32 29 33 30 34
REMARK SMILES IDX 31 35 81 36 32 37 86 38 80 39 82 40 33 41 85 42 79 43 78 44
REMARK SMILES IDX 34 46 66 47 46 48 65 49 47 50 50 51 64 52 83 53 48 54 49 55
REMARK SMILES IDX 63 57 84 58 51 59 35 60 36 61 44 62 37 63 38 64 42 65 45 66
REMARK SMILES IDX 39 67 40 68 43 69 41 70 67 71 68 72 76 73 69 74 70 75 74 76
REMARK SMILES IDX 77 77 71 78 72 79 75 80 73 81 52 82 53 83 61 84 54 85 55 86
REMARK SMILES IDX 59 87 62 88 56 89 57 90 60 91 58 92
REMARK H PARENT 18 6 23 26 82 45 50 56
REMARK Flexibility Score: inf
ROOT
ATOM      1  C   UNL A   1      31.499  30.844  25.727  1.00  0.00     0.023 C 
ENDROOT
BRANCH   1   2
ATOM      2  C   UNL A   1      32.619  29.817  25.877  1.00  0.00     0.116 C 
BRANCH   2   3
ATOM      3  N   UNL A   1      33.496  29.770  24.723  1.00  0.00    -0.353 N 
ATOM      4  C   UNL A   1      33.696  28.775  23.814  1.00  0.00     0.260 C 
ATOM      5  O   UNL A   1      34.503  28.981  22.903  1.00  0.00    -0.271 OA
ATOM      6  H   UNL A   1      34.030  30.583  24.573  1.00  0.00     0.163 HD
BRANCH   4   7
ATOM      7  C   UNL A   1      32.931  27.440  23.900  1.00  0.00     0.258 C 
ATOM      8  C   UNL A   1      33.921  26.276  23.894  1.00  0.00     0.064 C 
BRANCH   7   9
ATOM      9  O   UNL A   1      31.962  27.219  22.878  1.00  0.00    -0.480 OA
BRANCH   9  10
ATOM     10  C   UNL A   1      30.662  26.964  23.251  1.00  0.00     0.131 A 
ATOM     11  C   UNL A   1      30.245  25.801  23.889  1.00  0.00     0.067 A 
ATOM     12  C   UNL A   1      29.717  27.971  22.949  1.00  0.00     0.048 A 
ATOM     13  C   UNL A   1      28.913  25.689  24.231  1.00  0.00     0.115 A 
ATOM     14  C   UNL A   1      28.376  27.762  23.345  1.00  0.00     0.110 A 
ATOM     15  C   UNL A   1      30.061  29.174  22.290  1.00  0.00     0.053 A 
ATOM     16  N   UNL A   1      27.990  26.637  23.978  1.00  0.00    -0.253 NA
ATOM     17  C   UNL A   1      27.447  28.768  23.065  1.00  0.00     0.152 A 
ATOM     18  C   UNL A   1      29.100  30.144  22.037  1.00  0.00     0.127 A 
ATOM     19  F   UNL A   1      26.164  28.609  23.431  1.00  0.00    -0.204 F 
ATOM     20  C   UNL A   1      27.789  29.953  22.420  1.00  0.00     0.080 A 
ATOM     21  F   UNL A   1      29.452  31.279  21.421  1.00  0.00    -0.207 F 
ENDBRANCH   9  10
ENDBRANCH   7   9
ENDBRANCH   4   7
ENDBRANCH   2   3
ENDBRANCH   1   2
BRANCH   1  22
ATOM     22  C   UNL A   1      31.374  31.853  26.869  1.00  0.00     0.023 C 
BRANCH  22  23
ATOM     23  C   UNL A   1      32.633  32.656  27.175  1.00  0.00     0.116 C 
BRANCH  23  24
ATOM     24  N   UNL A   1      32.351  34.039  27.520  1.00  0.00    -0.352 N 
ATOM     25  C   UNL A   1      32.948  34.827  28.473  1.00  0.00     0.251 C 
ATOM     26  H   UNL A   1      31.635  34.470  27.001  1.00  0.00     0.163 HD
ATOM     27  O   UNL A   1      32.514  35.945  28.726  1.00  0.00    -0.269 OA
BRANCH  25  28
ATOM     28  C   UNL A   1      34.107  34.300  29.219  1.00  0.00     0.039 A 
ATOM     29  C   UNL A   1      33.881  33.547  30.374  1.00  0.00     0.014 A 
ATOM     30  C   UNL A   1      35.408  34.527  28.760  1.00  0.00     0.014 A 
ATOM     31  C   UNL A   1      34.961  32.965  31.036  1.00  0.00     0.010 A 
ATOM     32  C   UNL A   1      36.480  33.901  29.390  1.00  0.00     0.010 A 
ATOM     33  C   UNL A   1      36.263  33.117  30.534  1.00  0.00    -0.014 A 
BRANCH  33  34
ATOM     34  C   UNL A   1      37.420  32.484  31.209  1.00  0.00     0.031 A 
ATOM     35  C   UNL A   1      38.148  31.358  30.534  1.00  0.00     0.074 A 
ATOM     36  C   UNL A   1      37.784  32.891  32.439  1.00  0.00     0.049 A 
ATOM     37  N   UNL A   1      39.152  30.643  30.972  1.00  0.00    -0.248 NA
ATOM     38  C   UNL A   1      37.671  30.974  29.196  1.00  0.00     0.031 C 
ATOM     39  C   UNL A   1      37.136  33.956  33.203  1.00  0.00     0.029 A 
ATOM     40  N   UNL A   1      38.788  32.450  33.265  1.00  0.00    -0.354 N 
ATOM     41  C   UNL A   1      39.427  29.729  29.966  1.00  0.00     0.074 A 
ATOM     42  C   UNL A   1      38.452  29.941  28.919  1.00  0.00     0.031 C 
ATOM     43  C   UNL A   1      37.770  34.100  34.379  1.00  0.00     0.029 A 
ATOM     44  C   UNL A   1      38.851  33.120  34.461  1.00  0.00     0.049 A 
ATOM     45  H   UNL A   1      39.405  31.721  33.022  1.00  0.00     0.167 HD
ATOM     46  C   UNL A   1      40.423  28.814  29.909  1.00  0.00     0.037 A 
ATOM     47  C   UNL A   1      39.686  32.959  35.505  1.00  0.00     0.037 A 
ATOM     48  C   UNL A   1      41.400  28.615  30.944  1.00  0.00     0.049 A 
ATOM     49  C   UNL A   1      40.760  31.909  35.432  1.00  0.00     0.074 A 
ATOM     50  C   UNL A   1      42.471  27.740  30.962  1.00  0.00     0.029 A 
ATOM     51  N   UNL A   1      41.422  29.302  32.148  1.00  0.00    -0.354 N 
ATOM     52  N   UNL A   1      41.044  31.083  34.455  1.00  0.00    -0.248 NA
ATOM     53  C   UNL A   1      41.633  31.769  36.608  1.00  0.00     0.031 C 
ATOM     54  C   UNL A   1      43.122  27.873  32.193  1.00  0.00     0.029 A 
ATOM     55  C   UNL A   1      42.479  28.858  32.926  1.00  0.00     0.049 A 
ATOM     56  H   UNL A   1      40.782  30.003  32.411  1.00  0.00     0.167 HD
ATOM     57  C   UNL A   1      42.136  30.342  34.886  1.00  0.00     0.074 A 
ATOM     58  C   UNL A   1      42.472  30.822  36.210  1.00  0.00     0.031 C 
ATOM     59  C   UNL A   1      42.800  29.352  34.240  1.00  0.00     0.037 A 
BRANCH  46  60
ATOM     60  C   UNL A   1      40.511  27.968  28.675  1.00  0.00     0.064 A 
ATOM     61  C   UNL A   1      41.279  28.369  27.571  1.00  0.00     0.173 A 
ATOM     62  C   UNL A   1      39.857  26.730  28.608  1.00  0.00     0.173 A 
ATOM     63  F   UNL A   1      41.910  29.553  27.583  1.00  0.00    -0.203 F 
ATOM     64  C   UNL A   1      41.370  27.571  26.435  1.00  0.00     0.198 A 
ATOM     65  C   UNL A   1      39.971  25.922  27.479  1.00  0.00     0.198 A 
ATOM     66  F   UNL A   1      39.114  26.300  29.637  1.00  0.00    -0.203 F 
ATOM     67  F   UNL A   1      42.076  27.993  25.377  1.00  0.00    -0.200 F 
ATOM     68  C   UNL A   1      40.724  26.345  26.393  1.00  0.00     0.200 A 
ATOM     69  F   UNL A   1      39.354  24.733  27.442  1.00  0.00    -0.200 F 
ATOM     70  F   UNL A   1      40.819  25.573  25.301  1.00  0.00    -0.200 F 
ENDBRANCH  46  60
BRANCH  47  71
ATOM     71  C   UNL A   1      39.562  33.842  36.691  1.00  0.00     0.064 A 
ATOM     72  C   UNL A   1      38.779  33.459  37.788  1.00  0.00     0.173 A 
ATOM     73  C   UNL A   1      40.231  35.072  36.762  1.00  0.00     0.173 A 
ATOM     74  F   UNL A   1      38.104  32.300  37.756  1.00  0.00    -0.203 F 
ATOM     75  C   UNL A   1      38.664  34.277  38.910  1.00  0.00     0.198 A 
ATOM     76  C   UNL A   1      40.132  35.879  37.894  1.00  0.00     0.198 A 
ATOM     77  F   UNL A   1      40.994  35.482  35.738  1.00  0.00    -0.203 F 
ATOM     78  F   UNL A   1      37.885  33.900  39.933  1.00  0.00    -0.200 F 
ATOM     79  C   UNL A   1      39.345  35.484  38.965  1.00  0.00     0.200 A 
ATOM     80  F   UNL A   1      40.798  37.041  37.947  1.00  0.00    -0.200 F 
ATOM     81  F   UNL A   1      39.239  36.266  40.047  1.00  0.00    -0.200 F 
ENDBRANCH  47  71
BRANCH  59  82
ATOM     82  C   UNL A   1      43.968  28.729  34.942  1.00  0.00     0.064 A 
ATOM     83  C   UNL A   1      45.253  29.282  34.853  1.00  0.00     0.173 A 
ATOM     84  C   UNL A   1      43.785  27.614  35.775  1.00  0.00     0.173 A 
ATOM     85  F   UNL A   1      45.479  30.339  34.060  1.00  0.00    -0.203 F 
ATOM     86  C   UNL A   1      46.316  28.736  35.567  1.00  0.00     0.198 A 
ATOM     87  C   UNL A   1      44.844  27.087  36.506  1.00  0.00     0.198 A 
ATOM     88  F   UNL A   1      42.572  27.054  35.897  1.00  0.00    -0.203 F 
ATOM     89  F   UNL A   1      47.542  29.265  35.449  1.00  0.00    -0.200 F 
ATOM     90  C   UNL A   1      46.109  27.646  36.401  1.00  0.00     0.200 A 
ATOM     91  F   UNL A   1      44.641  26.041  37.321  1.00  0.00    -0.200 F 
ATOM     92  F   UNL A   1      47.130  27.134  37.101  1.00  0.00    -0.200 F 
ENDBRANCH  59  82
ENDBRANCH  33  34
ENDBRANCH  25  28
ENDBRANCH  23  24
ENDBRANCH  22  23
ENDBRANCH   1  22
TORSDOF 13
ENDMDL
MODEL 3
REMARK VINA RESULT:     -12.1      5.441      9.830
REMARK SMILES C[C@H](Oc1ccnc2c(F)cc(F)cc12)C(=O)NCCCCNC(=O)c1ccc(-c2c3nc(c(-c4c(F)c(F)c(F)c(F)c4F)c4ccc([nH]4)c(-c4c(F)c(F)c(F)c(F)c4F)c4nc(c(-c5c(F)c(F)c(F)c(F)c5F)c5ccc2[nH]5)C=C4)C=C3)cc1
REMARK SMILES IDX 20 1 19 2 18 3 16 4 17 5 2 7 1 8 3 9 4 10 5 11 15 12 6 13
REMARK SMILES IDX 8 14 14 15 7 16 9 17 12 18 10 19 11 20 13 21 21 22 22 23
REMARK SMILES IDX 23 24 24 25 25 27 26 28 27 29 88 30 28 31 87 32 29 33 30 34
REMARK SMILES IDX 31 35 81 36 32 37 86 38 80 39 82 40 33 41 85 42 79 43 78 44
REMARK SMILES IDX 34 46 66 47 46 48 65 49 47 50 50 51 64 52 83 53 48 54 49 55
REMARK SMILES IDX 63 57 84 58 51 59 35 60 36 61 44 62 37 63 38 64 42 65 45 66
REMARK SMILES IDX 39 67 40 68 43 69 41 70 67 71 68 72 76 73 69 74 70 75 74 76
REMARK SMILES IDX 77 77 71 78 72 79 75 80 73 81 52 82 53 83 61 84 54 85 55 86
REMARK SMILES IDX 59 87 62 88 56 89 57 90 60 91 58 92
REMARK H PARENT 18 6 23 26 82 45 50 56
REMARK Flexibility Score: inf
ROOT
ATOM      1  C   UNL A   1      34.055  35.199  28.770  1.00  0.00     0.023 C 
ENDROOT
BRANCH   1   2
ATOM      2  C   UNL A   1      32.971  36.181  29.206  1.00  0.00     0.116 C 
BRANCH   2   3
ATOM      3  N   UNL A   1      33.417  37.081  30.252  1.00  0.00    -0.353 N 
ATOM      4  C   UNL A   1      33.496  36.888  31.599  1.00  0.00     0.260 C 
ATOM      5  O   UNL A   1      33.922  37.819  32.290  1.00  0.00    -0.271 OA
ATOM      6  H   UNL A   1      33.706  37.969  29.942  1.00  0.00     0.163 HD
BRANCH   4   7
ATOM      7  C   UNL A   1      33.091  35.550  32.247  1.00  0.00     0.258 C 
ATOM      8  C   UNL A   1      31.742  35.703  32.947  1.00  0.00     0.064 C 
BRANCH   7   9
ATOM      9  O   UNL A   1      34.027  35.007  33.175  1.00  0.00    -0.480 OA
BRANCH   9  10
ATOM     10  C   UNL A   1      34.681  33.843  32.842  1.00  0.00     0.131 A 
ATOM     11  C   UNL A   1      34.403  33.086  31.710  1.00  0.00     0.067 A 
ATOM     12  C   UNL A   1      35.694  33.420  33.734  1.00  0.00     0.048 A 
ATOM     13  C   UNL A   1      35.157  31.953  31.484  1.00  0.00     0.115 A 
ATOM     14  C   UNL A   1      36.412  32.246  33.410  1.00  0.00     0.110 A 
ATOM     15  C   UNL A   1      36.024  34.128  34.912  1.00  0.00     0.053 A 
ATOM     16  N   UNL A   1      36.143  31.532  32.300  1.00  0.00    -0.253 NA
ATOM     17  C   UNL A   1      37.428  31.840  34.281  1.00  0.00     0.152 A 
ATOM     18  C   UNL A   1      37.045  33.684  35.743  1.00  0.00     0.127 A 
ATOM     19  F   UNL A   1      38.137  30.733  34.005  1.00  0.00    -0.204 F 
ATOM     20  C   UNL A   1      37.755  32.542  35.438  1.00  0.00     0.080 A 
ATOM     21  F   UNL A   1      37.346  34.377  36.848  1.00  0.00    -0.207 F 
ENDBRANCH   9  10
ENDBRANCH   7   9
ENDBRANCH   4   7
ENDBRANCH   2   3
ENDBRANCH   1   2
BRANCH   1  22
ATOM     22  C   UNL A   1      33.562  33.973  28.001  1.00  0.00     0.023 C 
BRANCH  22  23
ATOM     23  C   UNL A   1      34.437  32.731  28.117  1.00  0.00     0.116 C 
BRANCH  23  24
ATOM     24  N   UNL A   1      33.795  31.536  27.596  1.00  0.00    -0.352 N 
ATOM     25  C   UNL A   1      34.308  30.268  27.470  1.00  0.00     0.251 C 
ATOM     26  H   UNL A   1      32.866  31.650  27.292  1.00  0.00     0.163 HD
ATOM     27  O   UNL A   1      33.675  29.389  26.898  1.00  0.00    -0.269 OA
BRANCH  25  28
ATOM     28  C   UNL A   1      35.652  29.980  28.007  1.00  0.00     0.039 A 
ATOM     29  C   UNL A   1      35.765  29.459  29.299  1.00  0.00     0.014 A 
ATOM     30  C   UNL A   1      36.790  30.196  27.225  1.00  0.00     0.014 A 
ATOM     31  C   UNL A   1      37.019  29.094  29.785  1.00  0.00     0.010 A 
ATOM     32  C   UNL A   1      38.034  29.781  27.690  1.00  0.00     0.010 A 
ATOM     33  C   UNL A   1      38.157  29.229  28.974  1.00  0.00    -0.014 A 
BRANCH  33  34
ATOM     34  C   UNL A   1      39.495  28.822  29.464  1.00  0.00     0.031 A 
ATOM     35  C   UNL A   1      40.209  29.677  30.469  1.00  0.00     0.074 A 
ATOM     36  C   UNL A   1      40.080  27.713  28.974  1.00  0.00     0.049 A 
ATOM     37  N   UNL A   1      41.399  29.523  30.989  1.00  0.00    -0.248 NA
ATOM     38  C   UNL A   1      39.495  30.875  30.939  1.00  0.00     0.031 C 
ATOM     39  C   UNL A   1      39.494  26.819  27.976  1.00  0.00     0.029 A 
ATOM     40  N   UNL A   1      41.304  27.154  29.247  1.00  0.00    -0.354 N 
ATOM     41  C   UNL A   1      41.576  30.599  31.846  1.00  0.00     0.074 A 
ATOM     42  C   UNL A   1      40.397  31.430  31.736  1.00  0.00     0.031 C 
ATOM     43  C   UNL A   1      40.351  25.812  27.734  1.00  0.00     0.029 A 
ATOM     44  C   UNL A   1      41.555  26.006  28.539  1.00  0.00     0.049 A 
ATOM     45  H   UNL A   1      41.942  27.542  29.890  1.00  0.00     0.167 HD
ATOM     46  C   UNL A   1      42.617  30.857  32.671  1.00  0.00     0.037 A 
ATOM     47  C   UNL A   1      42.634  25.202  28.540  1.00  0.00     0.037 A 
ATOM     48  C   UNL A   1      43.782  30.022  32.789  1.00  0.00     0.049 A 
ATOM     49  C   UNL A   1      43.796  25.531  29.439  1.00  0.00     0.074 A 
ATOM     50  C   UNL A   1      44.872  30.178  33.626  1.00  0.00     0.029 A 
ATOM     51  N   UNL A   1      44.007  28.875  32.044  1.00  0.00    -0.354 N 
ATOM     52  N   UNL A   1      43.932  26.524  30.282  1.00  0.00    -0.248 NA
ATOM     53  C   UNL A   1      44.953  24.625  29.387  1.00  0.00     0.031 C 
ATOM     54  C   UNL A   1      45.775  29.142  33.362  1.00  0.00     0.029 A 
ATOM     55  C   UNL A   1      45.229  28.321  32.389  1.00  0.00     0.049 A 
ATOM     56  H   UNL A   1      43.390  28.508  31.371  1.00  0.00     0.167 HD
ATOM     57  C   UNL A   1      45.175  26.354  30.876  1.00  0.00     0.074 A 
ATOM     58  C   UNL A   1      45.752  25.155  30.304  1.00  0.00     0.031 C 
ATOM     59  C   UNL A   1      45.784  27.124  31.812  1.00  0.00     0.037 A 
BRANCH  46  60
ATOM     60  C   UNL A   1      42.534  32.087  33.523  1.00  0.00     0.064 A 
ATOM     61  C   UNL A   1      41.875  32.071  34.762  1.00  0.00     0.173 A 
ATOM     62  C   UNL A   1      43.148  33.280  33.119  1.00  0.00     0.173 A 
ATOM     63  F   UNL A   1      41.259  30.956  35.184  1.00  0.00    -0.203 F 
ATOM     64  C   UNL A   1      41.816  33.212  35.555  1.00  0.00     0.198 A 
ATOM     65  C   UNL A   1      43.109  34.414  33.927  1.00  0.00     0.198 A 
ATOM     66  F   UNL A   1      43.793  33.347  31.945  1.00  0.00    -0.203 F 
ATOM     67  F   UNL A   1      41.147  33.185  36.716  1.00  0.00    -0.200 F 
ATOM     68  C   UNL A   1      42.439  34.379  35.142  1.00  0.00     0.200 A 
ATOM     69  F   UNL A   1      43.718  35.539  33.531  1.00  0.00    -0.200 F 
ATOM     70  F   UNL A   1      42.388  35.476  35.911  1.00  0.00    -0.200 F 
ENDBRANCH  46  60
BRANCH  47  71
ATOM     71  C   UNL A   1      42.650  23.985  27.690  1.00  0.00     0.064 A 
ATOM     72  C   UNL A   1      42.262  22.744  28.213  1.00  0.00     0.173 A 
ATOM     73  C   UNL A   1      43.033  24.038  26.343  1.00  0.00     0.173 A 
ATOM     74  F   UNL A   1      41.908  22.642  29.502  1.00  0.00    -0.203 F 
ATOM     75  C   UNL A   1      42.265  21.598  27.421  1.00  0.00     0.198 A 
ATOM     76  C   UNL A   1      43.015  22.895  25.546  1.00  0.00     0.198 A 
ATOM     77  F   UNL A   1      43.411  25.204  25.796  1.00  0.00    -0.203 F 
ATOM     78  F   UNL A   1      41.919  20.418  27.953  1.00  0.00    -0.200 F 
ATOM     79  C   UNL A   1      42.636  21.675  26.086  1.00  0.00     0.200 A 
ATOM     80  F   UNL A   1      43.366  22.975  24.255  1.00  0.00    -0.200 F 
ATOM     81  F   UNL A   1      42.632  20.574  25.323  1.00  0.00    -0.200 F 
ENDBRANCH  47  71
BRANCH  59  82
ATOM     82  C   UNL A   1      47.135  26.691  32.293  1.00  0.00     0.064 A 
ATOM     83  C   UNL A   1      47.278  25.671  33.245  1.00  0.00     0.173 A 
ATOM     84  C   UNL A   1      48.299  27.246  31.739  1.00  0.00     0.173 A 
ATOM     85  F   UNL A   1      46.196  25.120  33.812  1.00  0.00    -0.203 F 
ATOM     86  C   UNL A   1      48.541  25.229  33.630  1.00  0.00     0.198 A 
ATOM     87  C   UNL A   1      49.557  26.784  32.109  1.00  0.00     0.198 A 
ATOM     88  F   UNL A   1      48.212  28.219  30.819  1.00  0.00    -0.203 F 
ATOM     89  F   UNL A   1      48.657  24.270  34.561  1.00  0.00    -0.200 F 
ATOM     90  C   UNL A   1      49.678  25.778  33.055  1.00  0.00     0.200 A 
ATOM     91  F   UNL A   1      50.655  27.305  31.543  1.00  0.00    -0.200 F 
ATOM     92  F   UNL A   1      50.891  25.336  33.416  1.00  0.00    -0.200 F 
ENDBRANCH  59  82
ENDBRANCH  33  34
ENDBRANCH  25  28
ENDBRANCH  23  24
ENDBRANCH  22  23
ENDBRANCH   1  22
TORSDOF 13
ENDMDL
