MODEL 1
REMARK VINA RESULT:     -12.0      0.000      0.000
REMARK SMILES O=C(NCCCCNC(=O)c1csc(C[NH2+][C@H]2CCSc3ccc(F)cc32)c1)c1ccc(-c2c3nc(c(-c4c(F)c(F)c(F)c(F)c4F)c4ccc([nH]4)c(-c4c(F)c(F)c(F)c(F)c4F)c4nc(c(-c5c(F)c(F)c(F)c(F)c5F)c5ccc2[nH]5)C=C4)C=C3)cc1
REMARK SMILES IDX 6 1 5 2 4 3 3 4 1 5 2 6 29 8 30 9 91 10 31 11 90 12 32 13
REMARK SMILES IDX 33 14 34 15 84 16 35 17 89 18 83 19 85 20 36 21 88 22 82 23
REMARK SMILES IDX 81 24 37 26 69 27 49 28 68 29 50 30 53 31 67 32 86 33 51 34
REMARK SMILES IDX 52 35 66 37 87 38 54 39 38 40 39 41 47 42 40 43 41 44 45 45
REMARK SMILES IDX 48 46 42 47 43 48 46 49 44 50 70 51 71 52 79 53 72 54 73 55
REMARK SMILES IDX 77 56 80 57 74 58 75 59 78 60 76 61 55 62 56 63 64 64 57 65
REMARK SMILES IDX 58 66 62 67 65 68 59 69 60 70 63 71 61 72 7 73 8 74 9 75
REMARK SMILES IDX 10 77 11 78 12 79 28 80 13 81 14 82 15 83 16 84 17 87 18 88
REMARK SMILES IDX 27 89 19 90 21 91 26 92 20 93 22 94 24 95 23 96 25 97
REMARK H PARENT 3 7 85 25 53 36 8 76 16 85 16 86
REMARK Flexibility Score: inf
ROOT
ATOM      1  C   UNL A   1      32.802  29.691  25.006  1.00  0.00     0.023 C 
ENDROOT
BRANCH   1   2
ATOM      2  C   UNL A   1      33.485  28.457  25.607  1.00  0.00     0.023 C 
BRANCH   2   3
ATOM      3  C   UNL A   1      33.949  28.587  27.057  1.00  0.00     0.116 C 
BRANCH   3   4
ATOM      4  N   UNL A   1      33.820  29.937  27.575  1.00  0.00    -0.352 N 
ATOM      5  O   UNL A   1      34.369  31.791  28.719  1.00  0.00    -0.269 OA
ATOM      6  C   UNL A   1      34.715  30.694  28.286  1.00  0.00     0.251 C 
ATOM      7  H   UNL A   1      32.958  30.376  27.387  1.00  0.00     0.163 HD
BRANCH   6   8
ATOM      8  C   UNL A   1      36.085  30.204  28.562  1.00  0.00     0.039 A 
ATOM      9  C   UNL A   1      36.325  29.573  29.788  1.00  0.00     0.014 A 
ATOM     10  C   UNL A   1      37.139  30.412  27.669  1.00  0.00     0.014 A 
ATOM     11  C   UNL A   1      37.607  29.118  30.104  1.00  0.00     0.010 A 
ATOM     12  C   UNL A   1      38.413  29.926  27.968  1.00  0.00     0.010 A 
ATOM     13  C   UNL A   1      38.658  29.279  29.189  1.00  0.00    -0.014 A 
BRANCH  13  14
ATOM     14  C   UNL A   1      40.030  28.821  29.513  1.00  0.00     0.031 A 
ATOM     15  C   UNL A   1      40.908  29.657  30.400  1.00  0.00     0.074 A 
ATOM     16  C   UNL A   1      40.498  27.670  28.996  1.00  0.00     0.049 A 
ATOM     17  N   UNL A   1      42.173  29.505  30.695  1.00  0.00    -0.248 NA
ATOM     18  C   UNL A   1      40.278  30.827  31.032  1.00  0.00     0.031 C 
ATOM     19  C   UNL A   1      39.742  26.756  28.142  1.00  0.00     0.029 A 
ATOM     20  N   UNL A   1      41.729  27.075  29.118  1.00  0.00    -0.354 N 
ATOM     21  C   UNL A   1      42.498  30.568  31.525  1.00  0.00     0.074 A 
ATOM     22  C   UNL A   1      41.299  31.366  31.681  1.00  0.00     0.031 C 
ATOM     23  C   UNL A   1      40.517  25.703  27.834  1.00  0.00     0.029 A 
ATOM     24  C   UNL A   1      41.835  25.888  28.437  1.00  0.00     0.049 A 
ATOM     25  H   UNL A   1      42.465  27.463  29.643  1.00  0.00     0.167 HD
ATOM     26  C   UNL A   1      43.687  30.852  32.106  1.00  0.00     0.037 A 
ATOM     27  C   UNL A   1      42.879  25.049  28.309  1.00  0.00     0.037 A 
ATOM     28  C   UNL A   1      44.875  30.053  31.969  1.00  0.00     0.049 A 
ATOM     29  C   UNL A   1      44.189  25.389  28.964  1.00  0.00     0.074 A 
ATOM     30  C   UNL A   1      46.140  30.287  32.480  1.00  0.00     0.029 A 
ATOM     31  N   UNL A   1      44.935  28.851  31.282  1.00  0.00    -0.354 N 
ATOM     32  N   UNL A   1      44.502  26.430  29.694  1.00  0.00    -0.248 NA
ATOM     33  C   UNL A   1      45.295  24.439  28.766  1.00  0.00     0.031 C 
ATOM     34  C   UNL A   1      46.968  29.225  32.101  1.00  0.00     0.029 A 
ATOM     35  C   UNL A   1      46.212  28.322  31.370  1.00  0.00     0.049 A 
ATOM     36  H   UNL A   1      44.183  28.435  30.803  1.00  0.00     0.167 HD
ATOM     37  C   UNL A   1      45.830  26.256  30.055  1.00  0.00     0.074 A 
ATOM     38  C   UNL A   1      46.265  25.005  29.472  1.00  0.00     0.031 C 
ATOM     39  C   UNL A   1      46.620  27.067  30.798  1.00  0.00     0.037 A 
BRANCH  26  40
ATOM     40  C   UNL A   1      43.762  32.092  32.940  1.00  0.00     0.064 A 
ATOM     41  C   UNL A   1      43.510  32.058  34.318  1.00  0.00     0.173 A 
ATOM     42  C   UNL A   1      44.118  33.318  32.363  1.00  0.00     0.173 A 
ATOM     43  F   UNL A   1      43.149  30.909  34.909  1.00  0.00    -0.203 F 
ATOM     44  C   UNL A   1      43.599  33.213  35.089  1.00  0.00     0.198 A 
ATOM     45  C   UNL A   1      44.223  34.469  33.140  1.00  0.00     0.198 A 
ATOM     46  F   UNL A   1      44.367  33.400  31.048  1.00  0.00    -0.203 F 
ATOM     47  F   UNL A   1      43.325  33.166  36.399  1.00  0.00    -0.200 F 
ATOM     48  C   UNL A   1      43.960  34.416  34.500  1.00  0.00     0.200 A 
ATOM     49  F   UNL A   1      44.574  35.630  32.571  1.00  0.00    -0.200 F 
ATOM     50  F   UNL A   1      44.047  35.527  35.244  1.00  0.00    -0.200 F 
ENDBRANCH  26  40
BRANCH  27  51
ATOM     51  C   UNL A   1      42.725  23.791  27.540  1.00  0.00     0.064 A 
ATOM     52  C   UNL A   1      43.074  23.741  26.185  1.00  0.00     0.173 A 
ATOM     53  C   UNL A   1      42.231  22.624  28.138  1.00  0.00     0.173 A 
ATOM     54  F   UNL A   1      43.527  24.842  25.570  1.00  0.00    -0.203 F 
ATOM     55  C   UNL A   1      42.927  22.567  25.451  1.00  0.00     0.198 A 
ATOM     56  C   UNL A   1      42.100  21.448  27.406  1.00  0.00     0.198 A 
ATOM     57  F   UNL A   1      41.883  22.629  29.432  1.00  0.00    -0.203 F 
ATOM     58  F   UNL A   1      43.241  22.550  24.149  1.00  0.00    -0.200 F 
ATOM     59  C   UNL A   1      42.444  21.420  26.063  1.00  0.00     0.200 A 
ATOM     60  F   UNL A   1      41.638  20.339  28.000  1.00  0.00    -0.200 F 
ATOM     61  F   UNL A   1      42.304  20.290  25.356  1.00  0.00    -0.200 F 
ENDBRANCH  27  51
BRANCH  39  62
ATOM     62  C   UNL A   1      48.022  26.613  31.050  1.00  0.00     0.064 A 
ATOM     63  C   UNL A   1      49.076  27.004  30.214  1.00  0.00     0.173 A 
ATOM     64  C   UNL A   1      48.321  25.819  32.166  1.00  0.00     0.173 A 
ATOM     65  F   UNL A   1      48.832  27.751  29.128  1.00  0.00    -0.203 F 
ATOM     66  C   UNL A   1      50.383  26.608  30.482  1.00  0.00     0.198 A 
ATOM     67  C   UNL A   1      49.631  25.436  32.438  1.00  0.00     0.198 A 
ATOM     68  F   UNL A   1      47.343  25.422  32.994  1.00  0.00    -0.203 F 
ATOM     69  F   UNL A   1      51.374  26.973  29.658  1.00  0.00    -0.200 F 
ATOM     70  C   UNL A   1      50.660  25.829  31.596  1.00  0.00     0.200 A 
ATOM     71  F   UNL A   1      49.898  24.685  33.517  1.00  0.00    -0.200 F 
ATOM     72  F   UNL A   1      51.920  25.451  31.854  1.00  0.00    -0.200 F 
ENDBRANCH  39  62
ENDBRANCH  13  14
ENDBRANCH   6   8
ENDBRANCH   3   4
ENDBRANCH   2   3
ENDBRANCH   1   2
BRANCH   1  73
ATOM     73  C   UNL A   1      31.275  29.702  25.086  1.00  0.00     0.116 C 
BRANCH  73  74
ATOM     74  N   UNL A   1      30.670  29.935  23.789  1.00  0.00    -0.352 N 
ATOM     75  C   UNL A   1      30.531  29.079  22.727  1.00  0.00     0.252 C 
ATOM     76  H   UNL A   1      30.307  30.840  23.650  1.00  0.00     0.163 HD
ATOM     77  O   UNL A   1      30.263  29.546  21.623  1.00  0.00    -0.269 OA
BRANCH  75  78
ATOM     78  C   UNL A   1      30.716  27.649  22.929  1.00  0.00     0.051 A 
ATOM     79  C   UNL A   1      29.782  26.816  23.519  1.00  0.00     0.079 A 
ATOM     80  C   UNL A   1      31.834  26.891  22.448  1.00  0.00     0.035 A 
ATOM     81  S   UNL A   1      30.276  25.181  23.546  1.00  0.00    -0.142 S 
ATOM     82  C   UNL A   1      31.739  25.542  22.731  1.00  0.00     0.059 A 
BRANCH  82  83
ATOM     83  C   UNL A   1      32.708  24.449  22.370  1.00  0.00     0.308 C 
BRANCH  83  84
ATOM     84  N   UNL A   1      33.827  24.420  23.313  1.00  0.00    -0.336 N 
ATOM     85  H   UNL A   1      33.835  25.304  23.822  1.00  0.00     0.347 HD
ATOM     86  H   UNL A   1      34.667  24.268  22.755  1.00  0.00     0.347 HD
BRANCH  84  87
ATOM     87  C   UNL A   1      33.781  23.323  24.299  1.00  0.00     0.215 C 
ATOM     88  C   UNL A   1      32.789  22.242  23.830  1.00  0.00     0.081 C 
ATOM     89  C   UNL A   1      35.153  22.829  24.746  1.00  0.00     0.026 A 
ATOM     90  C   UNL A   1      32.743  21.064  24.782  1.00  0.00     0.081 C 
ATOM     91  C   UNL A   1      35.463  21.464  24.906  1.00  0.00     0.017 A 
ATOM     92  C   UNL A   1      36.143  23.773  25.096  1.00  0.00     0.050 A 
ATOM     93  S   UNL A   1      34.294  20.140  24.648  1.00  0.00    -0.125 SA
ATOM     94  C   UNL A   1      36.751  21.076  25.316  1.00  0.00     0.018 A 
ATOM     95  C   UNL A   1      37.406  23.369  25.516  1.00  0.00     0.123 A 
ATOM     96  C   UNL A   1      37.724  22.026  25.617  1.00  0.00     0.040 A 
ATOM     97  F   UNL A   1      38.322  24.293  25.833  1.00  0.00    -0.207 F 
ENDBRANCH  84  87
ENDBRANCH  83  84
ENDBRANCH  82  83
ENDBRANCH  75  78
ENDBRANCH  73  74
ENDBRANCH   1  73
TORSDOF 14
ENDMDL
MODEL 2
REMARK VINA RESULT:     -11.8      3.799      8.303
REMARK SMILES O=C(NCCCCNC(=O)c1csc(C[NH2+][C@H]2CCSc3ccc(F)cc32)c1)c1ccc(-c2c3nc(c(-c4c(F)c(F)c(F)c(F)c4F)c4ccc([nH]4)c(-c4c(F)c(F)c(F)c(F)c4F)c4nc(c(-c5c(F)c(F)c(F)c(F)c5F)c5ccc2[nH]5)C=C4)C=C3)cc1
REMARK SMILES IDX 6 1 5 2 4 3 3 4 1 5 2 6 29 8 30 9 91 10 31 11 90 12 32 13
REMARK SMILES IDX 33 14 34 15 84 16 35 17 89 18 83 19 85 20 36 21 88 22 82 23
REMARK SMILES IDX 81 24 37 26 69 27 49 28 68 29 50 30 53 31 67 32 86 33 51 34
REMARK SMILES IDX 52 35 66 37 87 38 54 39 38 40 39 41 47 42 40 43 41 44 45 45
REMARK SMILES IDX 48 46 42 47 43 48 46 49 44 50 70 51 71 52 79 53 72 54 73 55
REMARK SMILES IDX 77 56 80 57 74 58 75 59 78 60 76 61 55 62 56 63 64 64 57 65
REMARK SMILES IDX 58 66 62 67 65 68 59 69 60 70 63 71 61 72 7 73 8 74 9 75
REMARK SMILES IDX 10 77 11 78 12 79 28 80 13 81 14 82 15 83 16 84 17 87 18 88
REMARK SMILES IDX 27 89 19 90 21 91 26 92 20 93 22 94 24 95 23 96 25 97
REMARK H PARENT 3 7 85 25 53 36 8 76 16 85 16 86
REMARK Flexibility Score: inf
ROOT
ATOM      1  C   UNL A   1      36.849  20.708  24.581  1.00  0.00     0.023 C 
ENDROOT
BRANCH   1   2
ATOM      2  C   UNL A   1      37.834  19.632  25.054  1.00  0.00     0.023 C 
BRANCH   2   3
ATOM      3  C   UNL A   1      39.056  20.132  25.822  1.00  0.00     0.116 C 
BRANCH   3   4
ATOM      4  N   UNL A   1      40.148  19.176  25.836  1.00  0.00    -0.352 N 
ATOM      5  O   UNL A   1      42.267  18.435  25.934  1.00  0.00    -0.269 OA
ATOM      6  C   UNL A   1      41.486  19.375  26.064  1.00  0.00     0.251 C 
ATOM      7  H   UNL A   1      39.889  18.243  25.656  1.00  0.00     0.163 HD
BRANCH   6   8
ATOM      8  C   UNL A   1      42.010  20.707  26.441  1.00  0.00     0.039 A 
ATOM      9  C   UNL A   1      42.109  21.016  27.802  1.00  0.00     0.014 A 
ATOM     10  C   UNL A   1      42.340  21.670  25.484  1.00  0.00     0.014 A 
ATOM     11  C   UNL A   1      42.574  22.270  28.205  1.00  0.00     0.010 A 
ATOM     12  C   UNL A   1      42.838  22.910  25.885  1.00  0.00     0.010 A 
ATOM     13  C   UNL A   1      42.954  23.222  27.249  1.00  0.00    -0.014 A 
BRANCH  13  14
ATOM     14  C   UNL A   1      43.430  24.566  27.655  1.00  0.00     0.031 A 
ATOM     15  C   UNL A   1      42.441  25.613  28.078  1.00  0.00     0.074 A 
ATOM     16  C   UNL A   1      44.744  24.856  27.623  1.00  0.00     0.049 A 
ATOM     17  N   UNL A   1      42.637  26.880  28.340  1.00  0.00    -0.248 NA
ATOM     18  C   UNL A   1      41.043  25.177  28.216  1.00  0.00     0.031 C 
ATOM     19  C   UNL A   1      45.808  23.923  27.255  1.00  0.00     0.029 A 
ATOM     20  N   UNL A   1      45.405  26.024  27.908  1.00  0.00    -0.354 N 
ATOM     21  C   UNL A   1      41.387  27.398  28.650  1.00  0.00     0.074 A 
ATOM     22  C   UNL A   1      40.437  26.312  28.534  1.00  0.00     0.031 C 
ATOM     23  C   UNL A   1      46.992  24.548  27.358  1.00  0.00     0.029 A 
ATOM     24  C   UNL A   1      46.767  25.934  27.761  1.00  0.00     0.049 A 
ATOM     25  H   UNL A   1      44.947  26.848  28.191  1.00  0.00     0.167 HD
ATOM     26  C   UNL A   1      41.063  28.665  29.001  1.00  0.00     0.037 A 
ATOM     27  C   UNL A   1      47.723  26.867  27.927  1.00  0.00     0.037 A 
ATOM     28  C   UNL A   1      42.005  29.742  29.134  1.00  0.00     0.049 A 
ATOM     29  C   UNL A   1      47.335  28.266  28.316  1.00  0.00     0.074 A 
ATOM     30  C   UNL A   1      41.765  31.072  29.438  1.00  0.00     0.029 A 
ATOM     31  N   UNL A   1      43.377  29.606  28.991  1.00  0.00    -0.354 N 
ATOM     32  N   UNL A   1      46.144  28.760  28.544  1.00  0.00    -0.248 NA
ATOM     33  C   UNL A   1      48.428  29.241  28.460  1.00  0.00     0.031 C 
ATOM     34  C   UNL A   1      42.993  31.741  29.476  1.00  0.00     0.029 A 
ATOM     35  C   UNL A   1      43.997  30.823  29.216  1.00  0.00     0.049 A 
ATOM     36  H   UNL A   1      43.841  28.769  28.763  1.00  0.00     0.167 HD
ATOM     37  C   UNL A   1      46.341  30.093  28.872  1.00  0.00     0.074 A 
ATOM     38  C   UNL A   1      47.768  30.333  28.823  1.00  0.00     0.031 C 
ATOM     39  C   UNL A   1      45.419  31.037  29.180  1.00  0.00     0.037 A 
BRANCH  26  40
ATOM     40  C   UNL A   1      39.617  28.955  29.256  1.00  0.00     0.064 A 
ATOM     41  C   UNL A   1      38.760  29.346  28.219  1.00  0.00     0.173 A 
ATOM     42  C   UNL A   1      39.077  28.809  30.541  1.00  0.00     0.173 A 
ATOM     43  F   UNL A   1      39.239  29.515  26.977  1.00  0.00    -0.203 F 
ATOM     44  C   UNL A   1      37.413  29.596  28.463  1.00  0.00     0.198 A 
ATOM     45  C   UNL A   1      37.725  29.043  30.777  1.00  0.00     0.198 A 
ATOM     46  F   UNL A   1      39.859  28.436  31.565  1.00  0.00    -0.203 F 
ATOM     47  F   UNL A   1      36.616  30.000  27.464  1.00  0.00    -0.200 F 
ATOM     48  C   UNL A   1      36.896  29.440  29.740  1.00  0.00     0.200 A 
ATOM     49  F   UNL A   1      37.226  28.889  32.011  1.00  0.00    -0.200 F 
ATOM     50  F   UNL A   1      35.598  29.679  29.972  1.00  0.00    -0.200 F 
ENDBRANCH  26  40
BRANCH  27  51
ATOM     51  C   UNL A   1      49.148  26.503  27.743  1.00  0.00     0.064 A 
ATOM     52  C   UNL A   1      49.690  26.387  26.457  1.00  0.00     0.173 A 
ATOM     53  C   UNL A   1      49.991  26.268  28.837  1.00  0.00     0.173 A 
ATOM     54  F   UNL A   1      48.910  26.580  25.384  1.00  0.00    -0.203 F 
ATOM     55  C   UNL A   1      51.025  26.039  26.271  1.00  0.00     0.198 A 
ATOM     56  C   UNL A   1      51.330  25.936  28.649  1.00  0.00     0.198 A 
ATOM     57  F   UNL A   1      49.513  26.367  30.085  1.00  0.00    -0.203 F 
ATOM     58  F   UNL A   1      51.515  25.906  25.031  1.00  0.00    -0.200 F 
ATOM     59  C   UNL A   1      51.846  25.819  27.367  1.00  0.00     0.200 A 
ATOM     60  F   UNL A   1      52.122  25.729  29.710  1.00  0.00    -0.200 F 
ATOM     61  F   UNL A   1      53.131  25.485  27.188  1.00  0.00    -0.200 F 
ENDBRANCH  27  51
BRANCH  39  62
ATOM     62  C   UNL A   1      45.925  32.403  29.517  1.00  0.00     0.064 A 
ATOM     63  C   UNL A   1      46.074  33.389  28.533  1.00  0.00     0.173 A 
ATOM     64  C   UNL A   1      46.216  32.743  30.845  1.00  0.00     0.173 A 
ATOM     65  F   UNL A   1      45.819  33.101  27.248  1.00  0.00    -0.203 F 
ATOM     66  C   UNL A   1      46.506  34.669  28.865  1.00  0.00     0.198 A 
ATOM     67  C   UNL A   1      46.636  34.028  31.176  1.00  0.00     0.198 A 
ATOM     68  F   UNL A   1      46.088  31.831  31.820  1.00  0.00    -0.203 F 
ATOM     69  F   UNL A   1      46.664  35.592  27.907  1.00  0.00    -0.200 F 
ATOM     70  C   UNL A   1      46.782  34.989  30.187  1.00  0.00     0.200 A 
ATOM     71  F   UNL A   1      46.901  34.338  32.453  1.00  0.00    -0.200 F 
ATOM     72  F   UNL A   1      47.196  36.223  30.506  1.00  0.00    -0.200 F 
ENDBRANCH  39  62
ENDBRANCH  13  14
ENDBRANCH   6   8
ENDBRANCH   3   4
ENDBRANCH   2   3
ENDBRANCH   1   2
BRANCH   1  73
ATOM     73  C   UNL A   1      35.602  20.884  25.447  1.00  0.00     0.116 C 
BRANCH  73  74
ATOM     74  N   UNL A   1      34.675  19.781  25.285  1.00  0.00    -0.352 N 
ATOM     75  C   UNL A   1      33.318  19.805  25.082  1.00  0.00     0.252 C 
ATOM     76  H   UNL A   1      35.077  18.883  25.329  1.00  0.00     0.163 HD
ATOM     77  O   UNL A   1      32.675  18.776  25.267  1.00  0.00    -0.269 OA
BRANCH  75  78
ATOM     78  C   UNL A   1      32.678  21.046  24.668  1.00  0.00     0.051 A 
ATOM     79  C   UNL A   1      32.485  21.424  23.352  1.00  0.00     0.079 A 
ATOM     80  C   UNL A   1      32.061  21.986  25.557  1.00  0.00     0.035 A 
ATOM     81  S   UNL A   1      31.644  22.903  23.203  1.00  0.00    -0.142 S 
ATOM     82  C   UNL A   1      31.480  23.055  24.902  1.00  0.00     0.059 A 
BRANCH  82  83
ATOM     83  C   UNL A   1      30.736  24.216  25.502  1.00  0.00     0.308 C 
BRANCH  83  84
ATOM     84  N   UNL A   1      30.303  25.147  24.458  1.00  0.00    -0.336 N 
ATOM     85  H   UNL A   1      29.286  25.212  24.495  1.00  0.00     0.347 HD
ATOM     86  H   UNL A   1      30.653  24.771  23.577  1.00  0.00     0.347 HD
BRANCH  84  87
ATOM     87  C   UNL A   1      30.856  26.511  24.574  1.00  0.00     0.215 C 
ATOM     88  C   UNL A   1      32.389  26.465  24.438  1.00  0.00     0.081 C 
ATOM     89  C   UNL A   1      30.135  27.549  23.720  1.00  0.00     0.026 A 
ATOM     90  C   UNL A   1      33.004  27.849  24.495  1.00  0.00     0.081 C 
ATOM     91  C   UNL A   1      30.811  28.541  22.983  1.00  0.00     0.017 A 
ATOM     92  C   UNL A   1      28.723  27.580  23.722  1.00  0.00     0.050 A 
ATOM     93  S   UNL A   1      32.585  28.742  22.976  1.00  0.00    -0.125 SA
ATOM     94  C   UNL A   1      30.085  29.464  22.210  1.00  0.00     0.018 A 
ATOM     95  C   UNL A   1      28.023  28.514  22.965  1.00  0.00     0.123 A 
ATOM     96  C   UNL A   1      28.692  29.450  22.197  1.00  0.00     0.040 A 
ATOM     97  F   UNL A   1      26.684  28.509  22.986  1.00  0.00    -0.207 F 
ENDBRANCH  84  87
ENDBRANCH  83  84
ENDBRANCH  82  83
ENDBRANCH  75  78
ENDBRANCH  73  74
ENDBRANCH   1  73
TORSDOF 14
ENDMDL
MODEL 3
REMARK VINA RESULT:     -11.7      1.114      2.121
REMARK SMILES O=C(NCCCCNC(=O)c1csc(C[NH2+][C@H]2CCSc3ccc(F)cc32)c1)c1ccc(-c2c3nc(c(-c4c(F)c(F)c(F)c(F)c4F)c4ccc([nH]4)c(-c4c(F)c(F)c(F)c(F)c4F)c4nc(c(-c5c(F)c(F)c(F)c(F)c5F)c5ccc2[nH]5)C=C4)C=C3)cc1
REMARK SMILES IDX 6 1 5 2 4 3 3 4 1 5 2 6 29 8 30 9 91 10 31 11 90 12 32 13
REMARK SMILES IDX 33 14 34 15 84 16 35 17 89 18 83 19 85 20 36 21 88 22 82 23
REMARK SMILES IDX 81 24 37 26 69 27 49 28 68 29 50 30 53 31 67 32 86 33 51 34
REMARK SMILES IDX 52 35 66 37 87 38 54 39 38 40 39 41 47 42 40 43 41 44 45 45
REMARK SMILES IDX 48 46 42 47 43 48 46 49 44 50 70 51 71 52 79 53 72 54 73 55
REMARK SMILES IDX 77 56 80 57 74 58 75 59 78 60 76 61 55 62 56 63 64 64 57 65
REMARK SMILES IDX 58 66 62 67 65 68 59 69 60 70 63 71 61 72 7 73 8 74 9 75
REMARK SMILES IDX 10 77 11 78 12 79 28 80 13 81 14 82 15 83 16 84 17 87 18 88
REMARK SMILES IDX 27 89 19 90 21 91 26 92 20 93 22 94 24 95 23 96 25 97
REMARK H PARENT 3 7 85 25 53 36 8 76 16 85 16 86
REMARK Flexibility Score: inf
ROOT
ATOM      1  C   UNL A   1      32.801  29.519  24.913  1.00  0.00     0.023 C 
ENDROOT
BRANCH   1   2
ATOM      2  C   UNL A   1      33.397  28.250  25.534  1.00  0.00     0.023 C 
BRANCH   2   3
ATOM      3  C   UNL A   1      34.043  28.416  26.908  1.00  0.00     0.116 C 
BRANCH   3   4
ATOM      4  N   UNL A   1      33.881  29.751  27.454  1.00  0.00    -0.352 N 
ATOM      5  O   UNL A   1      34.389  31.597  28.630  1.00  0.00    -0.269 OA
ATOM      6  C   UNL A   1      34.761  30.518  28.174  1.00  0.00     0.251 C 
ATOM      7  H   UNL A   1      33.007  30.171  27.280  1.00  0.00     0.163 HD
BRANCH   6   8
ATOM      8  C   UNL A   1      36.145  30.060  28.431  1.00  0.00     0.039 A 
ATOM      9  C   UNL A   1      36.426  29.476  29.671  1.00  0.00     0.014 A 
ATOM     10  C   UNL A   1      37.173  30.255  27.505  1.00  0.00     0.014 A 
ATOM     11  C   UNL A   1      37.724  29.052  29.970  1.00  0.00     0.010 A 
ATOM     12  C   UNL A   1      38.462  29.799  27.788  1.00  0.00     0.010 A 
ATOM     13  C   UNL A   1      38.748  29.199  29.024  1.00  0.00    -0.014 A 
BRANCH  13  14
ATOM     14  C   UNL A   1      40.136  28.774  29.328  1.00  0.00     0.031 A 
ATOM     15  C   UNL A   1      41.014  29.645  30.180  1.00  0.00     0.074 A 
ATOM     16  C   UNL A   1      40.616  27.623  28.824  1.00  0.00     0.049 A 
ATOM     17  N   UNL A   1      42.288  29.523  30.451  1.00  0.00    -0.248 NA
ATOM     18  C   UNL A   1      40.373  30.814  30.802  1.00  0.00     0.031 C 
ATOM     19  C   UNL A   1      39.861  26.678  28.003  1.00  0.00     0.029 A 
ATOM     20  N   UNL A   1      41.861  27.055  28.931  1.00  0.00    -0.354 N 
ATOM     21  C   UNL A   1      42.608  30.609  31.255  1.00  0.00     0.074 A 
ATOM     22  C   UNL A   1      41.397  31.386  31.420  1.00  0.00     0.031 C 
ATOM     23  C   UNL A   1      40.651  25.635  27.699  1.00  0.00     0.029 A 
ATOM     24  C   UNL A   1      41.976  25.857  28.271  1.00  0.00     0.049 A 
ATOM     25  H   UNL A   1      42.600  27.467  29.433  1.00  0.00     0.167 HD
ATOM     26  C   UNL A   1      43.803  30.927  31.806  1.00  0.00     0.037 A 
ATOM     27  C   UNL A   1      43.035  25.036  28.138  1.00  0.00     0.037 A 
ATOM     28  C   UNL A   1      45.003  30.149  31.659  1.00  0.00     0.049 A 
ATOM     29  C   UNL A   1      44.350  25.414  28.759  1.00  0.00     0.074 A 
ATOM     30  C   UNL A   1      46.274  30.417  32.139  1.00  0.00     0.029 A 
ATOM     31  N   UNL A   1      45.074  28.935  30.994  1.00  0.00    -0.354 N 
ATOM     32  N   UNL A   1      44.657  26.475  29.462  1.00  0.00    -0.248 NA
ATOM     33  C   UNL A   1      45.471  24.483  28.556  1.00  0.00     0.031 C 
ATOM     34  C   UNL A   1      47.115  29.365  31.764  1.00  0.00     0.029 A 
ATOM     35  C   UNL A   1      46.363  28.434  31.066  1.00  0.00     0.049 A 
ATOM     36  H   UNL A   1      44.321  28.495  30.539  1.00  0.00     0.167 HD
ATOM     37  C   UNL A   1      45.995  26.335  29.799  1.00  0.00     0.074 A 
ATOM     38  C   UNL A   1      46.444  25.081  29.231  1.00  0.00     0.031 C 
ATOM     39  C   UNL A   1      46.784  27.176  30.510  1.00  0.00     0.037 A 
BRANCH  26  40
ATOM     40  C   UNL A   1      43.870  32.184  32.614  1.00  0.00     0.064 A 
ATOM     41  C   UNL A   1      43.677  32.168  34.002  1.00  0.00     0.173 A 
ATOM     42  C   UNL A   1      44.159  33.411  32.001  1.00  0.00     0.173 A 
ATOM     43  F   UNL A   1      43.381  31.018  34.627  1.00  0.00    -0.203 F 
ATOM     44  C   UNL A   1      43.758  33.340  34.748  1.00  0.00     0.198 A 
ATOM     45  C   UNL A   1      44.257  34.579  32.753  1.00  0.00     0.198 A 
ATOM     46  F   UNL A   1      44.350  33.476  30.675  1.00  0.00    -0.203 F 
ATOM     47  F   UNL A   1      43.541  33.308  36.069  1.00  0.00    -0.200 F 
ATOM     48  C   UNL A   1      44.053  34.543  34.124  1.00  0.00     0.200 A 
ATOM     49  F   UNL A   1      44.543  35.740  32.150  1.00  0.00    -0.200 F 
ATOM     50  F   UNL A   1      44.132  35.670  34.843  1.00  0.00    -0.200 F 
ENDBRANCH  26  40
BRANCH  27  51
ATOM     51  C   UNL A   1      42.890  23.761  27.396  1.00  0.00     0.064 A 
ATOM     52  C   UNL A   1      42.350  22.632  28.025  1.00  0.00     0.173 A 
ATOM     53  C   UNL A   1      43.282  23.644  26.057  1.00  0.00     0.173 A 
ATOM     54  F   UNL A   1      41.985  22.696  29.314  1.00  0.00    -0.203 F 
ATOM     55  C   UNL A   1      42.215  21.427  27.342  1.00  0.00     0.198 A 
ATOM     56  C   UNL A   1      43.132  22.443  25.370  1.00  0.00     0.198 A 
ATOM     57  F   UNL A   1      43.805  24.699  25.417  1.00  0.00    -0.203 F 
ATOM     58  F   UNL A   1      41.722  20.353  27.972  1.00  0.00    -0.200 F 
ATOM     59  C   UNL A   1      42.601  21.334  26.013  1.00  0.00     0.200 A 
ATOM     60  F   UNL A   1      43.501  22.357  24.085  1.00  0.00    -0.200 F 
ATOM     61  F   UNL A   1      42.470  20.174  25.354  1.00  0.00    -0.200 F 
ENDBRANCH  27  51
BRANCH  39  62
ATOM     62  C   UNL A   1      48.200  26.754  30.742  1.00  0.00     0.064 A 
ATOM     63  C   UNL A   1      48.553  25.961  31.841  1.00  0.00     0.173 A 
ATOM     64  C   UNL A   1      49.203  27.106  29.829  1.00  0.00     0.173 A 
ATOM     65  F   UNL A   1      47.626  25.613  32.746  1.00  0.00    -0.203 F 
ATOM     66  C   UNL A   1      49.867  25.540  32.025  1.00  0.00     0.198 A 
ATOM     67  C   UNL A   1      50.513  26.674  30.008  1.00  0.00     0.198 A 
ATOM     68  F   UNL A   1      48.910  27.864  28.762  1.00  0.00    -0.203 F 
ATOM     69  F   UNL A   1      50.190  24.802  33.094  1.00  0.00    -0.200 F 
ATOM     70  C   UNL A   1      50.845  25.893  31.105  1.00  0.00     0.200 A 
ATOM     71  F   UNL A   1      51.458  27.012  29.118  1.00  0.00    -0.200 F 
ATOM     72  F   UNL A   1      52.110  25.485  31.281  1.00  0.00    -0.200 F 
ENDBRANCH  39  62
ENDBRANCH  13  14
ENDBRANCH   6   8
ENDBRANCH   3   4
ENDBRANCH   2   3
ENDBRANCH   1   2
BRANCH   1  73
ATOM     73  C   UNL A   1      31.288  29.676  25.061  1.00  0.00     0.116 C 
BRANCH  73  74
ATOM     74  N   UNL A   1      30.641  29.890  23.780  1.00  0.00    -0.352 N 
ATOM     75  C   UNL A   1      30.488  29.025  22.726  1.00  0.00     0.252 C 
ATOM     76  H   UNL A   1      30.257  30.787  23.647  1.00  0.00     0.163 HD
ATOM     77  O   UNL A   1      30.180  29.481  21.629  1.00  0.00    -0.269 OA
BRANCH  75  78
ATOM     78  C   UNL A   1      30.707  27.600  22.930  1.00  0.00     0.051 A 
ATOM     79  C   UNL A   1      29.787  26.742  23.505  1.00  0.00     0.079 A 
ATOM     80  C   UNL A   1      31.852  26.872  22.466  1.00  0.00     0.035 A 
ATOM     81  S   UNL A   1      30.322  25.121  23.539  1.00  0.00    -0.142 S 
ATOM     82  C   UNL A   1      31.788  25.520  22.746  1.00  0.00     0.059 A 
BRANCH  82  83
ATOM     83  C   UNL A   1      32.790  24.454  22.399  1.00  0.00     0.308 C 
BRANCH  83  84
ATOM     84  N   UNL A   1      33.987  24.580  23.232  1.00  0.00    -0.336 N 
ATOM     85  H   UNL A   1      33.756  25.171  24.031  1.00  0.00     0.347 HD
ATOM     86  H   UNL A   1      34.712  24.975  22.633  1.00  0.00     0.347 HD
BRANCH  84  87
ATOM     87  C   UNL A   1      34.525  23.305  23.746  1.00  0.00     0.215 C 
ATOM     88  C   UNL A   1      36.034  23.218  23.449  1.00  0.00     0.081 C 
ATOM     89  C   UNL A   1      34.101  22.980  25.174  1.00  0.00     0.026 A 
ATOM     90  C   UNL A   1      36.648  21.949  24.004  1.00  0.00     0.081 C 
ATOM     91  C   UNL A   1      34.984  22.453  26.137  1.00  0.00     0.017 A 
ATOM     92  C   UNL A   1      32.745  23.134  25.540  1.00  0.00     0.050 A 
ATOM     93  S   UNL A   1      36.694  22.061  25.811  1.00  0.00    -0.125 SA
ATOM     94  C   UNL A   1      34.528  22.182  27.439  1.00  0.00     0.018 A 
ATOM     95  C   UNL A   1      32.311  22.843  26.829  1.00  0.00     0.123 A 
ATOM     96  C   UNL A   1      33.194  22.379  27.788  1.00  0.00     0.040 A 
ATOM     97  F   UNL A   1      31.019  23.008  27.142  1.00  0.00    -0.207 F 
ENDBRANCH  84  87
ENDBRANCH  83  84
ENDBRANCH  82  83
ENDBRANCH  75  78
ENDBRANCH  73  74
ENDBRANCH   1  73
TORSDOF 14
ENDMDL
