MODEL 1
REMARK VINA RESULT:     -11.4      0.000      0.000
REMARK SMILES COCCS(=O)(=O)N[C@@H]1C=C[C@@H](C(=O)NCCCCNC(=O)c2ccc(-c3c4nc(c(-c5c(F)c(F)c(F)c(F)c5F)c5ccc([nH]5)c(-c5c(F)c(F)c(F)c(F)c5F)c5nc(c(-c6c(F)c(F)c(F)c(F)c6F)c6ccc3[nH]6)C=C5)C=C4)cc2)C1
REMARK SMILES IDX 16 1 15 2 13 3 14 4 12 6 9 7 10 8 86 9 11 10 8 11 5 13 6 14
REMARK SMILES IDX 7 15 4 16 3 17 2 18 1 19 17 20 18 21 19 22 20 23 21 24 22 26
REMARK SMILES IDX 23 27 24 28 85 29 25 30 84 31 26 32 27 33 28 34 78 35 29 36
REMARK SMILES IDX 83 37 77 38 79 39 30 40 82 41 76 42 75 43 31 45 63 46 43 47
REMARK SMILES IDX 62 48 44 49 47 50 61 51 80 52 45 53 46 54 60 56 81 57 48 58
REMARK SMILES IDX 32 59 33 60 41 61 34 62 35 63 39 64 42 65 36 66 37 67 40 68
REMARK SMILES IDX 38 69 64 70 65 71 73 72 66 73 67 74 71 75 74 76 68 77 69 78
REMARK SMILES IDX 72 79 70 80 49 81 50 82 58 83 51 84 52 85 56 86 59 87 53 88
REMARK SMILES IDX 54 89 57 90 55 91
REMARK H PARENT 15 5 8 12 20 25 79 44 47 55
REMARK Flexibility Score: inf
ROOT
ATOM      1  C   UNL A   1      35.683  20.611  25.189  1.00  0.00     0.116 C 
ENDROOT
BRANCH   1   2
ATOM      2  N   UNL A   1      35.477  19.226  24.820  1.00  0.00    -0.356 N 
ATOM      3  C   UNL A   1      34.346  18.529  24.527  1.00  0.00     0.226 C 
ATOM      4  O   UNL A   1      34.504  17.361  24.153  1.00  0.00    -0.274 OA
ATOM      5  H   UNL A   1      36.304  18.693  24.770  1.00  0.00     0.163 HD
BRANCH   3   6
ATOM      6  C   UNL A   1      32.928  19.108  24.633  1.00  0.00     0.103 C 
ATOM      7  C   UNL A   1      32.248  21.343  25.439  1.00  0.00     0.093 C 
ATOM      8  C   UNL A   1      32.166  21.215  23.952  1.00  0.00    -0.011 C 
ATOM      9  C   UNL A   1      32.617  19.922  25.900  1.00  0.00     0.042 C 
ATOM     10  C   UNL A   1      32.557  20.017  23.509  1.00  0.00    -0.016 C 
BRANCH   7  11
ATOM     11  N   UNL A   1      30.945  21.783  25.922  1.00  0.00    -0.208 NA
ATOM     12  H   UNL A   1      30.344  21.880  25.104  1.00  0.00     0.141 HD
BRANCH  11  13
ATOM     13  S   UNL A   1      30.819  23.209  26.790  1.00  0.00     0.214 S 
ATOM     14  O   UNL A   1      32.034  23.369  27.561  1.00  0.00    -0.212 OA
ATOM     15  O   UNL A   1      29.540  23.118  27.460  1.00  0.00    -0.212 OA
BRANCH  13  16
ATOM     16  C   UNL A   1      30.685  24.493  25.539  1.00  0.00     0.182 C 
BRANCH  16  17
ATOM     17  C   UNL A   1      30.922  25.886  26.093  1.00  0.00     0.177 C 
BRANCH  17  18
ATOM     18  O   UNL A   1      31.098  26.819  25.028  1.00  0.00    -0.384 OA
ATOM     19  C   UNL A   1      31.472  28.112  25.489  1.00  0.00     0.194 C 
ENDBRANCH  17  18
ENDBRANCH  16  17
ENDBRANCH  13  16
ENDBRANCH  11  13
ENDBRANCH   7  11
ENDBRANCH   3   6
ENDBRANCH   1   2
BRANCH   1  20
ATOM     20  C   UNL A   1      37.101  21.089  24.880  1.00  0.00     0.023 C 
BRANCH  20  21
ATOM     21  C   UNL A   1      38.173  19.999  24.919  1.00  0.00     0.023 C 
BRANCH  21  22
ATOM     22  C   UNL A   1      39.293  20.214  25.933  1.00  0.00     0.116 C 
BRANCH  22  23
ATOM     23  N   UNL A   1      40.294  19.156  25.924  1.00  0.00    -0.352 N 
ATOM     24  C   UNL A   1      41.658  19.241  26.083  1.00  0.00     0.251 C 
ATOM     25  H   UNL A   1      39.943  18.248  25.785  1.00  0.00     0.163 HD
ATOM     26  O   UNL A   1      42.356  18.245  25.924  1.00  0.00    -0.269 OA
BRANCH  24  27
ATOM     27  C   UNL A   1      42.291  20.540  26.406  1.00  0.00     0.039 A 
ATOM     28  C   UNL A   1      42.787  21.328  25.364  1.00  0.00     0.014 A 
ATOM     29  C   UNL A   1      42.386  20.990  27.726  1.00  0.00     0.014 A 
ATOM     30  C   UNL A   1      43.300  22.599  25.637  1.00  0.00     0.010 A 
ATOM     31  C   UNL A   1      42.821  22.288  27.987  1.00  0.00     0.010 A 
ATOM     32  C   UNL A   1      43.278  23.109  26.946  1.00  0.00    -0.014 A 
BRANCH  32  33
ATOM     33  C   UNL A   1      43.714  24.500  27.238  1.00  0.00     0.031 A 
ATOM     34  C   UNL A   1      42.733  25.516  27.756  1.00  0.00     0.074 A 
ATOM     35  C   UNL A   1      44.985  24.869  26.977  1.00  0.00     0.049 A 
ATOM     36  N   UNL A   1      42.916  26.787  28.017  1.00  0.00    -0.248 NA
ATOM     37  C   UNL A   1      41.358  25.049  27.988  1.00  0.00     0.031 C 
ATOM     38  C   UNL A   1      46.021  23.995  26.424  1.00  0.00     0.029 A 
ATOM     39  N   UNL A   1      45.620  26.077  27.130  1.00  0.00    -0.354 N 
ATOM     40  C   UNL A   1      41.681  27.269  28.433  1.00  0.00     0.074 A 
ATOM     41  C   UNL A   1      40.745  26.171  28.331  1.00  0.00     0.031 C 
ATOM     42  C   UNL A   1      47.167  24.686  26.313  1.00  0.00     0.029 A 
ATOM     43  C   UNL A   1      46.937  26.063  26.741  1.00  0.00     0.049 A 
ATOM     44  H   UNL A   1      45.173  26.879  27.487  1.00  0.00     0.167 HD
ATOM     45  C   UNL A   1      41.363  28.507  28.883  1.00  0.00     0.037 A 
ATOM     46  C   UNL A   1      47.856  27.048  26.723  1.00  0.00     0.037 A 
ATOM     47  C   UNL A   1      42.301  29.594  28.996  1.00  0.00     0.049 A 
ATOM     48  C   UNL A   1      47.469  28.421  27.204  1.00  0.00     0.074 A 
ATOM     49  C   UNL A   1      42.089  30.867  29.495  1.00  0.00     0.029 A 
ATOM     50  N   UNL A   1      43.628  29.539  28.596  1.00  0.00    -0.354 N 
ATOM     51  N   UNL A   1      46.319  28.843  27.670  1.00  0.00    -0.248 NA
ATOM     52  C   UNL A   1      48.514  29.455  27.166  1.00  0.00     0.031 C 
ATOM     53  C   UNL A   1      43.268  31.602  29.339  1.00  0.00     0.029 A 
ATOM     54  C   UNL A   1      44.237  30.767  28.806  1.00  0.00     0.049 A 
ATOM     55  H   UNL A   1      44.072  28.746  28.218  1.00  0.00     0.167 HD
ATOM     56  C   UNL A   1      46.508  30.177  28.006  1.00  0.00     0.074 A 
ATOM     57  C   UNL A   1      47.891  30.489  27.710  1.00  0.00     0.031 C 
ATOM     58  C   UNL A   1      45.617  31.064  28.511  1.00  0.00     0.037 A 
BRANCH  45  59
ATOM     59  C   UNL A   1      39.937  28.755  29.287  1.00  0.00     0.064 A 
ATOM     60  C   UNL A   1      38.981  29.225  28.372  1.00  0.00     0.173 A 
ATOM     61  C   UNL A   1      39.508  28.485  30.596  1.00  0.00     0.173 A 
ATOM     62  F   UNL A   1      39.337  29.508  27.109  1.00  0.00    -0.203 F 
ATOM     63  C   UNL A   1      37.662  29.445  28.759  1.00  0.00     0.198 A 
ATOM     64  C   UNL A   1      38.181  28.673  30.971  1.00  0.00     0.198 A 
ATOM     65  F   UNL A   1      40.377  28.028  31.512  1.00  0.00    -0.203 F 
ATOM     66  F   UNL A   1      36.782  29.946  27.882  1.00  0.00    -0.200 F 
ATOM     67  C   UNL A   1      37.261  29.161  30.057  1.00  0.00     0.200 A 
ATOM     68  F   UNL A   1      37.792  28.381  32.220  1.00  0.00    -0.200 F 
ATOM     69  F   UNL A   1      35.989  29.365  30.425  1.00  0.00    -0.200 F 
ENDBRANCH  45  59
BRANCH  46  70
ATOM     70  C   UNL A   1      49.237  26.772  26.245  1.00  0.00     0.064 A 
ATOM     71  C   UNL A   1      49.600  27.007  24.911  1.00  0.00     0.173 A 
ATOM     72  C   UNL A   1      50.218  26.251  27.102  1.00  0.00     0.173 A 
ATOM     73  F   UNL A   1      48.693  27.484  24.045  1.00  0.00    -0.203 F 
ATOM     74  C   UNL A   1      50.881  26.711  24.448  1.00  0.00     0.198 A 
ATOM     75  C   UNL A   1      51.508  25.987  26.647  1.00  0.00     0.198 A 
ATOM     76  F   UNL A   1      49.926  26.011  28.390  1.00  0.00    -0.203 F 
ATOM     77  F   UNL A   1      51.183  26.896  23.155  1.00  0.00    -0.200 F 
ATOM     78  C   UNL A   1      51.835  26.207  25.318  1.00  0.00     0.200 A 
ATOM     79  F   UNL A   1      52.432  25.516  27.495  1.00  0.00    -0.200 F 
ATOM     80  F   UNL A   1      53.067  25.925  24.873  1.00  0.00    -0.200 F 
ENDBRANCH  46  70
BRANCH  58  81
ATOM     81  C   UNL A   1      46.116  32.450  28.814  1.00  0.00     0.064 A 
ATOM     82  C   UNL A   1      46.041  33.486  27.871  1.00  0.00     0.173 A 
ATOM     83  C   UNL A   1      46.647  32.753  30.078  1.00  0.00     0.173 A 
ATOM     84  F   UNL A   1      45.554  33.247  26.643  1.00  0.00    -0.203 F 
ATOM     85  C   UNL A   1      46.507  34.764  28.170  1.00  0.00     0.198 A 
ATOM     86  C   UNL A   1      47.078  34.040  30.386  1.00  0.00     0.198 A 
ATOM     87  F   UNL A   1      46.735  31.803  31.020  1.00  0.00    -0.203 F 
ATOM     88  F   UNL A   1      46.478  35.722  27.234  1.00  0.00    -0.200 F 
ATOM     89  C   UNL A   1      47.017  35.042  29.429  1.00  0.00     0.200 A 
ATOM     90  F   UNL A   1      47.554  34.310  31.609  1.00  0.00    -0.200 F 
ATOM     91  F   UNL A   1      47.458  36.273  29.718  1.00  0.00    -0.200 F 
ENDBRANCH  58  81
ENDBRANCH  32  33
ENDBRANCH  24  27
ENDBRANCH  22  23
ENDBRANCH  21  22
ENDBRANCH  20  21
ENDBRANCH   1  20
TORSDOF 16
ENDMDL
MODEL 2
REMARK VINA RESULT:     -11.3      4.234      8.056
REMARK SMILES COCCS(=O)(=O)N[C@@H]1C=C[C@@H](C(=O)NCCCCNC(=O)c2ccc(-c3c4nc(c(-c5c(F)c(F)c(F)c(F)c5F)c5ccc([nH]5)c(-c5c(F)c(F)c(F)c(F)c5F)c5nc(c(-c6c(F)c(F)c(F)c(F)c6F)c6ccc3[nH]6)C=C5)C=C4)cc2)C1
REMARK SMILES IDX 16 1 15 2 13 3 14 4 12 6 9 7 10 8 86 9 11 10 8 11 5 13 6 14
REMARK SMILES IDX 7 15 4 16 3 17 2 18 1 19 17 20 18 21 19 22 20 23 21 24 22 26
REMARK SMILES IDX 23 27 24 28 85 29 25 30 84 31 26 32 27 33 28 34 78 35 29 36
REMARK SMILES IDX 83 37 77 38 79 39 30 40 82 41 76 42 75 43 31 45 63 46 43 47
REMARK SMILES IDX 62 48 44 49 47 50 61 51 80 52 45 53 46 54 60 56 81 57 48 58
REMARK SMILES IDX 32 59 33 60 41 61 34 62 35 63 39 64 42 65 36 66 37 67 40 68
REMARK SMILES IDX 38 69 64 70 65 71 73 72 66 73 67 74 71 75 74 76 68 77 69 78
REMARK SMILES IDX 72 79 70 80 49 81 50 82 58 83 51 84 52 85 56 86 59 87 53 88
REMARK SMILES IDX 54 89 57 90 55 91
REMARK H PARENT 15 5 8 12 20 25 79 44 47 55
REMARK Flexibility Score: inf
ROOT
ATOM      1  C   UNL A   1      33.596  25.531  25.176  1.00  0.00     0.116 C 
ENDROOT
BRANCH   1   2
ATOM      2  N   UNL A   1      32.954  24.768  26.225  1.00  0.00    -0.356 N 
ATOM      3  C   UNL A   1      31.648  24.451  26.441  1.00  0.00     0.226 C 
ATOM      4  O   UNL A   1      31.418  23.696  27.392  1.00  0.00    -0.274 OA
ATOM      5  H   UNL A   1      33.572  24.414  26.905  1.00  0.00     0.163 HD
BRANCH   3   6
ATOM      6  C   UNL A   1      30.485  24.968  25.582  1.00  0.00     0.103 C 
ATOM      7  C   UNL A   1      30.440  26.948  24.103  1.00  0.00     0.093 C 
ATOM      8  C   UNL A   1      30.528  25.663  23.346  1.00  0.00    -0.011 C 
ATOM      9  C   UNL A   1      30.275  26.491  25.564  1.00  0.00     0.042 C 
ATOM     10  C   UNL A   1      30.579  24.590  24.141  1.00  0.00    -0.016 C 
BRANCH   7  11
ATOM     11  N   UNL A   1      29.290  27.686  23.600  1.00  0.00    -0.208 NA
ATOM     12  H   UNL A   1      28.879  27.121  22.856  1.00  0.00     0.141 HD
BRANCH  11  13
ATOM     13  S   UNL A   1      29.498  29.228  22.980  1.00  0.00     0.214 S 
ATOM     14  O   UNL A   1      30.087  29.102  21.663  1.00  0.00    -0.212 OA
ATOM     15  O   UNL A   1      30.194  29.950  24.021  1.00  0.00    -0.212 OA
BRANCH  13  16
ATOM     16  C   UNL A   1      27.835  29.903  22.872  1.00  0.00     0.182 C 
BRANCH  16  17
ATOM     17  C   UNL A   1      27.682  31.219  23.613  1.00  0.00     0.177 C 
BRANCH  17  18
ATOM     18  O   UNL A   1      27.699  32.309  22.692  1.00  0.00    -0.384 OA
ATOM     19  C   UNL A   1      28.825  33.158  22.870  1.00  0.00     0.194 C 
ENDBRANCH  17  18
ENDBRANCH  16  17
ENDBRANCH  13  16
ENDBRANCH  11  13
ENDBRANCH   7  11
ENDBRANCH   3   6
ENDBRANCH   1   2
BRANCH   1  20
ATOM     20  C   UNL A   1      34.427  26.689  25.725  1.00  0.00     0.023 C 
BRANCH  20  21
ATOM     21  C   UNL A   1      33.662  27.999  25.914  1.00  0.00     0.023 C 
BRANCH  21  22
ATOM     22  C   UNL A   1      33.425  28.419  27.363  1.00  0.00     0.116 C 
BRANCH  22  23
ATOM     23  N   UNL A   1      33.430  29.862  27.556  1.00  0.00    -0.352 N 
ATOM     24  C   UNL A   1      34.434  30.679  28.023  1.00  0.00     0.251 C 
ATOM     25  H   UNL A   1      32.593  30.321  27.317  1.00  0.00     0.163 HD
ATOM     26  O   UNL A   1      34.211  31.867  28.230  1.00  0.00    -0.269 OA
BRANCH  24  27
ATOM     27  C   UNL A   1      35.775  30.121  28.312  1.00  0.00     0.039 A 
ATOM     28  C   UNL A   1      36.756  30.170  27.319  1.00  0.00     0.014 A 
ATOM     29  C   UNL A   1      36.073  29.564  29.559  1.00  0.00     0.014 A 
ATOM     30  C   UNL A   1      38.055  29.738  27.602  1.00  0.00     0.010 A 
ATOM     31  C   UNL A   1      37.386  29.213  29.866  1.00  0.00     0.010 A 
ATOM     32  C   UNL A   1      38.393  29.300  28.894  1.00  0.00    -0.014 A 
BRANCH  32  33
ATOM     33  C   UNL A   1      39.794  28.945  29.244  1.00  0.00     0.031 A 
ATOM     34  C   UNL A   1      40.640  29.886  30.056  1.00  0.00     0.074 A 
ATOM     35  C   UNL A   1      40.327  27.797  28.778  1.00  0.00     0.049 A 
ATOM     36  N   UNL A   1      41.896  29.773  30.414  1.00  0.00    -0.248 NA
ATOM     37  C   UNL A   1      40.000  31.133  30.503  1.00  0.00     0.031 C 
ATOM     38  C   UNL A   1      39.630  26.822  27.938  1.00  0.00     0.029 A 
ATOM     39  N   UNL A   1      41.581  27.260  28.935  1.00  0.00    -0.354 N 
ATOM     40  C   UNL A   1      42.195  30.933  31.117  1.00  0.00     0.074 A 
ATOM     41  C   UNL A   1      41.010  31.763  31.083  1.00  0.00     0.031 C 
ATOM     42  C   UNL A   1      40.454  25.795  27.679  1.00  0.00     0.029 A 
ATOM     43  C   UNL A   1      41.752  26.057  28.293  1.00  0.00     0.049 A 
ATOM     44  H   UNL A   1      42.292  27.696  29.459  1.00  0.00     0.167 HD
ATOM     45  C   UNL A   1      43.343  31.265  31.755  1.00  0.00     0.037 A 
ATOM     46  C   UNL A   1      42.833  25.260  28.201  1.00  0.00     0.037 A 
ATOM     47  C   UNL A   1      44.516  30.431  31.798  1.00  0.00     0.049 A 
ATOM     48  C   UNL A   1      44.105  25.664  28.898  1.00  0.00     0.074 A 
ATOM     49  C   UNL A   1      45.708  30.652  32.466  1.00  0.00     0.029 A 
ATOM     50  N   UNL A   1      44.649  29.217  31.139  1.00  0.00    -0.354 N 
ATOM     51  N   UNL A   1      44.351  26.726  29.626  1.00  0.00    -0.248 NA
ATOM     52  C   UNL A   1      45.251  24.752  28.766  1.00  0.00     0.031 C 
ATOM     53  C   UNL A   1      46.583  29.606  32.161  1.00  0.00     0.029 A 
ATOM     54  C   UNL A   1      45.915  28.696  31.358  1.00  0.00     0.049 A 
ATOM     55  H   UNL A   1      43.948  28.790  30.595  1.00  0.00     0.167 HD
ATOM     56  C   UNL A   1      45.662  26.597  30.062  1.00  0.00     0.074 A 
ATOM     57  C   UNL A   1      46.155  25.342  29.534  1.00  0.00     0.031 C 
ATOM     58  C   UNL A   1      46.393  27.442  30.830  1.00  0.00     0.037 A 
BRANCH  45  59
ATOM     59  C   UNL A   1      43.390  32.592  32.458  1.00  0.00     0.064 A 
ATOM     60  C   UNL A   1      43.022  32.727  33.806  1.00  0.00     0.173 A 
ATOM     61  C   UNL A   1      43.846  33.739  31.789  1.00  0.00     0.173 A 
ATOM     62  F   UNL A   1      42.571  31.665  34.493  1.00  0.00    -0.203 F 
ATOM     63  C   UNL A   1      43.077  33.962  34.447  1.00  0.00     0.198 A 
ATOM     64  C   UNL A   1      43.932  34.966  32.442  1.00  0.00     0.198 A 
ATOM     65  F   UNL A   1      44.217  33.668  30.501  1.00  0.00    -0.203 F 
ATOM     66  F   UNL A   1      42.668  34.075  35.718  1.00  0.00    -0.200 F 
ATOM     67  C   UNL A   1      43.540  35.079  33.766  1.00  0.00     0.200 A 
ATOM     68  F   UNL A   1      44.396  36.039  31.788  1.00  0.00    -0.200 F 
ATOM     69  F   UNL A   1      43.600  36.265  34.386  1.00  0.00    -0.200 F 
ENDBRANCH  45  59
BRANCH  46  70
ATOM     70  C   UNL A   1      42.760  23.989  27.431  1.00  0.00     0.064 A 
ATOM     71  C   UNL A   1      42.327  22.801  28.037  1.00  0.00     0.173 A 
ATOM     72  C   UNL A   1      43.137  23.929  26.081  1.00  0.00     0.173 A 
ATOM     73  F   UNL A   1      41.976  22.800  29.332  1.00  0.00    -0.203 F 
ATOM     74  C   UNL A   1      42.296  21.600  27.331  1.00  0.00     0.198 A 
ATOM     75  C   UNL A   1      43.074  22.735  25.367  1.00  0.00     0.198 A 
ATOM     76  F   UNL A   1      43.555  25.037  25.450  1.00  0.00    -0.203 F 
ATOM     77  F   UNL A   1      41.930  20.470  27.952  1.00  0.00    -0.200 F 
ATOM     78  C   UNL A   1      42.665  21.569  25.995  1.00  0.00     0.200 A 
ATOM     79  F   UNL A   1      43.414  22.712  24.071  1.00  0.00    -0.200 F 
ATOM     80  F   UNL A   1      42.632  20.415  25.316  1.00  0.00    -0.200 F 
ENDBRANCH  46  70
BRANCH  58  81
ATOM     81  C   UNL A   1      47.795  27.023  31.178  1.00  0.00     0.064 A 
ATOM     82  C   UNL A   1      48.067  26.185  32.269  1.00  0.00     0.173 A 
ATOM     83  C   UNL A   1      48.877  27.441  30.387  1.00  0.00     0.173 A 
ATOM     84  F   UNL A   1      47.070  25.767  33.065  1.00  0.00    -0.203 F 
ATOM     85  C   UNL A   1      49.372  25.806  32.574  1.00  0.00     0.198 A 
ATOM     86  C   UNL A   1      50.176  27.031  30.673  1.00  0.00     0.198 A 
ATOM     87  F   UNL A   1      48.674  28.237  29.327  1.00  0.00    -0.203 F 
ATOM     88  F   UNL A   1      49.613  25.051  33.655  1.00  0.00    -0.200 F 
ATOM     89  C   UNL A   1      50.424  26.222  31.772  1.00  0.00     0.200 A 
ATOM     90  F   UNL A   1      51.188  27.420  29.887  1.00  0.00    -0.200 F 
ATOM     91  F   UNL A   1      51.678  25.851  32.063  1.00  0.00    -0.200 F 
ENDBRANCH  58  81
ENDBRANCH  32  33
ENDBRANCH  24  27
ENDBRANCH  22  23
ENDBRANCH  21  22
ENDBRANCH  20  21
ENDBRANCH   1  20
TORSDOF 16
ENDMDL
MODEL 3
REMARK VINA RESULT:     -11.3      5.333     10.413
REMARK SMILES COCCS(=O)(=O)N[C@@H]1C=C[C@@H](C(=O)NCCCCNC(=O)c2ccc(-c3c4nc(c(-c5c(F)c(F)c(F)c(F)c5F)c5ccc([nH]5)c(-c5c(F)c(F)c(F)c(F)c5F)c5nc(c(-c6c(F)c(F)c(F)c(F)c6F)c6ccc3[nH]6)C=C5)C=C4)cc2)C1
REMARK SMILES IDX 16 1 15 2 13 3 14 4 12 6 9 7 10 8 86 9 11 10 8 11 5 13 6 14
REMARK SMILES IDX 7 15 4 16 3 17 2 18 1 19 17 20 18 21 19 22 20 23 21 24 22 26
REMARK SMILES IDX 23 27 24 28 85 29 25 30 84 31 26 32 27 33 28 34 78 35 29 36
REMARK SMILES IDX 83 37 77 38 79 39 30 40 82 41 76 42 75 43 31 45 63 46 43 47
REMARK SMILES IDX 62 48 44 49 47 50 61 51 80 52 45 53 46 54 60 56 81 57 48 58
REMARK SMILES IDX 32 59 33 60 41 61 34 62 35 63 39 64 42 65 36 66 37 67 40 68
REMARK SMILES IDX 38 69 64 70 65 71 73 72 66 73 67 74 71 75 74 76 68 77 69 78
REMARK SMILES IDX 72 79 70 80 49 81 50 82 58 83 51 84 52 85 56 86 59 87 53 88
REMARK SMILES IDX 54 89 57 90 55 91
REMARK H PARENT 15 5 8 12 20 25 79 44 47 55
REMARK Flexibility Score: inf
ROOT
ATOM      1  C   UNL A   1      32.673  26.328  26.163  1.00  0.00     0.116 C 
ENDROOT
BRANCH   1   2
ATOM      2  N   UNL A   1      32.015  25.067  26.431  1.00  0.00    -0.356 N 
ATOM      3  C   UNL A   1      31.035  24.401  25.761  1.00  0.00     0.226 C 
ATOM      4  O   UNL A   1      30.740  23.281  26.195  1.00  0.00    -0.274 OA
ATOM      5  H   UNL A   1      32.334  24.608  27.241  1.00  0.00     0.163 HD
BRANCH   3   6
ATOM      6  C   UNL A   1      30.307  24.955  24.529  1.00  0.00     0.103 C 
ATOM      7  C   UNL A   1      30.388  27.248  23.609  1.00  0.00     0.093 C 
ATOM      8  C   UNL A   1      31.175  26.270  22.797  1.00  0.00    -0.011 C 
ATOM      9  C   UNL A   1      29.706  26.364  24.669  1.00  0.00     0.042 C 
ATOM     10  C   UNL A   1      31.156  25.035  23.305  1.00  0.00    -0.016 C 
BRANCH   7  11
ATOM     11  N   UNL A   1      29.443  27.909  22.720  1.00  0.00    -0.208 NA
ATOM     12  H   UNL A   1      29.635  27.566  21.778  1.00  0.00     0.141 HD
BRANCH  11  13
ATOM     13  S   UNL A   1      29.414  29.581  22.632  1.00  0.00     0.214 S 
ATOM     14  O   UNL A   1      29.855  29.964  21.306  1.00  0.00    -0.212 OA
ATOM     15  O   UNL A   1      30.149  30.022  23.797  1.00  0.00    -0.212 OA
BRANCH  13  16
ATOM     16  C   UNL A   1      27.689  30.021  22.882  1.00  0.00     0.182 C 
BRANCH  16  17
ATOM     17  C   UNL A   1      27.515  31.341  23.611  1.00  0.00     0.177 C 
BRANCH  17  18
ATOM     18  O   UNL A   1      27.627  32.430  22.695  1.00  0.00    -0.384 OA
ATOM     19  C   UNL A   1      28.833  33.164  22.863  1.00  0.00     0.194 C 
ENDBRANCH  17  18
ENDBRANCH  16  17
ENDBRANCH  13  16
ENDBRANCH  11  13
ENDBRANCH   7  11
ENDBRANCH   3   6
ENDBRANCH   1   2
BRANCH   1  20
ATOM     20  C   UNL A   1      32.301  27.405  27.181  1.00  0.00     0.023 C 
BRANCH  20  21
ATOM     21  C   UNL A   1      31.774  28.708  26.579  1.00  0.00     0.023 C 
BRANCH  21  22
ATOM     22  C   UNL A   1      32.840  29.667  26.053  1.00  0.00     0.116 C 
BRANCH  22  23
ATOM     23  N   UNL A   1      32.595  31.057  26.410  1.00  0.00    -0.352 N 
ATOM     24  C   UNL A   1      33.318  31.889  27.232  1.00  0.00     0.251 C 
ATOM     25  H   UNL A   1      31.796  31.460  26.001  1.00  0.00     0.163 HD
ATOM     26  O   UNL A   1      32.886  33.004  27.508  1.00  0.00    -0.269 OA
BRANCH  24  27
ATOM     27  C   UNL A   1      34.598  31.431  27.818  1.00  0.00     0.039 A 
ATOM     28  C   UNL A   1      35.619  32.362  28.024  1.00  0.00     0.014 A 
ATOM     29  C   UNL A   1      34.792  30.094  28.179  1.00  0.00     0.014 A 
ATOM     30  C   UNL A   1      36.798  31.972  28.664  1.00  0.00     0.010 A 
ATOM     31  C   UNL A   1      35.931  29.725  28.890  1.00  0.00     0.010 A 
ATOM     32  C   UNL A   1      36.945  30.660  29.146  1.00  0.00    -0.014 A 
BRANCH  32  33
ATOM     33  C   UNL A   1      38.143  30.256  29.929  1.00  0.00     0.031 A 
ATOM     34  C   UNL A   1      39.129  29.270  29.364  1.00  0.00     0.074 A 
ATOM     35  C   UNL A   1      38.314  30.732  31.180  1.00  0.00     0.049 A 
ATOM     36  N   UNL A   1      40.201  28.759  29.918  1.00  0.00    -0.248 NA
ATOM     37  C   UNL A   1      38.861  28.772  28.007  1.00  0.00     0.031 C 
ATOM     38  C   UNL A   1      37.404  31.653  31.864  1.00  0.00     0.029 A 
ATOM     39  N   UNL A   1      39.303  30.499  32.103  1.00  0.00    -0.354 N 
ATOM     40  C   UNL A   1      40.727  27.877  28.983  1.00  0.00     0.074 A 
ATOM     41  C   UNL A   1      39.824  27.875  27.852  1.00  0.00     0.031 C 
ATOM     42  C   UNL A   1      37.893  31.929  33.083  1.00  0.00     0.029 A 
ATOM     43  C   UNL A   1      39.123  31.170  33.287  1.00  0.00     0.049 A 
ATOM     44  H   UNL A   1      40.071  29.906  31.931  1.00  0.00     0.167 HD
ATOM     45  C   UNL A   1      41.871  27.155  29.050  1.00  0.00     0.037 A 
ATOM     46  C   UNL A   1      39.860  31.170  34.415  1.00  0.00     0.037 A 
ATOM     47  C   UNL A   1      42.774  27.169  30.171  1.00  0.00     0.049 A 
ATOM     48  C   UNL A   1      41.114  30.338  34.472  1.00  0.00     0.074 A 
ATOM     49  C   UNL A   1      43.987  26.517  30.310  1.00  0.00     0.029 A 
ATOM     50  N   UNL A   1      42.559  27.866  31.351  1.00  0.00    -0.354 N 
ATOM     51  N   UNL A   1      41.642  29.569  33.551  1.00  0.00    -0.248 NA
ATOM     52  C   UNL A   1      41.879  30.380  35.727  1.00  0.00     0.031 C 
ATOM     53  C   UNL A   1      44.475  26.767  31.596  1.00  0.00     0.029 A 
ATOM     54  C   UNL A   1      43.601  27.631  32.235  1.00  0.00     0.049 A 
ATOM     55  H   UNL A   1      41.782  28.441  31.535  1.00  0.00     0.167 HD
ATOM     56  C   UNL A   1      42.811  29.061  34.101  1.00  0.00     0.074 A 
ATOM     57  C   UNL A   1      42.927  29.626  35.429  1.00  0.00     0.031 C 
ATOM     58  C   UNL A   1      43.708  28.203  33.555  1.00  0.00     0.037 A 
BRANCH  45  59
ATOM     59  C   UNL A   1      42.212  26.281  27.875  1.00  0.00     0.064 A 
ATOM     60  C   UNL A   1      41.615  25.023  27.691  1.00  0.00     0.173 A 
ATOM     61  C   UNL A   1      43.118  26.721  26.898  1.00  0.00     0.173 A 
ATOM     62  F   UNL A   1      40.747  24.549  28.599  1.00  0.00    -0.203 F 
ATOM     63  C   UNL A   1      41.936  24.228  26.595  1.00  0.00     0.198 A 
ATOM     64  C   UNL A   1      43.412  25.938  25.785  1.00  0.00     0.198 A 
ATOM     65  F   UNL A   1      43.715  27.917  27.018  1.00  0.00    -0.203 F 
ATOM     66  F   UNL A   1      41.395  23.009  26.472  1.00  0.00    -0.200 F 
ATOM     67  C   UNL A   1      42.829  24.689  25.638  1.00  0.00     0.200 A 
ATOM     68  F   UNL A   1      44.261  26.393  24.853  1.00  0.00    -0.200 F 
ATOM     69  F   UNL A   1      43.130  23.926  24.579  1.00  0.00    -0.200 F 
ENDBRANCH  45  59
BRANCH  46  70
ATOM     70  C   UNL A   1      39.442  31.995  35.580  1.00  0.00     0.064 A 
ATOM     71  C   UNL A   1      38.527  31.504  36.522  1.00  0.00     0.173 A 
ATOM     72  C   UNL A   1      39.933  33.295  35.770  1.00  0.00     0.173 A 
ATOM     73  F   UNL A   1      38.010  30.274  36.374  1.00  0.00    -0.203 F 
ATOM     74  C   UNL A   1      38.100  32.287  37.592  1.00  0.00     0.198 A 
ATOM     75  C   UNL A   1      39.532  34.066  36.858  1.00  0.00     0.198 A 
ATOM     76  F   UNL A   1      40.816  33.813  34.901  1.00  0.00    -0.203 F 
ATOM     77  F   UNL A   1      37.183  31.811  38.445  1.00  0.00    -0.200 F 
ATOM     78  C   UNL A   1      38.608  33.566  37.762  1.00  0.00     0.200 A 
ATOM     79  F   UNL A   1      40.039  35.295  37.030  1.00  0.00    -0.200 F 
ATOM     80  F   UNL A   1      38.201  34.319  38.793  1.00  0.00    -0.200 F 
ENDBRANCH  46  70
BRANCH  58  81
ATOM     81  C   UNL A   1      44.915  27.848  34.378  1.00  0.00     0.064 A 
ATOM     82  C   UNL A   1      44.943  26.712  35.200  1.00  0.00     0.173 A 
ATOM     83  C   UNL A   1      46.073  28.641  34.317  1.00  0.00     0.173 A 
ATOM     84  F   UNL A   1      43.858  25.928  35.305  1.00  0.00    -0.203 F 
ATOM     85  C   UNL A   1      46.071  26.399  35.954  1.00  0.00     0.198 A 
ATOM     86  C   UNL A   1      47.211  28.305  35.043  1.00  0.00     0.198 A 
ATOM     87  F   UNL A   1      46.105  29.734  33.541  1.00  0.00    -0.203 F 
ATOM     88  F   UNL A   1      46.054  25.341  36.776  1.00  0.00    -0.200 F 
ATOM     89  C   UNL A   1      47.207  27.191  35.869  1.00  0.00     0.200 A 
ATOM     90  F   UNL A   1      48.313  29.061  34.946  1.00  0.00    -0.200 F 
ATOM     91  F   UNL A   1      48.294  26.884  36.589  1.00  0.00    -0.200 F 
ENDBRANCH  58  81
ENDBRANCH  32  33
ENDBRANCH  24  27
ENDBRANCH  22  23
ENDBRANCH  21  22
ENDBRANCH  20  21
ENDBRANCH   1  20
TORSDOF 16
ENDMDL
