MODEL 1
REMARK VINA RESULT:     -13.0      0.000      0.000
REMARK SMILES C[C@H]1[C@@H](C(=O)NCCCCNC(=O)c2ccc(-c3c4nc(c(-c5c(F)c(F)c(F)c(F)c5F)c5ccc([nH]5)c(-c5c(F)c(F)c(F)c(F)c5F)c5nc(c(-c6c(F)c(F)c(F)c(F)c6F)c6ccc3[nH]6)C=C5)C=C4)cc2)CC[N@@H+]1CC(=O)NNc1ccccn1
REMARK SMILES IDX 7 1 6 2 4 3 5 4 3 6 1 7 2 8 79 9 77 10 78 11 80 13 81 14
REMARK SMILES IDX 82 15 83 16 84 18 85 20 86 21 90 22 87 23 89 24 88 25 8 26
REMARK SMILES IDX 9 27 10 28 11 29 12 30 13 32 14 33 15 34 76 35 16 36 75 37
REMARK SMILES IDX 17 38 18 39 19 40 69 41 20 42 74 43 68 44 70 45 21 46 73 47
REMARK SMILES IDX 67 48 66 49 22 51 54 52 34 53 53 54 35 55 38 56 52 57 71 58
REMARK SMILES IDX 36 59 37 60 51 62 72 63 39 64 23 65 24 66 32 67 25 68 26 69
REMARK SMILES IDX 30 70 33 71 27 72 28 73 31 74 29 75 55 76 56 77 64 78 57 79
REMARK SMILES IDX 58 80 62 81 65 82 59 83 60 84 63 85 61 86 40 87 41 88 49 89
REMARK SMILES IDX 42 90 43 91 47 92 50 93 44 94 45 95 48 96 46 97
REMARK H PARENT 6 5 79 12 83 17 84 19 11 31 70 50 38 61
REMARK Flexibility Score: inf
ROOT
ATOM      1  C   UNL A   1      32.494  30.021  25.458  1.00  0.00     0.116 C 
ENDROOT
BRANCH   1   2
ATOM      2  N   UNL A   1      31.496  29.675  24.472  1.00  0.00    -0.356 N 
ATOM      3  C   UNL A   1      30.975  28.454  24.167  1.00  0.00     0.229 C 
ATOM      4  O   UNL A   1      30.358  28.377  23.103  1.00  0.00    -0.275 OA
ATOM      5  H   UNL A   1      31.143  30.429  23.947  1.00  0.00     0.163 HD
BRANCH   3   6
ATOM      6  C   UNL A   1      31.057  27.294  25.161  1.00  0.00     0.142 C 
ATOM      7  C   UNL A   1      33.338  26.501  24.095  1.00  0.00     0.076 C 
ATOM      8  C   UNL A   1      32.325  26.417  25.232  1.00  0.00     0.194 C 
ATOM      9  N   UNL A   1      31.877  25.016  25.231  1.00  0.00    -0.324 N 
ATOM     10  C   UNL A   1      29.906  26.295  24.958  1.00  0.00     0.081 C 
ATOM     11  C   UNL A   1      30.578  24.993  24.569  1.00  0.00     0.263 C 
ATOM     12  H   UNL A   1      32.526  24.434  24.700  1.00  0.00     0.348 HD
BRANCH   9  13
ATOM     13  C   UNL A   1      31.969  24.330  26.529  1.00  0.00     0.365 C 
BRANCH  13  14
ATOM     14  C   UNL A   1      30.971  23.197  26.751  1.00  0.00     0.293 C 
ATOM     15  O   UNL A   1      29.837  23.413  27.193  1.00  0.00    -0.267 OA
ATOM     16  N   UNL A   1      31.316  21.908  26.443  1.00  0.00    -0.264 N 
ATOM     17  H   UNL A   1      30.641  21.205  26.583  1.00  0.00     0.191 HD
BRANCH  16  18
ATOM     18  N   UNL A   1      32.562  21.525  25.944  1.00  0.00    -0.282 N 
ATOM     19  H   UNL A   1      33.411  21.919  26.249  1.00  0.00     0.190 HD
BRANCH  18  20
ATOM     20  C   UNL A   1      32.484  20.518  24.961  1.00  0.00     0.144 A 
ATOM     21  C   UNL A   1      32.414  20.878  23.613  1.00  0.00     0.048 A 
ATOM     22  N   UNL A   1      32.462  19.228  25.353  1.00  0.00    -0.238 NA
ATOM     23  C   UNL A   1      32.299  19.885  22.643  1.00  0.00     0.005 A 
ATOM     24  C   UNL A   1      32.350  18.281  24.394  1.00  0.00     0.113 A 
ATOM     25  C   UNL A   1      32.265  18.557  23.040  1.00  0.00     0.020 A 
ENDBRANCH  18  20
ENDBRANCH  16  18
ENDBRANCH  13  14
ENDBRANCH   9  13
ENDBRANCH   3   6
ENDBRANCH   1   2
BRANCH   1  26
ATOM     26  C   UNL A   1      31.796  30.549  26.714  1.00  0.00     0.023 C 
BRANCH  26  27
ATOM     27  C   UNL A   1      31.601  32.055  26.759  1.00  0.00     0.023 C 
BRANCH  27  28
ATOM     28  C   UNL A   1      32.765  32.810  27.365  1.00  0.00     0.116 C 
BRANCH  28  29
ATOM     29  N   UNL A   1      32.447  34.195  27.691  1.00  0.00    -0.352 N 
ATOM     30  C   UNL A   1      33.015  35.012  28.643  1.00  0.00     0.251 C 
ATOM     31  H   UNL A   1      31.728  34.603  27.155  1.00  0.00     0.163 HD
ATOM     32  O   UNL A   1      32.562  36.122  28.877  1.00  0.00    -0.269 OA
BRANCH  30  33
ATOM     33  C   UNL A   1      34.167  34.495  29.405  1.00  0.00     0.039 A 
ATOM     34  C   UNL A   1      33.943  33.824  30.608  1.00  0.00     0.014 A 
ATOM     35  C   UNL A   1      35.450  34.581  28.863  1.00  0.00     0.014 A 
ATOM     36  C   UNL A   1      35.003  33.156  31.222  1.00  0.00     0.010 A 
ATOM     37  C   UNL A   1      36.469  33.817  29.407  1.00  0.00     0.010 A 
ATOM     38  C   UNL A   1      36.260  33.104  30.599  1.00  0.00    -0.014 A 
BRANCH  38  39
ATOM     39  C   UNL A   1      37.388  32.335  31.176  1.00  0.00     0.031 A 
ATOM     40  C   UNL A   1      37.881  32.676  32.556  1.00  0.00     0.074 A 
ATOM     41  C   UNL A   1      38.023  31.408  30.434  1.00  0.00     0.049 A 
ATOM     42  N   UNL A   1      38.923  32.219  33.201  1.00  0.00    -0.248 NA
ATOM     43  C   UNL A   1      37.129  33.708  33.288  1.00  0.00     0.031 C 
ATOM     44  C   UNL A   1      37.686  31.043  29.057  1.00  0.00     0.029 A 
ATOM     45  N   UNL A   1      39.098  30.609  30.734  1.00  0.00    -0.354 N 
ATOM     46  C   UNL A   1      38.968  32.934  34.390  1.00  0.00     0.074 A 
ATOM     47  C   UNL A   1      37.894  33.898  34.351  1.00  0.00     0.031 C 
ATOM     48  C   UNL A   1      38.515  30.069  28.644  1.00  0.00     0.029 A 
ATOM     49  C   UNL A   1      39.462  29.767  29.711  1.00  0.00     0.049 A 
ATOM     50  H   UNL A   1      39.565  30.637  31.600  1.00  0.00     0.167 HD
ATOM     51  C   UNL A   1      39.809  32.774  35.439  1.00  0.00     0.037 A 
ATOM     52  C   UNL A   1      40.449  28.853  29.650  1.00  0.00     0.037 A 
ATOM     53  C   UNL A   1      40.834  31.768  35.498  1.00  0.00     0.049 A 
ATOM     54  C   UNL A   1      41.337  28.658  30.849  1.00  0.00     0.074 A 
ATOM     55  C   UNL A   1      41.684  31.462  36.544  1.00  0.00     0.029 A 
ATOM     56  N   UNL A   1      41.135  30.894  34.463  1.00  0.00    -0.354 N 
ATOM     57  N   UNL A   1      41.325  29.289  31.998  1.00  0.00    -0.248 NA
ATOM     58  C   UNL A   1      42.371  27.619  30.745  1.00  0.00     0.031 C 
ATOM     59  C   UNL A   1      42.523  30.422  36.132  1.00  0.00     0.029 A 
ATOM     60  C   UNL A   1      42.167  30.053  34.843  1.00  0.00     0.049 A 
ATOM     61  H   UNL A   1      40.682  30.874  33.589  1.00  0.00     0.167 HD
ATOM     62  C   UNL A   1      42.327  28.707  32.762  1.00  0.00     0.074 A 
ATOM     63  C   UNL A   1      42.919  27.664  31.951  1.00  0.00     0.031 C 
ATOM     64  C   UNL A   1      42.727  29.012  34.021  1.00  0.00     0.037 A 
BRANCH  51  65
ATOM     65  C   UNL A   1      39.635  33.695  36.610  1.00  0.00     0.064 A 
ATOM     66  C   UNL A   1      38.847  33.337  37.717  1.00  0.00     0.173 A 
ATOM     67  C   UNL A   1      40.267  34.947  36.634  1.00  0.00     0.173 A 
ATOM     68  F   UNL A   1      38.206  32.158  37.735  1.00  0.00    -0.203 F 
ATOM     69  C   UNL A   1      38.672  34.211  38.785  1.00  0.00     0.198 A 
ATOM     70  C   UNL A   1      40.115  35.805  37.719  1.00  0.00     0.198 A 
ATOM     71  F   UNL A   1      41.031  35.337  35.604  1.00  0.00    -0.203 F 
ATOM     72  F   UNL A   1      37.866  33.871  39.801  1.00  0.00    -0.200 F 
ATOM     73  C   UNL A   1      39.310  35.442  38.788  1.00  0.00     0.200 A 
ATOM     74  F   UNL A   1      40.741  36.990  37.726  1.00  0.00    -0.200 F 
ATOM     75  F   UNL A   1      39.142  36.282  39.819  1.00  0.00    -0.200 F 
ENDBRANCH  51  65
BRANCH  52  76
ATOM     76  C   UNL A   1      40.620  28.022  28.429  1.00  0.00     0.064 A 
ATOM     77  C   UNL A   1      40.013  26.762  28.332  1.00  0.00     0.173 A 
ATOM     78  C   UNL A   1      41.388  28.462  27.343  1.00  0.00     0.173 A 
ATOM     79  F   UNL A   1      39.284  26.290  29.353  1.00  0.00    -0.203 F 
ATOM     80  C   UNL A   1      40.186  25.965  27.202  1.00  0.00     0.198 A 
ATOM     81  C   UNL A   1      41.540  27.674  26.203  1.00  0.00     0.198 A 
ATOM     82  F   UNL A   1      41.985  29.663  27.384  1.00  0.00    -0.203 F 
ATOM     83  F   UNL A   1      39.629  24.746  27.154  1.00  0.00    -0.200 F 
ATOM     84  C   UNL A   1      40.945  26.423  26.137  1.00  0.00     0.200 A 
ATOM     85  F   UNL A   1      42.265  28.126  25.170  1.00  0.00    -0.200 F 
ATOM     86  F   UNL A   1      41.110  25.657  25.050  1.00  0.00    -0.200 F 
ENDBRANCH  52  76
BRANCH  64  87
ATOM     87  C   UNL A   1      43.829  28.185  34.610  1.00  0.00     0.064 A 
ATOM     88  C   UNL A   1      43.566  26.979  35.274  1.00  0.00     0.173 A 
ATOM     89  C   UNL A   1      45.168  28.579  34.462  1.00  0.00     0.173 A 
ATOM     90  F   UNL A   1      42.300  26.569  35.452  1.00  0.00    -0.203 F 
ATOM     91  C   UNL A   1      44.603  26.206  35.789  1.00  0.00     0.198 A 
ATOM     92  C   UNL A   1      46.203  27.791  34.954  1.00  0.00     0.198 A 
ATOM     93  F   UNL A   1      45.471  29.721  33.827  1.00  0.00    -0.203 F 
ATOM     94  F   UNL A   1      44.327  25.078  36.456  1.00  0.00    -0.200 F 
ATOM     95  C   UNL A   1      45.919  26.608  35.622  1.00  0.00     0.200 A 
ATOM     96  F   UNL A   1      47.476  28.173  34.779  1.00  0.00    -0.200 F 
ATOM     97  F   UNL A   1      46.917  25.858  36.110  1.00  0.00    -0.200 F 
ENDBRANCH  64  87
ENDBRANCH  38  39
ENDBRANCH  30  33
ENDBRANCH  28  29
ENDBRANCH  27  28
ENDBRANCH  26  27
ENDBRANCH   1  26
TORSDOF 15
ENDMDL
MODEL 2
REMARK VINA RESULT:     -12.8      0.746      7.403
REMARK SMILES C[C@H]1[C@@H](C(=O)NCCCCNC(=O)c2ccc(-c3c4nc(c(-c5c(F)c(F)c(F)c(F)c5F)c5ccc([nH]5)c(-c5c(F)c(F)c(F)c(F)c5F)c5nc(c(-c6c(F)c(F)c(F)c(F)c6F)c6ccc3[nH]6)C=C5)C=C4)cc2)CC[N@@H+]1CC(=O)NNc1ccccn1
REMARK SMILES IDX 7 1 6 2 4 3 5 4 3 6 1 7 2 8 79 9 77 10 78 11 80 13 81 14
REMARK SMILES IDX 82 15 83 16 84 18 85 20 86 21 90 22 87 23 89 24 88 25 8 26
REMARK SMILES IDX 9 27 10 28 11 29 12 30 13 32 14 33 15 34 76 35 16 36 75 37
REMARK SMILES IDX 17 38 18 39 19 40 69 41 20 42 74 43 68 44 70 45 21 46 73 47
REMARK SMILES IDX 67 48 66 49 22 51 54 52 34 53 53 54 35 55 38 56 52 57 71 58
REMARK SMILES IDX 36 59 37 60 51 62 72 63 39 64 23 65 24 66 32 67 25 68 26 69
REMARK SMILES IDX 30 70 33 71 27 72 28 73 31 74 29 75 55 76 56 77 64 78 57 79
REMARK SMILES IDX 58 80 62 81 65 82 59 83 60 84 63 85 61 86 40 87 41 88 49 89
REMARK SMILES IDX 42 90 43 91 47 92 50 93 44 94 45 95 48 96 46 97
REMARK H PARENT 6 5 79 12 83 17 84 19 11 31 70 50 38 61
REMARK Flexibility Score: inf
ROOT
ATOM      1  C   UNL A   1      32.722  29.838  25.434  1.00  0.00     0.116 C 
ENDROOT
BRANCH   1   2
ATOM      2  N   UNL A   1      31.556  29.553  24.630  1.00  0.00    -0.356 N 
ATOM      3  C   UNL A   1      30.981  28.352  24.344  1.00  0.00     0.229 C 
ATOM      4  O   UNL A   1      30.176  28.344  23.410  1.00  0.00    -0.275 OA
ATOM      5  H   UNL A   1      31.115  30.339  24.234  1.00  0.00     0.163 HD
BRANCH   3   6
ATOM      6  C   UNL A   1      31.241  27.128  25.223  1.00  0.00     0.142 C 
ATOM      7  C   UNL A   1      33.228  26.383  23.651  1.00  0.00     0.076 C 
ATOM      8  C   UNL A   1      32.473  26.233  24.968  1.00  0.00     0.194 C 
ATOM      9  N   UNL A   1      32.000  24.841  24.973  1.00  0.00    -0.324 N 
ATOM     10  C   UNL A   1      30.049  26.157  25.204  1.00  0.00     0.081 C 
ATOM     11  C   UNL A   1      30.591  24.877  24.599  1.00  0.00     0.263 C 
ATOM     12  H   UNL A   1      32.508  24.289  24.281  1.00  0.00     0.348 HD
BRANCH   9  13
ATOM     13  C   UNL A   1      32.345  24.068  26.176  1.00  0.00     0.365 C 
BRANCH  13  14
ATOM     14  C   UNL A   1      31.358  22.970  26.563  1.00  0.00     0.293 C 
ATOM     15  O   UNL A   1      30.556  23.121  27.490  1.00  0.00    -0.267 OA
ATOM     16  N   UNL A   1      31.336  21.791  25.867  1.00  0.00    -0.264 N 
ATOM     17  H   UNL A   1      30.674  21.111  26.133  1.00  0.00     0.191 HD
BRANCH  16  18
ATOM     18  N   UNL A   1      32.190  21.488  24.805  1.00  0.00    -0.282 N 
ATOM     19  H   UNL A   1      32.610  22.172  24.236  1.00  0.00     0.190 HD
BRANCH  18  20
ATOM     20  C   UNL A   1      32.391  20.104  24.628  1.00  0.00     0.144 A 
ATOM     21  C   UNL A   1      32.425  19.575  23.335  1.00  0.00     0.048 A 
ATOM     22  N   UNL A   1      32.528  19.322  25.718  1.00  0.00    -0.238 NA
ATOM     23  C   UNL A   1      32.586  18.202  23.161  1.00  0.00     0.005 A 
ATOM     24  C   UNL A   1      32.683  17.993  25.524  1.00  0.00     0.113 A 
ATOM     25  C   UNL A   1      32.716  17.392  24.278  1.00  0.00     0.020 A 
ENDBRANCH  18  20
ENDBRANCH  16  18
ENDBRANCH  13  14
ENDBRANCH   9  13
ENDBRANCH   3   6
ENDBRANCH   1   2
BRANCH   1  26
ATOM     26  C   UNL A   1      32.273  30.328  26.813  1.00  0.00     0.023 C 
BRANCH  26  27
ATOM     27  C   UNL A   1      31.906  31.801  26.886  1.00  0.00     0.023 C 
BRANCH  27  28
ATOM     28  C   UNL A   1      32.984  32.676  27.491  1.00  0.00     0.116 C 
BRANCH  28  29
ATOM     29  N   UNL A   1      32.560  34.056  27.693  1.00  0.00    -0.352 N 
ATOM     30  C   UNL A   1      33.028  34.981  28.600  1.00  0.00     0.251 C 
ATOM     31  H   UNL A   1      31.840  34.371  27.099  1.00  0.00     0.163 HD
ATOM     32  O   UNL A   1      32.492  36.071  28.727  1.00  0.00    -0.269 OA
BRANCH  30  33
ATOM     33  C   UNL A   1      34.176  34.606  29.446  1.00  0.00     0.039 A 
ATOM     34  C   UNL A   1      33.943  34.071  30.714  1.00  0.00     0.014 A 
ATOM     35  C   UNL A   1      35.470  34.681  28.929  1.00  0.00     0.014 A 
ATOM     36  C   UNL A   1      35.009  33.523  31.428  1.00  0.00     0.010 A 
ATOM     37  C   UNL A   1      36.501  34.030  29.585  1.00  0.00     0.010 A 
ATOM     38  C   UNL A   1      36.285  33.452  30.846  1.00  0.00    -0.014 A 
BRANCH  38  39
ATOM     39  C   UNL A   1      37.426  32.804  31.538  1.00  0.00     0.031 A 
ATOM     40  C   UNL A   1      38.139  31.662  30.868  1.00  0.00     0.074 A 
ATOM     41  C   UNL A   1      37.754  33.174  32.790  1.00  0.00     0.049 A 
ATOM     42  N   UNL A   1      39.074  30.877  31.339  1.00  0.00    -0.248 NA
ATOM     43  C   UNL A   1      37.706  31.324  29.503  1.00  0.00     0.031 C 
ATOM     44  C   UNL A   1      37.086  34.216  33.573  1.00  0.00     0.029 A 
ATOM     45  N   UNL A   1      38.729  32.702  33.632  1.00  0.00    -0.354 N 
ATOM     46  C   UNL A   1      39.309  29.939  30.344  1.00  0.00     0.074 A 
ATOM     47  C   UNL A   1      38.377  30.206  29.274  1.00  0.00     0.031 C 
ATOM     48  C   UNL A   1      37.693  34.327  34.766  1.00  0.00     0.029 A 
ATOM     49  C   UNL A   1      38.767  33.343  34.847  1.00  0.00     0.049 A 
ATOM     50  H   UNL A   1      39.343  31.972  33.390  1.00  0.00     0.167 HD
ATOM     51  C   UNL A   1      40.246  28.962  30.310  1.00  0.00     0.037 A 
ATOM     52  C   UNL A   1      39.581  33.155  35.902  1.00  0.00     0.037 A 
ATOM     53  C   UNL A   1      41.213  28.743  31.350  1.00  0.00     0.049 A 
ATOM     54  C   UNL A   1      40.649  32.097  35.819  1.00  0.00     0.074 A 
ATOM     55  C   UNL A   1      42.259  27.840  31.381  1.00  0.00     0.029 A 
ATOM     56  N   UNL A   1      41.256  29.452  32.542  1.00  0.00    -0.354 N 
ATOM     57  N   UNL A   1      40.911  31.262  34.843  1.00  0.00    -0.248 NA
ATOM     58  C   UNL A   1      41.538  31.961  36.981  1.00  0.00     0.031 C 
ATOM     59  C   UNL A   1      42.918  27.980  32.606  1.00  0.00     0.029 A 
ATOM     60  C   UNL A   1      42.307  28.999  33.321  1.00  0.00     0.049 A 
ATOM     61  H   UNL A   1      40.633  30.171  32.796  1.00  0.00     0.167 HD
ATOM     62  C   UNL A   1      42.009  30.522  35.260  1.00  0.00     0.074 A 
ATOM     63  C   UNL A   1      42.372  31.016  36.572  1.00  0.00     0.031 C 
ATOM     64  C   UNL A   1      42.656  29.518  34.618  1.00  0.00     0.037 A 
BRANCH  51  65
ATOM     65  C   UNL A   1      40.277  28.076  29.099  1.00  0.00     0.064 A 
ATOM     66  C   UNL A   1      41.023  28.416  27.959  1.00  0.00     0.173 A 
ATOM     67  C   UNL A   1      39.561  26.871  29.079  1.00  0.00     0.173 A 
ATOM     68  F   UNL A   1      41.710  29.568  27.921  1.00  0.00    -0.203 F 
ATOM     69  C   UNL A   1      41.021  27.600  26.832  1.00  0.00     0.198 A 
ATOM     70  C   UNL A   1      39.588  26.040  27.961  1.00  0.00     0.198 A 
ATOM     71  F   UNL A   1      38.834  26.498  30.142  1.00  0.00    -0.203 F 
ATOM     72  F   UNL A   1      41.692  27.977  25.734  1.00  0.00    -0.200 F 
ATOM     73  C   UNL A   1      40.310  26.410  26.836  1.00  0.00     0.200 A 
ATOM     74  F   UNL A   1      38.908  24.886  27.970  1.00  0.00    -0.200 F 
ATOM     75  F   UNL A   1      40.311  25.623  25.750  1.00  0.00    -0.200 F 
ENDBRANCH  51  65
BRANCH  52  76
ATOM     76  C   UNL A   1      39.451  34.015  37.108  1.00  0.00     0.064 A 
ATOM     77  C   UNL A   1      40.059  35.277  37.154  1.00  0.00     0.173 A 
ATOM     78  C   UNL A   1      38.724  33.600  38.231  1.00  0.00     0.173 A 
ATOM     79  F   UNL A   1      40.782  35.710  36.110  1.00  0.00    -0.203 F 
ATOM     80  C   UNL A   1      39.963  36.082  38.287  1.00  0.00     0.198 A 
ATOM     81  C   UNL A   1      38.607  34.417  39.355  1.00  0.00     0.198 A 
ATOM     82  F   UNL A   1      38.117  32.403  38.235  1.00  0.00    -0.203 F 
ATOM     83  F   UNL A   1      40.591  37.266  38.321  1.00  0.00    -0.200 F 
ATOM     84  C   UNL A   1      39.233  35.653  39.385  1.00  0.00     0.200 A 
ATOM     85  F   UNL A   1      37.890  34.004  40.409  1.00  0.00    -0.200 F 
ATOM     86  F   UNL A   1      39.140  36.428  40.474  1.00  0.00    -0.200 F 
ENDBRANCH  52  76
BRANCH  64  87
ATOM     87  C   UNL A   1      43.842  28.916  35.307  1.00  0.00     0.064 A 
ATOM     88  C   UNL A   1      43.708  27.831  36.184  1.00  0.00     0.173 A 
ATOM     89  C   UNL A   1      45.134  29.399  35.047  1.00  0.00     0.173 A 
ATOM     90  F   UNL A   1      42.490  27.345  36.475  1.00  0.00    -0.203 F 
ATOM     91  C   UNL A   1      44.822  27.263  36.794  1.00  0.00     0.198 A 
ATOM     92  C   UNL A   1      46.249  28.811  35.637  1.00  0.00     0.198 A 
ATOM     93  F   UNL A   1      45.314  30.431  34.209  1.00  0.00    -0.203 F 
ATOM     94  F   UNL A   1      44.668  26.253  37.660  1.00  0.00    -0.200 F 
ATOM     95  C   UNL A   1      46.091  27.748  36.514  1.00  0.00     0.200 A 
ATOM     96  F   UNL A   1      47.475  29.271  35.355  1.00  0.00    -0.200 F 
ATOM     97  F   UNL A   1      47.165  27.193  37.094  1.00  0.00    -0.200 F 
ENDBRANCH  64  87
ENDBRANCH  38  39
ENDBRANCH  30  33
ENDBRANCH  28  29
ENDBRANCH  27  28
ENDBRANCH  26  27
ENDBRANCH   1  26
TORSDOF 15
ENDMDL
MODEL 3
REMARK VINA RESULT:     -12.8      1.088      2.084
REMARK SMILES C[C@H]1[C@@H](C(=O)NCCCCNC(=O)c2ccc(-c3c4nc(c(-c5c(F)c(F)c(F)c(F)c5F)c5ccc([nH]5)c(-c5c(F)c(F)c(F)c(F)c5F)c5nc(c(-c6c(F)c(F)c(F)c(F)c6F)c6ccc3[nH]6)C=C5)C=C4)cc2)CC[N@@H+]1CC(=O)NNc1ccccn1
REMARK SMILES IDX 7 1 6 2 4 3 5 4 3 6 1 7 2 8 79 9 77 10 78 11 80 13 81 14
REMARK SMILES IDX 82 15 83 16 84 18 85 20 86 21 90 22 87 23 89 24 88 25 8 26
REMARK SMILES IDX 9 27 10 28 11 29 12 30 13 32 14 33 15 34 76 35 16 36 75 37
REMARK SMILES IDX 17 38 18 39 19 40 69 41 20 42 74 43 68 44 70 45 21 46 73 47
REMARK SMILES IDX 67 48 66 49 22 51 54 52 34 53 53 54 35 55 38 56 52 57 71 58
REMARK SMILES IDX 36 59 37 60 51 62 72 63 39 64 23 65 24 66 32 67 25 68 26 69
REMARK SMILES IDX 30 70 33 71 27 72 28 73 31 74 29 75 55 76 56 77 64 78 57 79
REMARK SMILES IDX 58 80 62 81 65 82 59 83 60 84 63 85 61 86 40 87 41 88 49 89
REMARK SMILES IDX 42 90 43 91 47 92 50 93 44 94 45 95 48 96 46 97
REMARK H PARENT 6 5 79 12 83 17 84 19 11 31 70 50 38 61
REMARK Flexibility Score: inf
ROOT
ATOM      1  C   UNL A   1      32.827  29.961  25.799  1.00  0.00     0.116 C 
ENDROOT
BRANCH   1   2
ATOM      2  N   UNL A   1      32.221  29.694  24.515  1.00  0.00    -0.356 N 
ATOM      3  C   UNL A   1      31.714  28.527  24.028  1.00  0.00     0.229 C 
ATOM      4  O   UNL A   1      31.518  28.485  22.812  1.00  0.00    -0.275 OA
ATOM      5  H   UNL A   1      32.165  30.466  23.906  1.00  0.00     0.163 HD
BRANCH   3   6
ATOM      6  C   UNL A   1      31.305  27.394  24.971  1.00  0.00     0.142 C 
ATOM      7  C   UNL A   1      33.634  26.205  24.604  1.00  0.00     0.076 C 
ATOM      8  C   UNL A   1      32.331  26.319  25.389  1.00  0.00     0.194 C 
ATOM      9  N   UNL A   1      31.676  25.013  25.219  1.00  0.00    -0.324 N 
ATOM     10  C   UNL A   1      30.116  26.597  24.412  1.00  0.00     0.081 C 
ATOM     11  C   UNL A   1      30.646  25.192  24.203  1.00  0.00     0.263 C 
ATOM     12  H   UNL A   1      32.346  24.319  24.887  1.00  0.00     0.348 HD
BRANCH   9  13
ATOM     13  C   UNL A   1      31.265  24.353  26.468  1.00  0.00     0.365 C 
BRANCH  13  14
ATOM     14  C   UNL A   1      31.278  22.827  26.444  1.00  0.00     0.293 C 
ATOM     15  O   UNL A   1      30.260  22.178  26.179  1.00  0.00    -0.267 OA
ATOM     16  N   UNL A   1      32.436  22.146  26.705  1.00  0.00    -0.264 N 
ATOM     17  H   UNL A   1      32.411  21.162  26.665  1.00  0.00     0.191 HD
BRANCH  16  18
ATOM     18  N   UNL A   1      33.651  22.754  27.025  1.00  0.00    -0.282 N 
ATOM     19  H   UNL A   1      33.882  23.059  27.932  1.00  0.00     0.190 HD
BRANCH  18  20
ATOM     20  C   UNL A   1      34.516  22.890  25.919  1.00  0.00     0.144 A 
ATOM     21  C   UNL A   1      35.827  23.325  26.122  1.00  0.00     0.048 A 
ATOM     22  N   UNL A   1      34.043  22.611  24.687  1.00  0.00    -0.238 NA
ATOM     23  C   UNL A   1      36.670  23.495  25.026  1.00  0.00     0.005 A 
ATOM     24  C   UNL A   1      34.879  22.784  23.638  1.00  0.00     0.113 A 
ATOM     25  C   UNL A   1      36.187  23.220  23.756  1.00  0.00     0.020 A 
ENDBRANCH  18  20
ENDBRANCH  16  18
ENDBRANCH  13  14
ENDBRANCH   9  13
ENDBRANCH   3   6
ENDBRANCH   1   2
BRANCH   1  26
ATOM     26  C   UNL A   1      31.761  30.502  26.754  1.00  0.00     0.023 C 
BRANCH  26  27
ATOM     27  C   UNL A   1      31.591  32.012  26.743  1.00  0.00     0.023 C 
BRANCH  27  28
ATOM     28  C   UNL A   1      32.757  32.769  27.341  1.00  0.00     0.116 C 
BRANCH  28  29
ATOM     29  N   UNL A   1      32.443  34.157  27.657  1.00  0.00    -0.352 N 
ATOM     30  C   UNL A   1      33.005  34.976  28.611  1.00  0.00     0.251 C 
ATOM     31  H   UNL A   1      31.732  34.567  27.111  1.00  0.00     0.163 HD
ATOM     32  O   UNL A   1      32.555  36.089  28.835  1.00  0.00    -0.269 OA
BRANCH  30  33
ATOM     33  C   UNL A   1      34.145  34.457  29.389  1.00  0.00     0.039 A 
ATOM     34  C   UNL A   1      33.901  33.698  30.535  1.00  0.00     0.014 A 
ATOM     35  C   UNL A   1      35.445  34.630  28.911  1.00  0.00     0.014 A 
ATOM     36  C   UNL A   1      34.962  33.034  31.150  1.00  0.00     0.010 A 
ATOM     37  C   UNL A   1      36.472  33.874  29.449  1.00  0.00     0.010 A 
ATOM     38  C   UNL A   1      36.245  33.075  30.581  1.00  0.00    -0.014 A 
BRANCH  38  39
ATOM     39  C   UNL A   1      37.381  32.316  31.157  1.00  0.00     0.031 A 
ATOM     40  C   UNL A   1      37.878  32.667  32.532  1.00  0.00     0.074 A 
ATOM     41  C   UNL A   1      38.018  31.389  30.417  1.00  0.00     0.049 A 
ATOM     42  N   UNL A   1      38.926  32.220  33.175  1.00  0.00    -0.248 NA
ATOM     43  C   UNL A   1      37.124  33.697  33.263  1.00  0.00     0.031 C 
ATOM     44  C   UNL A   1      37.677  31.015  29.043  1.00  0.00     0.029 A 
ATOM     45  N   UNL A   1      39.099  30.598  30.715  1.00  0.00    -0.354 N 
ATOM     46  C   UNL A   1      38.973  32.940  34.360  1.00  0.00     0.074 A 
ATOM     47  C   UNL A   1      37.892  33.898  34.322  1.00  0.00     0.031 C 
ATOM     48  C   UNL A   1      38.509  30.045  28.630  1.00  0.00     0.029 A 
ATOM     49  C   UNL A   1      39.463  29.753  29.695  1.00  0.00     0.049 A 
ATOM     50  H   UNL A   1      39.570  30.634  31.579  1.00  0.00     0.167 HD
ATOM     51  C   UNL A   1      39.819  32.790  35.406  1.00  0.00     0.037 A 
ATOM     52  C   UNL A   1      40.456  28.845  29.633  1.00  0.00     0.037 A 
ATOM     53  C   UNL A   1      40.851  31.791  35.465  1.00  0.00     0.049 A 
ATOM     54  C   UNL A   1      41.351  28.662  30.829  1.00  0.00     0.074 A 
ATOM     55  C   UNL A   1      41.708  31.495  36.508  1.00  0.00     0.029 A 
ATOM     56  N   UNL A   1      41.152  30.914  34.433  1.00  0.00    -0.354 N 
ATOM     57  N   UNL A   1      41.341  29.298  31.975  1.00  0.00    -0.248 NA
ATOM     58  C   UNL A   1      42.390  27.629  30.725  1.00  0.00     0.031 C 
ATOM     59  C   UNL A   1      42.551  30.458  36.097  1.00  0.00     0.029 A 
ATOM     60  C   UNL A   1      42.191  30.081  34.812  1.00  0.00     0.049 A 
ATOM     61  H   UNL A   1      40.695  30.887  33.561  1.00  0.00     0.167 HD
ATOM     62  C   UNL A   1      42.350  28.726  32.737  1.00  0.00     0.074 A 
ATOM     63  C   UNL A   1      42.944  27.682  31.928  1.00  0.00     0.031 C 
ATOM     64  C   UNL A   1      42.754  29.040  33.993  1.00  0.00     0.037 A 
BRANCH  51  65
ATOM     65  C   UNL A   1      39.645  33.716  36.574  1.00  0.00     0.064 A 
ATOM     66  C   UNL A   1      40.281  34.968  36.620  1.00  0.00     0.173 A 
ATOM     67  C   UNL A   1      38.828  33.355  37.655  1.00  0.00     0.173 A 
ATOM     68  F   UNL A   1      41.087  35.353  35.620  1.00  0.00    -0.203 F 
ATOM     69  C   UNL A   1      40.133  35.806  37.722  1.00  0.00     0.198 A 
ATOM     70  C   UNL A   1      38.657  34.210  38.740  1.00  0.00     0.198 A 
ATOM     71  F   UNL A   1      38.198  32.172  37.660  1.00  0.00    -0.203 F 
ATOM     72  F   UNL A   1      40.799  36.968  37.770  1.00  0.00    -0.200 F 
ATOM     73  C   UNL A   1      39.317  35.429  38.778  1.00  0.00     0.200 A 
ATOM     74  F   UNL A   1      37.860  33.850  39.755  1.00  0.00    -0.200 F 
ATOM     75  F   UNL A   1      39.174  36.239  39.837  1.00  0.00    -0.200 F 
ENDBRANCH  51  65
BRANCH  52  76
ATOM     76  C   UNL A   1      40.626  28.010  28.415  1.00  0.00     0.064 A 
ATOM     77  C   UNL A   1      40.000  26.759  28.314  1.00  0.00     0.173 A 
ATOM     78  C   UNL A   1      41.412  28.435  27.336  1.00  0.00     0.173 A 
ATOM     79  F   UNL A   1      39.254  26.300  29.329  1.00  0.00    -0.203 F 
ATOM     80  C   UNL A   1      40.172  25.957  27.187  1.00  0.00     0.198 A 
ATOM     81  C   UNL A   1      41.563  27.643  26.199  1.00  0.00     0.198 A 
ATOM     82  F   UNL A   1      42.027  29.627  27.382  1.00  0.00    -0.203 F 
ATOM     83  F   UNL A   1      39.597  24.747  27.136  1.00  0.00    -0.200 F 
ATOM     84  C   UNL A   1      40.950  26.401  26.129  1.00  0.00     0.200 A 
ATOM     85  F   UNL A   1      42.305  28.082  25.173  1.00  0.00    -0.200 F 
ATOM     86  F   UNL A   1      41.113  25.631  25.046  1.00  0.00    -0.200 F 
ENDBRANCH  52  76
BRANCH  64  87
ATOM     87  C   UNL A   1      43.864  28.222  34.580  1.00  0.00     0.064 A 
ATOM     88  C   UNL A   1      45.199  28.645  34.517  1.00  0.00     0.173 A 
ATOM     89  C   UNL A   1      43.581  27.026  35.258  1.00  0.00     0.173 A 
ATOM     90  F   UNL A   1      45.518  29.775  33.866  1.00  0.00    -0.203 F 
ATOM     91  C   UNL A   1      46.215  27.890  35.094  1.00  0.00     0.198 A 
ATOM     92  C   UNL A   1      44.596  26.287  35.857  1.00  0.00     0.198 A 
ATOM     93  F   UNL A   1      42.318  26.584  35.351  1.00  0.00    -0.203 F 
ATOM     94  F   UNL A   1      47.488  28.292  34.987  1.00  0.00    -0.200 F 
ATOM     95  C   UNL A   1      45.913  26.717  35.769  1.00  0.00     0.200 A 
ATOM     96  F   UNL A   1      44.302  25.162  36.521  1.00  0.00    -0.200 F 
ATOM     97  F   UNL A   1      46.892  25.995  36.333  1.00  0.00    -0.200 F 
ENDBRANCH  64  87
ENDBRANCH  38  39
ENDBRANCH  30  33
ENDBRANCH  28  29
ENDBRANCH  27  28
ENDBRANCH  26  27
ENDBRANCH   1  26
TORSDOF 15
ENDMDL
