MODEL 1
REMARK VINA RESULT:     -12.2      0.000      0.000
REMARK SMILES N#Cc1cccc(CSc2ccnc(C(=O)NCCCCNC(=O)c3ccc(-c4c5nc(c(-c6c(F)c(F)c(F)c(F)c6F)c6ccc([nH]6)c(-c6c(F)c(F)c(F)c(F)c6F)c6nc(c(-c7c(F)c(F)c(F)c(F)c7F)c7ccc4[nH]7)C=C6)C=C5)cc3)c2)c1
REMARK SMILES IDX 18 1 17 2 15 3 16 4 14 6 10 7 11 8 88 9 12 10 13 11 9 12
REMARK SMILES IDX 8 13 7 14 3 15 4 16 89 17 5 18 6 19 2 20 1 21 19 22 20 23
REMARK SMILES IDX 21 24 22 25 23 26 24 28 25 29 26 30 87 31 27 32 86 33 28 34
REMARK SMILES IDX 29 35 30 36 80 37 31 38 85 39 79 40 81 41 32 42 84 43 78 44
REMARK SMILES IDX 77 45 33 47 65 48 45 49 64 50 46 51 49 52 63 53 82 54 47 55
REMARK SMILES IDX 48 56 62 58 83 59 50 60 34 61 35 62 43 63 36 64 37 65 41 66
REMARK SMILES IDX 44 67 38 68 39 69 42 70 40 71 66 72 67 73 75 74 68 75 69 76
REMARK SMILES IDX 73 77 76 78 70 79 71 80 74 81 72 82 51 83 52 84 60 85 53 86
REMARK SMILES IDX 54 87 58 88 61 89 55 90 56 91 59 92 57 93
REMARK H PARENT 17 5 22 27 81 46 49 57
REMARK Flexibility Score: inf
ROOT
ATOM      1  C   UNL A   1      33.173  30.079  26.383  1.00  0.00     0.116 C 
ENDROOT
BRANCH   1   2
ATOM      2  N   UNL A   1      33.219  29.713  24.985  1.00  0.00    -0.351 N 
ATOM      3  C   UNL A   1      33.065  28.551  24.263  1.00  0.00     0.269 C 
ATOM      4  O   UNL A   1      33.195  28.685  23.042  1.00  0.00    -0.268 OA
ATOM      5  H   UNL A   1      33.408  30.486  24.405  1.00  0.00     0.163 HD
BRANCH   3   6
ATOM      6  C   UNL A   1      32.759  27.189  24.833  1.00  0.00     0.129 A 
ATOM      7  C   UNL A   1      33.298  25.019  25.702  1.00  0.00     0.011 A 
ATOM      8  C   UNL A   1      31.955  24.789  25.952  1.00  0.00     0.035 A 
ATOM      9  C   UNL A   1      33.698  26.222  25.129  1.00  0.00     0.049 A 
ATOM     10  C   UNL A   1      31.065  25.785  25.608  1.00  0.00     0.113 A 
ATOM     11  N   UNL A   1      31.436  26.965  25.065  1.00  0.00    -0.251 NA
BRANCH   7  12
ATOM     12  S   UNL A   1      34.564  23.832  26.117  1.00  0.00    -0.121 SA
BRANCH  12  13
ATOM     13  C   UNL A   1      34.911  23.170  24.441  1.00  0.00     0.110 C 
BRANCH  13  14
ATOM     14  C   UNL A   1      33.875  22.159  24.013  1.00  0.00    -0.036 A 
ATOM     15  C   UNL A   1      32.819  19.981  24.245  1.00  0.00     0.052 A 
ATOM     16  C   UNL A   1      32.063  20.225  23.094  1.00  0.00     0.019 A 
ATOM     17  C   UNL A   1      33.727  20.946  24.702  1.00  0.00     0.024 A 
ATOM     18  C   UNL A   1      32.179  21.442  22.425  1.00  0.00     0.002 A 
ATOM     19  C   UNL A   1      33.061  22.410  22.896  1.00  0.00     0.004 A 
BRANCH  15  20
ATOM     20  C   UNL A   1      32.664  18.744  24.950  1.00  0.00     0.099 C 
ATOM     21  N   UNL A   1      32.529  17.744  25.527  1.00  0.00    -0.192 NA
ENDBRANCH  15  20
ENDBRANCH  13  14
ENDBRANCH  12  13
ENDBRANCH   7  12
ENDBRANCH   3   6
ENDBRANCH   1   2
BRANCH   1  22
ATOM     22  C   UNL A   1      31.787  30.580  26.785  1.00  0.00     0.023 C 
BRANCH  22  23
ATOM     23  C   UNL A   1      31.661  32.102  26.711  1.00  0.00     0.023 C 
BRANCH  23  24
ATOM     24  C   UNL A   1      32.790  32.859  27.398  1.00  0.00     0.116 C 
BRANCH  24  25
ATOM     25  N   UNL A   1      32.485  34.263  27.646  1.00  0.00    -0.352 N 
ATOM     26  C   UNL A   1      33.039  35.074  28.609  1.00  0.00     0.251 C 
ATOM     27  H   UNL A   1      31.808  34.675  27.062  1.00  0.00     0.163 HD
ATOM     28  O   UNL A   1      32.624  36.208  28.813  1.00  0.00    -0.269 OA
BRANCH  26  29
ATOM     29  C   UNL A   1      34.136  34.511  29.415  1.00  0.00     0.039 A 
ATOM     30  C   UNL A   1      33.839  33.828  30.595  1.00  0.00     0.014 A 
ATOM     31  C   UNL A   1      35.434  34.532  28.900  1.00  0.00     0.014 A 
ATOM     32  C   UNL A   1      34.844  33.097  31.228  1.00  0.00     0.010 A 
ATOM     33  C   UNL A   1      36.401  33.724  29.475  1.00  0.00     0.010 A 
ATOM     34  C   UNL A   1      36.120  33.005  30.649  1.00  0.00    -0.014 A 
BRANCH  34  35
ATOM     35  C   UNL A   1      37.211  32.204  31.257  1.00  0.00     0.031 A 
ATOM     36  C   UNL A   1      37.710  32.580  32.624  1.00  0.00     0.074 A 
ATOM     37  C   UNL A   1      37.811  31.221  30.559  1.00  0.00     0.049 A 
ATOM     38  N   UNL A   1      38.756  32.144  33.275  1.00  0.00    -0.248 NA
ATOM     39  C   UNL A   1      36.947  33.618  33.337  1.00  0.00     0.031 C 
ATOM     40  C   UNL A   1      37.430  30.776  29.218  1.00  0.00     0.029 A 
ATOM     41  N   UNL A   1      38.889  30.431  30.877  1.00  0.00    -0.354 N 
ATOM     42  C   UNL A   1      38.789  32.871  34.457  1.00  0.00     0.074 A 
ATOM     43  C   UNL A   1      37.700  33.820  34.406  1.00  0.00     0.031 C 
ATOM     44  C   UNL A   1      38.252  29.785  28.835  1.00  0.00     0.029 A 
ATOM     45  C   UNL A   1      39.254  29.565  29.875  1.00  0.00     0.049 A 
ATOM     46  H   UNL A   1      39.357  30.482  31.742  1.00  0.00     0.167 HD
ATOM     47  C   UNL A   1      39.638  32.741  35.503  1.00  0.00     0.037 A 
ATOM     48  C   UNL A   1      40.293  28.710  29.796  1.00  0.00     0.037 A 
ATOM     49  C   UNL A   1      40.707  31.781  35.551  1.00  0.00     0.049 A 
ATOM     50  C   UNL A   1      41.257  28.619  30.953  1.00  0.00     0.074 A 
ATOM     51  C   UNL A   1      41.596  31.537  36.581  1.00  0.00     0.029 A 
ATOM     52  N   UNL A   1      41.034  30.913  34.520  1.00  0.00    -0.354 N 
ATOM     53  N   UNL A   1      41.253  29.275  32.088  1.00  0.00    -0.248 NA
ATOM     54  C   UNL A   1      42.371  27.668  30.820  1.00  0.00     0.031 C 
ATOM     55  C   UNL A   1      42.510  30.574  36.146  1.00  0.00     0.029 A 
ATOM     56  C   UNL A   1      42.133  30.152  34.881  1.00  0.00     0.049 A 
ATOM     57  H   UNL A   1      40.558  30.849  33.661  1.00  0.00     0.167 HD
ATOM     58  C   UNL A   1      42.325  28.783  32.821  1.00  0.00     0.074 A 
ATOM     59  C   UNL A   1      42.964  27.776  32.001  1.00  0.00     0.031 C 
ATOM     60  C   UNL A   1      42.736  29.128  34.065  1.00  0.00     0.037 A 
BRANCH  47  61
ATOM     61  C   UNL A   1      39.452  33.665  36.671  1.00  0.00     0.064 A 
ATOM     62  C   UNL A   1      38.693  33.297  37.794  1.00  0.00     0.173 A 
ATOM     63  C   UNL A   1      40.066  34.927  36.682  1.00  0.00     0.173 A 
ATOM     64  F   UNL A   1      38.075  32.107  37.832  1.00  0.00    -0.203 F 
ATOM     65  C   UNL A   1      38.527  34.171  38.865  1.00  0.00     0.198 A 
ATOM     66  C   UNL A   1      39.931  35.781  37.772  1.00  0.00     0.198 A 
ATOM     67  F   UNL A   1      40.806  35.329  35.637  1.00  0.00    -0.203 F 
ATOM     68  F   UNL A   1      37.746  33.822  39.896  1.00  0.00    -0.200 F 
ATOM     69  C   UNL A   1      39.153  35.408  38.857  1.00  0.00     0.200 A 
ATOM     70  F   UNL A   1      40.553  36.968  37.770  1.00  0.00    -0.200 F 
ATOM     71  F   UNL A   1      39.000  36.244  39.893  1.00  0.00    -0.200 F 
ENDBRANCH  47  61
BRANCH  48  72
ATOM     72  C   UNL A   1      40.481  27.866  28.584  1.00  0.00     0.064 A 
ATOM     73  C   UNL A   1      41.224  28.331  27.489  1.00  0.00     0.173 A 
ATOM     74  C   UNL A   1      39.906  26.590  28.483  1.00  0.00     0.173 A 
ATOM     75  F   UNL A   1      41.779  29.551  27.528  1.00  0.00    -0.203 F 
ATOM     76  C   UNL A   1      41.358  27.568  26.331  1.00  0.00     0.198 A 
ATOM     77  C   UNL A   1      40.071  25.813  27.337  1.00  0.00     0.198 A 
ATOM     78  F   UNL A   1      39.190  26.092  29.501  1.00  0.00    -0.203 F 
ATOM     79  F   UNL A   1      42.022  28.064  25.279  1.00  0.00    -0.200 F 
ATOM     80  C   UNL A   1      40.786  26.307  26.257  1.00  0.00     0.200 A 
ATOM     81  F   UNL A   1      39.532  24.587  27.278  1.00  0.00    -0.200 F 
ATOM     82  F   UNL A   1      40.915  25.574  25.143  1.00  0.00    -0.200 F 
ENDBRANCH  48  72
BRANCH  60  83
ATOM     83  C   UNL A   1      43.878  28.363  34.671  1.00  0.00     0.064 A 
ATOM     84  C   UNL A   1      43.687  27.168  35.376  1.00  0.00     0.173 A 
ATOM     85  C   UNL A   1      45.197  28.789  34.443  1.00  0.00     0.173 A 
ATOM     86  F   UNL A   1      42.446  26.725  35.632  1.00  0.00    -0.203 F 
ATOM     87  C   UNL A   1      44.775  26.428  35.836  1.00  0.00     0.198 A 
ATOM     88  C   UNL A   1      46.281  28.029  34.870  1.00  0.00     0.198 A 
ATOM     89  F   UNL A   1      45.435  29.923  33.766  1.00  0.00    -0.203 F 
ATOM     90  F   UNL A   1      44.570  25.302  36.533  1.00  0.00    -0.200 F 
ATOM     91  C   UNL A   1      46.069  26.852  35.569  1.00  0.00     0.200 A 
ATOM     92  F   UNL A   1      47.529  28.428  34.591  1.00  0.00    -0.200 F 
ATOM     93  F   UNL A   1      47.113  26.122  35.985  1.00  0.00    -0.200 F 
ENDBRANCH  60  83
ENDBRANCH  34  35
ENDBRANCH  26  29
ENDBRANCH  24  25
ENDBRANCH  23  24
ENDBRANCH  22  23
ENDBRANCH   1  22
TORSDOF 15
ENDMDL
MODEL 2
REMARK VINA RESULT:     -12.1      5.400      9.939
REMARK SMILES N#Cc1cccc(CSc2ccnc(C(=O)NCCCCNC(=O)c3ccc(-c4c5nc(c(-c6c(F)c(F)c(F)c(F)c6F)c6ccc([nH]6)c(-c6c(F)c(F)c(F)c(F)c6F)c6nc(c(-c7c(F)c(F)c(F)c(F)c7F)c7ccc4[nH]7)C=C6)C=C5)cc3)c2)c1
REMARK SMILES IDX 18 1 17 2 15 3 16 4 14 6 10 7 11 8 88 9 12 10 13 11 9 12
REMARK SMILES IDX 8 13 7 14 3 15 4 16 89 17 5 18 6 19 2 20 1 21 19 22 20 23
REMARK SMILES IDX 21 24 22 25 23 26 24 28 25 29 26 30 87 31 27 32 86 33 28 34
REMARK SMILES IDX 29 35 30 36 80 37 31 38 85 39 79 40 81 41 32 42 84 43 78 44
REMARK SMILES IDX 77 45 33 47 65 48 45 49 64 50 46 51 49 52 63 53 82 54 47 55
REMARK SMILES IDX 48 56 62 58 83 59 50 60 34 61 35 62 43 63 36 64 37 65 41 66
REMARK SMILES IDX 44 67 38 68 39 69 42 70 40 71 66 72 67 73 75 74 68 75 69 76
REMARK SMILES IDX 73 77 76 78 70 79 71 80 74 81 72 82 51 83 52 84 60 85 53 86
REMARK SMILES IDX 54 87 58 88 61 89 55 90 56 91 59 92 57 93
REMARK H PARENT 17 5 22 27 81 46 49 57
REMARK Flexibility Score: inf
ROOT
ATOM      1  C   UNL A   1      36.739  23.065  25.466  1.00  0.00     0.116 C 
ENDROOT
BRANCH   1   2
ATOM      2  N   UNL A   1      35.904  22.444  26.471  1.00  0.00    -0.351 N 
ATOM      3  C   UNL A   1      34.612  21.975  26.528  1.00  0.00     0.269 C 
ATOM      4  O   UNL A   1      34.283  21.508  27.623  1.00  0.00    -0.268 OA
ATOM      5  H   UNL A   1      36.377  22.329  27.326  1.00  0.00     0.163 HD
BRANCH   3   6
ATOM      6  C   UNL A   1      33.616  21.987  25.396  1.00  0.00     0.129 A 
ATOM      7  C   UNL A   1      31.868  22.918  24.041  1.00  0.00     0.011 A 
ATOM      8  C   UNL A   1      31.939  21.819  23.200  1.00  0.00     0.035 A 
ATOM      9  C   UNL A   1      32.704  22.994  25.150  1.00  0.00     0.049 A 
ATOM     10  C   UNL A   1      32.852  20.835  23.517  1.00  0.00     0.113 A 
ATOM     11  N   UNL A   1      33.682  20.899  24.581  1.00  0.00    -0.251 NA
BRANCH   7  12
ATOM     12  S   UNL A   1      30.753  24.279  23.743  1.00  0.00    -0.121 SA
BRANCH  12  13
ATOM     13  C   UNL A   1      30.897  25.140  25.356  1.00  0.00     0.110 C 
BRANCH  13  14
ATOM     14  C   UNL A   1      30.976  26.638  25.185  1.00  0.00    -0.036 A 
ATOM     15  C   UNL A   1      30.688  28.633  23.826  1.00  0.00     0.052 A 
ATOM     16  C   UNL A   1      31.294  29.402  24.825  1.00  0.00     0.019 A 
ATOM     17  C   UNL A   1      30.533  27.252  24.004  1.00  0.00     0.024 A 
ATOM     18  C   UNL A   1      31.704  28.805  26.015  1.00  0.00     0.002 A 
ATOM     19  C   UNL A   1      31.524  27.437  26.202  1.00  0.00     0.004 A 
BRANCH  15  20
ATOM     20  C   UNL A   1      30.232  29.261  22.622  1.00  0.00     0.099 C 
ATOM     21  N   UNL A   1      29.855  29.777  21.650  1.00  0.00    -0.192 NA
ENDBRANCH  15  20
ENDBRANCH  13  14
ENDBRANCH  12  13
ENDBRANCH   7  12
ENDBRANCH   3   6
ENDBRANCH   1   2
BRANCH   1  22
ATOM     22  C   UNL A   1      37.372  22.024  24.544  1.00  0.00     0.023 C 
BRANCH  22  23
ATOM     23  C   UNL A   1      37.823  20.767  25.287  1.00  0.00     0.023 C 
BRANCH  23  24
ATOM     24  C   UNL A   1      39.200  20.877  25.929  1.00  0.00     0.116 C 
BRANCH  24  25
ATOM     25  N   UNL A   1      39.964  19.636  25.886  1.00  0.00    -0.352 N 
ATOM     26  C   UNL A   1      41.319  19.489  26.081  1.00  0.00     0.251 C 
ATOM     27  H   UNL A   1      39.457  18.814  25.695  1.00  0.00     0.163 HD
ATOM     28  O   UNL A   1      41.882  18.417  25.903  1.00  0.00    -0.269 OA
BRANCH  26  29
ATOM     29  C   UNL A   1      42.076  20.688  26.483  1.00  0.00     0.039 A 
ATOM     30  C   UNL A   1      42.503  21.587  25.506  1.00  0.00     0.014 A 
ATOM     31  C   UNL A   1      42.209  20.979  27.842  1.00  0.00     0.014 A 
ATOM     32  C   UNL A   1      43.006  22.827  25.900  1.00  0.00     0.010 A 
ATOM     33  C   UNL A   1      42.612  22.248  28.223  1.00  0.00     0.010 A 
ATOM     34  C   UNL A   1      43.024  23.182  27.258  1.00  0.00    -0.014 A 
BRANCH  34  35
ATOM     35  C   UNL A   1      43.505  24.506  27.725  1.00  0.00     0.031 A 
ATOM     36  C   UNL A   1      42.495  25.559  28.081  1.00  0.00     0.074 A 
ATOM     37  C   UNL A   1      44.821  24.792  27.736  1.00  0.00     0.049 A 
ATOM     38  N   UNL A   1      42.674  26.828  28.341  1.00  0.00    -0.248 NA
ATOM     39  C   UNL A   1      41.085  25.133  28.109  1.00  0.00     0.031 C 
ATOM     40  C   UNL A   1      45.897  23.862  27.394  1.00  0.00     0.029 A 
ATOM     41  N   UNL A   1      45.477  25.964  28.026  1.00  0.00    -0.354 N 
ATOM     42  C   UNL A   1      41.403  27.351  28.537  1.00  0.00     0.074 A 
ATOM     43  C   UNL A   1      40.459  26.282  28.301  1.00  0.00     0.031 C 
ATOM     44  C   UNL A   1      47.077  24.493  27.507  1.00  0.00     0.029 A 
ATOM     45  C   UNL A   1      46.840  25.888  27.871  1.00  0.00     0.049 A 
ATOM     46  H   UNL A   1      45.013  26.782  28.318  1.00  0.00     0.167 HD
ATOM     47  C   UNL A   1      41.056  28.606  28.904  1.00  0.00     0.037 A 
ATOM     48  C   UNL A   1      47.786  26.841  27.985  1.00  0.00     0.037 A 
ATOM     49  C   UNL A   1      42.004  29.658  29.154  1.00  0.00     0.049 A 
ATOM     50  C   UNL A   1      47.371  28.247  28.345  1.00  0.00     0.074 A 
ATOM     51  C   UNL A   1      41.760  30.952  29.574  1.00  0.00     0.029 A 
ATOM     52  N   UNL A   1      43.377  29.535  28.998  1.00  0.00    -0.354 N 
ATOM     53  N   UNL A   1      46.171  28.722  28.576  1.00  0.00    -0.248 NA
ATOM     54  C   UNL A   1      48.440  29.249  28.461  1.00  0.00     0.031 C 
ATOM     55  C   UNL A   1      42.978  31.636  29.600  1.00  0.00     0.029 A 
ATOM     56  C   UNL A   1      43.990  30.742  29.287  1.00  0.00     0.049 A 
ATOM     57  H   UNL A   1      43.845  28.714  28.723  1.00  0.00     0.167 HD
ATOM     58  C   UNL A   1      46.345  30.058  28.914  1.00  0.00     0.074 A 
ATOM     59  C   UNL A   1      47.766  30.322  28.852  1.00  0.00     0.031 C 
ATOM     60  C   UNL A   1      45.411  30.979  29.254  1.00  0.00     0.037 A 
BRANCH  47  61
ATOM     61  C   UNL A   1      39.593  28.912  29.046  1.00  0.00     0.064 A 
ATOM     62  C   UNL A   1      38.934  28.826  30.283  1.00  0.00     0.173 A 
ATOM     63  C   UNL A   1      38.845  29.327  27.935  1.00  0.00     0.173 A 
ATOM     64  F   UNL A   1      39.599  28.423  31.377  1.00  0.00    -0.203 F 
ATOM     65  C   UNL A   1      37.575  29.107  30.393  1.00  0.00     0.198 A 
ATOM     66  C   UNL A   1      37.496  29.647  28.056  1.00  0.00     0.198 A 
ATOM     67  F   UNL A   1      39.424  29.432  26.729  1.00  0.00    -0.203 F 
ATOM     68  F   UNL A   1      36.955  28.955  31.571  1.00  0.00    -0.200 F 
ATOM     69  C   UNL A   1      36.860  29.526  29.282  1.00  0.00     0.200 A 
ATOM     70  F   UNL A   1      36.811  30.071  26.985  1.00  0.00    -0.200 F 
ATOM     71  F   UNL A   1      35.554  29.806  29.391  1.00  0.00    -0.200 F 
ENDBRANCH  47  61
BRANCH  48  72
ATOM     72  C   UNL A   1      49.219  26.508  27.761  1.00  0.00     0.064 A 
ATOM     73  C   UNL A   1      50.094  26.322  28.841  1.00  0.00     0.173 A 
ATOM     74  C   UNL A   1      49.751  26.391  26.467  1.00  0.00     0.173 A 
ATOM     75  F   UNL A   1      49.639  26.441  30.097  1.00  0.00    -0.203 F 
ATOM     76  C   UNL A   1      51.448  26.064  28.638  1.00  0.00     0.198 A 
ATOM     77  C   UNL A   1      51.099  26.096  26.266  1.00  0.00     0.198 A 
ATOM     78  F   UNL A   1      48.960  26.552  25.397  1.00  0.00    -0.203 F 
ATOM     79  F   UNL A   1      52.271  25.951  29.689  1.00  0.00    -0.200 F 
ATOM     80  C   UNL A   1      51.949  25.946  27.350  1.00  0.00     0.200 A 
ATOM     81  F   UNL A   1      51.574  25.964  25.019  1.00  0.00    -0.200 F 
ATOM     82  F   UNL A   1      53.251  25.697  27.155  1.00  0.00    -0.200 F 
ENDBRANCH  48  72
BRANCH  60  83
ATOM     83  C   UNL A   1      45.881  32.342  29.674  1.00  0.00     0.064 A 
ATOM     84  C   UNL A   1      45.985  33.409  28.770  1.00  0.00     0.173 A 
ATOM     85  C   UNL A   1      46.127  32.605  31.032  1.00  0.00     0.173 A 
ATOM     86  F   UNL A   1      45.773  33.207  27.461  1.00  0.00    -0.203 F 
ATOM     87  C   UNL A   1      46.323  34.687  29.210  1.00  0.00     0.198 A 
ATOM     88  C   UNL A   1      46.427  33.889  31.472  1.00  0.00     0.198 A 
ATOM     89  F   UNL A   1      46.032  31.620  31.939  1.00  0.00    -0.203 F 
ATOM     90  F   UNL A   1      46.445  35.686  28.326  1.00  0.00    -0.200 F 
ATOM     91  C   UNL A   1      46.528  34.928  30.561  1.00  0.00     0.200 A 
ATOM     92  F   UNL A   1      46.602  34.125  32.780  1.00  0.00    -0.200 F 
ATOM     93  F   UNL A   1      46.822  36.165  30.984  1.00  0.00    -0.200 F 
ENDBRANCH  60  83
ENDBRANCH  34  35
ENDBRANCH  26  29
ENDBRANCH  24  25
ENDBRANCH  23  24
ENDBRANCH  22  23
ENDBRANCH   1  22
TORSDOF 15
ENDMDL
MODEL 3
REMARK VINA RESULT:     -12.1      1.404      7.602
REMARK SMILES N#Cc1cccc(CSc2ccnc(C(=O)NCCCCNC(=O)c3ccc(-c4c5nc(c(-c6c(F)c(F)c(F)c(F)c6F)c6ccc([nH]6)c(-c6c(F)c(F)c(F)c(F)c6F)c6nc(c(-c7c(F)c(F)c(F)c(F)c7F)c7ccc4[nH]7)C=C6)C=C5)cc3)c2)c1
REMARK SMILES IDX 18 1 17 2 15 3 16 4 14 6 10 7 11 8 88 9 12 10 13 11 9 12
REMARK SMILES IDX 8 13 7 14 3 15 4 16 89 17 5 18 6 19 2 20 1 21 19 22 20 23
REMARK SMILES IDX 21 24 22 25 23 26 24 28 25 29 26 30 87 31 27 32 86 33 28 34
REMARK SMILES IDX 29 35 30 36 80 37 31 38 85 39 79 40 81 41 32 42 84 43 78 44
REMARK SMILES IDX 77 45 33 47 65 48 45 49 64 50 46 51 49 52 63 53 82 54 47 55
REMARK SMILES IDX 48 56 62 58 83 59 50 60 34 61 35 62 43 63 36 64 37 65 41 66
REMARK SMILES IDX 44 67 38 68 39 69 42 70 40 71 66 72 67 73 75 74 68 75 69 76
REMARK SMILES IDX 73 77 76 78 70 79 71 80 74 81 72 82 51 83 52 84 60 85 53 86
REMARK SMILES IDX 54 87 58 88 61 89 55 90 56 91 59 92 57 93
REMARK H PARENT 17 5 22 27 81 46 49 57
REMARK Flexibility Score: inf
ROOT
ATOM      1  C   UNL A   1      33.537  29.413  26.648  1.00  0.00     0.116 C 
ENDROOT
BRANCH   1   2
ATOM      2  N   UNL A   1      33.723  29.505  25.217  1.00  0.00    -0.351 N 
ATOM      3  C   UNL A   1      33.112  28.971  24.106  1.00  0.00     0.269 C 
ATOM      4  O   UNL A   1      33.609  29.318  23.030  1.00  0.00    -0.268 OA
ATOM      5  H   UNL A   1      34.473  30.096  24.978  1.00  0.00     0.163 HD
BRANCH   3   6
ATOM      6  C   UNL A   1      31.929  28.036  24.110  1.00  0.00     0.129 A 
ATOM      7  C   UNL A   1      30.759  26.004  24.619  1.00  0.00     0.011 A 
ATOM      8  C   UNL A   1      29.602  26.538  24.075  1.00  0.00     0.035 A 
ATOM      9  C   UNL A   1      31.930  26.755  24.625  1.00  0.00     0.049 A 
ATOM     10  C   UNL A   1      29.675  27.813  23.552  1.00  0.00     0.113 A 
ATOM     11  N   UNL A   1      30.799  28.563  23.563  1.00  0.00    -0.251 NA
BRANCH   7  12
ATOM     12  S   UNL A   1      30.808  24.378  25.352  1.00  0.00    -0.121 SA
BRANCH  12  13
ATOM     13  C   UNL A   1      32.168  24.637  26.556  1.00  0.00     0.110 C 
BRANCH  13  14
ATOM     14  C   UNL A   1      33.311  23.678  26.322  1.00  0.00    -0.036 A 
ATOM     15  C   UNL A   1      35.108  22.826  24.924  1.00  0.00     0.052 A 
ATOM     16  C   UNL A   1      35.317  21.780  25.829  1.00  0.00     0.019 A 
ATOM     17  C   UNL A   1      34.104  23.772  25.169  1.00  0.00     0.024 A 
ATOM     18  C   UNL A   1      34.557  21.701  26.994  1.00  0.00     0.002 A 
ATOM     19  C   UNL A   1      33.578  22.657  27.249  1.00  0.00     0.004 A 
BRANCH  15  20
ATOM     20  C   UNL A   1      35.921  22.924  23.749  1.00  0.00     0.099 C 
ATOM     21  N   UNL A   1      36.589  22.998  22.800  1.00  0.00    -0.192 NA
ENDBRANCH  15  20
ENDBRANCH  13  14
ENDBRANCH  12  13
ENDBRANCH   7  12
ENDBRANCH   3   6
ENDBRANCH   1   2
BRANCH   1  22
ATOM     22  C   UNL A   1      32.179  29.968  27.073  1.00  0.00     0.023 C 
BRANCH  22  23
ATOM     23  C   UNL A   1      32.025  31.458  26.768  1.00  0.00     0.023 C 
BRANCH  23  24
ATOM     24  C   UNL A   1      32.968  32.360  27.554  1.00  0.00     0.116 C 
BRANCH  24  25
ATOM     25  N   UNL A   1      32.522  33.746  27.629  1.00  0.00    -0.352 N 
ATOM     26  C   UNL A   1      33.012  34.731  28.456  1.00  0.00     0.251 C 
ATOM     27  H   UNL A   1      31.789  34.005  27.024  1.00  0.00     0.163 HD
ATOM     28  O   UNL A   1      32.484  35.834  28.526  1.00  0.00    -0.269 OA
BRANCH  26  29
ATOM     29  C   UNL A   1      34.184  34.395  29.283  1.00  0.00     0.039 A 
ATOM     30  C   UNL A   1      33.995  33.771  30.517  1.00  0.00     0.014 A 
ATOM     31  C   UNL A   1      35.462  34.562  28.745  1.00  0.00     0.014 A 
ATOM     32  C   UNL A   1      35.099  33.243  31.186  1.00  0.00     0.010 A 
ATOM     33  C   UNL A   1      36.539  33.948  29.363  1.00  0.00     0.010 A 
ATOM     34  C   UNL A   1      36.371  33.291  30.594  1.00  0.00    -0.014 A 
BRANCH  34  35
ATOM     35  C   UNL A   1      37.570  32.704  31.242  1.00  0.00     0.031 A 
ATOM     36  C   UNL A   1      38.278  31.567  30.561  1.00  0.00     0.074 A 
ATOM     37  C   UNL A   1      37.959  33.114  32.465  1.00  0.00     0.049 A 
ATOM     38  N   UNL A   1      39.227  30.790  31.012  1.00  0.00    -0.248 NA
ATOM     39  C   UNL A   1      37.827  31.236  29.199  1.00  0.00     0.031 C 
ATOM     40  C   UNL A   1      37.342  34.194  33.236  1.00  0.00     0.029 A 
ATOM     41  N   UNL A   1      38.959  32.651  33.286  1.00  0.00    -0.354 N 
ATOM     42  C   UNL A   1      39.466  29.868  30.003  1.00  0.00     0.074 A 
ATOM     43  C   UNL A   1      38.520  30.138  28.944  1.00  0.00     0.031 C 
ATOM     44  C   UNL A   1      37.983  34.318  34.409  1.00  0.00     0.029 A 
ATOM     45  C   UNL A   1      39.017  33.291  34.500  1.00  0.00     0.049 A 
ATOM     46  H   UNL A   1      39.574  31.927  33.028  1.00  0.00     0.167 HD
ATOM     47  C   UNL A   1      40.406  28.896  29.954  1.00  0.00     0.037 A 
ATOM     48  C   UNL A   1      39.800  33.057  35.572  1.00  0.00     0.037 A 
ATOM     49  C   UNL A   1      41.354  28.647  31.005  1.00  0.00     0.049 A 
ATOM     50  C   UNL A   1      40.807  31.935  35.514  1.00  0.00     0.074 A 
ATOM     51  C   UNL A   1      42.377  27.717  31.036  1.00  0.00     0.029 A 
ATOM     52  N   UNL A   1      41.389  29.327  32.213  1.00  0.00    -0.354 N 
ATOM     53  N   UNL A   1      41.060  31.099  34.537  1.00  0.00    -0.248 NA
ATOM     54  C   UNL A   1      41.640  31.724  36.708  1.00  0.00     0.031 C 
ATOM     55  C   UNL A   1      42.984  27.782  32.293  1.00  0.00     0.029 A 
ATOM     56  C   UNL A   1      42.399  28.815  33.009  1.00  0.00     0.049 A 
ATOM     57  H   UNL A   1      40.785  30.062  32.467  1.00  0.00     0.167 HD
ATOM     58  C   UNL A   1      42.109  30.300  34.975  1.00  0.00     0.074 A 
ATOM     59  C   UNL A   1      42.443  30.747  36.310  1.00  0.00     0.031 C 
ATOM     60  C   UNL A   1      42.743  29.295  34.324  1.00  0.00     0.037 A 
BRANCH  47  61
ATOM     61  C   UNL A   1      40.448  28.027  28.731  1.00  0.00     0.064 A 
ATOM     62  C   UNL A   1      41.190  28.382  27.593  1.00  0.00     0.173 A 
ATOM     63  C   UNL A   1      39.759  26.805  28.706  1.00  0.00     0.173 A 
ATOM     64  F   UNL A   1      41.859  29.545  27.558  1.00  0.00    -0.203 F 
ATOM     65  C   UNL A   1      41.211  27.565  26.466  1.00  0.00     0.198 A 
ATOM     66  C   UNL A   1      39.815  25.972  27.593  1.00  0.00     0.198 A 
ATOM     67  F   UNL A   1      39.038  26.413  29.767  1.00  0.00    -0.203 F 
ATOM     68  F   UNL A   1      41.873  27.957  25.369  1.00  0.00    -0.200 F 
ATOM     69  C   UNL A   1      40.531  26.357  26.470  1.00  0.00     0.200 A 
ATOM     70  F   UNL A   1      39.173  24.795  27.607  1.00  0.00    -0.200 F 
ATOM     71  F   UNL A   1      40.560  25.567  25.388  1.00  0.00    -0.200 F 
ENDBRANCH  47  61
BRANCH  48  72
ATOM     72  C   UNL A   1      39.672  33.898  36.793  1.00  0.00     0.064 A 
ATOM     73  C   UNL A   1      38.864  33.494  37.867  1.00  0.00     0.173 A 
ATOM     74  C   UNL A   1      40.332  35.132  36.907  1.00  0.00     0.173 A 
ATOM     75  F   UNL A   1      38.197  32.333  37.801  1.00  0.00    -0.203 F 
ATOM     76  C   UNL A   1      38.697  34.303  38.989  1.00  0.00     0.198 A 
ATOM     77  C   UNL A   1      40.192  35.923  38.046  1.00  0.00     0.198 A 
ATOM     78  F   UNL A   1      41.121  35.566  35.914  1.00  0.00    -0.203 F 
ATOM     79  F   UNL A   1      37.871  33.918  39.972  1.00  0.00    -0.200 F 
ATOM     80  C   UNL A   1      39.365  35.514  39.081  1.00  0.00     0.200 A 
ATOM     81  F   UNL A   1      40.855  37.084  38.138  1.00  0.00    -0.200 F 
ATOM     82  F   UNL A   1      39.205  36.292  40.161  1.00  0.00    -0.200 F 
ENDBRANCH  48  72
BRANCH  60  83
ATOM     83  C   UNL A   1      43.923  28.652  34.994  1.00  0.00     0.064 A 
ATOM     84  C   UNL A   1      43.801  27.493  35.772  1.00  0.00     0.173 A 
ATOM     85  C   UNL A   1      45.214  29.152  34.757  1.00  0.00     0.173 A 
ATOM     86  F   UNL A   1      42.589  26.982  36.039  1.00  0.00    -0.203 F 
ATOM     87  C   UNL A   1      44.928  26.861  36.293  1.00  0.00     0.198 A 
ATOM     88  C   UNL A   1      46.339  28.498  35.248  1.00  0.00     0.198 A 
ATOM     89  F   UNL A   1      45.386  30.255  34.012  1.00  0.00    -0.203 F 
ATOM     90  F   UNL A   1      44.788  25.770  37.058  1.00  0.00    -0.200 F 
ATOM     91  C   UNL A   1      46.195  27.355  36.018  1.00  0.00     0.200 A 
ATOM     92  F   UNL A   1      47.562  28.964  34.960  1.00  0.00    -0.200 F 
ATOM     93  F   UNL A   1      47.279  26.727  36.494  1.00  0.00    -0.200 F 
ENDBRANCH  60  83
ENDBRANCH  34  35
ENDBRANCH  26  29
ENDBRANCH  24  25
ENDBRANCH  23  24
ENDBRANCH  22  23
ENDBRANCH   1  22
TORSDOF 15
ENDMDL
