MODEL 1
REMARK VINA RESULT:     -11.4      0.000      0.000
REMARK SMILES C[NH2+][C@@](C)(CC[N@@H+](C)C1CCC(C)(C)CC1)C(=O)NCCCCNC(=O)c1ccc(-c2c3nc(c(-c4c(F)c(F)c(F)c(F)c4F)c4ccc([nH]4)c(-c4c(F)c(F)c(F)c(F)c4F)c4nc(c(-c5c(F)c(F)c(F)c(F)c5F)c5ccc2[nH]5)C=C4)C=C3)cc1
REMARK SMILES IDX 20 1 19 2 17 3 18 4 3 6 4 7 2 8 1 9 5 12 6 13 7 14 8 15 9 17
REMARK SMILES IDX 10 18 16 19 11 20 15 21 12 22 13 23 14 24 21 25 22 26 23 27
REMARK SMILES IDX 24 28 25 29 26 31 27 32 28 33 89 34 29 35 88 36 30 37 31 38
REMARK SMILES IDX 32 39 82 40 33 41 87 42 81 43 83 44 34 45 86 46 80 47 79 48
REMARK SMILES IDX 35 50 67 51 47 52 66 53 48 54 51 55 65 56 84 57 49 58 50 59
REMARK SMILES IDX 64 61 85 62 52 63 36 64 37 65 45 66 38 67 39 68 43 69 46 70
REMARK SMILES IDX 40 71 41 72 44 73 42 74 68 75 69 76 77 77 70 78 71 79 75 80
REMARK SMILES IDX 78 81 72 82 73 83 76 84 74 85 53 86 54 87 62 88 55 89 56 90
REMARK SMILES IDX 60 91 63 92 57 93 58 94 61 95 59 96
REMARK H PARENT 19 5 2 10 2 11 7 16 24 30 83 49 51 60
REMARK Flexibility Score: inf
ROOT
ATOM      1  C   UNL A   1      36.369  22.991  25.395  1.00  0.00     0.116 C 
ENDROOT
BRANCH   1   2
ATOM      2  N   UNL A   1      35.643  22.352  26.473  1.00  0.00    -0.351 N 
ATOM      3  C   UNL A   1      34.336  21.998  26.650  1.00  0.00     0.281 C 
ATOM      4  O   UNL A   1      34.156  21.257  27.626  1.00  0.00    -0.268 OA
ATOM      5  H   UNL A   1      36.214  22.127  27.243  1.00  0.00     0.163 HD
BRANCH   3   6
ATOM      6  C   UNL A   1      33.193  22.368  25.638  1.00  0.00     0.177 C 
ATOM      7  C   UNL A   1      33.387  21.480  24.388  1.00  0.00     0.090 C 
BRANCH   6   8
ATOM      8  N   UNL A   1      31.798  22.121  26.136  1.00  0.00    -0.336 N 
ATOM      9  C   UNL A   1      31.137  23.191  26.864  1.00  0.00     0.331 C 
ATOM     10  H   UNL A   1      31.220  21.901  25.325  1.00  0.00     0.346 HD
ATOM     11  H   UNL A   1      31.900  21.370  26.820  1.00  0.00     0.346 HD
ENDBRANCH   6   8
BRANCH   6  12
ATOM     12  C   UNL A   1      33.191  23.868  25.236  1.00  0.00     0.140 C 
BRANCH  12  13
ATOM     13  C   UNL A   1      33.119  24.244  23.735  1.00  0.00     0.269 C 
BRANCH  13  14
ATOM     14  N   UNL A   1      31.899  24.961  23.307  1.00  0.00    -0.335 N 
ATOM     15  C   UNL A   1      30.749  24.059  23.288  1.00  0.00     0.332 C 
ATOM     16  H   UNL A   1      32.020  25.283  22.347  1.00  0.00     0.348 HD
BRANCH  14  17
ATOM     17  C   UNL A   1      31.685  26.194  24.118  1.00  0.00     0.183 C 
ATOM     18  C   UNL A   1      32.574  27.358  23.631  1.00  0.00     0.065 C 
ATOM     19  C   UNL A   1      30.223  26.621  24.373  1.00  0.00     0.065 C 
ATOM     20  C   UNL A   1      31.934  28.344  22.665  1.00  0.00     0.012 C 
ATOM     21  C   UNL A   1      29.643  27.612  23.362  1.00  0.00     0.012 C 
ATOM     22  C   UNL A   1      30.549  28.835  23.119  1.00  0.00    -0.035 C 
ATOM     23  C   UNL A   1      29.948  29.706  22.001  1.00  0.00     0.011 C 
ATOM     24  C   UNL A   1      30.653  29.699  24.390  1.00  0.00     0.011 C 
ENDBRANCH  14  17
ENDBRANCH  13  14
ENDBRANCH  12  13
ENDBRANCH   6  12
ENDBRANCH   3   6
ENDBRANCH   1   2
BRANCH   1  25
ATOM     25  C   UNL A   1      37.001  22.011  24.407  1.00  0.00     0.023 C 
BRANCH  25  26
ATOM     26  C   UNL A   1      37.602  20.746  25.017  1.00  0.00     0.023 C 
BRANCH  26  27
ATOM     27  C   UNL A   1      38.921  20.938  25.753  1.00  0.00     0.116 C 
BRANCH  27  28
ATOM     28  N   UNL A   1      39.760  19.748  25.769  1.00  0.00    -0.352 N 
ATOM     29  C   UNL A   1      41.104  19.645  26.037  1.00  0.00     0.251 C 
ATOM     30  H   UNL A   1      39.302  18.902  25.561  1.00  0.00     0.163 HD
ATOM     31  O   UNL A   1      41.681  18.567  25.944  1.00  0.00    -0.269 OA
BRANCH  29  32
ATOM     32  C   UNL A   1      41.859  20.862  26.393  1.00  0.00     0.039 A 
ATOM     33  C   UNL A   1      42.239  21.741  25.376  1.00  0.00     0.014 A 
ATOM     34  C   UNL A   1      42.131  21.160  27.730  1.00  0.00     0.014 A 
ATOM     35  C   UNL A   1      42.816  22.969  25.706  1.00  0.00     0.010 A 
ATOM     36  C   UNL A   1      42.640  22.410  28.060  1.00  0.00     0.010 A 
ATOM     37  C   UNL A   1      42.976  23.329  27.053  1.00  0.00    -0.014 A 
BRANCH  37  38
ATOM     38  C   UNL A   1      43.475  24.667  27.452  1.00  0.00     0.031 A 
ATOM     39  C   UNL A   1      42.513  25.694  27.972  1.00  0.00     0.074 A 
ATOM     40  C   UNL A   1      44.760  24.997  27.218  1.00  0.00     0.049 A 
ATOM     41  N   UNL A   1      42.699  26.969  28.194  1.00  0.00    -0.248 NA
ATOM     42  C   UNL A   1      41.145  25.227  28.241  1.00  0.00     0.031 C 
ATOM     43  C   UNL A   1      45.776  24.101  26.667  1.00  0.00     0.029 A 
ATOM     44  N   UNL A   1      45.418  26.191  27.379  1.00  0.00    -0.354 N 
ATOM     45  C   UNL A   1      41.465  27.463  28.590  1.00  0.00     0.074 A 
ATOM     46  C   UNL A   1      40.529  26.360  28.542  1.00  0.00     0.031 C 
ATOM     47  C   UNL A   1      46.928  24.776  26.528  1.00  0.00     0.029 A 
ATOM     48  C   UNL A   1      46.718  26.161  26.939  1.00  0.00     0.049 A 
ATOM     49  H   UNL A   1      45.000  26.989  27.773  1.00  0.00     0.167 HD
ATOM     50  C   UNL A   1      41.145  28.723  28.969  1.00  0.00     0.037 A 
ATOM     51  C   UNL A   1      47.632  27.147  26.852  1.00  0.00     0.037 A 
ATOM     52  C   UNL A   1      42.089  29.807  29.045  1.00  0.00     0.049 A 
ATOM     53  C   UNL A   1      47.264  28.533  27.302  1.00  0.00     0.074 A 
ATOM     54  C   UNL A   1      41.887  31.097  29.501  1.00  0.00     0.029 A 
ATOM     55  N   UNL A   1      43.417  29.723  28.651  1.00  0.00    -0.354 N 
ATOM     56  N   UNL A   1      46.114  28.979  27.744  1.00  0.00    -0.248 NA
ATOM     57  C   UNL A   1      48.321  29.552  27.249  1.00  0.00     0.031 C 
ATOM     58  C   UNL A   1      43.081  31.808  29.341  1.00  0.00     0.029 A 
ATOM     59  C   UNL A   1      44.042  30.947  28.832  1.00  0.00     0.049 A 
ATOM     60  H   UNL A   1      43.852  28.915  28.295  1.00  0.00     0.167 HD
ATOM     61  C   UNL A   1      46.311  30.319  28.043  1.00  0.00     0.074 A 
ATOM     62  C   UNL A   1      47.696  30.615  27.739  1.00  0.00     0.031 C 
ATOM     63  C   UNL A   1      45.424  31.221  28.530  1.00  0.00     0.037 A 
BRANCH  50  64
ATOM     64  C   UNL A   1      39.709  28.995  29.314  1.00  0.00     0.064 A 
ATOM     65  C   UNL A   1      39.212  28.807  30.613  1.00  0.00     0.173 A 
ATOM     66  C   UNL A   1      38.818  29.449  28.331  1.00  0.00     0.173 A 
ATOM     67  F   UNL A   1      40.020  28.362  31.587  1.00  0.00    -0.203 F 
ATOM     68  C   UNL A   1      37.868  29.020  30.904  1.00  0.00     0.198 A 
ATOM     69  C   UNL A   1      37.481  29.694  28.633  1.00  0.00     0.198 A 
ATOM     70  F   UNL A   1      39.242  29.652  27.074  1.00  0.00    -0.203 F 
ATOM     71  F   UNL A   1      37.402  28.770  32.136  1.00  0.00    -0.200 F 
ATOM     72  C   UNL A   1      37.004  29.467  29.915  1.00  0.00     0.200 A 
ATOM     73  F   UNL A   1      36.650  30.137  27.679  1.00  0.00    -0.200 F 
ATOM     74  F   UNL A   1      35.708  29.669  30.195  1.00  0.00    -0.200 F 
ENDBRANCH  50  64
BRANCH  51  75
ATOM     75  C   UNL A   1      48.985  26.842  26.322  1.00  0.00     0.064 A 
ATOM     76  C   UNL A   1      49.992  26.348  27.163  1.00  0.00     0.173 A 
ATOM     77  C   UNL A   1      49.286  26.994  24.961  1.00  0.00     0.173 A 
ATOM     78  F   UNL A   1      49.756  26.204  28.475  1.00  0.00    -0.203 F 
ATOM     79  C   UNL A   1      51.251  26.024  26.662  1.00  0.00     0.198 A 
ATOM     80  C   UNL A   1      50.537  26.646  24.458  1.00  0.00     0.198 A 
ATOM     81  F   UNL A   1      48.353  27.454  24.115  1.00  0.00    -0.203 F 
ATOM     82  F   UNL A   1      52.204  25.578  27.493  1.00  0.00    -0.200 F 
ATOM     83  C   UNL A   1      51.520  26.164  25.310  1.00  0.00     0.200 A 
ATOM     84  F   UNL A   1      50.788  26.768  23.147  1.00  0.00    -0.200 F 
ATOM     85  F   UNL A   1      52.726  25.837  24.827  1.00  0.00    -0.200 F 
ENDBRANCH  51  75
BRANCH  63  86
ATOM     86  C   UNL A   1      45.927  32.609  28.803  1.00  0.00     0.064 A 
ATOM     87  C   UNL A   1      45.843  33.624  27.840  1.00  0.00     0.173 A 
ATOM     88  C   UNL A   1      46.433  32.940  30.069  1.00  0.00     0.173 A 
ATOM     89  F   UNL A   1      45.381  33.352  26.610  1.00  0.00    -0.203 F 
ATOM     90  C   UNL A   1      46.259  34.921  28.132  1.00  0.00     0.198 A 
ATOM     91  C   UNL A   1      46.823  34.242  30.365  1.00  0.00     0.198 A 
ATOM     92  F   UNL A   1      46.529  32.004  31.026  1.00  0.00    -0.203 F 
ATOM     93  F   UNL A   1      46.199  35.870  27.188  1.00  0.00    -0.200 F 
ATOM     94  C   UNL A   1      46.738  35.231  29.397  1.00  0.00     0.200 A 
ATOM     95  F   UNL A   1      47.274  34.544  31.591  1.00  0.00    -0.200 F 
ATOM     96  F   UNL A   1      47.122  36.483  29.680  1.00  0.00    -0.200 F 
ENDBRANCH  63  86
ENDBRANCH  37  38
ENDBRANCH  29  32
ENDBRANCH  27  28
ENDBRANCH  26  27
ENDBRANCH  25  26
ENDBRANCH   1  25
TORSDOF 16
ENDMDL
MODEL 2
REMARK VINA RESULT:     -11.3      5.523     10.882
REMARK SMILES C[NH2+][C@@](C)(CC[N@@H+](C)C1CCC(C)(C)CC1)C(=O)NCCCCNC(=O)c1ccc(-c2c3nc(c(-c4c(F)c(F)c(F)c(F)c4F)c4ccc([nH]4)c(-c4c(F)c(F)c(F)c(F)c4F)c4nc(c(-c5c(F)c(F)c(F)c(F)c5F)c5ccc2[nH]5)C=C4)C=C3)cc1
REMARK SMILES IDX 20 1 19 2 17 3 18 4 3 6 4 7 2 8 1 9 5 12 6 13 7 14 8 15 9 17
REMARK SMILES IDX 10 18 16 19 11 20 15 21 12 22 13 23 14 24 21 25 22 26 23 27
REMARK SMILES IDX 24 28 25 29 26 31 27 32 28 33 89 34 29 35 88 36 30 37 31 38
REMARK SMILES IDX 32 39 82 40 33 41 87 42 81 43 83 44 34 45 86 46 80 47 79 48
REMARK SMILES IDX 35 50 67 51 47 52 66 53 48 54 51 55 65 56 84 57 49 58 50 59
REMARK SMILES IDX 64 61 85 62 52 63 36 64 37 65 45 66 38 67 39 68 43 69 46 70
REMARK SMILES IDX 40 71 41 72 44 73 42 74 68 75 69 76 77 77 70 78 71 79 75 80
REMARK SMILES IDX 78 81 72 82 73 83 76 84 74 85 53 86 54 87 62 88 55 89 56 90
REMARK SMILES IDX 60 91 63 92 57 93 58 94 61 95 59 96
REMARK H PARENT 19 5 2 10 2 11 7 16 24 30 83 49 51 60
REMARK Flexibility Score: inf
ROOT
ATOM      1  C   UNL A   1      32.759  29.108  25.884  1.00  0.00     0.116 C 
ENDROOT
BRANCH   1   2
ATOM      2  N   UNL A   1      31.999  28.048  26.512  1.00  0.00    -0.351 N 
ATOM      3  C   UNL A   1      31.343  26.948  26.037  1.00  0.00     0.281 C 
ATOM      4  O   UNL A   1      31.006  26.154  26.925  1.00  0.00    -0.268 OA
ATOM      5  H   UNL A   1      31.941  28.140  27.491  1.00  0.00     0.163 HD
BRANCH   3   6
ATOM      6  C   UNL A   1      31.160  26.643  24.506  1.00  0.00     0.177 C 
ATOM      7  C   UNL A   1      30.348  27.810  23.903  1.00  0.00     0.090 C 
BRANCH   6   8
ATOM      8  N   UNL A   1      32.437  26.548  23.721  1.00  0.00    -0.336 N 
ATOM      9  C   UNL A   1      32.592  27.421  22.569  1.00  0.00     0.331 C 
ATOM     10  H   UNL A   1      33.204  26.750  24.362  1.00  0.00     0.346 HD
ATOM     11  H   UNL A   1      32.428  25.606  23.329  1.00  0.00     0.346 HD
ENDBRANCH   6   8
BRANCH   6  12
ATOM     12  C   UNL A   1      30.446  25.292  24.230  1.00  0.00     0.140 C 
BRANCH  12  13
ATOM     13  C   UNL A   1      31.303  24.019  24.018  1.00  0.00     0.269 C 
BRANCH  13  14
ATOM     14  N   UNL A   1      31.832  23.385  25.245  1.00  0.00    -0.335 N 
ATOM     15  C   UNL A   1      30.744  22.843  26.057  1.00  0.00     0.332 C 
ATOM     16  H   UNL A   1      32.285  24.096  25.819  1.00  0.00     0.348 HD
BRANCH  14  17
ATOM     17  C   UNL A   1      32.897  22.393  24.924  1.00  0.00     0.183 C 
ATOM     18  C   UNL A   1      33.739  22.834  23.707  1.00  0.00     0.065 C 
ATOM     19  C   UNL A   1      33.761  21.886  26.100  1.00  0.00     0.065 C 
ATOM     20  C   UNL A   1      35.042  23.561  24.009  1.00  0.00     0.012 C 
ATOM     21  C   UNL A   1      35.055  22.666  26.347  1.00  0.00     0.012 C 
ATOM     22  C   UNL A   1      35.902  22.861  25.075  1.00  0.00    -0.035 C 
ATOM     23  C   UNL A   1      37.111  23.758  25.394  1.00  0.00     0.011 C 
ATOM     24  C   UNL A   1      36.435  21.510  24.560  1.00  0.00     0.011 C 
ENDBRANCH  14  17
ENDBRANCH  13  14
ENDBRANCH  12  13
ENDBRANCH   6  12
ENDBRANCH   3   6
ENDBRANCH   1   2
BRANCH   1  25
ATOM     25  C   UNL A   1      31.990  30.421  25.741  1.00  0.00     0.023 C 
BRANCH  25  26
ATOM     26  C   UNL A   1      31.850  31.252  27.015  1.00  0.00     0.023 C 
BRANCH  26  27
ATOM     27  C   UNL A   1      32.975  32.246  27.274  1.00  0.00     0.116 C 
BRANCH  27  28
ATOM     28  N   UNL A   1      32.509  33.603  27.525  1.00  0.00    -0.352 N 
ATOM     29  C   UNL A   1      33.014  34.539  28.395  1.00  0.00     0.251 C 
ATOM     30  H   UNL A   1      31.727  33.888  27.000  1.00  0.00     0.163 HD
ATOM     31  O   UNL A   1      32.461  35.624  28.537  1.00  0.00    -0.269 OA
BRANCH  29  32
ATOM     32  C   UNL A   1      34.208  34.204  29.196  1.00  0.00     0.039 A 
ATOM     33  C   UNL A   1      34.039  33.525  30.406  1.00  0.00     0.014 A 
ATOM     34  C   UNL A   1      35.485  34.503  28.720  1.00  0.00     0.014 A 
ATOM     35  C   UNL A   1      35.159  33.065  31.099  1.00  0.00     0.010 A 
ATOM     36  C   UNL A   1      36.596  33.984  29.374  1.00  0.00     0.010 A 
ATOM     37  C   UNL A   1      36.442  33.250  30.562  1.00  0.00    -0.014 A 
BRANCH  37  38
ATOM     38  C   UNL A   1      37.650  32.679  31.204  1.00  0.00     0.031 A 
ATOM     39  C   UNL A   1      38.339  31.504  30.574  1.00  0.00     0.074 A 
ATOM     40  C   UNL A   1      38.040  33.127  32.412  1.00  0.00     0.049 A 
ATOM     41  N   UNL A   1      39.282  30.737  31.057  1.00  0.00    -0.248 NA
ATOM     42  C   UNL A   1      37.875  31.119  29.233  1.00  0.00     0.031 C 
ATOM     43  C   UNL A   1      37.417  34.228  33.147  1.00  0.00     0.029 A 
ATOM     44  N   UNL A   1      39.032  32.684  33.251  1.00  0.00    -0.354 N 
ATOM     45  C   UNL A   1      39.495  29.757  30.098  1.00  0.00     0.074 A 
ATOM     46  C   UNL A   1      38.558  30.004  29.023  1.00  0.00     0.031 C 
ATOM     47  C   UNL A   1      38.035  34.370  34.330  1.00  0.00     0.029 A 
ATOM     48  C   UNL A   1      39.066  33.344  34.454  1.00  0.00     0.049 A 
ATOM     49  H   UNL A   1      39.659  31.963  33.013  1.00  0.00     0.167 HD
ATOM     50  C   UNL A   1      40.398  28.749  30.111  1.00  0.00     0.037 A 
ATOM     51  C   UNL A   1      39.826  33.131  35.545  1.00  0.00     0.037 A 
ATOM     52  C   UNL A   1      41.348  28.531  31.170  1.00  0.00     0.049 A 
ATOM     53  C   UNL A   1      40.841  32.022  35.529  1.00  0.00     0.074 A 
ATOM     54  C   UNL A   1      42.363  27.593  31.240  1.00  0.00     0.029 A 
ATOM     55  N   UNL A   1      41.395  29.263  32.349  1.00  0.00    -0.354 N 
ATOM     56  N   UNL A   1      41.086  31.142  34.590  1.00  0.00    -0.248 NA
ATOM     57  C   UNL A   1      41.689  31.879  36.721  1.00  0.00     0.031 C 
ATOM     58  C   UNL A   1      42.997  27.728  32.480  1.00  0.00     0.029 A 
ATOM     59  C   UNL A   1      42.408  28.783  33.163  1.00  0.00     0.049 A 
ATOM     60  H   UNL A   1      40.797  30.012  32.574  1.00  0.00     0.167 HD
ATOM     61  C   UNL A   1      42.129  30.357  35.063  1.00  0.00     0.074 A 
ATOM     62  C   UNL A   1      42.475  30.869  36.372  1.00  0.00     0.031 C 
ATOM     63  C   UNL A   1      42.745  29.310  34.462  1.00  0.00     0.037 A 
BRANCH  50  64
ATOM     64  C   UNL A   1      40.386  27.799  28.950  1.00  0.00     0.064 A 
ATOM     65  C   UNL A   1      41.138  28.039  27.789  1.00  0.00     0.173 A 
ATOM     66  C   UNL A   1      39.611  26.630  28.998  1.00  0.00     0.173 A 
ATOM     67  F   UNL A   1      41.885  29.148  27.687  1.00  0.00    -0.203 F 
ATOM     68  C   UNL A   1      41.078  27.170  26.703  1.00  0.00     0.198 A 
ATOM     69  C   UNL A   1      39.580  25.745  27.923  1.00  0.00     0.198 A 
ATOM     70  F   UNL A   1      38.879  26.347  30.086  1.00  0.00    -0.203 F 
ATOM     71  F   UNL A   1      41.752  27.456  25.581  1.00  0.00    -0.200 F 
ATOM     72  C   UNL A   1      40.303  26.022  26.772  1.00  0.00     0.200 A 
ATOM     73  F   UNL A   1      38.840  24.630  27.996  1.00  0.00    -0.200 F 
ATOM     74  F   UNL A   1      40.244  25.187  25.725  1.00  0.00    -0.200 F 
ENDBRANCH  50  64
BRANCH  51  75
ATOM     75  C   UNL A   1      39.652  34.000  36.736  1.00  0.00     0.064 A 
ATOM     76  C   UNL A   1      38.861  33.588  37.817  1.00  0.00     0.173 A 
ATOM     77  C   UNL A   1      40.305  35.237  36.837  1.00  0.00     0.173 A 
ATOM     78  F   UNL A   1      38.203  32.421  37.758  1.00  0.00    -0.203 F 
ATOM     79  C   UNL A   1      38.727  34.384  38.953  1.00  0.00     0.198 A 
ATOM     80  C   UNL A   1      40.189  36.020  37.983  1.00  0.00     0.198 A 
ATOM     81  F   UNL A   1      41.080  35.671  35.832  1.00  0.00    -0.203 F 
ATOM     82  F   UNL A   1      37.944  33.978  39.963  1.00  0.00    -0.200 F 
ATOM     83  C   UNL A   1      39.397  35.594  39.039  1.00  0.00     0.200 A 
ATOM     84  F   UNL A   1      40.852  37.182  38.069  1.00  0.00    -0.200 F 
ATOM     85  F   UNL A   1      39.279  36.351  40.138  1.00  0.00    -0.200 F 
ENDBRANCH  51  75
BRANCH  63  86
ATOM     86  C   UNL A   1      43.884  28.664  35.194  1.00  0.00     0.064 A 
ATOM     87  C   UNL A   1      45.204  29.114  35.044  1.00  0.00     0.173 A 
ATOM     88  C   UNL A   1      43.640  27.628  36.108  1.00  0.00     0.173 A 
ATOM     89  F   UNL A   1      45.490  30.090  34.170  1.00  0.00    -0.203 F 
ATOM     90  C   UNL A   1      46.240  28.541  35.778  1.00  0.00     0.198 A 
ATOM     91  C   UNL A   1      44.673  27.078  36.859  1.00  0.00     0.198 A 
ATOM     92  F   UNL A   1      42.393  27.167  36.291  1.00  0.00    -0.203 F 
ATOM     93  F   UNL A   1      47.499  28.964  35.598  1.00  0.00    -0.200 F 
ATOM     94  C   UNL A   1      45.973  27.531  36.691  1.00  0.00     0.200 A 
ATOM     95  F   UNL A   1      44.412  26.110  37.750  1.00  0.00    -0.200 F 
ATOM     96  F   UNL A   1      46.970  26.994  37.408  1.00  0.00    -0.200 F 
ENDBRANCH  63  86
ENDBRANCH  37  38
ENDBRANCH  29  32
ENDBRANCH  27  28
ENDBRANCH  26  27
ENDBRANCH  25  26
ENDBRANCH   1  25
TORSDOF 16
ENDMDL
MODEL 3
REMARK VINA RESULT:     -11.3      1.091      2.115
REMARK SMILES C[NH2+][C@@](C)(CC[N@@H+](C)C1CCC(C)(C)CC1)C(=O)NCCCCNC(=O)c1ccc(-c2c3nc(c(-c4c(F)c(F)c(F)c(F)c4F)c4ccc([nH]4)c(-c4c(F)c(F)c(F)c(F)c4F)c4nc(c(-c5c(F)c(F)c(F)c(F)c5F)c5ccc2[nH]5)C=C4)C=C3)cc1
REMARK SMILES IDX 20 1 19 2 17 3 18 4 3 6 4 7 2 8 1 9 5 12 6 13 7 14 8 15 9 17
REMARK SMILES IDX 10 18 16 19 11 20 15 21 12 22 13 23 14 24 21 25 22 26 23 27
REMARK SMILES IDX 24 28 25 29 26 31 27 32 28 33 89 34 29 35 88 36 30 37 31 38
REMARK SMILES IDX 32 39 82 40 33 41 87 42 81 43 83 44 34 45 86 46 80 47 79 48
REMARK SMILES IDX 35 50 67 51 47 52 66 53 48 54 51 55 65 56 84 57 49 58 50 59
REMARK SMILES IDX 64 61 85 62 52 63 36 64 37 65 45 66 38 67 39 68 43 69 46 70
REMARK SMILES IDX 40 71 41 72 44 73 42 74 68 75 69 76 77 77 70 78 71 79 75 80
REMARK SMILES IDX 78 81 72 82 73 83 76 84 74 85 53 86 54 87 62 88 55 89 56 90
REMARK SMILES IDX 60 91 63 92 57 93 58 94 61 95 59 96
REMARK H PARENT 19 5 2 10 2 11 7 16 24 30 83 49 51 60
REMARK Flexibility Score: inf
ROOT
ATOM      1  C   UNL A   1      35.620  21.574  25.591  1.00  0.00     0.116 C 
ENDROOT
BRANCH   1   2
ATOM      2  N   UNL A   1      34.603  20.788  24.924  1.00  0.00    -0.351 N 
ATOM      3  C   UNL A   1      33.451  21.103  24.261  1.00  0.00     0.281 C 
ATOM      4  O   UNL A   1      32.972  20.152  23.629  1.00  0.00    -0.268 OA
ATOM      5  H   UNL A   1      34.778  19.819  24.958  1.00  0.00     0.163 HD
BRANCH   3   6
ATOM      6  C   UNL A   1      32.867  22.559  24.184  1.00  0.00     0.177 C 
ATOM      7  C   UNL A   1      31.675  22.521  23.201  1.00  0.00     0.090 C 
BRANCH   6   8
ATOM      8  N   UNL A   1      32.343  23.103  25.482  1.00  0.00    -0.336 N 
ATOM      9  C   UNL A   1      31.047  22.632  25.943  1.00  0.00     0.331 C 
ATOM     10  H   UNL A   1      33.025  22.874  26.205  1.00  0.00     0.346 HD
ATOM     11  H   UNL A   1      32.206  24.099  25.307  1.00  0.00     0.346 HD
ENDBRANCH   6   8
BRANCH   6  12
ATOM     12  C   UNL A   1      33.909  23.615  23.725  1.00  0.00     0.140 C 
BRANCH  12  13
ATOM     13  C   UNL A   1      33.420  24.865  22.950  1.00  0.00     0.269 C 
BRANCH  13  14
ATOM     14  N   UNL A   1      33.626  26.164  23.626  1.00  0.00    -0.335 N 
ATOM     15  C   UNL A   1      33.420  27.271  22.694  1.00  0.00     0.332 C 
ATOM     16  H   UNL A   1      34.596  26.231  23.933  1.00  0.00     0.348 HD
BRANCH  14  17
ATOM     17  C   UNL A   1      32.806  26.261  24.868  1.00  0.00     0.183 C 
ATOM     18  C   UNL A   1      33.653  26.716  26.076  1.00  0.00     0.065 C 
ATOM     19  C   UNL A   1      31.459  27.011  24.764  1.00  0.00     0.065 C 
ATOM     20  C   UNL A   1      33.630  28.202  26.403  1.00  0.00     0.012 C 
ATOM     21  C   UNL A   1      31.510  28.502  25.103  1.00  0.00     0.012 C 
ATOM     22  C   UNL A   1      32.212  28.798  26.443  1.00  0.00    -0.035 C 
ATOM     23  C   UNL A   1      32.327  30.320  26.638  1.00  0.00     0.011 C 
ATOM     24  C   UNL A   1      31.402  28.228  27.623  1.00  0.00     0.011 C 
ENDBRANCH  14  17
ENDBRANCH  13  14
ENDBRANCH  12  13
ENDBRANCH   6  12
ENDBRANCH   3   6
ENDBRANCH   1   2
BRANCH   1  25
ATOM     25  C   UNL A   1      36.958  21.610  24.854  1.00  0.00     0.023 C 
BRANCH  25  26
ATOM     26  C   UNL A   1      37.835  20.369  25.005  1.00  0.00     0.023 C 
BRANCH  26  27
ATOM     27  C   UNL A   1      39.135  20.577  25.769  1.00  0.00     0.116 C 
BRANCH  27  28
ATOM     28  N   UNL A   1      39.989  19.396  25.803  1.00  0.00    -0.352 N 
ATOM     29  C   UNL A   1      41.333  19.314  26.074  1.00  0.00     0.251 C 
ATOM     30  H   UNL A   1      39.540  18.543  25.607  1.00  0.00     0.163 HD
ATOM     31  O   UNL A   1      41.922  18.241  25.997  1.00  0.00    -0.269 OA
BRANCH  29  32
ATOM     32  C   UNL A   1      42.074  20.544  26.413  1.00  0.00     0.039 A 
ATOM     33  C   UNL A   1      42.568  21.340  25.376  1.00  0.00     0.014 A 
ATOM     34  C   UNL A   1      42.221  20.937  27.744  1.00  0.00     0.014 A 
ATOM     35  C   UNL A   1      43.134  22.582  25.671  1.00  0.00     0.010 A 
ATOM     36  C   UNL A   1      42.720  22.202  28.030  1.00  0.00     0.010 A 
ATOM     37  C   UNL A   1      43.169  23.040  26.996  1.00  0.00    -0.014 A 
BRANCH  37  38
ATOM     38  C   UNL A   1      43.654  24.397  27.344  1.00  0.00     0.031 A 
ATOM     39  C   UNL A   1      42.680  25.434  27.818  1.00  0.00     0.074 A 
ATOM     40  C   UNL A   1      44.936  24.730  27.103  1.00  0.00     0.049 A 
ATOM     41  N   UNL A   1      42.852  26.719  27.990  1.00  0.00    -0.248 NA
ATOM     42  C   UNL A   1      41.314  24.965  28.099  1.00  0.00     0.031 C 
ATOM     43  C   UNL A   1      45.965  23.822  26.594  1.00  0.00     0.029 A 
ATOM     44  N   UNL A   1      45.583  25.935  27.220  1.00  0.00    -0.354 N 
ATOM     45  C   UNL A   1      41.611  27.217  28.359  1.00  0.00     0.074 A 
ATOM     46  C   UNL A   1      40.686  26.103  28.351  1.00  0.00     0.031 C 
ATOM     47  C   UNL A   1      47.110  24.503  26.434  1.00  0.00     0.029 A 
ATOM     48  C   UNL A   1      46.885  25.901  26.788  1.00  0.00     0.049 A 
ATOM     49  H   UNL A   1      45.154  26.745  27.579  1.00  0.00     0.167 HD
ATOM     50  C   UNL A   1      41.277  28.488  28.686  1.00  0.00     0.037 A 
ATOM     51  C   UNL A   1      47.790  26.892  26.666  1.00  0.00     0.037 A 
ATOM     52  C   UNL A   1      42.210  29.583  28.724  1.00  0.00     0.049 A 
ATOM     53  C   UNL A   1      47.406  28.291  27.058  1.00  0.00     0.074 A 
ATOM     54  C   UNL A   1      41.993  30.888  29.126  1.00  0.00     0.029 A 
ATOM     55  N   UNL A   1      43.541  29.496  28.339  1.00  0.00    -0.354 N 
ATOM     56  N   UNL A   1      46.249  28.743  27.476  1.00  0.00    -0.248 NA
ATOM     57  C   UNL A   1      48.454  29.318  26.969  1.00  0.00     0.031 C 
ATOM     58  C   UNL A   1      43.181  31.604  28.943  1.00  0.00     0.029 A 
ATOM     59  C   UNL A   1      44.153  30.732  28.474  1.00  0.00     0.049 A 
ATOM     60  H   UNL A   1      43.985  28.678  28.019  1.00  0.00     0.167 HD
ATOM     61  C   UNL A   1      46.432  30.096  27.722  1.00  0.00     0.074 A 
ATOM     62  C   UNL A   1      47.816  30.393  27.413  1.00  0.00     0.031 C 
ATOM     63  C   UNL A   1      45.534  31.008  28.169  1.00  0.00     0.037 A 
BRANCH  50  64
ATOM     64  C   UNL A   1      39.837  28.759  29.013  1.00  0.00     0.064 A 
ATOM     65  C   UNL A   1      38.919  29.167  28.033  1.00  0.00     0.173 A 
ATOM     66  C   UNL A   1      39.368  28.607  30.327  1.00  0.00     0.173 A 
ATOM     67  F   UNL A   1      39.319  29.338  26.764  1.00  0.00    -0.203 F 
ATOM     68  C   UNL A   1      37.599  29.458  28.364  1.00  0.00     0.198 A 
ATOM     69  C   UNL A   1      38.038  28.866  30.648  1.00  0.00     0.198 A 
ATOM     70  F   UNL A   1      40.201  28.212  31.302  1.00  0.00    -0.203 F 
ATOM     71  F   UNL A   1      36.758  29.910  27.423  1.00  0.00    -0.200 F 
ATOM     72  C   UNL A   1      37.158  29.303  29.670  1.00  0.00     0.200 A 
ATOM     73  F   UNL A   1      37.612  28.705  31.908  1.00  0.00    -0.200 F 
ATOM     74  F   UNL A   1      35.887  29.586  29.988  1.00  0.00    -0.200 F 
ENDBRANCH  50  64
BRANCH  51  75
ATOM     75  C   UNL A   1      49.148  26.579  26.155  1.00  0.00     0.064 A 
ATOM     76  C   UNL A   1      49.477  26.788  24.809  1.00  0.00     0.173 A 
ATOM     77  C   UNL A   1      50.157  26.107  27.008  1.00  0.00     0.173 A 
ATOM     78  F   UNL A   1      48.540  27.221  23.952  1.00  0.00    -0.203 F 
ATOM     79  C   UNL A   1      50.761  26.533  24.335  1.00  0.00     0.198 A 
ATOM     80  C   UNL A   1      51.447  25.874  26.537  1.00  0.00     0.198 A 
ATOM     81  F   UNL A   1      49.894  25.898  28.307  1.00  0.00    -0.203 F 
ATOM     82  F   UNL A   1      51.042  26.718  23.037  1.00  0.00    -0.200 F 
ATOM     83  C   UNL A   1      51.747  26.085  25.200  1.00  0.00     0.200 A 
ATOM     84  F   UNL A   1      52.402  25.457  27.381  1.00  0.00    -0.200 F 
ATOM     85  F   UNL A   1      52.986  25.854  24.745  1.00  0.00    -0.200 F 
ENDBRANCH  51  75
BRANCH  63  86
ATOM     86  C   UNL A   1      46.022  32.410  28.388  1.00  0.00     0.064 A 
ATOM     87  C   UNL A   1      45.937  33.384  27.383  1.00  0.00     0.173 A 
ATOM     88  C   UNL A   1      46.515  32.798  29.643  1.00  0.00     0.173 A 
ATOM     89  F   UNL A   1      45.488  33.057  26.162  1.00  0.00    -0.203 F 
ATOM     90  C   UNL A   1      46.339  34.695  27.625  1.00  0.00     0.198 A 
ATOM     91  C   UNL A   1      46.890  34.115  29.888  1.00  0.00     0.198 A 
ATOM     92  F   UNL A   1      46.610  31.904  30.639  1.00  0.00    -0.203 F 
ATOM     93  F   UNL A   1      46.279  35.604  26.642  1.00  0.00    -0.200 F 
ATOM     94  C   UNL A   1      46.805  35.062  28.879  1.00  0.00     0.200 A 
ATOM     95  F   UNL A   1      47.328  34.471  31.105  1.00  0.00    -0.200 F 
ATOM     96  F   UNL A   1      47.175  36.328  29.114  1.00  0.00    -0.200 F 
ENDBRANCH  63  86
ENDBRANCH  37  38
ENDBRANCH  29  32
ENDBRANCH  27  28
ENDBRANCH  26  27
ENDBRANCH  25  26
ENDBRANCH   1  25
TORSDOF 16
ENDMDL
