MODEL 1
REMARK VINA RESULT:     -13.4      0.000      0.000
REMARK SMILES Cc1nsc(N(C)C(=O)Nc2cccc(Cl)c2)c1C(=O)NCCCCNC(=O)c1ccc(-c2c3nc(c(-c4c(F)c(F)c(F)c(F)c4F)c4ccc([nH]4)c(-c4c(F)c(F)c(F)c(F)c4F)c4nc(c(-c5c(F)c(F)c(F)c(F)c5F)c5ccc2[nH]5)C=C4)C=C3)cc1
REMARK SMILES IDX 23 1 22 2 21 3 19 4 20 5 18 7 1 8 2 9 3 10 4 11 5 12 6 13
REMARK SMILES IDX 7 14 8 15 9 16 10 17 11 19 12 20 17 21 13 22 15 23 14 24
REMARK SMILES IDX 16 25 24 26 25 27 26 28 27 29 28 31 29 32 30 33 91 34 31 35
REMARK SMILES IDX 90 36 32 37 33 38 34 39 84 40 35 41 89 42 83 43 85 44 36 45
REMARK SMILES IDX 88 46 82 47 81 48 37 50 69 51 49 52 68 53 50 54 53 55 67 56
REMARK SMILES IDX 86 57 51 58 52 59 66 61 87 62 54 63 38 64 39 65 47 66 40 67
REMARK SMILES IDX 41 68 45 69 48 70 42 71 43 72 46 73 44 74 70 75 71 76 79 77
REMARK SMILES IDX 72 78 73 79 77 80 80 81 74 82 75 83 78 84 76 85 55 86 56 87
REMARK SMILES IDX 64 88 57 89 58 90 62 91 65 92 59 93 60 94 63 95 61 96
REMARK H PARENT 21 6 10 18 26 30 85 49 53 60
REMARK Flexibility Score: inf
ROOT
ATOM      1  C   UNL A   1      37.873  20.712  25.277  1.00  0.00     0.023 C 
ENDROOT
BRANCH   1   2
ATOM      2  C   UNL A   1      36.373  20.981  25.135  1.00  0.00     0.116 C 
BRANCH   2   3
ATOM      3  N   UNL A   1      35.587  21.275  26.314  1.00  0.00    -0.352 N 
ATOM      4  C   UNL A   1      34.207  21.421  26.423  1.00  0.00     0.256 C 
ATOM      5  O   UNL A   1      33.696  21.200  27.524  1.00  0.00    -0.269 OA
ATOM      6  H   UNL A   1      36.095  21.387  27.150  1.00  0.00     0.163 HD
BRANCH   4   7
ATOM      7  C   UNL A   1      33.378  21.787  25.267  1.00  0.00     0.097 A 
ATOM      8  C   UNL A   1      33.235  19.414  24.039  1.00  0.00     0.069 C 
ATOM      9  C   UNL A   1      32.938  20.866  24.212  1.00  0.00     0.066 A 
ATOM     10  N   UNL A   1      32.147  21.371  23.273  1.00  0.00    -0.195 NA
ATOM     11  S   UNL A   1      31.758  22.896  23.667  1.00  0.00    -0.017 S 
ATOM     12  C   UNL A   1      32.764  23.043  25.068  1.00  0.00     0.133 A 
BRANCH  12  13
ATOM     13  N   UNL A   1      32.747  24.334  25.699  1.00  0.00    -0.286 N 
ATOM     14  C   UNL A   1      33.928  25.216  25.610  1.00  0.00     0.156 C 
BRANCH  13  15
ATOM     15  C   UNL A   1      31.716  24.641  26.578  1.00  0.00     0.326 C 
ATOM     16  O   UNL A   1      31.305  23.853  27.435  1.00  0.00    -0.248 OA
ATOM     17  N   UNL A   1      31.208  25.910  26.691  1.00  0.00    -0.307 N 
ATOM     18  H   UNL A   1      30.603  26.002  27.462  1.00  0.00     0.171 HD
BRANCH  17  19
ATOM     19  C   UNL A   1      31.345  27.110  25.974  1.00  0.00     0.044 A 
ATOM     20  C   UNL A   1      31.911  28.277  26.490  1.00  0.00     0.026 A 
ATOM     21  C   UNL A   1      30.774  27.132  24.695  1.00  0.00     0.046 A 
ATOM     22  C   UNL A   1      31.768  29.488  25.800  1.00  0.00     0.004 A 
ATOM     23  C   UNL A   1      30.616  28.344  24.023  1.00  0.00     0.043 A 
ATOM     24  C   UNL A   1      31.088  29.528  24.582  1.00  0.00     0.020 A 
ATOM     25  Cl  UNL A   1      29.760  28.384  22.530  1.00  0.00    -0.084 Cl
ENDBRANCH  17  19
ENDBRANCH  13  15
ENDBRANCH  12  13
ENDBRANCH   4   7
ENDBRANCH   2   3
ENDBRANCH   1   2
BRANCH   1  26
ATOM     26  C   UNL A   1      38.803  21.819  25.774  1.00  0.00     0.023 C 
BRANCH  26  27
ATOM     27  C   UNL A   1      40.019  21.373  26.566  1.00  0.00     0.116 C 
BRANCH  27  28
ATOM     28  N   UNL A   1      41.289  21.446  25.847  1.00  0.00    -0.352 N 
ATOM     29  C   UNL A   1      42.088  22.570  25.675  1.00  0.00     0.251 C 
ATOM     30  H   UNL A   1      41.611  20.610  25.440  1.00  0.00     0.163 HD
ATOM     31  O   UNL A   1      42.948  22.613  24.816  1.00  0.00    -0.269 OA
BRANCH  29  32
ATOM     32  C   UNL A   1      41.871  23.729  26.571  1.00  0.00     0.039 A 
ATOM     33  C   UNL A   1      42.497  23.818  27.818  1.00  0.00     0.014 A 
ATOM     34  C   UNL A   1      41.040  24.754  26.123  1.00  0.00     0.014 A 
ATOM     35  C   UNL A   1      42.353  24.989  28.561  1.00  0.00     0.010 A 
ATOM     36  C   UNL A   1      41.012  25.956  26.784  1.00  0.00     0.010 A 
ATOM     37  C   UNL A   1      41.627  26.066  28.024  1.00  0.00    -0.014 A 
BRANCH  37  38
ATOM     38  C   UNL A   1      41.619  27.369  28.681  1.00  0.00     0.031 A 
ATOM     39  C   UNL A   1      42.728  28.267  28.256  1.00  0.00     0.074 A 
ATOM     40  C   UNL A   1      40.578  27.813  29.423  1.00  0.00     0.049 A 
ATOM     41  N   UNL A   1      43.707  28.700  28.978  1.00  0.00    -0.248 NA
ATOM     42  C   UNL A   1      42.848  28.615  26.829  1.00  0.00     0.031 C 
ATOM     43  C   UNL A   1      39.282  27.162  29.646  1.00  0.00     0.029 A 
ATOM     44  N   UNL A   1      40.418  29.007  30.059  1.00  0.00    -0.354 N 
ATOM     45  C   UNL A   1      44.461  29.533  28.154  1.00  0.00     0.074 A 
ATOM     46  C   UNL A   1      43.996  29.296  26.813  1.00  0.00     0.031 C 
ATOM     47  C   UNL A   1      38.405  28.056  30.153  1.00  0.00     0.029 A 
ATOM     48  C   UNL A   1      39.110  29.289  30.445  1.00  0.00     0.049 A 
ATOM     49  H   UNL A   1      41.168  29.622  30.232  1.00  0.00     0.167 HD
ATOM     50  C   UNL A   1      45.230  30.524  28.689  1.00  0.00     0.037 A 
ATOM     51  C   UNL A   1      38.642  30.464  30.942  1.00  0.00     0.037 A 
ATOM     52  C   UNL A   1      45.405  30.316  30.106  1.00  0.00     0.049 A 
ATOM     53  C   UNL A   1      39.814  31.236  31.420  1.00  0.00     0.074 A 
ATOM     54  C   UNL A   1      45.967  29.326  30.886  1.00  0.00     0.029 A 
ATOM     55  N   UNL A   1      44.608  31.050  30.948  1.00  0.00    -0.354 N 
ATOM     56  N   UNL A   1      40.528  30.905  32.457  1.00  0.00    -0.248 NA
ATOM     57  C   UNL A   1      40.462  32.128  30.472  1.00  0.00     0.031 C 
ATOM     58  C   UNL A   1      45.117  29.229  32.028  1.00  0.00     0.029 A 
ATOM     59  C   UNL A   1      44.137  30.216  31.925  1.00  0.00     0.049 A 
ATOM     60  H   UNL A   1      44.409  32.011  30.863  1.00  0.00     0.167 HD
ATOM     61  C   UNL A   1      41.835  31.147  32.067  1.00  0.00     0.074 A 
ATOM     62  C   UNL A   1      41.727  31.993  30.880  1.00  0.00     0.031 C 
ATOM     63  C   UNL A   1      42.858  30.394  32.568  1.00  0.00     0.037 A 
BRANCH  50  64
ATOM     64  C   UNL A   1      45.478  31.879  28.058  1.00  0.00     0.064 A 
ATOM     65  C   UNL A   1      44.367  32.705  27.777  1.00  0.00     0.173 A 
ATOM     66  C   UNL A   1      46.683  32.260  27.431  1.00  0.00     0.173 A 
ATOM     67  F   UNL A   1      43.166  32.446  28.318  1.00  0.00    -0.203 F 
ATOM     68  C   UNL A   1      44.435  33.752  26.855  1.00  0.00     0.198 A 
ATOM     69  C   UNL A   1      46.758  33.339  26.551  1.00  0.00     0.198 A 
ATOM     70  F   UNL A   1      47.809  31.550  27.549  1.00  0.00    -0.203 F 
ATOM     71  F   UNL A   1      43.318  34.410  26.513  1.00  0.00    -0.200 F 
ATOM     72  C   UNL A   1      45.628  34.060  26.232  1.00  0.00     0.200 A 
ATOM     73  F   UNL A   1      47.923  33.614  25.946  1.00  0.00    -0.200 F 
ATOM     74  F   UNL A   1      45.682  35.015  25.294  1.00  0.00    -0.200 F 
ENDBRANCH  50  64
BRANCH  51  75
ATOM     75  C   UNL A   1      37.308  31.098  30.798  1.00  0.00     0.064 A 
ATOM     76  C   UNL A   1      36.505  31.351  31.926  1.00  0.00     0.173 A 
ATOM     77  C   UNL A   1      36.931  31.746  29.607  1.00  0.00     0.173 A 
ATOM     78  F   UNL A   1      36.813  30.803  33.110  1.00  0.00    -0.203 F 
ATOM     79  C   UNL A   1      35.421  32.233  31.875  1.00  0.00     0.198 A 
ATOM     80  C   UNL A   1      35.845  32.622  29.556  1.00  0.00     0.198 A 
ATOM     81  F   UNL A   1      37.670  31.620  28.496  1.00  0.00    -0.203 F 
ATOM     82  F   UNL A   1      34.728  32.507  32.989  1.00  0.00    -0.200 F 
ATOM     83  C   UNL A   1      35.101  32.881  30.694  1.00  0.00     0.200 A 
ATOM     84  F   UNL A   1      35.566  33.270  28.416  1.00  0.00    -0.200 F 
ATOM     85  F   UNL A   1      34.110  33.782  30.661  1.00  0.00    -0.200 F 
ENDBRANCH  51  75
BRANCH  63  86
ATOM     86  C   UNL A   1      42.570  29.534  33.768  1.00  0.00     0.064 A 
ATOM     87  C   UNL A   1      42.021  28.240  33.715  1.00  0.00     0.173 A 
ATOM     88  C   UNL A   1      42.976  30.009  35.022  1.00  0.00     0.173 A 
ATOM     89  F   UNL A   1      41.702  27.668  32.548  1.00  0.00    -0.203 F 
ATOM     90  C   UNL A   1      41.834  27.487  34.874  1.00  0.00     0.198 A 
ATOM     91  C   UNL A   1      42.829  29.238  36.171  1.00  0.00     0.198 A 
ATOM     92  F   UNL A   1      43.555  31.215  35.129  1.00  0.00    -0.203 F 
ATOM     93  F   UNL A   1      41.283  26.266  34.801  1.00  0.00    -0.200 F 
ATOM     94  C   UNL A   1      42.244  27.985  36.100  1.00  0.00     0.200 A 
ATOM     95  F   UNL A   1      43.275  29.705  37.345  1.00  0.00    -0.200 F 
ATOM     96  F   UNL A   1      42.098  27.248  37.210  1.00  0.00    -0.200 F 
ENDBRANCH  63  86
ENDBRANCH  37  38
ENDBRANCH  29  32
ENDBRANCH  27  28
ENDBRANCH  26  27
ENDBRANCH   1  26
TORSDOF 14
ENDMDL
MODEL 2
REMARK VINA RESULT:     -13.3      1.419      1.687
REMARK SMILES Cc1nsc(N(C)C(=O)Nc2cccc(Cl)c2)c1C(=O)NCCCCNC(=O)c1ccc(-c2c3nc(c(-c4c(F)c(F)c(F)c(F)c4F)c4ccc([nH]4)c(-c4c(F)c(F)c(F)c(F)c4F)c4nc(c(-c5c(F)c(F)c(F)c(F)c5F)c5ccc2[nH]5)C=C4)C=C3)cc1
REMARK SMILES IDX 23 1 22 2 21 3 19 4 20 5 18 7 1 8 2 9 3 10 4 11 5 12 6 13
REMARK SMILES IDX 7 14 8 15 9 16 10 17 11 19 12 20 17 21 13 22 15 23 14 24
REMARK SMILES IDX 16 25 24 26 25 27 26 28 27 29 28 31 29 32 30 33 91 34 31 35
REMARK SMILES IDX 90 36 32 37 33 38 34 39 84 40 35 41 89 42 83 43 85 44 36 45
REMARK SMILES IDX 88 46 82 47 81 48 37 50 69 51 49 52 68 53 50 54 53 55 67 56
REMARK SMILES IDX 86 57 51 58 52 59 66 61 87 62 54 63 38 64 39 65 47 66 40 67
REMARK SMILES IDX 41 68 45 69 48 70 42 71 43 72 46 73 44 74 70 75 71 76 79 77
REMARK SMILES IDX 72 78 73 79 77 80 80 81 74 82 75 83 78 84 76 85 55 86 56 87
REMARK SMILES IDX 64 88 57 89 58 90 62 91 65 92 59 93 60 94 63 95 61 96
REMARK H PARENT 21 6 10 18 26 30 85 49 53 60
REMARK Flexibility Score: inf
ROOT
ATOM      1  C   UNL A   1      37.947  23.254  25.770  1.00  0.00     0.023 C 
ENDROOT
BRANCH   1   2
ATOM      2  C   UNL A   1      36.658  23.598  25.021  1.00  0.00     0.116 C 
BRANCH   2   3
ATOM      3  N   UNL A   1      35.557  24.205  25.738  1.00  0.00    -0.352 N 
ATOM      4  C   UNL A   1      34.221  23.816  25.768  1.00  0.00     0.256 C 
ATOM      5  O   UNL A   1      33.556  24.135  26.756  1.00  0.00    -0.269 OA
ATOM      6  H   UNL A   1      35.783  24.997  26.277  1.00  0.00     0.163 HD
BRANCH   4   7
ATOM      7  C   UNL A   1      33.626  23.023  24.684  1.00  0.00     0.097 A 
ATOM      8  C   UNL A   1      34.370  20.571  25.451  1.00  0.00     0.069 C 
ATOM      9  C   UNL A   1      33.691  21.561  24.567  1.00  0.00     0.066 A 
ATOM     10  N   UNL A   1      33.046  21.017  23.542  1.00  0.00    -0.195 NA
ATOM     11  S   UNL A   1      32.209  22.170  22.765  1.00  0.00    -0.017 S 
ATOM     12  C   UNL A   1      32.786  23.530  23.668  1.00  0.00     0.133 A 
BRANCH  12  13
ATOM     13  N   UNL A   1      32.300  24.807  23.224  1.00  0.00    -0.286 N 
ATOM     14  C   UNL A   1      30.872  24.981  22.891  1.00  0.00     0.156 C 
BRANCH  13  15
ATOM     15  C   UNL A   1      33.216  25.797  22.889  1.00  0.00     0.326 C 
ATOM     16  O   UNL A   1      33.758  25.866  21.781  1.00  0.00    -0.248 OA
ATOM     17  N   UNL A   1      33.439  26.885  23.693  1.00  0.00    -0.307 N 
ATOM     18  H   UNL A   1      33.988  27.571  23.249  1.00  0.00     0.171 HD
BRANCH  17  19
ATOM     19  C   UNL A   1      33.074  27.257  24.998  1.00  0.00     0.044 A 
ATOM     20  C   UNL A   1      31.775  27.184  25.504  1.00  0.00     0.026 A 
ATOM     21  C   UNL A   1      34.085  27.829  25.782  1.00  0.00     0.046 A 
ATOM     22  C   UNL A   1      31.459  27.815  26.714  1.00  0.00     0.004 A 
ATOM     23  C   UNL A   1      33.760  28.474  26.975  1.00  0.00     0.043 A 
ATOM     24  C   UNL A   1      32.446  28.492  27.433  1.00  0.00     0.020 A 
ATOM     25  Cl  UNL A   1      34.982  29.320  27.843  1.00  0.00    -0.084 Cl
ENDBRANCH  17  19
ENDBRANCH  13  15
ENDBRANCH  12  13
ENDBRANCH   4   7
ENDBRANCH   2   3
ENDBRANCH   1   2
BRANCH   1  26
ATOM     26  C   UNL A   1      38.607  21.890  25.568  1.00  0.00     0.023 C 
BRANCH  26  27
ATOM     27  C   UNL A   1      39.801  21.581  26.455  1.00  0.00     0.116 C 
BRANCH  27  28
ATOM     28  N   UNL A   1      41.098  21.622  25.784  1.00  0.00    -0.352 N 
ATOM     29  C   UNL A   1      41.931  22.726  25.642  1.00  0.00     0.251 C 
ATOM     30  H   UNL A   1      41.416  20.778  25.390  1.00  0.00     0.163 HD
ATOM     31  O   UNL A   1      42.823  22.747  24.816  1.00  0.00    -0.269 OA
BRANCH  29  32
ATOM     32  C   UNL A   1      41.708  23.891  26.529  1.00  0.00     0.039 A 
ATOM     33  C   UNL A   1      42.239  23.940  27.821  1.00  0.00     0.014 A 
ATOM     34  C   UNL A   1      40.972  24.962  26.027  1.00  0.00     0.014 A 
ATOM     35  C   UNL A   1      42.101  25.114  28.562  1.00  0.00     0.010 A 
ATOM     36  C   UNL A   1      40.958  26.161  26.694  1.00  0.00     0.010 A 
ATOM     37  C   UNL A   1      41.480  26.232  27.979  1.00  0.00    -0.014 A 
BRANCH  37  38
ATOM     38  C   UNL A   1      41.491  27.530  28.645  1.00  0.00     0.031 A 
ATOM     39  C   UNL A   1      42.609  28.417  28.220  1.00  0.00     0.074 A 
ATOM     40  C   UNL A   1      40.460  27.982  29.395  1.00  0.00     0.049 A 
ATOM     41  N   UNL A   1      43.597  28.832  28.940  1.00  0.00    -0.248 NA
ATOM     42  C   UNL A   1      42.727  28.773  26.795  1.00  0.00     0.031 C 
ATOM     43  C   UNL A   1      39.157  27.346  29.620  1.00  0.00     0.029 A 
ATOM     44  N   UNL A   1      40.319  29.174  30.040  1.00  0.00    -0.354 N 
ATOM     45  C   UNL A   1      44.358  29.662  28.118  1.00  0.00     0.074 A 
ATOM     46  C   UNL A   1      43.884  29.439  26.778  1.00  0.00     0.031 C 
ATOM     47  C   UNL A   1      38.294  28.247  30.138  1.00  0.00     0.029 A 
ATOM     48  C   UNL A   1      39.016  29.470  30.435  1.00  0.00     0.049 A 
ATOM     49  H   UNL A   1      41.077  29.778  30.213  1.00  0.00     0.167 HD
ATOM     50  C   UNL A   1      45.143  30.639  28.655  1.00  0.00     0.037 A 
ATOM     51  C   UNL A   1      38.566  30.647  30.942  1.00  0.00     0.037 A 
ATOM     52  C   UNL A   1      45.322  30.419  30.070  1.00  0.00     0.049 A 
ATOM     53  C   UNL A   1      39.750  31.401  31.419  1.00  0.00     0.074 A 
ATOM     54  C   UNL A   1      45.875  29.416  30.841  1.00  0.00     0.029 A 
ATOM     55  N   UNL A   1      44.538  31.157  30.921  1.00  0.00    -0.354 N 
ATOM     56  N   UNL A   1      40.465  31.053  32.451  1.00  0.00    -0.248 NA
ATOM     57  C   UNL A   1      40.405  32.291  30.473  1.00  0.00     0.031 C 
ATOM     58  C   UNL A   1      45.030  29.322  31.986  1.00  0.00     0.029 A 
ATOM     59  C   UNL A   1      44.062  30.322  31.895  1.00  0.00     0.049 A 
ATOM     60  H   UNL A   1      44.352  32.121  30.844  1.00  0.00     0.167 HD
ATOM     61  C   UNL A   1      41.772  31.282  32.055  1.00  0.00     0.074 A 
ATOM     62  C   UNL A   1      41.670  32.137  30.874  1.00  0.00     0.031 C 
ATOM     63  C   UNL A   1      42.789  30.512  32.546  1.00  0.00     0.037 A 
BRANCH  50  64
ATOM     64  C   UNL A   1      45.404  31.994  28.033  1.00  0.00     0.064 A 
ATOM     65  C   UNL A   1      44.301  32.826  27.738  1.00  0.00     0.173 A 
ATOM     66  C   UNL A   1      46.620  32.374  27.424  1.00  0.00     0.173 A 
ATOM     67  F   UNL A   1      43.091  32.569  28.260  1.00  0.00    -0.203 F 
ATOM     68  C   UNL A   1      44.386  33.875  26.819  1.00  0.00     0.198 A 
ATOM     69  C   UNL A   1      46.712  33.455  26.548  1.00  0.00     0.198 A 
ATOM     70  F   UNL A   1      47.742  31.659  27.556  1.00  0.00    -0.203 F 
ATOM     71  F   UNL A   1      43.276  34.538  26.463  1.00  0.00    -0.200 F 
ATOM     72  C   UNL A   1      45.589  34.181  26.215  1.00  0.00     0.200 A 
ATOM     73  F   UNL A   1      47.886  33.727  25.962  1.00  0.00    -0.200 F 
ATOM     74  F   UNL A   1      45.660  35.138  25.281  1.00  0.00    -0.200 F 
ENDBRANCH  50  64
BRANCH  51  75
ATOM     75  C   UNL A   1      37.239  31.299  30.809  1.00  0.00     0.064 A 
ATOM     76  C   UNL A   1      36.418  31.497  31.934  1.00  0.00     0.173 A 
ATOM     77  C   UNL A   1      36.888  32.013  29.648  1.00  0.00     0.173 A 
ATOM     78  F   UNL A   1      36.700  30.884  33.093  1.00  0.00    -0.203 F 
ATOM     79  C   UNL A   1      35.342  32.390  31.912  1.00  0.00     0.198 A 
ATOM     80  C   UNL A   1      35.810  32.900  29.626  1.00  0.00     0.198 A 
ATOM     81  F   UNL A   1      37.646  31.941  28.545  1.00  0.00    -0.203 F 
ATOM     82  F   UNL A   1      34.630  32.609  33.028  1.00  0.00    -0.200 F 
ATOM     83  C   UNL A   1      35.047  33.103  30.762  1.00  0.00     0.200 A 
ATOM     84  F   UNL A   1      35.556  33.611  28.518  1.00  0.00    -0.200 F 
ATOM     85  F   UNL A   1      34.064  34.013  30.761  1.00  0.00    -0.200 F 
ENDBRANCH  51  75
BRANCH  63  86
ATOM     86  C   UNL A   1      42.496  29.648  33.741  1.00  0.00     0.064 A 
ATOM     87  C   UNL A   1      41.961  28.348  33.681  1.00  0.00     0.173 A 
ATOM     88  C   UNL A   1      42.881  30.126  35.001  1.00  0.00     0.173 A 
ATOM     89  F   UNL A   1      41.663  27.774  32.509  1.00  0.00    -0.203 F 
ATOM     90  C   UNL A   1      41.769  27.592  34.837  1.00  0.00     0.198 A 
ATOM     91  C   UNL A   1      42.729  29.352  36.147  1.00  0.00     0.198 A 
ATOM     92  F   UNL A   1      43.446  31.339  35.116  1.00  0.00    -0.203 F 
ATOM     93  F   UNL A   1      41.232  26.365  34.756  1.00  0.00    -0.200 F 
ATOM     94  C   UNL A   1      42.159  28.093  36.067  1.00  0.00     0.200 A 
ATOM     95  F   UNL A   1      43.156  29.823  37.326  1.00  0.00    -0.200 F 
ATOM     96  F   UNL A   1      42.007  27.353  37.175  1.00  0.00    -0.200 F 
ENDBRANCH  63  86
ENDBRANCH  37  38
ENDBRANCH  29  32
ENDBRANCH  27  28
ENDBRANCH  26  27
ENDBRANCH   1  26
TORSDOF 14
ENDMDL
MODEL 3
REMARK VINA RESULT:     -13.1      3.132      8.702
REMARK SMILES Cc1nsc(N(C)C(=O)Nc2cccc(Cl)c2)c1C(=O)NCCCCNC(=O)c1ccc(-c2c3nc(c(-c4c(F)c(F)c(F)c(F)c4F)c4ccc([nH]4)c(-c4c(F)c(F)c(F)c(F)c4F)c4nc(c(-c5c(F)c(F)c(F)c(F)c5F)c5ccc2[nH]5)C=C4)C=C3)cc1
REMARK SMILES IDX 23 1 22 2 21 3 19 4 20 5 18 7 1 8 2 9 3 10 4 11 5 12 6 13
REMARK SMILES IDX 7 14 8 15 9 16 10 17 11 19 12 20 17 21 13 22 15 23 14 24
REMARK SMILES IDX 16 25 24 26 25 27 26 28 27 29 28 31 29 32 30 33 91 34 31 35
REMARK SMILES IDX 90 36 32 37 33 38 34 39 84 40 35 41 89 42 83 43 85 44 36 45
REMARK SMILES IDX 88 46 82 47 81 48 37 50 69 51 49 52 68 53 50 54 53 55 67 56
REMARK SMILES IDX 86 57 51 58 52 59 66 61 87 62 54 63 38 64 39 65 47 66 40 67
REMARK SMILES IDX 41 68 45 69 48 70 42 71 43 72 46 73 44 74 70 75 71 76 79 77
REMARK SMILES IDX 72 78 73 79 77 80 80 81 74 82 75 83 78 84 76 85 55 86 56 87
REMARK SMILES IDX 64 88 57 89 58 90 62 91 65 92 59 93 60 94 63 95 61 96
REMARK H PARENT 21 6 10 18 26 30 85 49 53 60
REMARK Flexibility Score: inf
ROOT
ATOM      1  C   UNL A   1      34.641  28.995  27.231  1.00  0.00     0.023 C 
ENDROOT
BRANCH   1   2
ATOM      2  C   UNL A   1      34.011  27.938  26.320  1.00  0.00     0.116 C 
BRANCH   2   3
ATOM      3  N   UNL A   1      32.633  28.088  25.903  1.00  0.00    -0.352 N 
ATOM      4  C   UNL A   1      31.893  27.280  25.044  1.00  0.00     0.256 C 
ATOM      5  O   UNL A   1      30.668  27.281  25.176  1.00  0.00    -0.269 OA
ATOM      6  H   UNL A   1      32.156  28.864  26.276  1.00  0.00     0.163 HD
BRANCH   4   7
ATOM      7  C   UNL A   1      32.543  26.427  24.040  1.00  0.00     0.097 A 
ATOM      8  C   UNL A   1      33.667  28.307  22.504  1.00  0.00     0.069 C 
ATOM      9  C   UNL A   1      33.350  26.908  22.912  1.00  0.00     0.066 A 
ATOM     10  N   UNL A   1      33.902  25.982  22.138  1.00  0.00    -0.195 NA
ATOM     11  S   UNL A   1      33.632  24.517  22.783  1.00  0.00    -0.017 S 
ATOM     12  C   UNL A   1      32.607  25.017  24.084  1.00  0.00     0.133 A 
BRANCH  12  13
ATOM     13  N   UNL A   1      32.083  23.951  24.893  1.00  0.00    -0.286 N 
ATOM     14  C   UNL A   1      31.031  23.064  24.356  1.00  0.00     0.156 C 
BRANCH  13  15
ATOM     15  C   UNL A   1      32.401  23.911  26.245  1.00  0.00     0.326 C 
ATOM     16  O   UNL A   1      31.606  24.237  27.134  1.00  0.00    -0.248 OA
ATOM     17  N   UNL A   1      33.550  23.323  26.706  1.00  0.00    -0.307 N 
ATOM     18  H   UNL A   1      33.554  23.231  27.687  1.00  0.00     0.171 HD
BRANCH  17  19
ATOM     19  C   UNL A   1      34.722  22.819  26.118  1.00  0.00     0.044 A 
ATOM     20  C   UNL A   1      34.846  21.535  25.584  1.00  0.00     0.026 A 
ATOM     21  C   UNL A   1      35.849  23.648  26.179  1.00  0.00     0.046 A 
ATOM     22  C   UNL A   1      36.113  21.032  25.260  1.00  0.00     0.004 A 
ATOM     23  C   UNL A   1      37.109  23.135  25.875  1.00  0.00     0.043 A 
ATOM     24  C   UNL A   1      37.250  21.821  25.440  1.00  0.00     0.020 A 
ATOM     25  Cl  UNL A   1      38.506  24.112  26.118  1.00  0.00    -0.084 Cl
ENDBRANCH  17  19
ENDBRANCH  13  15
ENDBRANCH  12  13
ENDBRANCH   4   7
ENDBRANCH   2   3
ENDBRANCH   1   2
BRANCH   1  26
ATOM     26  C   UNL A   1      34.099  30.424  27.230  1.00  0.00     0.023 C 
BRANCH  26  27
ATOM     27  C   UNL A   1      35.070  31.514  27.650  1.00  0.00     0.116 C 
BRANCH  27  28
ATOM     28  N   UNL A   1      34.653  32.305  28.806  1.00  0.00    -0.352 N 
ATOM     29  C   UNL A   1      35.081  32.155  30.119  1.00  0.00     0.251 C 
ATOM     30  H   UNL A   1      33.998  33.019  28.635  1.00  0.00     0.163 HD
ATOM     31  O   UNL A   1      34.461  32.635  31.049  1.00  0.00    -0.269 OA
BRANCH  29  32
ATOM     32  C   UNL A   1      36.323  31.388  30.369  1.00  0.00     0.039 A 
ATOM     33  C   UNL A   1      36.308  29.998  30.518  1.00  0.00     0.014 A 
ATOM     34  C   UNL A   1      37.525  32.091  30.423  1.00  0.00     0.014 A 
ATOM     35  C   UNL A   1      37.522  29.319  30.626  1.00  0.00     0.010 A 
ATOM     36  C   UNL A   1      38.720  31.417  30.386  1.00  0.00     0.010 A 
ATOM     37  C   UNL A   1      38.727  30.036  30.533  1.00  0.00    -0.014 A 
BRANCH  37  38
ATOM     38  C   UNL A   1      40.009  29.343  30.444  1.00  0.00     0.031 A 
ATOM     39  C   UNL A   1      40.672  29.130  31.760  1.00  0.00     0.074 A 
ATOM     40  C   UNL A   1      40.444  28.741  29.314  1.00  0.00     0.049 A 
ATOM     41  N   UNL A   1      41.782  29.644  32.172  1.00  0.00    -0.248 NA
ATOM     42  C   UNL A   1      39.953  28.370  32.799  1.00  0.00     0.031 C 
ATOM     43  C   UNL A   1      39.736  28.590  28.038  1.00  0.00     0.029 A 
ATOM     44  N   UNL A   1      41.589  28.036  29.097  1.00  0.00    -0.354 N 
ATOM     45  C   UNL A   1      42.007  29.122  33.444  1.00  0.00     0.074 A 
ATOM     46  C   UNL A   1      40.772  28.501  33.845  1.00  0.00     0.031 C 
ATOM     47  C   UNL A   1      40.353  27.656  27.282  1.00  0.00     0.029 A 
ATOM     48  C   UNL A   1      41.584  27.262  27.939  1.00  0.00     0.049 A 
ATOM     49  H   UNL A   1      42.359  28.070  29.710  1.00  0.00     0.167 HD
ATOM     50  C   UNL A   1      43.273  29.038  33.945  1.00  0.00     0.037 A 
ATOM     51  C   UNL A   1      42.515  26.344  27.568  1.00  0.00     0.037 A 
ATOM     52  C   UNL A   1      44.175  29.855  33.170  1.00  0.00     0.049 A 
ATOM     53  C   UNL A   1      43.741  26.619  28.356  1.00  0.00     0.074 A 
ATOM     54  C   UNL A   1      44.274  31.202  32.885  1.00  0.00     0.029 A 
ATOM     55  N   UNL A   1      44.949  29.215  32.234  1.00  0.00    -0.354 N 
ATOM     56  N   UNL A   1      44.489  27.672  28.190  1.00  0.00    -0.248 NA
ATOM     57  C   UNL A   1      43.881  25.946  29.637  1.00  0.00     0.031 C 
ATOM     58  C   UNL A   1      44.705  31.261  31.526  1.00  0.00     0.029 A 
ATOM     59  C   UNL A   1      44.926  29.957  31.084  1.00  0.00     0.049 A 
ATOM     60  H   UNL A   1      45.436  28.370  32.367  1.00  0.00     0.167 HD
ATOM     61  C   UNL A   1      44.826  28.061  29.476  1.00  0.00     0.074 A 
ATOM     62  C   UNL A   1      44.512  26.907  30.317  1.00  0.00     0.031 C 
ATOM     63  C   UNL A   1      45.042  29.378  29.768  1.00  0.00     0.037 A 
BRANCH  50  64
ATOM     64  C   UNL A   1      43.789  27.932  34.842  1.00  0.00     0.064 A 
ATOM     65  C   UNL A   1      43.616  26.592  34.429  1.00  0.00     0.173 A 
ATOM     66  C   UNL A   1      44.138  28.101  36.199  1.00  0.00     0.173 A 
ATOM     67  F   UNL A   1      43.286  26.303  33.160  1.00  0.00    -0.203 F 
ATOM     68  C   UNL A   1      43.673  25.524  35.328  1.00  0.00     0.198 A 
ATOM     69  C   UNL A   1      44.246  27.027  37.082  1.00  0.00     0.198 A 
ATOM     70  F   UNL A   1      44.281  29.307  36.758  1.00  0.00    -0.203 F 
ATOM     71  F   UNL A   1      43.355  24.290  34.915  1.00  0.00    -0.200 F 
ATOM     72  C   UNL A   1      43.975  25.744  36.657  1.00  0.00     0.200 A 
ATOM     73  F   UNL A   1      44.527  27.262  38.371  1.00  0.00    -0.200 F 
ATOM     74  F   UNL A   1      43.960  24.734  37.537  1.00  0.00    -0.200 F 
ENDBRANCH  50  64
BRANCH  51  75
ATOM     75  C   UNL A   1      42.361  25.086  26.796  1.00  0.00     0.064 A 
ATOM     76  C   UNL A   1      43.112  24.861  25.628  1.00  0.00     0.173 A 
ATOM     77  C   UNL A   1      41.719  23.963  27.349  1.00  0.00     0.173 A 
ATOM     78  F   UNL A   1      43.786  25.869  25.054  1.00  0.00    -0.203 F 
ATOM     79  C   UNL A   1      43.249  23.584  25.075  1.00  0.00     0.198 A 
ATOM     80  C   UNL A   1      41.852  22.689  26.793  1.00  0.00     0.198 A 
ATOM     81  F   UNL A   1      41.034  24.062  28.498  1.00  0.00    -0.203 F 
ATOM     82  F   UNL A   1      44.036  23.399  24.005  1.00  0.00    -0.200 F 
ATOM     83  C   UNL A   1      42.631  22.496  25.667  1.00  0.00     0.200 A 
ATOM     84  F   UNL A   1      41.278  21.637  27.395  1.00  0.00    -0.200 F 
ATOM     85  F   UNL A   1      42.822  21.261  25.182  1.00  0.00    -0.200 F 
ENDBRANCH  51  75
BRANCH  63  86
ATOM     86  C   UNL A   1      45.219  30.328  28.615  1.00  0.00     0.064 A 
ATOM     87  C   UNL A   1      44.170  30.984  27.947  1.00  0.00     0.173 A 
ATOM     88  C   UNL A   1      46.528  30.669  28.248  1.00  0.00     0.173 A 
ATOM     89  F   UNL A   1      42.894  30.796  28.304  1.00  0.00    -0.203 F 
ATOM     90  C   UNL A   1      44.425  31.893  26.920  1.00  0.00     0.198 A 
ATOM     91  C   UNL A   1      46.779  31.609  27.253  1.00  0.00     0.198 A 
ATOM     92  F   UNL A   1      47.572  30.115  28.886  1.00  0.00    -0.203 F 
ATOM     93  F   UNL A   1      43.406  32.486  26.279  1.00  0.00    -0.200 F 
ATOM     94  C   UNL A   1      45.729  32.209  26.579  1.00  0.00     0.200 A 
ATOM     95  F   UNL A   1      48.043  31.947  26.965  1.00  0.00    -0.200 F 
ATOM     96  F   UNL A   1      45.976  33.108  25.616  1.00  0.00    -0.200 F 
ENDBRANCH  63  86
ENDBRANCH  37  38
ENDBRANCH  29  32
ENDBRANCH  27  28
ENDBRANCH  26  27
ENDBRANCH   1  26
TORSDOF 14
ENDMDL
