MODEL 1
REMARK VINA RESULT:     -13.1      0.000      0.000
REMARK SMILES [NH3+]Cc1ccc(C(=O)N2[C@@H](C(=O)NCCCCNC(=O)c3ccc(-c4c5nc(c(-c6c(F)c(F)c(F)c(F)c6F)c6ccc([nH]6)c(-c6c(F)c(F)c(F)c(F)c6F)c6nc(c(-c7c(F)c(F)c(F)c(F)c7F)c7ccc4[nH]7)C=C6)C=C5)cc3)C[C@H]3CCCC[C@@H]32)o1
REMARK SMILES IDX 14 1 13 2 11 3 12 4 10 6 9 7 90 8 84 9 85 10 89 11 86 12
REMARK SMILES IDX 88 13 87 14 7 15 8 16 6 17 3 18 4 19 91 20 5 21 2 22 1 23
REMARK SMILES IDX 15 27 16 28 17 29 18 30 19 31 20 33 21 34 22 35 83 36 23 37
REMARK SMILES IDX 82 38 24 39 25 40 26 41 76 42 27 43 81 44 75 45 77 46 28 47
REMARK SMILES IDX 80 48 74 49 73 50 29 52 61 53 41 54 60 55 42 56 45 57 59 58
REMARK SMILES IDX 78 59 43 60 44 61 58 63 79 64 46 65 30 66 31 67 39 68 32 69
REMARK SMILES IDX 33 70 37 71 40 72 34 73 35 74 38 75 36 76 62 77 63 78 71 79
REMARK SMILES IDX 64 80 65 81 69 82 72 83 66 84 67 85 70 86 68 87 47 88 48 89
REMARK SMILES IDX 56 90 49 91 50 92 54 93 57 94 51 95 52 96 55 97 53 98
REMARK H PARENT 13 5 1 24 1 25 1 26 18 32 77 51 45 62
REMARK Flexibility Score: inf
ROOT
ATOM      1  C   UNL A   1      32.442  29.701  26.846  1.00  0.00     0.116 C 
ENDROOT
BRANCH   1   2
ATOM      2  N   UNL A   1      31.698  28.494  27.078  1.00  0.00    -0.354 N 
ATOM      3  C   UNL A   1      32.005  27.229  26.641  1.00  0.00     0.242 C 
ATOM      4  O   UNL A   1      31.230  26.324  26.969  1.00  0.00    -0.273 OA
ATOM      5  H   UNL A   1      30.874  28.583  27.610  1.00  0.00     0.163 HD
BRANCH   3   6
ATOM      6  C   UNL A   1      33.162  26.930  25.627  1.00  0.00     0.175 C 
ATOM      7  N   UNL A   1      32.862  26.971  24.178  1.00  0.00    -0.321 N 
ATOM      8  C   UNL A   1      32.885  25.664  23.575  1.00  0.00     0.089 C 
ATOM      9  C   UNL A   1      33.708  25.507  25.868  1.00  0.00     0.041 C 
ATOM     10  C   UNL A   1      33.884  24.921  24.465  1.00  0.00     0.014 C 
ATOM     11  C   UNL A   1      33.271  25.438  22.120  1.00  0.00     0.025 C 
ATOM     12  C   UNL A   1      33.683  23.424  24.310  1.00  0.00     0.006 C 
ATOM     13  C   UNL A   1      33.112  23.928  21.844  1.00  0.00     0.002 C 
ATOM     14  C   UNL A   1      33.878  23.035  22.837  1.00  0.00     0.000 C 
BRANCH   7  15
ATOM     15  C   UNL A   1      32.592  28.107  23.439  1.00  0.00     0.290 C 
ATOM     16  O   UNL A   1      33.479  28.933  23.240  1.00  0.00    -0.265 OA
BRANCH  15  17
ATOM     17  C   UNL A   1      31.188  28.329  23.121  1.00  0.00     0.192 A 
ATOM     18  C   UNL A   1      29.499  29.481  22.274  1.00  0.00     0.159 A 
ATOM     19  C   UNL A   1      28.941  28.485  23.045  1.00  0.00     0.052 A 
ATOM     20  O   UNL A   1      30.862  29.379  22.298  1.00  0.00    -0.450 OA
ATOM     21  C   UNL A   1      30.020  27.759  23.598  1.00  0.00     0.057 A 
BRANCH  18  22
ATOM     22  C   UNL A   1      28.885  30.598  21.501  1.00  0.00     0.335 C 
BRANCH  22  23
ATOM     23  N   UNL A   1      29.378  31.912  21.905  1.00  0.00    -0.351 N 
ATOM     24  H   UNL A   1      30.265  31.806  22.395  1.00  0.00     0.344 HD
ATOM     25  H   UNL A   1      28.698  32.354  22.525  1.00  0.00     0.344 HD
ATOM     26  H   UNL A   1      29.512  32.494  21.078  1.00  0.00     0.344 HD
ENDBRANCH  22  23
ENDBRANCH  18  22
ENDBRANCH  15  17
ENDBRANCH   7  15
ENDBRANCH   3   6
ENDBRANCH   1   2
BRANCH   1  27
ATOM     27  C   UNL A   1      31.769  30.797  26.040  1.00  0.00     0.023 C 
BRANCH  27  28
ATOM     28  C   UNL A   1      31.441  32.070  26.789  1.00  0.00     0.023 C 
BRANCH  28  29
ATOM     29  C   UNL A   1      32.644  32.833  27.316  1.00  0.00     0.116 C 
BRANCH  29  30
ATOM     30  N   UNL A   1      32.360  34.218  27.674  1.00  0.00    -0.352 N 
ATOM     31  C   UNL A   1      32.983  35.016  28.607  1.00  0.00     0.251 C 
ATOM     32  H   UNL A   1      31.620  34.640  27.181  1.00  0.00     0.163 HD
ATOM     33  O   UNL A   1      32.551  36.135  28.862  1.00  0.00    -0.269 OA
BRANCH  31  34
ATOM     34  C   UNL A   1      34.156  34.490  29.339  1.00  0.00     0.039 A 
ATOM     35  C   UNL A   1      33.956  33.799  30.534  1.00  0.00     0.014 A 
ATOM     36  C   UNL A   1      35.440  34.622  28.806  1.00  0.00     0.014 A 
ATOM     37  C   UNL A   1      35.037  33.162  31.148  1.00  0.00     0.010 A 
ATOM     38  C   UNL A   1      36.489  33.894  29.354  1.00  0.00     0.010 A 
ATOM     39  C   UNL A   1      36.303  33.163  30.537  1.00  0.00    -0.014 A 
BRANCH  39  40
ATOM     40  C   UNL A   1      37.446  32.420  31.125  1.00  0.00     0.031 A 
ATOM     41  C   UNL A   1      37.946  32.777  32.499  1.00  0.00     0.074 A 
ATOM     42  C   UNL A   1      38.071  31.467  30.406  1.00  0.00     0.049 A 
ATOM     43  N   UNL A   1      38.956  32.282  33.169  1.00  0.00    -0.248 NA
ATOM     44  C   UNL A   1      37.237  33.859  33.202  1.00  0.00     0.031 C 
ATOM     45  C   UNL A   1      37.722  31.070  29.040  1.00  0.00     0.029 A 
ATOM     46  N   UNL A   1      39.137  30.662  30.722  1.00  0.00    -0.354 N 
ATOM     47  C   UNL A   1      39.008  32.998  34.357  1.00  0.00     0.074 A 
ATOM     48  C   UNL A   1      37.977  34.009  34.289  1.00  0.00     0.031 C 
ATOM     49  C   UNL A   1      38.535  30.074  28.650  1.00  0.00     0.029 A 
ATOM     50  C   UNL A   1      39.487  29.791  29.719  1.00  0.00     0.049 A 
ATOM     51  H   UNL A   1      39.607  30.705  31.586  1.00  0.00     0.167 HD
ATOM     52  C   UNL A   1      39.820  32.811  35.424  1.00  0.00     0.037 A 
ATOM     53  C   UNL A   1      40.468  28.869  29.666  1.00  0.00     0.037 A 
ATOM     54  C   UNL A   1      40.830  31.789  35.498  1.00  0.00     0.049 A 
ATOM     55  C   UNL A   1      41.362  28.684  30.864  1.00  0.00     0.074 A 
ATOM     56  C   UNL A   1      41.666  31.476  36.555  1.00  0.00     0.029 A 
ATOM     57  N   UNL A   1      41.143  30.914  34.468  1.00  0.00    -0.354 N 
ATOM     58  N   UNL A   1      41.349  29.314  32.014  1.00  0.00    -0.248 NA
ATOM     59  C   UNL A   1      42.400  27.650  30.760  1.00  0.00     0.031 C 
ATOM     60  C   UNL A   1      42.523  30.450  36.145  1.00  0.00     0.029 A 
ATOM     61  C   UNL A   1      42.179  30.078  34.856  1.00  0.00     0.049 A 
ATOM     62  H   UNL A   1      40.697  30.890  33.591  1.00  0.00     0.167 HD
ATOM     63  C   UNL A   1      42.351  28.732  32.779  1.00  0.00     0.074 A 
ATOM     64  C   UNL A   1      42.940  27.687  31.969  1.00  0.00     0.031 C 
ATOM     65  C   UNL A   1      42.748  29.036  34.041  1.00  0.00     0.037 A 
BRANCH  52  66
ATOM     66  C   UNL A   1      39.645  33.729  36.601  1.00  0.00     0.064 A 
ATOM     67  C   UNL A   1      40.264  34.988  36.654  1.00  0.00     0.173 A 
ATOM     68  C   UNL A   1      38.825  33.358  37.677  1.00  0.00     0.173 A 
ATOM     69  F   UNL A   1      41.070  35.387  35.657  1.00  0.00    -0.203 F 
ATOM     70  C   UNL A   1      40.096  35.825  37.753  1.00  0.00     0.198 A 
ATOM     71  C   UNL A   1      38.631  34.214  38.759  1.00  0.00     0.198 A 
ATOM     72  F   UNL A   1      38.205  32.168  37.678  1.00  0.00    -0.203 F 
ATOM     73  F   UNL A   1      40.744  36.998  37.805  1.00  0.00    -0.200 F 
ATOM     74  C   UNL A   1      39.273  35.441  38.800  1.00  0.00     0.200 A 
ATOM     75  F   UNL A   1      37.821  33.847  39.763  1.00  0.00    -0.200 F 
ATOM     76  F   UNL A   1      39.104  36.253  39.854  1.00  0.00    -0.200 F 
ENDBRANCH  52  66
BRANCH  53  77
ATOM     77  C   UNL A   1      40.641  28.029  28.451  1.00  0.00     0.064 A 
ATOM     78  C   UNL A   1      41.424  28.471  27.374  1.00  0.00     0.173 A 
ATOM     79  C   UNL A   1      40.019  26.778  28.333  1.00  0.00     0.173 A 
ATOM     80  F   UNL A   1      42.024  29.669  27.429  1.00  0.00    -0.203 F 
ATOM     81  C   UNL A   1      41.555  27.706  26.216  1.00  0.00     0.198 A 
ATOM     82  C   UNL A   1      40.178  26.000  27.188  1.00  0.00     0.198 A 
ATOM     83  F   UNL A   1      39.264  26.305  29.335  1.00  0.00    -0.203 F 
ATOM     84  F   UNL A   1      42.265  28.177  25.182  1.00  0.00    -0.200 F 
ATOM     85  C   UNL A   1      40.937  26.468  26.126  1.00  0.00     0.200 A 
ATOM     86  F   UNL A   1      39.592  24.797  27.112  1.00  0.00    -0.200 F 
ATOM     87  F   UNL A   1      41.065  25.732  25.015  1.00  0.00    -0.200 F 
ENDBRANCH  53  77
BRANCH  65  88
ATOM     88  C   UNL A   1      43.842  28.198  34.639  1.00  0.00     0.064 A 
ATOM     89  C   UNL A   1      45.189  28.586  34.580  1.00  0.00     0.173 A 
ATOM     90  C   UNL A   1      43.533  27.005  35.310  1.00  0.00     0.173 A 
ATOM     91  F   UNL A   1      45.542  29.711  33.939  1.00  0.00    -0.203 F 
ATOM     92  C   UNL A   1      46.188  27.792  35.139  1.00  0.00     0.198 A 
ATOM     93  C   UNL A   1      44.530  26.233  35.899  1.00  0.00     0.198 A 
ATOM     94  F   UNL A   1      42.260  26.592  35.405  1.00  0.00    -0.203 F 
ATOM     95  F   UNL A   1      47.473  28.152  35.018  1.00  0.00    -0.200 F 
ATOM     96  C   UNL A   1      45.857  26.621  35.805  1.00  0.00     0.200 A 
ATOM     97  F   UNL A   1      44.206  25.112  36.558  1.00  0.00    -0.200 F 
ATOM     98  F   UNL A   1      46.819  25.862  36.346  1.00  0.00    -0.200 F 
ENDBRANCH  65  88
ENDBRANCH  39  40
ENDBRANCH  31  34
ENDBRANCH  29  30
ENDBRANCH  28  29
ENDBRANCH  27  28
ENDBRANCH   1  27
TORSDOF 15
ENDMDL
MODEL 2
REMARK VINA RESULT:     -13.0      0.598      7.339
REMARK SMILES [NH3+]Cc1ccc(C(=O)N2[C@@H](C(=O)NCCCCNC(=O)c3ccc(-c4c5nc(c(-c6c(F)c(F)c(F)c(F)c6F)c6ccc([nH]6)c(-c6c(F)c(F)c(F)c(F)c6F)c6nc(c(-c7c(F)c(F)c(F)c(F)c7F)c7ccc4[nH]7)C=C6)C=C5)cc3)C[C@H]3CCCC[C@@H]32)o1
REMARK SMILES IDX 14 1 13 2 11 3 12 4 10 6 9 7 90 8 84 9 85 10 89 11 86 12
REMARK SMILES IDX 88 13 87 14 7 15 8 16 6 17 3 18 4 19 91 20 5 21 2 22 1 23
REMARK SMILES IDX 15 27 16 28 17 29 18 30 19 31 20 33 21 34 22 35 83 36 23 37
REMARK SMILES IDX 82 38 24 39 25 40 26 41 76 42 27 43 81 44 75 45 77 46 28 47
REMARK SMILES IDX 80 48 74 49 73 50 29 52 61 53 41 54 60 55 42 56 45 57 59 58
REMARK SMILES IDX 78 59 43 60 44 61 58 63 79 64 46 65 30 66 31 67 39 68 32 69
REMARK SMILES IDX 33 70 37 71 40 72 34 73 35 74 38 75 36 76 62 77 63 78 71 79
REMARK SMILES IDX 64 80 65 81 69 82 72 83 66 84 67 85 70 86 68 87 47 88 48 89
REMARK SMILES IDX 56 90 49 91 50 92 54 93 57 94 51 95 52 96 55 97 53 98
REMARK H PARENT 13 5 1 24 1 25 1 26 18 32 77 51 45 62
REMARK Flexibility Score: inf
ROOT
ATOM      1  C   UNL A   1      32.429  29.541  27.197  1.00  0.00     0.116 C 
ENDROOT
BRANCH   1   2
ATOM      2  N   UNL A   1      31.590  28.375  27.238  1.00  0.00    -0.354 N 
ATOM      3  C   UNL A   1      31.839  27.150  26.671  1.00  0.00     0.242 C 
ATOM      4  O   UNL A   1      30.983  26.274  26.841  1.00  0.00    -0.273 OA
ATOM      5  H   UNL A   1      30.741  28.465  27.727  1.00  0.00     0.163 HD
BRANCH   3   6
ATOM      6  C   UNL A   1      33.038  26.883  25.698  1.00  0.00     0.175 C 
ATOM      7  N   UNL A   1      32.796  26.951  24.240  1.00  0.00    -0.321 N 
ATOM      8  C   UNL A   1      32.856  25.657  23.612  1.00  0.00     0.089 C 
ATOM      9  C   UNL A   1      33.589  25.460  25.932  1.00  0.00     0.041 C 
ATOM     10  C   UNL A   1      33.827  24.905  24.525  1.00  0.00     0.014 C 
ATOM     11  C   UNL A   1      33.301  25.464  22.169  1.00  0.00     0.025 C 
ATOM     12  C   UNL A   1      33.649  23.410  24.333  1.00  0.00     0.006 C 
ATOM     13  C   UNL A   1      33.170  23.959  21.857  1.00  0.00     0.002 C 
ATOM     14  C   UNL A   1      33.906  23.053  22.862  1.00  0.00     0.000 C 
BRANCH   7  15
ATOM     15  C   UNL A   1      32.542  28.099  23.513  1.00  0.00     0.290 C 
ATOM     16  O   UNL A   1      33.431  28.933  23.358  1.00  0.00    -0.265 OA
BRANCH  15  17
ATOM     17  C   UNL A   1      31.148  28.320  23.155  1.00  0.00     0.192 A 
ATOM     18  C   UNL A   1      29.479  29.482  22.282  1.00  0.00     0.159 A 
ATOM     19  C   UNL A   1      28.904  28.463  23.009  1.00  0.00     0.052 A 
ATOM     20  O   UNL A   1      30.842  29.388  22.349  1.00  0.00    -0.450 OA
ATOM     21  C   UNL A   1      29.969  27.731  23.579  1.00  0.00     0.057 A 
BRANCH  18  22
ATOM     22  C   UNL A   1      28.883  30.615  21.518  1.00  0.00     0.335 C 
BRANCH  22  23
ATOM     23  N   UNL A   1      29.391  31.918  21.937  1.00  0.00    -0.351 N 
ATOM     24  H   UNL A   1      30.239  31.791  22.488  1.00  0.00     0.344 HD
ATOM     25  H   UNL A   1      28.686  32.391  22.503  1.00  0.00     0.344 HD
ATOM     26  H   UNL A   1      29.600  32.482  21.113  1.00  0.00     0.344 HD
ENDBRANCH  22  23
ENDBRANCH  18  22
ENDBRANCH  15  17
ENDBRANCH   7  15
ENDBRANCH   3   6
ENDBRANCH   1   2
BRANCH   1  27
ATOM     27  C   UNL A   1      32.057  30.640  26.217  1.00  0.00     0.023 C 
BRANCH  27  28
ATOM     28  C   UNL A   1      31.648  31.964  26.825  1.00  0.00     0.023 C 
BRANCH  28  29
ATOM     29  C   UNL A   1      32.792  32.799  27.375  1.00  0.00     0.116 C 
BRANCH  29  30
ATOM     30  N   UNL A   1      32.431  34.180  27.671  1.00  0.00    -0.352 N 
ATOM     31  C   UNL A   1      32.975  35.037  28.603  1.00  0.00     0.251 C 
ATOM     32  H   UNL A   1      31.697  34.552  27.130  1.00  0.00     0.163 HD
ATOM     33  O   UNL A   1      32.483  36.142  28.798  1.00  0.00    -0.269 OA
BRANCH  31  34
ATOM     34  C   UNL A   1      34.133  34.588  29.404  1.00  0.00     0.039 A 
ATOM     35  C   UNL A   1      33.915  34.061  30.677  1.00  0.00     0.014 A 
ATOM     36  C   UNL A   1      35.423  34.627  28.868  1.00  0.00     0.014 A 
ATOM     37  C   UNL A   1      34.981  33.490  31.377  1.00  0.00     0.010 A 
ATOM     38  C   UNL A   1      36.455  33.957  29.513  1.00  0.00     0.010 A 
ATOM     39  C   UNL A   1      36.250  33.389  30.779  1.00  0.00    -0.014 A 
BRANCH  39  40
ATOM     40  C   UNL A   1      37.376  32.707  31.467  1.00  0.00     0.031 A 
ATOM     41  C   UNL A   1      38.067  31.546  30.805  1.00  0.00     0.074 A 
ATOM     42  C   UNL A   1      37.738  33.091  32.707  1.00  0.00     0.049 A 
ATOM     43  N   UNL A   1      39.036  30.791  31.258  1.00  0.00    -0.248 NA
ATOM     44  C   UNL A   1      37.583  31.160  29.469  1.00  0.00     0.031 C 
ATOM     45  C   UNL A   1      37.106  34.162  33.481  1.00  0.00     0.029 A 
ATOM     46  N   UNL A   1      38.723  32.620  33.538  1.00  0.00    -0.354 N 
ATOM     47  C   UNL A   1      39.264  29.840  30.272  1.00  0.00     0.074 A 
ATOM     48  C   UNL A   1      38.288  30.066  29.230  1.00  0.00     0.031 C 
ATOM     49  C   UNL A   1      37.742  34.289  34.657  1.00  0.00     0.029 A 
ATOM     50  C   UNL A   1      38.797  33.283  34.739  1.00  0.00     0.049 A 
ATOM     51  H   UNL A   1      39.321  31.876  33.297  1.00  0.00     0.167 HD
ATOM     52  C   UNL A   1      40.222  28.884  30.222  1.00  0.00     0.037 A 
ATOM     53  C   UNL A   1      39.621  33.100  35.788  1.00  0.00     0.037 A 
ATOM     54  C   UNL A   1      41.207  28.677  31.250  1.00  0.00     0.049 A 
ATOM     55  C   UNL A   1      40.674  32.026  35.711  1.00  0.00     0.074 A 
ATOM     56  C   UNL A   1      42.257  27.776  31.271  1.00  0.00     0.029 A 
ATOM     57  N   UNL A   1      41.260  29.381  32.445  1.00  0.00    -0.354 N 
ATOM     58  N   UNL A   1      40.932  31.185  34.739  1.00  0.00    -0.248 NA
ATOM     59  C   UNL A   1      41.560  31.884  36.876  1.00  0.00     0.031 C 
ATOM     60  C   UNL A   1      42.910  27.895  32.502  1.00  0.00     0.029 A 
ATOM     61  C   UNL A   1      42.310  28.915  33.221  1.00  0.00     0.049 A 
ATOM     62  H   UNL A   1      40.644  30.104  32.703  1.00  0.00     0.167 HD
ATOM     63  C   UNL A   1      42.026  30.439  35.159  1.00  0.00     0.074 A 
ATOM     64  C   UNL A   1      42.393  30.939  36.467  1.00  0.00     0.031 C 
ATOM     65  C   UNL A   1      42.669  29.430  34.518  1.00  0.00     0.037 A 
BRANCH  52  66
ATOM     66  C   UNL A   1      40.253  27.993  29.013  1.00  0.00     0.064 A 
ATOM     67  C   UNL A   1      40.987  28.332  27.865  1.00  0.00     0.173 A 
ATOM     68  C   UNL A   1      39.564  26.771  29.012  1.00  0.00     0.173 A 
ATOM     69  F   UNL A   1      41.652  29.495  27.808  1.00  0.00    -0.203 F 
ATOM     70  C   UNL A   1      41.002  27.497  26.751  1.00  0.00     0.198 A 
ATOM     71  C   UNL A   1      39.612  25.922  27.908  1.00  0.00     0.198 A 
ATOM     72  F   UNL A   1      38.851  26.394  30.084  1.00  0.00    -0.203 F 
ATOM     73  F   UNL A   1      41.663  27.871  25.646  1.00  0.00    -0.200 F 
ATOM     74  C   UNL A   1      40.322  26.290  26.776  1.00  0.00     0.200 A 
ATOM     75  F   UNL A   1      38.967  24.747  27.942  1.00  0.00    -0.200 F 
ATOM     76  F   UNL A   1      40.346  25.483  25.706  1.00  0.00    -0.200 F 
ENDBRANCH  52  66
BRANCH  53  77
ATOM     77  C   UNL A   1      39.506  33.968  36.991  1.00  0.00     0.064 A 
ATOM     78  C   UNL A   1      38.767  33.556  38.110  1.00  0.00     0.173 A 
ATOM     79  C   UNL A   1      40.118  35.228  37.043  1.00  0.00     0.173 A 
ATOM     80  F   UNL A   1      38.147  32.367  38.103  1.00  0.00    -0.203 F 
ATOM     81  C   UNL A   1      38.622  34.383  39.222  1.00  0.00     0.198 A 
ATOM     82  C   UNL A   1      39.999  36.040  38.169  1.00  0.00     0.198 A 
ATOM     83  F   UNL A   1      40.841  35.668  36.004  1.00  0.00    -0.203 F 
ATOM     84  F   UNL A   1      37.865  33.987  40.255  1.00  0.00    -0.200 F 
ATOM     85  C   UNL A   1      39.243  35.622  39.253  1.00  0.00     0.200 A 
ATOM     86  F   UNL A   1      40.615  37.230  38.202  1.00  0.00    -0.200 F 
ATOM     87  F   UNL A   1      39.106  36.416  40.324  1.00  0.00    -0.200 F 
ENDBRANCH  53  77
BRANCH  65  88
ATOM     88  C   UNL A   1      43.864  28.830  35.203  1.00  0.00     0.064 A 
ATOM     89  C   UNL A   1      43.744  27.756  36.096  1.00  0.00     0.173 A 
ATOM     90  C   UNL A   1      45.152  29.320  34.935  1.00  0.00     0.173 A 
ATOM     91  F   UNL A   1      42.535  27.258  36.398  1.00  0.00    -0.203 F 
ATOM     92  C   UNL A   1      44.865  27.217  36.723  1.00  0.00     0.198 A 
ATOM     93  C   UNL A   1      46.273  28.755  35.535  1.00  0.00     0.198 A 
ATOM     94  F   UNL A   1      45.324  30.340  34.082  1.00  0.00    -0.203 F 
ATOM     95  F   UNL A   1      44.721  26.230  37.618  1.00  0.00    -0.200 F 
ATOM     96  C   UNL A   1      46.129  27.711  36.436  1.00  0.00     0.200 A 
ATOM     97  F   UNL A   1      47.495  29.222  35.242  1.00  0.00    -0.200 F 
ATOM     98  F   UNL A   1      47.207  27.188  37.036  1.00  0.00    -0.200 F 
ENDBRANCH  65  88
ENDBRANCH  39  40
ENDBRANCH  31  34
ENDBRANCH  29  30
ENDBRANCH  28  29
ENDBRANCH  27  28
ENDBRANCH   1  27
TORSDOF 15
ENDMDL
MODEL 3
REMARK VINA RESULT:     -12.2      2.692      4.748
REMARK SMILES [NH3+]Cc1ccc(C(=O)N2[C@@H](C(=O)NCCCCNC(=O)c3ccc(-c4c5nc(c(-c6c(F)c(F)c(F)c(F)c6F)c6ccc([nH]6)c(-c6c(F)c(F)c(F)c(F)c6F)c6nc(c(-c7c(F)c(F)c(F)c(F)c7F)c7ccc4[nH]7)C=C6)C=C5)cc3)C[C@H]3CCCC[C@@H]32)o1
REMARK SMILES IDX 14 1 13 2 11 3 12 4 10 6 9 7 90 8 84 9 85 10 89 11 86 12
REMARK SMILES IDX 88 13 87 14 7 15 8 16 6 17 3 18 4 19 91 20 5 21 2 22 1 23
REMARK SMILES IDX 15 27 16 28 17 29 18 30 19 31 20 33 21 34 22 35 83 36 23 37
REMARK SMILES IDX 82 38 24 39 25 40 26 41 76 42 27 43 81 44 75 45 77 46 28 47
REMARK SMILES IDX 80 48 74 49 73 50 29 52 61 53 41 54 60 55 42 56 45 57 59 58
REMARK SMILES IDX 78 59 43 60 44 61 58 63 79 64 46 65 30 66 31 67 39 68 32 69
REMARK SMILES IDX 33 70 37 71 40 72 34 73 35 74 38 75 36 76 62 77 63 78 71 79
REMARK SMILES IDX 64 80 65 81 69 82 72 83 66 84 67 85 70 86 68 87 47 88 48 89
REMARK SMILES IDX 56 90 49 91 50 92 54 93 57 94 51 95 52 96 55 97 53 98
REMARK H PARENT 13 5 1 24 1 25 1 26 18 32 77 51 45 62
REMARK Flexibility Score: inf
ROOT
ATOM      1  C   UNL A   1      30.995  26.272  26.093  1.00  0.00     0.116 C 
ENDROOT
BRANCH   1   2
ATOM      2  N   UNL A   1      31.140  25.027  26.795  1.00  0.00    -0.354 N 
ATOM      3  C   UNL A   1      32.100  24.066  26.597  1.00  0.00     0.242 C 
ATOM      4  O   UNL A   1      32.048  23.070  27.328  1.00  0.00    -0.273 OA
ATOM      5  H   UNL A   1      30.476  24.842  27.499  1.00  0.00     0.163 HD
BRANCH   3   6
ATOM      6  C   UNL A   1      33.112  24.098  25.401  1.00  0.00     0.175 C 
ATOM      7  N   UNL A   1      33.607  22.814  24.858  1.00  0.00    -0.321 N 
ATOM      8  C   UNL A   1      34.995  22.586  25.166  1.00  0.00     0.089 C 
ATOM      9  C   UNL A   1      34.388  24.858  25.821  1.00  0.00     0.041 C 
ATOM     10  C   UNL A   1      35.537  24.014  25.264  1.00  0.00     0.014 C 
ATOM     11  C   UNL A   1      35.916  21.781  24.259  1.00  0.00     0.025 C 
ATOM     12  C   UNL A   1      36.835  24.009  26.051  1.00  0.00     0.006 C 
ATOM     13  C   UNL A   1      37.289  21.714  24.961  1.00  0.00     0.002 C 
ATOM     14  C   UNL A   1      37.850  23.094  25.351  1.00  0.00     0.000 C 
BRANCH   7  15
ATOM     15  C   UNL A   1      32.868  21.904  24.127  1.00  0.00     0.290 C 
ATOM     16  O   UNL A   1      32.077  22.302  23.275  1.00  0.00    -0.265 OA
BRANCH  15  17
ATOM     17  C   UNL A   1      32.945  20.522  24.581  1.00  0.00     0.192 A 
ATOM     18  C   UNL A   1      32.982  18.330  24.283  1.00  0.00     0.159 A 
ATOM     19  C   UNL A   1      32.800  18.535  25.633  1.00  0.00     0.052 A 
ATOM     20  O   UNL A   1      33.092  19.532  23.641  1.00  0.00    -0.450 OA
ATOM     21  C   UNL A   1      32.760  19.934  25.821  1.00  0.00     0.057 A 
BRANCH  18  22
ATOM     22  C   UNL A   1      33.036  17.083  23.467  1.00  0.00     0.335 C 
BRANCH  22  23
ATOM     23  N   UNL A   1      34.196  16.250  23.770  1.00  0.00    -0.351 N 
ATOM     24  H   UNL A   1      33.890  15.294  23.947  1.00  0.00     0.344 HD
ATOM     25  H   UNL A   1      34.669  16.615  24.598  1.00  0.00     0.344 HD
ATOM     26  H   UNL A   1      34.839  16.262  22.979  1.00  0.00     0.344 HD
ENDBRANCH  22  23
ENDBRANCH  18  22
ENDBRANCH  15  17
ENDBRANCH   7  15
ENDBRANCH   3   6
ENDBRANCH   1   2
BRANCH   1  27
ATOM     27  C   UNL A   1      31.690  27.491  26.672  1.00  0.00     0.023 C 
BRANCH  27  28
ATOM     28  C   UNL A   1      31.623  28.753  25.840  1.00  0.00     0.023 C 
BRANCH  28  29
ATOM     29  C   UNL A   1      32.853  29.642  25.922  1.00  0.00     0.116 C 
BRANCH  29  30
ATOM     30  N   UNL A   1      32.576  30.998  26.382  1.00  0.00    -0.352 N 
ATOM     31  C   UNL A   1      33.316  31.792  27.231  1.00  0.00     0.251 C 
ATOM     32  H   UNL A   1      31.746  31.401  26.039  1.00  0.00     0.163 HD
ATOM     33  O   UNL A   1      32.887  32.879  27.602  1.00  0.00    -0.269 OA
BRANCH  31  34
ATOM     34  C   UNL A   1      34.616  31.297  27.731  1.00  0.00     0.039 A 
ATOM     35  C   UNL A   1      35.651  32.207  27.950  1.00  0.00     0.014 A 
ATOM     36  C   UNL A   1      34.786  29.947  28.047  1.00  0.00     0.014 A 
ATOM     37  C   UNL A   1      36.825  31.776  28.571  1.00  0.00     0.010 A 
ATOM     38  C   UNL A   1      35.904  29.546  28.767  1.00  0.00     0.010 A 
ATOM     39  C   UNL A   1      36.942  30.453  29.029  1.00  0.00    -0.014 A 
BRANCH  39  40
ATOM     40  C   UNL A   1      38.145  29.994  29.770  1.00  0.00     0.031 A 
ATOM     41  C   UNL A   1      38.406  30.499  31.163  1.00  0.00     0.074 A 
ATOM     42  C   UNL A   1      39.031  29.175  29.171  1.00  0.00     0.049 A 
ATOM     43  N   UNL A   1      39.419  30.256  31.957  1.00  0.00    -0.248 NA
ATOM     44  C   UNL A   1      37.412  31.425  31.730  1.00  0.00     0.031 C 
ATOM     45  C   UNL A   1      38.925  28.665  27.802  1.00  0.00     0.029 A 
ATOM     46  N   UNL A   1      40.203  28.630  29.636  1.00  0.00    -0.354 N 
ATOM     47  C   UNL A   1      39.188  31.008  33.101  1.00  0.00     0.074 A 
ATOM     48  C   UNL A   1      37.981  31.769  32.875  1.00  0.00     0.031 C 
ATOM     49  C   UNL A   1      39.967  27.855  27.552  1.00  0.00     0.029 A 
ATOM     50  C   UNL A   1      40.836  27.821  28.724  1.00  0.00     0.049 A 
ATOM     51  H   UNL A   1      40.556  28.803  30.539  1.00  0.00     0.167 HD
ATOM     52  C   UNL A   1      39.900  31.038  34.253  1.00  0.00     0.037 A 
ATOM     53  C   UNL A   1      41.989  27.131  28.821  1.00  0.00     0.037 A 
ATOM     54  C   UNL A   1      41.089  30.260  34.484  1.00  0.00     0.049 A 
ATOM     55  C   UNL A   1      42.765  27.185  30.111  1.00  0.00     0.074 A 
ATOM     56  C   UNL A   1      41.852  30.172  35.635  1.00  0.00     0.029 A 
ATOM     57  N   UNL A   1      41.691  29.438  33.542  1.00  0.00    -0.354 N 
ATOM     58  N   UNL A   1      42.495  27.837  31.216  1.00  0.00    -0.248 NA
ATOM     59  C   UNL A   1      44.004  26.396  30.169  1.00  0.00     0.031 C 
ATOM     60  C   UNL A   1      42.946  29.342  35.371  1.00  0.00     0.029 A 
ATOM     61  C   UNL A   1      42.831  28.860  34.078  1.00  0.00     0.049 A 
ATOM     62  H   UNL A   1      41.358  29.289  32.628  1.00  0.00     0.167 HD
ATOM     63  C   UNL A   1      43.508  27.512  32.108  1.00  0.00     0.074 A 
ATOM     64  C   UNL A   1      44.389  26.591  31.421  1.00  0.00     0.031 C 
ATOM     65  C   UNL A   1      43.692  27.938  33.384  1.00  0.00     0.037 A 
BRANCH  52  66
ATOM     66  C   UNL A   1      39.409  31.936  35.352  1.00  0.00     0.064 A 
ATOM     67  C   UNL A   1      38.545  31.470  36.356  1.00  0.00     0.173 A 
ATOM     68  C   UNL A   1      39.829  33.273  35.419  1.00  0.00     0.173 A 
ATOM     69  F   UNL A   1      38.103  30.203  36.331  1.00  0.00    -0.203 F 
ATOM     70  C   UNL A   1      38.095  32.316  37.365  1.00  0.00     0.198 A 
ATOM     71  C   UNL A   1      39.404  34.107  36.451  1.00  0.00     0.198 A 
ATOM     72  F   UNL A   1      40.657  33.771  34.489  1.00  0.00    -0.203 F 
ATOM     73  F   UNL A   1      37.226  31.862  38.279  1.00  0.00    -0.200 F 
ATOM     74  C   UNL A   1      38.531  33.630  37.417  1.00  0.00     0.200 A 
ATOM     75  F   UNL A   1      39.840  35.373  36.508  1.00  0.00    -0.200 F 
ATOM     76  F   UNL A   1      38.104  34.442  38.395  1.00  0.00    -0.200 F 
ENDBRANCH  52  66
BRANCH  53  77
ATOM     77  C   UNL A   1      42.466  26.307  27.679  1.00  0.00     0.064 A 
ATOM     78  C   UNL A   1      41.988  25.004  27.480  1.00  0.00     0.173 A 
ATOM     79  C   UNL A   1      43.418  26.797  26.773  1.00  0.00     0.173 A 
ATOM     80  F   UNL A   1      41.091  24.482  28.330  1.00  0.00    -0.203 F 
ATOM     81  C   UNL A   1      42.464  24.212  26.436  1.00  0.00     0.198 A 
ATOM     82  C   UNL A   1      43.868  26.016  25.710  1.00  0.00     0.198 A 
ATOM     83  F   UNL A   1      43.904  28.038  26.913  1.00  0.00    -0.203 F 
ATOM     84  F   UNL A   1      42.029  22.952  26.302  1.00  0.00    -0.200 F 
ATOM     85  C   UNL A   1      43.399  24.721  25.548  1.00  0.00     0.200 A 
ATOM     86  F   UNL A   1      44.759  26.517  24.844  1.00  0.00    -0.200 F 
ATOM     87  F   UNL A   1      43.854  23.962  24.542  1.00  0.00    -0.200 F 
ENDBRANCH  53  77
BRANCH  65  88
ATOM     88  C   UNL A   1      44.867  27.377  34.134  1.00  0.00     0.064 A 
ATOM     89  C   UNL A   1      44.779  26.181  34.862  1.00  0.00     0.173 A 
ATOM     90  C   UNL A   1      46.107  28.033  34.098  1.00  0.00     0.173 A 
ATOM     91  F   UNL A   1      43.613  25.521  34.940  1.00  0.00    -0.203 F 
ATOM     92  C   UNL A   1      45.880  25.681  35.554  1.00  0.00     0.198 A 
ATOM     93  C   UNL A   1      47.214  27.511  34.761  1.00  0.00     0.198 A 
ATOM     94  F   UNL A   1      46.249  29.175  33.410  1.00  0.00    -0.203 F 
ATOM     95  F   UNL A   1      45.756  24.568  36.290  1.00  0.00    -0.200 F 
ATOM     96  C   UNL A   1      47.098  26.342  35.496  1.00  0.00     0.200 A 
ATOM     97  F   UNL A   1      48.395  28.141  34.689  1.00  0.00    -0.200 F 
ATOM     98  F   UNL A   1      48.157  25.856  36.158  1.00  0.00    -0.200 F 
ENDBRANCH  65  88
ENDBRANCH  39  40
ENDBRANCH  31  34
ENDBRANCH  29  30
ENDBRANCH  28  29
ENDBRANCH  27  28
ENDBRANCH   1  27
TORSDOF 15
ENDMDL
