MODEL 1
REMARK VINA RESULT:     -12.9      0.000      0.000
REMARK SMILES C[C@H](NC(=O)[C@@H]1CCCN(S(=O)(=O)c2ccc(Cl)cc2)C1)C(=O)NCCCCNC(=O)c1ccc(-c2c3nc(c(-c4c(F)c(F)c(F)c(F)c4F)c4ccc([nH]4)c(-c4c(F)c(F)c(F)c(F)c4F)c4nc(c(-c5c(F)c(F)c(F)c(F)c5F)c5ccc2[nH]5)C=C4)C=C3)cc1
REMARK SMILES IDX 25 1 24 2 22 3 23 4 2 6 1 7 3 8 4 9 5 11 6 12 7 13 21 14
REMARK SMILES IDX 8 15 10 16 9 17 11 18 12 19 13 20 14 21 15 22 20 23 16 24
REMARK SMILES IDX 19 25 17 26 18 27 26 28 27 29 28 30 29 31 30 32 31 34 32 35
REMARK SMILES IDX 33 36 94 37 34 38 93 39 35 40 36 41 37 42 87 43 38 44 92 45
REMARK SMILES IDX 86 46 88 47 39 48 91 49 85 50 84 51 40 53 72 54 52 55 71 56
REMARK SMILES IDX 53 57 56 58 70 59 89 60 54 61 55 62 69 64 90 65 57 66 41 67
REMARK SMILES IDX 42 68 50 69 43 70 44 71 48 72 51 73 45 74 46 75 49 76 47 77
REMARK SMILES IDX 73 78 74 79 82 80 75 81 76 82 80 83 83 84 77 85 78 86 81 87
REMARK SMILES IDX 79 88 58 89 59 90 67 91 60 92 61 93 65 94 68 95 62 96 63 97
REMARK SMILES IDX 66 98 64 99
REMARK H PARENT 24 5 3 10 29 33 88 52 56 63
REMARK Flexibility Score: inf
ROOT
ATOM      1  C   UNL A   1      36.075  20.631  25.171  1.00  0.00     0.116 C 
ENDROOT
BRANCH   1   2
ATOM      2  N   UNL A   1      35.890  19.240  24.788  1.00  0.00    -0.354 N 
ATOM      3  C   UNL A   1      34.746  18.514  24.626  1.00  0.00     0.242 C 
ATOM      4  O   UNL A   1      34.837  17.396  24.118  1.00  0.00    -0.273 OA
ATOM      5  H   UNL A   1      36.723  18.743  24.619  1.00  0.00     0.163 HD
BRANCH   3   6
ATOM      6  C   UNL A   1      33.380  19.131  24.952  1.00  0.00     0.168 C 
ATOM      7  C   UNL A   1      32.502  18.079  25.641  1.00  0.00     0.041 C 
BRANCH   6   8
ATOM      8  N   UNL A   1      32.771  19.687  23.746  1.00  0.00    -0.344 N 
ATOM      9  C   UNL A   1      32.512  20.989  23.445  1.00  0.00     0.225 C 
ATOM     10  H   UNL A   1      32.514  19.031  23.057  1.00  0.00     0.164 HD
ATOM     11  O   UNL A   1      31.909  21.232  22.401  1.00  0.00    -0.275 OA
BRANCH   9  12
ATOM     12  C   UNL A   1      32.985  22.069  24.409  1.00  0.00     0.094 C 
ATOM     13  C   UNL A   1      32.002  22.272  25.555  1.00  0.00     0.016 C 
ATOM     14  C   UNL A   1      33.337  23.341  23.645  1.00  0.00     0.116 C 
ATOM     15  C   UNL A   1      30.834  23.155  25.159  1.00  0.00     0.018 C 
ATOM     16  N   UNL A   1      32.154  24.197  23.329  1.00  0.00    -0.197 NA
ATOM     17  C   UNL A   1      31.314  24.454  24.531  1.00  0.00     0.102 C 
BRANCH  16  18
ATOM     18  S   UNL A   1      32.652  25.619  22.479  1.00  0.00     0.243 S 
ATOM     19  O   UNL A   1      34.028  25.422  22.074  1.00  0.00    -0.207 OA
ATOM     20  O   UNL A   1      31.629  25.921  21.497  1.00  0.00    -0.207 OA
BRANCH  18  21
ATOM     21  C   UNL A   1      32.620  26.900  23.708  1.00  0.00     0.082 A 
ATOM     22  C   UNL A   1      33.653  26.973  24.650  1.00  0.00     0.023 A 
ATOM     23  C   UNL A   1      31.604  27.860  23.694  1.00  0.00     0.023 A 
ATOM     24  C   UNL A   1      33.611  27.944  25.649  1.00  0.00     0.022 A 
ATOM     25  C   UNL A   1      31.589  28.856  24.672  1.00  0.00     0.022 A 
ATOM     26  C   UNL A   1      32.577  28.879  25.658  1.00  0.00     0.041 A 
ATOM     27  Cl  UNL A   1      32.525  30.073  26.895  1.00  0.00    -0.084 Cl
ENDBRANCH  18  21
ENDBRANCH  16  18
ENDBRANCH   9  12
ENDBRANCH   6   8
ENDBRANCH   3   6
ENDBRANCH   1   2
BRANCH   1  28
ATOM     28  C   UNL A   1      37.515  21.081  24.965  1.00  0.00     0.023 C 
BRANCH  28  29
ATOM     29  C   UNL A   1      38.536  19.944  25.023  1.00  0.00     0.023 C 
BRANCH  29  30
ATOM     30  C   UNL A   1      39.580  20.085  26.123  1.00  0.00     0.116 C 
BRANCH  30  31
ATOM     31  N   UNL A   1      40.572  19.021  26.088  1.00  0.00    -0.352 N 
ATOM     32  C   UNL A   1      41.941  19.124  26.123  1.00  0.00     0.251 C 
ATOM     33  H   UNL A   1      40.213  18.105  26.031  1.00  0.00     0.163 HD
ATOM     34  O   UNL A   1      42.648  18.146  25.911  1.00  0.00    -0.269 OA
BRANCH  32  35
ATOM     35  C   UNL A   1      42.553  20.440  26.391  1.00  0.00     0.039 A 
ATOM     36  C   UNL A   1      43.031  21.195  25.319  1.00  0.00     0.014 A 
ATOM     37  C   UNL A   1      42.606  20.942  27.694  1.00  0.00     0.014 A 
ATOM     38  C   UNL A   1      43.503  22.487  25.548  1.00  0.00     0.010 A 
ATOM     39  C   UNL A   1      42.995  22.260  27.907  1.00  0.00     0.010 A 
ATOM     40  C   UNL A   1      43.451  23.045  26.837  1.00  0.00    -0.014 A 
BRANCH  40  41
ATOM     41  C   UNL A   1      43.870  24.447  27.084  1.00  0.00     0.031 A 
ATOM     42  C   UNL A   1      42.868  25.458  27.569  1.00  0.00     0.074 A 
ATOM     43  C   UNL A   1      45.135  24.825  26.816  1.00  0.00     0.049 A 
ATOM     44  N   UNL A   1      43.021  26.739  27.786  1.00  0.00    -0.248 NA
ATOM     45  C   UNL A   1      41.502  24.968  27.817  1.00  0.00     0.031 C 
ATOM     46  C   UNL A   1      46.185  23.950  26.293  1.00  0.00     0.029 A 
ATOM     47  N   UNL A   1      45.750  26.046  26.936  1.00  0.00    -0.354 N 
ATOM     48  C   UNL A   1      41.777  27.207  28.186  1.00  0.00     0.074 A 
ATOM     49  C   UNL A   1      40.863  26.088  28.117  1.00  0.00     0.031 C 
ATOM     50  C   UNL A   1      47.319  24.655  26.161  1.00  0.00     0.029 A 
ATOM     51  C   UNL A   1      47.067  26.040  26.546  1.00  0.00     0.049 A 
ATOM     52  H   UNL A   1      45.290  26.851  27.269  1.00  0.00     0.167 HD
ATOM     53  C   UNL A   1      41.433  28.450  28.601  1.00  0.00     0.037 A 
ATOM     54  C   UNL A   1      47.966  27.041  26.494  1.00  0.00     0.037 A 
ATOM     55  C   UNL A   1      42.350  29.556  28.678  1.00  0.00     0.049 A 
ATOM     56  C   UNL A   1      47.554  28.419  26.939  1.00  0.00     0.074 A 
ATOM     57  C   UNL A   1      42.113  30.842  29.130  1.00  0.00     0.029 A 
ATOM     58  N   UNL A   1      43.680  29.509  28.285  1.00  0.00    -0.354 N 
ATOM     59  N   UNL A   1      46.393  28.834  27.383  1.00  0.00    -0.248 NA
ATOM     60  C   UNL A   1      48.580  29.469  26.880  1.00  0.00     0.031 C 
ATOM     61  C   UNL A   1      43.283  31.589  28.955  1.00  0.00     0.029 A 
ATOM     62  C   UNL A   1      44.269  30.751  28.459  1.00  0.00     0.049 A 
ATOM     63  H   UNL A   1      44.138  28.711  27.934  1.00  0.00     0.167 HD
ATOM     64  C   UNL A   1      46.555  30.179  27.686  1.00  0.00     0.074 A 
ATOM     65  C   UNL A   1      47.934  30.507  27.390  1.00  0.00     0.031 C 
ATOM     66  C   UNL A   1      45.646  31.063  28.165  1.00  0.00     0.037 A 
BRANCH  53  67
ATOM     67  C   UNL A   1      40.003  28.675  29.004  1.00  0.00     0.064 A 
ATOM     68  C   UNL A   1      39.570  28.481  30.325  1.00  0.00     0.173 A 
ATOM     69  C   UNL A   1      39.059  29.121  28.066  1.00  0.00     0.173 A 
ATOM     70  F   UNL A   1      40.427  28.044  31.260  1.00  0.00    -0.203 F 
ATOM     71  C   UNL A   1      38.241  28.690  30.684  1.00  0.00     0.198 A 
ATOM     72  C   UNL A   1      37.740  29.365  28.437  1.00  0.00     0.198 A 
ATOM     73  F   UNL A   1      39.419  29.329  26.791  1.00  0.00    -0.203 F 
ATOM     74  F   UNL A   1      37.840  28.441  31.937  1.00  0.00    -0.200 F 
ATOM     75  C   UNL A   1      37.329  29.140  29.741  1.00  0.00     0.200 A 
ATOM     76  F   UNL A   1      36.863  29.815  27.527  1.00  0.00    -0.200 F 
ATOM     77  F   UNL A   1      36.051  29.348  30.089  1.00  0.00    -0.200 F 
ENDBRANCH  53  67
BRANCH  54  78
ATOM     78  C   UNL A   1      49.350  26.775  26.017  1.00  0.00     0.064 A 
ATOM     79  C   UNL A   1      49.705  26.985  24.677  1.00  0.00     0.173 A 
ATOM     80  C   UNL A   1      50.343  26.300  26.887  1.00  0.00     0.173 A 
ATOM     81  F   UNL A   1      48.788  27.421  23.801  1.00  0.00    -0.203 F 
ATOM     82  C   UNL A   1      50.992  26.705  24.221  1.00  0.00     0.198 A 
ATOM     83  C   UNL A   1      51.637  26.053  26.436  1.00  0.00     0.198 A 
ATOM     84  F   UNL A   1      50.058  26.090  28.180  1.00  0.00    -0.203 F 
ATOM     85  F   UNL A   1      51.289  26.865  22.924  1.00  0.00    -0.200 F 
ATOM     86  C   UNL A   1      51.958  26.245  25.102  1.00  0.00     0.200 A 
ATOM     87  F   UNL A   1      52.573  25.626  27.295  1.00  0.00    -0.200 F 
ATOM     88  F   UNL A   1      53.197  25.981  24.664  1.00  0.00    -0.200 F 
ENDBRANCH  54  78
BRANCH  66  89
ATOM     89  C   UNL A   1      46.120  32.462  28.440  1.00  0.00     0.064 A 
ATOM     90  C   UNL A   1      46.036  33.476  27.474  1.00  0.00     0.173 A 
ATOM     91  C   UNL A   1      46.628  32.801  29.704  1.00  0.00     0.173 A 
ATOM     92  F   UNL A   1      45.570  33.202  26.247  1.00  0.00    -0.203 F 
ATOM     93  C   UNL A   1      46.472  34.769  27.754  1.00  0.00     0.198 A 
ATOM     94  C   UNL A   1      47.029  34.102  29.991  1.00  0.00     0.198 A 
ATOM     95  F   UNL A   1      46.723  31.873  30.668  1.00  0.00    -0.203 F 
ATOM     96  F   UNL A   1      46.432  35.707  26.798  1.00  0.00    -0.200 F 
ATOM     97  C   UNL A   1      46.959  35.083  29.014  1.00  0.00     0.200 A 
ATOM     98  F   UNL A   1      47.482  34.409  31.214  1.00  0.00    -0.200 F 
ATOM     99  F   UNL A   1      47.369  36.330  29.283  1.00  0.00    -0.200 F 
ENDBRANCH  66  89
ENDBRANCH  40  41
ENDBRANCH  32  35
ENDBRANCH  30  31
ENDBRANCH  29  30
ENDBRANCH  28  29
ENDBRANCH   1  28
TORSDOF 15
ENDMDL
MODEL 2
REMARK VINA RESULT:     -12.8      0.277      1.916
REMARK SMILES C[C@H](NC(=O)[C@@H]1CCCN(S(=O)(=O)c2ccc(Cl)cc2)C1)C(=O)NCCCCNC(=O)c1ccc(-c2c3nc(c(-c4c(F)c(F)c(F)c(F)c4F)c4ccc([nH]4)c(-c4c(F)c(F)c(F)c(F)c4F)c4nc(c(-c5c(F)c(F)c(F)c(F)c5F)c5ccc2[nH]5)C=C4)C=C3)cc1
REMARK SMILES IDX 25 1 24 2 22 3 23 4 2 6 1 7 3 8 4 9 5 11 6 12 7 13 21 14
REMARK SMILES IDX 8 15 10 16 9 17 11 18 12 19 13 20 14 21 15 22 20 23 16 24
REMARK SMILES IDX 19 25 17 26 18 27 26 28 27 29 28 30 29 31 30 32 31 34 32 35
REMARK SMILES IDX 33 36 94 37 34 38 93 39 35 40 36 41 37 42 87 43 38 44 92 45
REMARK SMILES IDX 86 46 88 47 39 48 91 49 85 50 84 51 40 53 72 54 52 55 71 56
REMARK SMILES IDX 53 57 56 58 70 59 89 60 54 61 55 62 69 64 90 65 57 66 41 67
REMARK SMILES IDX 42 68 50 69 43 70 44 71 48 72 51 73 45 74 46 75 49 76 47 77
REMARK SMILES IDX 73 78 74 79 82 80 75 81 76 82 80 83 83 84 77 85 78 86 81 87
REMARK SMILES IDX 79 88 58 89 59 90 67 91 60 92 61 93 65 94 68 95 62 96 63 97
REMARK SMILES IDX 66 98 64 99
REMARK H PARENT 24 5 3 10 29 33 88 52 56 63
REMARK Flexibility Score: inf
ROOT
ATOM      1  C   UNL A   1      36.062  20.749  25.233  1.00  0.00     0.116 C 
ENDROOT
BRANCH   1   2
ATOM      2  N   UNL A   1      35.864  19.373  24.801  1.00  0.00    -0.354 N 
ATOM      3  C   UNL A   1      34.713  18.668  24.602  1.00  0.00     0.242 C 
ATOM      4  O   UNL A   1      34.796  17.567  24.057  1.00  0.00    -0.273 OA
ATOM      5  H   UNL A   1      36.693  18.872  24.626  1.00  0.00     0.163 HD
BRANCH   3   6
ATOM      6  C   UNL A   1      33.351  19.292  24.932  1.00  0.00     0.168 C 
ATOM      7  C   UNL A   1      32.477  18.251  25.642  1.00  0.00     0.041 C 
BRANCH   6   8
ATOM      8  N   UNL A   1      32.733  19.833  23.724  1.00  0.00    -0.344 N 
ATOM      9  C   UNL A   1      32.466  21.132  23.411  1.00  0.00     0.225 C 
ATOM     10  H   UNL A   1      32.474  19.170  23.043  1.00  0.00     0.164 HD
ATOM     11  O   UNL A   1      31.855  21.361  22.369  1.00  0.00    -0.275 OA
BRANCH   9  12
ATOM     12  C   UNL A   1      32.941  22.223  24.361  1.00  0.00     0.094 C 
ATOM     13  C   UNL A   1      31.964  22.434  25.511  1.00  0.00     0.016 C 
ATOM     14  C   UNL A   1      33.284  23.488  23.582  1.00  0.00     0.116 C 
ATOM     15  C   UNL A   1      30.790  23.308  25.113  1.00  0.00     0.018 C 
ATOM     16  N   UNL A   1      32.096  24.336  23.264  1.00  0.00    -0.197 NA
ATOM     17  C   UNL A   1      31.262  24.603  24.469  1.00  0.00     0.102 C 
BRANCH  16  18
ATOM     18  S   UNL A   1      32.584  25.751  22.397  1.00  0.00     0.243 S 
ATOM     19  O   UNL A   1      33.935  25.528  21.929  1.00  0.00    -0.207 OA
ATOM     20  O   UNL A   1      31.524  26.078  21.463  1.00  0.00    -0.207 OA
BRANCH  18  21
ATOM     21  C   UNL A   1      32.634  27.028  23.630  1.00  0.00     0.082 A 
ATOM     22  C   UNL A   1      33.726  27.095  24.503  1.00  0.00     0.023 A 
ATOM     23  C   UNL A   1      31.621  27.990  23.685  1.00  0.00     0.023 A 
ATOM     24  C   UNL A   1      33.751  28.063  25.506  1.00  0.00     0.022 A 
ATOM     25  C   UNL A   1      31.672  28.983  24.666  1.00  0.00     0.022 A 
ATOM     26  C   UNL A   1      32.721  29.000  25.586  1.00  0.00     0.041 A 
ATOM     27  Cl  UNL A   1      32.753  30.189  26.828  1.00  0.00    -0.084 Cl
ENDBRANCH  18  21
ENDBRANCH  16  18
ENDBRANCH   9  12
ENDBRANCH   6   8
ENDBRANCH   3   6
ENDBRANCH   1   2
BRANCH   1  28
ATOM     28  C   UNL A   1      37.505  21.195  25.033  1.00  0.00     0.023 C 
BRANCH  28  29
ATOM     29  C   UNL A   1      38.515  20.048  25.031  1.00  0.00     0.023 C 
BRANCH  29  30
ATOM     30  C   UNL A   1      39.568  20.128  26.129  1.00  0.00     0.116 C 
BRANCH  30  31
ATOM     31  N   UNL A   1      40.561  19.070  26.026  1.00  0.00    -0.352 N 
ATOM     32  C   UNL A   1      41.930  19.175  26.044  1.00  0.00     0.251 C 
ATOM     33  H   UNL A   1      40.204  18.157  25.930  1.00  0.00     0.163 HD
ATOM     34  O   UNL A   1      42.636  18.211  25.773  1.00  0.00    -0.269 OA
BRANCH  32  35
ATOM     35  C   UNL A   1      42.544  20.479  26.367  1.00  0.00     0.039 A 
ATOM     36  C   UNL A   1      43.175  21.198  25.352  1.00  0.00     0.014 A 
ATOM     37  C   UNL A   1      42.448  21.004  27.658  1.00  0.00     0.014 A 
ATOM     38  C   UNL A   1      43.654  22.481  25.618  1.00  0.00     0.010 A 
ATOM     39  C   UNL A   1      42.847  22.314  27.898  1.00  0.00     0.010 A 
ATOM     40  C   UNL A   1      43.458  23.065  26.882  1.00  0.00    -0.014 A 
BRANCH  40  41
ATOM     41  C   UNL A   1      43.884  24.459  27.158  1.00  0.00     0.031 A 
ATOM     42  C   UNL A   1      42.872  25.486  27.585  1.00  0.00     0.074 A 
ATOM     43  C   UNL A   1      45.169  24.816  26.968  1.00  0.00     0.049 A 
ATOM     44  N   UNL A   1      43.034  26.764  27.814  1.00  0.00    -0.248 NA
ATOM     45  C   UNL A   1      41.486  25.019  27.748  1.00  0.00     0.031 C 
ATOM     46  C   UNL A   1      46.234  23.924  26.508  1.00  0.00     0.029 A 
ATOM     47  N   UNL A   1      45.797  26.025  27.129  1.00  0.00    -0.354 N 
ATOM     48  C   UNL A   1      41.776  27.253  28.139  1.00  0.00     0.074 A 
ATOM     49  C   UNL A   1      40.848  26.149  28.011  1.00  0.00     0.031 C 
ATOM     50  C   UNL A   1      47.387  24.609  26.447  1.00  0.00     0.029 A 
ATOM     51  C   UNL A   1      47.135  25.998  26.820  1.00  0.00     0.049 A 
ATOM     52  H   UNL A   1      45.332  26.838  27.436  1.00  0.00     0.167 HD
ATOM     53  C   UNL A   1      41.429  28.500  28.536  1.00  0.00     0.037 A 
ATOM     54  C   UNL A   1      48.053  26.983  26.826  1.00  0.00     0.037 A 
ATOM     55  C   UNL A   1      42.358  29.591  28.671  1.00  0.00     0.049 A 
ATOM     56  C   UNL A   1      47.638  28.367  27.248  1.00  0.00     0.074 A 
ATOM     57  C   UNL A   1      42.117  30.879  29.112  1.00  0.00     0.029 A 
ATOM     58  N   UNL A   1      43.709  29.521  28.360  1.00  0.00    -0.354 N 
ATOM     59  N   UNL A   1      46.459  28.801  27.623  1.00  0.00    -0.248 NA
ATOM     60  C   UNL A   1      48.684  29.400  27.255  1.00  0.00     0.031 C 
ATOM     61  C   UNL A   1      43.307  31.606  29.011  1.00  0.00     0.029 A 
ATOM     62  C   UNL A   1      44.307  30.753  28.573  1.00  0.00     0.049 A 
ATOM     63  H   UNL A   1      44.173  28.716  28.036  1.00  0.00     0.167 HD
ATOM     64  C   UNL A   1      46.626  30.142  27.939  1.00  0.00     0.074 A 
ATOM     65  C   UNL A   1      48.025  30.448  27.728  1.00  0.00     0.031 C 
ATOM     66  C   UNL A   1      45.704  31.042  28.365  1.00  0.00     0.037 A 
BRANCH  53  67
ATOM     67  C   UNL A   1      39.981  28.750  28.852  1.00  0.00     0.064 A 
ATOM     68  C   UNL A   1      39.083  29.209  27.876  1.00  0.00     0.173 A 
ATOM     69  C   UNL A   1      39.477  28.498  30.137  1.00  0.00     0.173 A 
ATOM     70  F   UNL A   1      39.512  29.479  26.634  1.00  0.00    -0.203 F 
ATOM     71  C   UNL A   1      37.744  29.440  28.184  1.00  0.00     0.198 A 
ATOM     72  C   UNL A   1      38.131  28.694  30.431  1.00  0.00     0.198 A 
ATOM     73  F   UNL A   1      40.290  28.052  31.107  1.00  0.00    -0.203 F 
ATOM     74  F   UNL A   1      36.920  29.935  27.251  1.00  0.00    -0.200 F 
ATOM     75  C   UNL A   1      37.268  29.175  29.459  1.00  0.00     0.200 A 
ATOM     76  F   UNL A   1      37.669  28.422  31.661  1.00  0.00    -0.200 F 
ATOM     77  F   UNL A   1      35.977  29.390  29.752  1.00  0.00    -0.200 F 
ENDBRANCH  53  67
BRANCH  54  78
ATOM     78  C   UNL A   1      49.458  26.694  26.433  1.00  0.00     0.064 A 
ATOM     79  C   UNL A   1      50.406  26.289  27.384  1.00  0.00     0.173 A 
ATOM     80  C   UNL A   1      49.885  26.824  25.103  1.00  0.00     0.173 A 
ATOM     81  F   UNL A   1      50.053  26.168  28.672  1.00  0.00    -0.203 F 
ATOM     82  C   UNL A   1      51.731  26.050  27.024  1.00  0.00     0.198 A 
ATOM     83  C   UNL A   1      51.202  26.552  24.739  1.00  0.00     0.198 A 
ATOM     84  F   UNL A   1      49.017  27.201  24.153  1.00  0.00    -0.203 F 
ATOM     85  F   UNL A   1      52.627  25.714  27.962  1.00  0.00    -0.200 F 
ATOM     86  C   UNL A   1      52.126  26.175  25.701  1.00  0.00     0.200 A 
ATOM     87  F   UNL A   1      51.575  26.658  23.456  1.00  0.00    -0.200 F 
ATOM     88  F   UNL A   1      53.399  25.941  25.354  1.00  0.00    -0.200 F 
ENDBRANCH  54  78
BRANCH  66  89
ATOM     89  C   UNL A   1      46.185  32.432  28.672  1.00  0.00     0.064 A 
ATOM     90  C   UNL A   1      46.649  32.791  29.945  1.00  0.00     0.173 A 
ATOM     91  C   UNL A   1      46.219  33.407  27.663  1.00  0.00     0.173 A 
ATOM     92  F   UNL A   1      46.625  31.901  30.949  1.00  0.00    -0.203 F 
ATOM     93  C   UNL A   1      47.100  34.083  30.205  1.00  0.00     0.198 A 
ATOM     94  C   UNL A   1      46.704  34.686  27.916  1.00  0.00     0.198 A 
ATOM     95  F   UNL A   1      45.795  33.115  26.423  1.00  0.00    -0.203 F 
ATOM     96  F   UNL A   1      47.487  34.417  31.444  1.00  0.00    -0.200 F 
ATOM     97  C   UNL A   1      47.135  35.026  29.189  1.00  0.00     0.200 A 
ATOM     98  F   UNL A   1      46.755  35.591  26.929  1.00  0.00    -0.200 F 
ATOM     99  F   UNL A   1      47.579  36.265  29.440  1.00  0.00    -0.200 F 
ENDBRANCH  66  89
ENDBRANCH  40  41
ENDBRANCH  32  35
ENDBRANCH  30  31
ENDBRANCH  29  30
ENDBRANCH  28  29
ENDBRANCH   1  28
TORSDOF 15
ENDMDL
MODEL 3
REMARK VINA RESULT:     -12.8      0.439      7.231
REMARK SMILES C[C@H](NC(=O)[C@@H]1CCCN(S(=O)(=O)c2ccc(Cl)cc2)C1)C(=O)NCCCCNC(=O)c1ccc(-c2c3nc(c(-c4c(F)c(F)c(F)c(F)c4F)c4ccc([nH]4)c(-c4c(F)c(F)c(F)c(F)c4F)c4nc(c(-c5c(F)c(F)c(F)c(F)c5F)c5ccc2[nH]5)C=C4)C=C3)cc1
REMARK SMILES IDX 25 1 24 2 22 3 23 4 2 6 1 7 3 8 4 9 5 11 6 12 7 13 21 14
REMARK SMILES IDX 8 15 10 16 9 17 11 18 12 19 13 20 14 21 15 22 20 23 16 24
REMARK SMILES IDX 19 25 17 26 18 27 26 28 27 29 28 30 29 31 30 32 31 34 32 35
REMARK SMILES IDX 33 36 94 37 34 38 93 39 35 40 36 41 37 42 87 43 38 44 92 45
REMARK SMILES IDX 86 46 88 47 39 48 91 49 85 50 84 51 40 53 72 54 52 55 71 56
REMARK SMILES IDX 53 57 56 58 70 59 89 60 54 61 55 62 69 64 90 65 57 66 41 67
REMARK SMILES IDX 42 68 50 69 43 70 44 71 48 72 51 73 45 74 46 75 49 76 47 77
REMARK SMILES IDX 73 78 74 79 82 80 75 81 76 82 80 83 83 84 77 85 78 86 81 87
REMARK SMILES IDX 79 88 58 89 59 90 67 91 60 92 61 93 65 94 68 95 62 96 63 97
REMARK SMILES IDX 66 98 64 99
REMARK H PARENT 24 5 3 10 29 33 88 52 56 63
REMARK Flexibility Score: inf
ROOT
ATOM      1  C   UNL A   1      36.084  20.583  25.007  1.00  0.00     0.116 C 
ENDROOT
BRANCH   1   2
ATOM      2  N   UNL A   1      35.878  19.178  24.691  1.00  0.00    -0.354 N 
ATOM      3  C   UNL A   1      34.727  18.447  24.625  1.00  0.00     0.242 C 
ATOM      4  O   UNL A   1      34.790  17.310  24.157  1.00  0.00    -0.273 OA
ATOM      5  H   UNL A   1      36.700  18.674  24.494  1.00  0.00     0.163 HD
BRANCH   3   6
ATOM      6  C   UNL A   1      33.382  19.079  25.005  1.00  0.00     0.168 C 
ATOM      7  C   UNL A   1      32.524  18.038  25.734  1.00  0.00     0.041 C 
BRANCH   6   8
ATOM      8  N   UNL A   1      32.729  19.635  23.823  1.00  0.00    -0.344 N 
ATOM      9  C   UNL A   1      32.479  20.940  23.523  1.00  0.00     0.225 C 
ATOM     10  H   UNL A   1      32.429  18.979  23.153  1.00  0.00     0.164 HD
ATOM     11  O   UNL A   1      31.832  21.185  22.506  1.00  0.00    -0.275 OA
BRANCH   9  12
ATOM     12  C   UNL A   1      33.014  22.019  24.454  1.00  0.00     0.094 C 
ATOM     13  C   UNL A   1      32.095  22.239  25.650  1.00  0.00     0.016 C 
ATOM     14  C   UNL A   1      33.340  23.283  23.667  1.00  0.00     0.116 C 
ATOM     15  C   UNL A   1      30.918  23.133  25.311  1.00  0.00     0.018 C 
ATOM     16  N   UNL A   1      32.152  24.151  23.409  1.00  0.00    -0.197 NA
ATOM     17  C   UNL A   1      31.379  24.424  24.652  1.00  0.00     0.102 C 
BRANCH  16  18
ATOM     18  S   UNL A   1      32.620  25.563  22.526  1.00  0.00     0.243 S 
ATOM     19  O   UNL A   1      33.975  25.353  22.061  1.00  0.00    -0.207 OA
ATOM     20  O   UNL A   1      31.556  25.865  21.588  1.00  0.00    -0.207 OA
BRANCH  18  21
ATOM     21  C   UNL A   1      32.653  26.853  23.745  1.00  0.00     0.082 A 
ATOM     22  C   UNL A   1      31.639  27.819  23.749  1.00  0.00     0.023 A 
ATOM     23  C   UNL A   1      33.648  26.867  24.726  1.00  0.00     0.023 A 
ATOM     24  C   UNL A   1      31.683  28.864  24.670  1.00  0.00     0.022 A 
ATOM     25  C   UNL A   1      33.664  27.893  25.673  1.00  0.00     0.022 A 
ATOM     26  C   UNL A   1      32.697  28.899  25.625  1.00  0.00     0.041 A 
ATOM     27  Cl  UNL A   1      32.751  30.193  26.757  1.00  0.00    -0.084 Cl
ENDBRANCH  18  21
ENDBRANCH  16  18
ENDBRANCH   9  12
ENDBRANCH   6   8
ENDBRANCH   3   6
ENDBRANCH   1   2
BRANCH   1  28
ATOM     28  C   UNL A   1      37.551  20.974  24.888  1.00  0.00     0.023 C 
BRANCH  28  29
ATOM     29  C   UNL A   1      38.520  19.799  25.026  1.00  0.00     0.023 C 
BRANCH  29  30
ATOM     30  C   UNL A   1      39.541  19.947  26.146  1.00  0.00     0.116 C 
BRANCH  30  31
ATOM     31  N   UNL A   1      40.606  18.959  26.062  1.00  0.00    -0.352 N 
ATOM     32  C   UNL A   1      41.964  19.161  26.057  1.00  0.00     0.251 C 
ATOM     33  H   UNL A   1      40.314  18.020  26.000  1.00  0.00     0.163 HD
ATOM     34  O   UNL A   1      42.733  18.241  25.806  1.00  0.00    -0.269 OA
BRANCH  32  35
ATOM     35  C   UNL A   1      42.487  20.515  26.329  1.00  0.00     0.039 A 
ATOM     36  C   UNL A   1      42.827  21.337  25.254  1.00  0.00     0.014 A 
ATOM     37  C   UNL A   1      42.593  20.980  27.642  1.00  0.00     0.014 A 
ATOM     38  C   UNL A   1      43.210  22.656  25.495  1.00  0.00     0.010 A 
ATOM     39  C   UNL A   1      42.889  22.319  27.874  1.00  0.00     0.010 A 
ATOM     40  C   UNL A   1      43.205  23.170  26.804  1.00  0.00    -0.014 A 
BRANCH  40  41
ATOM     41  C   UNL A   1      43.527  24.593  27.071  1.00  0.00     0.031 A 
ATOM     42  C   UNL A   1      44.924  25.104  26.849  1.00  0.00     0.074 A 
ATOM     43  C   UNL A   1      42.580  25.411  27.570  1.00  0.00     0.049 A 
ATOM     44  N   UNL A   1      45.418  26.294  27.080  1.00  0.00    -0.248 NA
ATOM     45  C   UNL A   1      45.904  24.141  26.323  1.00  0.00     0.031 C 
ATOM     46  C   UNL A   1      41.203  25.021  27.876  1.00  0.00     0.029 A 
ATOM     47  N   UNL A   1      42.633  26.738  27.916  1.00  0.00    -0.354 N 
ATOM     48  C   UNL A   1      46.760  26.220  26.737  1.00  0.00     0.074 A 
ATOM     49  C   UNL A   1      47.021  24.851  26.346  1.00  0.00     0.031 C 
ATOM     50  C   UNL A   1      40.536  26.089  28.340  1.00  0.00     0.029 A 
ATOM     51  C   UNL A   1      41.448  27.228  28.408  1.00  0.00     0.049 A 
ATOM     52  H   UNL A   1      43.445  27.288  27.821  1.00  0.00     0.167 HD
ATOM     53  C   UNL A   1      47.686  27.208  26.720  1.00  0.00     0.037 A 
ATOM     54  C   UNL A   1      41.134  28.453  28.871  1.00  0.00     0.037 A 
ATOM     55  C   UNL A   1      47.417  28.571  27.099  1.00  0.00     0.049 A 
ATOM     56  C   UNL A   1      42.187  29.529  28.865  1.00  0.00     0.074 A 
ATOM     57  C   UNL A   1      48.273  29.657  27.071  1.00  0.00     0.029 A 
ATOM     58  N   UNL A   1      46.201  29.031  27.581  1.00  0.00    -0.354 N 
ATOM     59  N   UNL A   1      43.435  29.465  28.470  1.00  0.00    -0.248 NA
ATOM     60  C   UNL A   1      41.785  30.852  29.363  1.00  0.00     0.031 C 
ATOM     61  C   UNL A   1      47.592  30.762  27.593  1.00  0.00     0.029 A 
ATOM     62  C   UNL A   1      46.291  30.381  27.881  1.00  0.00     0.049 A 
ATOM     63  H   UNL A   1      45.393  28.480  27.694  1.00  0.00     0.167 HD
ATOM     64  C   UNL A   1      43.958  30.740  28.642  1.00  0.00     0.074 A 
ATOM     65  C   UNL A   1      42.885  31.562  29.160  1.00  0.00     0.031 C 
ATOM     66  C   UNL A   1      45.213  31.190  28.392  1.00  0.00     0.037 A 
BRANCH  53  67
ATOM     67  C   UNL A   1      49.076  26.849  26.276  1.00  0.00     0.064 A 
ATOM     68  C   UNL A   1      50.028  26.343  27.175  1.00  0.00     0.173 A 
ATOM     69  C   UNL A   1      49.454  26.983  24.931  1.00  0.00     0.173 A 
ATOM     70  F   UNL A   1      49.726  26.206  28.475  1.00  0.00    -0.203 F 
ATOM     71  C   UNL A   1      51.315  26.018  26.751  1.00  0.00     0.198 A 
ATOM     72  C   UNL A   1      50.729  26.622  24.504  1.00  0.00     0.198 A 
ATOM     73  F   UNL A   1      48.582  27.456  24.028  1.00  0.00    -0.203 F 
ATOM     74  F   UNL A   1      52.223  25.592  27.639  1.00  0.00    -0.200 F 
ATOM     75  C   UNL A   1      51.661  26.150  25.415  1.00  0.00     0.200 A 
ATOM     76  F   UNL A   1      51.056  26.736  23.209  1.00  0.00    -0.200 F 
ATOM     77  F   UNL A   1      52.897  25.830  25.007  1.00  0.00    -0.200 F 
ENDBRANCH  53  67
BRANCH  54  78
ATOM     78  C   UNL A   1      39.760  28.732  29.366  1.00  0.00     0.064 A 
ATOM     79  C   UNL A   1      39.407  28.480  30.700  1.00  0.00     0.173 A 
ATOM     80  C   UNL A   1      38.770  29.250  28.518  1.00  0.00     0.173 A 
ATOM     81  F   UNL A   1      40.312  27.968  31.547  1.00  0.00    -0.203 F 
ATOM     82  C   UNL A   1      38.111  28.710  31.158  1.00  0.00     0.198 A 
ATOM     83  C   UNL A   1      37.484  29.511  28.986  1.00  0.00     0.198 A 
ATOM     84  F   UNL A   1      39.057  29.516  27.235  1.00  0.00    -0.203 F 
ATOM     85  F   UNL A   1      37.787  28.411  32.423  1.00  0.00    -0.200 F 
ATOM     86  C   UNL A   1      37.152  29.231  30.302  1.00  0.00     0.200 A 
ATOM     87  F   UNL A   1      36.566  30.031  28.160  1.00  0.00    -0.200 F 
ATOM     88  F   UNL A   1      35.908  29.457  30.744  1.00  0.00    -0.200 F 
ENDBRANCH  54  78
BRANCH  66  89
ATOM     89  C   UNL A   1      45.486  32.647  28.638  1.00  0.00     0.064 A 
ATOM     90  C   UNL A   1      46.021  33.106  29.850  1.00  0.00     0.173 A 
ATOM     91  C   UNL A   1      45.247  33.591  27.627  1.00  0.00     0.173 A 
ATOM     92  F   UNL A   1      46.256  32.247  30.853  1.00  0.00    -0.203 F 
ATOM     93  C   UNL A   1      46.276  34.460  30.053  1.00  0.00     0.198 A 
ATOM     94  C   UNL A   1      45.537  34.938  27.820  1.00  0.00     0.198 A 
ATOM     95  F   UNL A   1      44.744  33.205  26.445  1.00  0.00    -0.203 F 
ATOM     96  F   UNL A   1      46.736  34.881  31.239  1.00  0.00    -0.200 F 
ATOM     97  C   UNL A   1      46.043  35.373  29.035  1.00  0.00     0.200 A 
ATOM     98  F   UNL A   1      45.329  35.817  26.830  1.00  0.00    -0.200 F 
ATOM     99  F   UNL A   1      46.299  36.674  29.230  1.00  0.00    -0.200 F 
ENDBRANCH  66  89
ENDBRANCH  40  41
ENDBRANCH  32  35
ENDBRANCH  30  31
ENDBRANCH  29  30
ENDBRANCH  28  29
ENDBRANCH   1  28
TORSDOF 15
ENDMDL
