MODEL 1
REMARK VINA RESULT:     -10.0      0.000      0.000
REMARK SMILES CC[C@H](C)[NH+]1CCN(C(=O)CC(=O)NCCCCNC(=O)c2ccc(-c3c4nc(c(-c5c(F)c(F)c(F)c(F)c5F)c5ccc([nH]5)c(-c5c(F)c(F)c(F)c(F)c5F)c5nc(c(-c6c(F)c(F)c(F)c(F)c6F)c6ccc3[nH]6)C=C5)C=C4)cc2)CC1
REMARK SMILES IDX 16 1 15 2 14 3 12 4 13 5 11 7 9 8 5 9 6 10 86 11 7 13 85 14
REMARK SMILES IDX 8 15 10 16 3 17 4 18 2 19 1 20 17 21 18 22 19 23 20 24 21 26
REMARK SMILES IDX 22 27 23 28 84 29 24 30 83 31 25 32 26 33 27 34 77 35 28 36
REMARK SMILES IDX 82 37 76 38 78 39 29 40 81 41 75 42 74 43 30 45 62 46 42 47
REMARK SMILES IDX 61 48 43 49 46 50 60 51 79 52 44 53 45 54 59 56 80 57 47 58
REMARK SMILES IDX 31 59 32 60 40 61 33 62 34 63 38 64 41 65 35 66 36 67 39 68
REMARK SMILES IDX 37 69 63 70 64 71 72 72 65 73 66 74 70 75 73 76 67 77 68 78
REMARK SMILES IDX 71 79 69 80 48 81 49 82 57 83 50 84 51 85 55 86 58 87 52 88
REMARK SMILES IDX 53 89 56 90 54 91
REMARK H PARENT 14 6 5 12 19 25 78 44 46 55
REMARK Flexibility Score: inf
ROOT
ATOM      1  C   UNL A   1      33.162  34.404  28.409  1.00  0.00     0.023 C 
ENDROOT
BRANCH   1   2
ATOM      2  C   UNL A   1      33.437  35.493  29.446  1.00  0.00     0.116 C 
BRANCH   2   3
ATOM      3  N   UNL A   1      33.045  35.069  30.778  1.00  0.00    -0.356 N 
ATOM      4  C   UNL A   1      33.823  34.568  31.778  1.00  0.00     0.229 C 
ATOM      5  O   UNL A   1      33.270  34.204  32.817  1.00  0.00    -0.275 OA
ATOM      6  H   UNL A   1      32.087  35.156  30.987  1.00  0.00     0.163 HD
BRANCH   4   7
ATOM      7  C   UNL A   1      35.321  34.504  31.626  1.00  0.00     0.200 C 
BRANCH   7   8
ATOM      8  C   UNL A   1      36.079  34.323  32.918  1.00  0.00     0.232 C 
ATOM      9  N   UNL A   1      37.925  30.528  33.938  1.00  0.00    -0.330 N 
ATOM     10  C   UNL A   1      37.796  31.621  34.913  1.00  0.00     0.284 C 
ATOM     11  C   UNL A   1      36.853  30.620  32.940  1.00  0.00     0.284 C 
ATOM     12  H   UNL A   1      37.762  29.643  34.420  1.00  0.00     0.348 HD
ATOM     13  C   UNL A   1      37.597  33.033  34.326  1.00  0.00     0.181 C 
ATOM     14  C   UNL A   1      36.723  31.979  32.243  1.00  0.00     0.181 C 
ATOM     15  N   UNL A   1      36.681  33.103  33.185  1.00  0.00    -0.331 N 
ATOM     16  O   UNL A   1      36.149  35.266  33.713  1.00  0.00    -0.274 OA
BRANCH   9  17
ATOM     17  C   UNL A   1      39.294  30.224  33.479  1.00  0.00     0.180 C 
ATOM     18  C   UNL A   1      40.344  30.617  34.532  1.00  0.00     0.075 C 
BRANCH  17  19
ATOM     19  C   UNL A   1      39.537  28.798  32.933  1.00  0.00     0.061 C 
ATOM     20  C   UNL A   1      40.956  28.278  33.141  1.00  0.00     0.010 C 
ENDBRANCH  17  19
ENDBRANCH   9  17
ENDBRANCH   7   8
ENDBRANCH   4   7
ENDBRANCH   2   3
ENDBRANCH   1   2
BRANCH   1  21
ATOM     21  C   UNL A   1      34.383  33.560  28.025  1.00  0.00     0.023 C 
BRANCH  21  22
ATOM     22  C   UNL A   1      34.629  32.323  28.886  1.00  0.00     0.116 C 
BRANCH  22  23
ATOM     23  N   UNL A   1      34.055  31.112  28.327  1.00  0.00    -0.352 N 
ATOM     24  C   UNL A   1      34.667  29.937  27.974  1.00  0.00     0.251 C 
ATOM     25  H   UNL A   1      33.082  31.139  28.179  1.00  0.00     0.163 HD
ATOM     26  O   UNL A   1      34.014  29.057  27.410  1.00  0.00    -0.269 OA
BRANCH  24  27
ATOM     27  C   UNL A   1      36.110  29.723  28.225  1.00  0.00     0.039 A 
ATOM     28  C   UNL A   1      36.499  29.230  29.474  1.00  0.00     0.014 A 
ATOM     29  C   UNL A   1      37.079  30.026  27.264  1.00  0.00     0.014 A 
ATOM     30  C   UNL A   1      37.849  28.994  29.741  1.00  0.00     0.010 A 
ATOM     31  C   UNL A   1      38.420  29.725  27.507  1.00  0.00     0.010 A 
ATOM     32  C   UNL A   1      38.819  29.212  28.750  1.00  0.00    -0.014 A 
BRANCH  32  33
ATOM     33  C   UNL A   1      40.247  28.896  29.011  1.00  0.00     0.031 A 
ATOM     34  C   UNL A   1      41.121  29.857  29.769  1.00  0.00     0.074 A 
ATOM     35  C   UNL A   1      40.767  27.747  28.537  1.00  0.00     0.049 A 
ATOM     36  N   UNL A   1      42.381  29.739  30.109  1.00  0.00    -0.248 NA
ATOM     37  C   UNL A   1      40.507  31.129  30.179  1.00  0.00     0.031 C 
ATOM     38  C   UNL A   1      40.042  26.760  27.735  1.00  0.00     0.029 A 
ATOM     39  N   UNL A   1      42.025  27.213  28.663  1.00  0.00    -0.354 N 
ATOM     40  C   UNL A   1      42.709  30.919  30.765  1.00  0.00     0.074 A 
ATOM     41  C   UNL A   1      41.535  31.763  30.724  1.00  0.00     0.031 C 
ATOM     42  C   UNL A   1      40.856  25.726  27.470  1.00  0.00     0.029 A 
ATOM     43  C   UNL A   1      42.165  25.988  28.059  1.00  0.00     0.049 A 
ATOM     44  H   UNL A   1      42.758  27.666  29.140  1.00  0.00     0.167 HD
ATOM     45  C   UNL A   1      43.874  31.256  31.367  1.00  0.00     0.037 A 
ATOM     46  C   UNL A   1      43.227  25.162  27.997  1.00  0.00     0.037 A 
ATOM     47  C   UNL A   1      45.036  30.406  31.424  1.00  0.00     0.049 A 
ATOM     48  C   UNL A   1      44.503  25.552  28.691  1.00  0.00     0.074 A 
ATOM     49  C   UNL A   1      46.245  30.635  32.057  1.00  0.00     0.029 A 
ATOM     50  N   UNL A   1      45.133  29.162  30.818  1.00  0.00    -0.354 N 
ATOM     51  N   UNL A   1      44.775  26.636  29.377  1.00  0.00    -0.248 NA
ATOM     52  C   UNL A   1      45.614  24.594  28.617  1.00  0.00     0.031 C 
ATOM     53  C   UNL A   1      47.088  29.548  31.800  1.00  0.00     0.029 A 
ATOM     54  C   UNL A   1      46.387  28.619  31.050  1.00  0.00     0.049 A 
ATOM     55  H   UNL A   1      44.417  28.728  30.301  1.00  0.00     0.167 HD
ATOM     56  C   UNL A   1      46.075  26.478  29.839  1.00  0.00     0.074 A 
ATOM     57  C   UNL A   1      46.529  25.184  29.372  1.00  0.00     0.031 C 
ATOM     58  C   UNL A   1      46.825  27.329  30.581  1.00  0.00     0.037 A 
BRANCH  45  59
ATOM     59  C   UNL A   1      43.949  32.605  32.026  1.00  0.00     0.064 A 
ATOM     60  C   UNL A   1      44.254  33.763  31.294  1.00  0.00     0.173 A 
ATOM     61  C   UNL A   1      43.677  32.747  33.394  1.00  0.00     0.173 A 
ATOM     62  F   UNL A   1      44.534  33.680  29.984  1.00  0.00    -0.203 F 
ATOM     63  C   UNL A   1      44.313  35.008  31.914  1.00  0.00     0.198 A 
ATOM     64  C   UNL A   1      43.707  33.999  34.004  1.00  0.00     0.198 A 
ATOM     65  F   UNL A   1      43.373  31.674  34.140  1.00  0.00    -0.203 F 
ATOM     66  F   UNL A   1      44.655  36.093  31.204  1.00  0.00    -0.200 F 
ATOM     67  C   UNL A   1      44.033  35.127  33.266  1.00  0.00     0.200 A 
ATOM     68  F   UNL A   1      43.422  34.114  35.310  1.00  0.00    -0.200 F 
ATOM     69  F   UNL A   1      44.083  36.327  33.860  1.00  0.00    -0.200 F 
ENDBRANCH  45  59
BRANCH  46  70
ATOM     70  C   UNL A   1      43.115  23.862  27.286  1.00  0.00     0.064 A 
ATOM     71  C   UNL A   1      43.511  23.737  25.947  1.00  0.00     0.173 A 
ATOM     72  C   UNL A   1      42.608  22.722  27.925  1.00  0.00     0.173 A 
ATOM     73  F   UNL A   1      43.985  24.805  25.288  1.00  0.00    -0.203 F 
ATOM     74  C   UNL A   1      43.383  22.528  25.267  1.00  0.00     0.198 A 
ATOM     75  C   UNL A   1      42.506  21.506  27.254  1.00  0.00     0.198 A 
ATOM     76  F   UNL A   1      42.221  22.787  29.208  1.00  0.00    -0.203 F 
ATOM     77  F   UNL A   1      43.725  22.449  23.974  1.00  0.00    -0.200 F 
ATOM     78  C   UNL A   1      42.885  21.411  25.922  1.00  0.00     0.200 A 
ATOM     79  F   UNL A   1      42.038  20.426  27.894  1.00  0.00    -0.200 F 
ATOM     80  F   UNL A   1      42.764  20.248  25.270  1.00  0.00    -0.200 F 
ENDBRANCH  46  70
BRANCH  58  81
ATOM     81  C   UNL A   1      48.204  26.869  30.963  1.00  0.00     0.064 A 
ATOM     82  C   UNL A   1      49.334  27.224  30.212  1.00  0.00     0.173 A 
ATOM     83  C   UNL A   1      48.397  26.074  32.103  1.00  0.00     0.173 A 
ATOM     84  F   UNL A   1      49.202  27.971  29.105  1.00  0.00    -0.203 F 
ATOM     85  C   UNL A   1      50.601  26.768  30.566  1.00  0.00     0.198 A 
ATOM     86  C   UNL A   1      49.669  25.647  32.472  1.00  0.00     0.198 A 
ATOM     87  F   UNL A   1      47.350  25.712  32.860  1.00  0.00    -0.203 F 
ATOM     88  F   UNL A   1      51.658  27.071  29.800  1.00  0.00    -0.200 F 
ATOM     89  C   UNL A   1      50.768  25.986  31.698  1.00  0.00     0.200 A 
ATOM     90  F   UNL A   1      49.830  24.901  33.574  1.00  0.00    -0.200 F 
ATOM     91  F   UNL A   1      51.988  25.548  32.038  1.00  0.00    -0.200 F 
ENDBRANCH  58  81
ENDBRANCH  32  33
ENDBRANCH  24  27
ENDBRANCH  22  23
ENDBRANCH  21  22
ENDBRANCH   1  21
TORSDOF 14
ENDMDL
MODEL 2
REMARK VINA RESULT:     -10.0      4.124     11.328
REMARK SMILES CC[C@H](C)[NH+]1CCN(C(=O)CC(=O)NCCCCNC(=O)c2ccc(-c3c4nc(c(-c5c(F)c(F)c(F)c(F)c5F)c5ccc([nH]5)c(-c5c(F)c(F)c(F)c(F)c5F)c5nc(c(-c6c(F)c(F)c(F)c(F)c6F)c6ccc3[nH]6)C=C5)C=C4)cc2)CC1
REMARK SMILES IDX 16 1 15 2 14 3 12 4 13 5 11 7 9 8 5 9 6 10 86 11 7 13 85 14
REMARK SMILES IDX 8 15 10 16 3 17 4 18 2 19 1 20 17 21 18 22 19 23 20 24 21 26
REMARK SMILES IDX 22 27 23 28 84 29 24 30 83 31 25 32 26 33 27 34 77 35 28 36
REMARK SMILES IDX 82 37 76 38 78 39 29 40 81 41 75 42 74 43 30 45 62 46 42 47
REMARK SMILES IDX 61 48 43 49 46 50 60 51 79 52 44 53 45 54 59 56 80 57 47 58
REMARK SMILES IDX 31 59 32 60 40 61 33 62 34 63 38 64 41 65 35 66 36 67 39 68
REMARK SMILES IDX 37 69 63 70 64 71 72 72 65 73 66 74 70 75 73 76 67 77 68 78
REMARK SMILES IDX 71 79 69 80 48 81 49 82 57 83 50 84 51 85 55 86 58 87 52 88
REMARK SMILES IDX 53 89 56 90 54 91
REMARK H PARENT 14 6 5 12 19 25 78 44 46 55
REMARK Flexibility Score: inf
ROOT
ATOM      1  C   UNL A   1      41.545  19.888  27.589  1.00  0.00     0.023 C 
ENDROOT
BRANCH   1   2
ATOM      2  C   UNL A   1      42.185  19.737  26.209  1.00  0.00     0.116 C 
BRANCH   2   3
ATOM      3  N   UNL A   1      43.332  18.849  26.250  1.00  0.00    -0.356 N 
ATOM      4  C   UNL A   1      44.413  18.813  25.422  1.00  0.00     0.229 C 
ATOM      5  O   UNL A   1      45.249  17.924  25.596  1.00  0.00    -0.275 OA
ATOM      6  H   UNL A   1      43.329  18.184  26.975  1.00  0.00     0.163 HD
BRANCH   4   7
ATOM      7  C   UNL A   1      44.596  19.858  24.352  1.00  0.00     0.200 C 
BRANCH   7   8
ATOM      8  C   UNL A   1      45.697  20.853  24.623  1.00  0.00     0.232 C 
ATOM      9  N   UNL A   1      44.830  25.054  25.290  1.00  0.00    -0.330 N 
ATOM     10  C   UNL A   1      46.201  24.563  25.080  1.00  0.00     0.284 C 
ATOM     11  C   UNL A   1      43.873  24.167  24.618  1.00  0.00     0.284 C 
ATOM     12  H   UNL A   1      44.733  25.954  24.818  1.00  0.00     0.348 HD
ATOM     13  C   UNL A   1      46.432  23.062  25.351  1.00  0.00     0.181 C 
ATOM     14  C   UNL A   1      43.996  22.682  24.977  1.00  0.00     0.181 C 
ATOM     15  N   UNL A   1      45.369  22.177  24.864  1.00  0.00    -0.331 N 
ATOM     16  O   UNL A   1      46.871  20.466  24.625  1.00  0.00    -0.274 OA
BRANCH   9  17
ATOM     17  C   UNL A   1      44.513  25.538  26.648  1.00  0.00     0.180 C 
ATOM     18  C   UNL A   1      44.176  27.039  26.650  1.00  0.00     0.075 C 
BRANCH  17  19
ATOM     19  C   UNL A   1      43.476  24.717  27.447  1.00  0.00     0.061 C 
ATOM     20  C   UNL A   1      44.074  23.853  28.552  1.00  0.00     0.010 C 
ENDBRANCH  17  19
ENDBRANCH   9  17
ENDBRANCH   7   8
ENDBRANCH   4   7
ENDBRANCH   2   3
ENDBRANCH   1   2
BRANCH   1  21
ATOM     21  C   UNL A   1      41.054  21.303  27.918  1.00  0.00     0.023 C 
BRANCH  21  22
ATOM     22  C   UNL A   1      41.136  22.313  26.776  1.00  0.00     0.116 C 
BRANCH  22  23
ATOM     23  N   UNL A   1      39.866  22.520  26.101  1.00  0.00    -0.352 N 
ATOM     24  C   UNL A   1      38.996  23.576  26.184  1.00  0.00     0.251 C 
ATOM     25  H   UNL A   1      39.590  21.796  25.495  1.00  0.00     0.163 HD
ATOM     26  O   UNL A   1      37.908  23.513  25.609  1.00  0.00    -0.269 OA
BRANCH  24  27
ATOM     27  C   UNL A   1      39.325  24.775  26.986  1.00  0.00     0.039 A 
ATOM     28  C   UNL A   1      38.882  24.829  28.311  1.00  0.00     0.014 A 
ATOM     29  C   UNL A   1      40.036  25.852  26.447  1.00  0.00     0.014 A 
ATOM     30  C   UNL A   1      39.192  25.934  29.107  1.00  0.00     0.010 A 
ATOM     31  C   UNL A   1      40.404  26.923  27.262  1.00  0.00     0.010 A 
ATOM     32  C   UNL A   1      39.981  26.978  28.598  1.00  0.00    -0.014 A 
BRANCH  32  33
ATOM     33  C   UNL A   1      40.368  28.121  29.465  1.00  0.00     0.031 A 
ATOM     34  C   UNL A   1      41.727  28.175  30.105  1.00  0.00     0.074 A 
ATOM     35  C   UNL A   1      39.476  29.103  29.699  1.00  0.00     0.049 A 
ATOM     36  N   UNL A   1      42.245  29.103  30.872  1.00  0.00    -0.248 NA
ATOM     37  C   UNL A   1      42.615  27.026  29.875  1.00  0.00     0.031 C 
ATOM     38  C   UNL A   1      38.104  29.138  29.188  1.00  0.00     0.029 A 
ATOM     39  N   UNL A   1      39.589  30.263  30.424  1.00  0.00    -0.354 N 
ATOM     40  C   UNL A   1      43.511  28.647  31.218  1.00  0.00     0.074 A 
ATOM     41  C   UNL A   1      43.661  27.335  30.627  1.00  0.00     0.031 C 
ATOM     42  C   UNL A   1      37.516  30.277  29.586  1.00  0.00     0.029 A 
ATOM     43  C   UNL A   1      38.457  31.039  30.400  1.00  0.00     0.049 A 
ATOM     44  H   UNL A   1      40.405  30.515  30.915  1.00  0.00     0.167 HD
ATOM     45  C   UNL A   1      44.468  29.276  31.941  1.00  0.00     0.037 A 
ATOM     46  C   UNL A   1      38.208  32.237  30.964  1.00  0.00     0.037 A 
ATOM     47  C   UNL A   1      44.324  30.590  32.512  1.00  0.00     0.049 A 
ATOM     48  C   UNL A   1      39.295  32.922  31.744  1.00  0.00     0.074 A 
ATOM     49  C   UNL A   1      45.255  31.335  33.214  1.00  0.00     0.029 A 
ATOM     50  N   UNL A   1      43.168  31.355  32.449  1.00  0.00    -0.354 N 
ATOM     51  N   UNL A   1      40.516  32.516  31.996  1.00  0.00    -0.248 NA
ATOM     52  C   UNL A   1      38.975  34.242  32.304  1.00  0.00     0.031 C 
ATOM     53  C   UNL A   1      44.651  32.533  33.612  1.00  0.00     0.029 A 
ATOM     54  C   UNL A   1      43.359  32.557  33.114  1.00  0.00     0.049 A 
ATOM     55  H   UNL A   1      42.336  31.085  31.999  1.00  0.00     0.167 HD
ATOM     56  C   UNL A   1      41.117  33.539  32.718  1.00  0.00     0.074 A 
ATOM     57  C   UNL A   1      40.132  34.593  32.845  1.00  0.00     0.031 C 
ATOM     58  C   UNL A   1      42.371  33.598  33.230  1.00  0.00     0.037 A 
BRANCH  45  59
ATOM     59  C   UNL A   1      45.768  28.550  32.148  1.00  0.00     0.064 A 
ATOM     60  C   UNL A   1      45.969  27.707  33.252  1.00  0.00     0.173 A 
ATOM     61  C   UNL A   1      46.809  28.670  31.216  1.00  0.00     0.173 A 
ATOM     62  F   UNL A   1      45.010  27.566  34.179  1.00  0.00    -0.203 F 
ATOM     63  C   UNL A   1      47.176  27.034  33.430  1.00  0.00     0.198 A 
ATOM     64  C   UNL A   1      48.002  27.971  31.381  1.00  0.00     0.198 A 
ATOM     65  F   UNL A   1      46.667  29.457  30.139  1.00  0.00    -0.203 F 
ATOM     66  F   UNL A   1      47.363  26.274  34.517  1.00  0.00    -0.200 F 
ATOM     67  C   UNL A   1      48.188  27.161  32.491  1.00  0.00     0.200 A 
ATOM     68  F   UNL A   1      48.976  28.084  30.466  1.00  0.00    -0.200 F 
ATOM     69  F   UNL A   1      49.346  26.507  32.660  1.00  0.00    -0.200 F 
ENDBRANCH  45  59
BRANCH  46  70
ATOM     70  C   UNL A   1      36.885  32.887  30.771  1.00  0.00     0.064 A 
ATOM     71  C   UNL A   1      35.885  32.786  31.748  1.00  0.00     0.173 A 
ATOM     72  C   UNL A   1      36.592  33.616  29.610  1.00  0.00     0.173 A 
ATOM     73  F   UNL A   1      36.112  32.082  32.867  1.00  0.00    -0.203 F 
ATOM     74  C   UNL A   1      34.633  33.369  31.561  1.00  0.00     0.198 A 
ATOM     75  C   UNL A   1      35.351  34.223  29.436  1.00  0.00     0.198 A 
ATOM     76  F   UNL A   1      37.518  33.748  28.648  1.00  0.00    -0.203 F 
ATOM     77  F   UNL A   1      33.680  33.217  32.490  1.00  0.00    -0.200 F 
ATOM     78  C   UNL A   1      34.369  34.092  30.407  1.00  0.00     0.200 A 
ATOM     79  F   UNL A   1      35.103  34.933  28.327  1.00  0.00    -0.200 F 
ATOM     80  F   UNL A   1      33.167  34.655  30.229  1.00  0.00    -0.200 F 
ENDBRANCH  46  70
BRANCH  58  81
ATOM     81  C   UNL A   1      42.757  34.862  33.945  1.00  0.00     0.064 A 
ATOM     82  C   UNL A   1      42.671  34.976  35.341  1.00  0.00     0.173 A 
ATOM     83  C   UNL A   1      43.232  35.968  33.225  1.00  0.00     0.173 A 
ATOM     84  F   UNL A   1      42.210  33.952  36.075  1.00  0.00    -0.203 F 
ATOM     85  C   UNL A   1      43.011  36.163  35.984  1.00  0.00     0.198 A 
ATOM     86  C   UNL A   1      43.601  37.142  33.875  1.00  0.00     0.198 A 
ATOM     87  F   UNL A   1      43.341  35.910  31.889  1.00  0.00    -0.203 F 
ATOM     88  F   UNL A   1      42.863  36.269  37.313  1.00  0.00    -0.200 F 
ATOM     89  C   UNL A   1      43.480  37.243  35.252  1.00  0.00     0.200 A 
ATOM     90  F   UNL A   1      44.067  38.181  33.166  1.00  0.00    -0.200 F 
ATOM     91  F   UNL A   1      43.805  38.384  35.873  1.00  0.00    -0.200 F 
ENDBRANCH  58  81
ENDBRANCH  32  33
ENDBRANCH  24  27
ENDBRANCH  22  23
ENDBRANCH  21  22
ENDBRANCH   1  21
TORSDOF 14
ENDMDL
MODEL 3
REMARK VINA RESULT:     -10.0      4.219      7.475
REMARK SMILES CC[C@H](C)[NH+]1CCN(C(=O)CC(=O)NCCCCNC(=O)c2ccc(-c3c4nc(c(-c5c(F)c(F)c(F)c(F)c5F)c5ccc([nH]5)c(-c5c(F)c(F)c(F)c(F)c5F)c5nc(c(-c6c(F)c(F)c(F)c(F)c6F)c6ccc3[nH]6)C=C5)C=C4)cc2)CC1
REMARK SMILES IDX 16 1 15 2 14 3 12 4 13 5 11 7 9 8 5 9 6 10 86 11 7 13 85 14
REMARK SMILES IDX 8 15 10 16 3 17 4 18 2 19 1 20 17 21 18 22 19 23 20 24 21 26
REMARK SMILES IDX 22 27 23 28 84 29 24 30 83 31 25 32 26 33 27 34 77 35 28 36
REMARK SMILES IDX 82 37 76 38 78 39 29 40 81 41 75 42 74 43 30 45 62 46 42 47
REMARK SMILES IDX 61 48 43 49 46 50 60 51 79 52 44 53 45 54 59 56 80 57 47 58
REMARK SMILES IDX 31 59 32 60 40 61 33 62 34 63 38 64 41 65 35 66 36 67 39 68
REMARK SMILES IDX 37 69 63 70 64 71 72 72 65 73 66 74 70 75 73 76 67 77 68 78
REMARK SMILES IDX 71 79 69 80 48 81 49 82 57 83 50 84 51 85 55 86 58 87 52 88
REMARK SMILES IDX 53 89 56 90 54 91
REMARK H PARENT 14 6 5 12 19 25 78 44 46 55
REMARK Flexibility Score: inf
ROOT
ATOM      1  C   UNL A   1      31.407  30.828  25.960  1.00  0.00     0.023 C 
ENDROOT
BRANCH   1   2
ATOM      2  C   UNL A   1      32.803  30.209  26.035  1.00  0.00     0.116 C 
BRANCH   2   3
ATOM      3  N   UNL A   1      33.232  29.706  24.743  1.00  0.00    -0.356 N 
ATOM      4  C   UNL A   1      33.669  28.459  24.416  1.00  0.00     0.229 C 
ATOM      5  O   UNL A   1      34.053  28.262  23.261  1.00  0.00    -0.275 OA
ATOM      6  H   UNL A   1      33.202  30.355  24.004  1.00  0.00     0.163 HD
BRANCH   4   7
ATOM      7  C   UNL A   1      33.642  27.344  25.430  1.00  0.00     0.200 C 
BRANCH   7   8
ATOM      8  C   UNL A   1      32.473  26.400  25.300  1.00  0.00     0.232 C 
ATOM      9  N   UNL A   1      32.961  22.419  23.638  1.00  0.00    -0.330 N 
ATOM     10  C   UNL A   1      31.635  23.007  23.882  1.00  0.00     0.284 C 
ATOM     11  C   UNL A   1      33.941  23.483  23.391  1.00  0.00     0.284 C 
ATOM     12  H   UNL A   1      32.924  21.886  22.769  1.00  0.00     0.348 HD
ATOM     13  C   UNL A   1      31.583  24.164  24.900  1.00  0.00     0.181 C 
ATOM     14  C   UNL A   1      34.002  24.577  24.462  1.00  0.00     0.181 C 
ATOM     15  N   UNL A   1      32.684  25.127  24.795  1.00  0.00    -0.331 N 
ATOM     16  O   UNL A   1      31.350  26.781  25.646  1.00  0.00    -0.274 OA
BRANCH   9  17
ATOM     17  C   UNL A   1      33.344  21.293  24.513  1.00  0.00     0.180 C 
ATOM     18  C   UNL A   1      32.539  20.024  24.188  1.00  0.00     0.075 C 
BRANCH  17  19
ATOM     19  C   UNL A   1      34.857  20.997  24.631  1.00  0.00     0.061 C 
ATOM     20  C   UNL A   1      35.485  21.452  25.944  1.00  0.00     0.010 C 
ENDBRANCH  17  19
ENDBRANCH   9  17
ENDBRANCH   7   8
ENDBRANCH   4   7
ENDBRANCH   2   3
ENDBRANCH   1   2
BRANCH   1  21
ATOM     21  C   UNL A   1      31.244  32.141  26.734  1.00  0.00     0.023 C 
BRANCH  21  22
ATOM     22  C   UNL A   1      32.539  32.883  27.057  1.00  0.00     0.116 C 
BRANCH  22  23
ATOM     23  N   UNL A   1      32.318  34.202  27.624  1.00  0.00    -0.352 N 
ATOM     24  C   UNL A   1      32.995  34.846  28.628  1.00  0.00     0.251 C 
ATOM     25  H   UNL A   1      31.572  34.708  27.230  1.00  0.00     0.163 HD
ATOM     26  O   UNL A   1      32.580  35.930  29.042  1.00  0.00    -0.269 OA
BRANCH  24  27
ATOM     27  C   UNL A   1      34.195  34.241  29.248  1.00  0.00     0.039 A 
ATOM     28  C   UNL A   1      34.020  33.424  30.369  1.00  0.00     0.014 A 
ATOM     29  C   UNL A   1      35.481  34.489  28.762  1.00  0.00     0.014 A 
ATOM     30  C   UNL A   1      35.126  32.817  30.969  1.00  0.00     0.010 A 
ATOM     31  C   UNL A   1      36.577  33.828  29.319  1.00  0.00     0.010 A 
ATOM     32  C   UNL A   1      36.411  32.991  30.432  1.00  0.00    -0.014 A 
BRANCH  32  33
ATOM     33  C   UNL A   1      37.578  32.291  31.029  1.00  0.00     0.031 A 
ATOM     34  C   UNL A   1      38.057  32.638  32.411  1.00  0.00     0.074 A 
ATOM     35  C   UNL A   1      38.227  31.356  30.308  1.00  0.00     0.049 A 
ATOM     36  N   UNL A   1      39.043  32.118  33.101  1.00  0.00    -0.248 NA
ATOM     37  C   UNL A   1      37.354  33.729  33.103  1.00  0.00     0.031 C 
ATOM     38  C   UNL A   1      37.900  30.972  28.934  1.00  0.00     0.029 A 
ATOM     39  N   UNL A   1      39.295  30.557  30.632  1.00  0.00    -0.354 N 
ATOM     40  C   UNL A   1      39.080  32.820  34.299  1.00  0.00     0.074 A 
ATOM     41  C   UNL A   1      38.057  33.841  34.220  1.00  0.00     0.031 C 
ATOM     42  C   UNL A   1      38.726  29.988  28.545  1.00  0.00     0.029 A 
ATOM     43  C   UNL A   1      39.656  29.690  29.629  1.00  0.00     0.049 A 
ATOM     44  H   UNL A   1      39.758  30.600  31.499  1.00  0.00     0.167 HD
ATOM     45  C   UNL A   1      39.876  32.615  35.376  1.00  0.00     0.037 A 
ATOM     46  C   UNL A   1      40.623  28.753  29.592  1.00  0.00     0.037 A 
ATOM     47  C   UNL A   1      40.881  31.586  35.460  1.00  0.00     0.049 A 
ATOM     48  C   UNL A   1      41.479  28.532  30.808  1.00  0.00     0.074 A 
ATOM     49  C   UNL A   1      41.700  31.262  36.527  1.00  0.00     0.029 A 
ATOM     50  N   UNL A   1      41.203  30.712  34.431  1.00  0.00    -0.354 N 
ATOM     51  N   UNL A   1      41.451  29.149  31.965  1.00  0.00    -0.248 NA
ATOM     52  C   UNL A   1      42.492  27.472  30.719  1.00  0.00     0.031 C 
ATOM     53  C   UNL A   1      42.548  30.222  36.131  1.00  0.00     0.029 A 
ATOM     54  C   UNL A   1      42.222  29.862  34.833  1.00  0.00     0.049 A 
ATOM     55  H   UNL A   1      40.773  30.699  33.546  1.00  0.00     0.167 HD
ATOM     56  C   UNL A   1      42.419  28.535  32.749  1.00  0.00     0.074 A 
ATOM     57  C   UNL A   1      43.003  27.484  31.942  1.00  0.00     0.031 C 
ATOM     58  C   UNL A   1      42.791  28.818  34.021  1.00  0.00     0.037 A 
BRANCH  45  59
ATOM     59  C   UNL A   1      39.687  33.521  36.560  1.00  0.00     0.064 A 
ATOM     60  C   UNL A   1      40.338  34.762  36.646  1.00  0.00     0.173 A 
ATOM     61  C   UNL A   1      38.819  33.162  37.601  1.00  0.00     0.173 A 
ATOM     62  F   UNL A   1      41.187  35.147  35.681  1.00  0.00    -0.203 F 
ATOM     63  C   UNL A   1      40.149  35.595  37.745  1.00  0.00     0.198 A 
ATOM     64  C   UNL A   1      38.609  34.013  38.684  1.00  0.00     0.198 A 
ATOM     65  F   UNL A   1      38.166  31.991  37.566  1.00  0.00    -0.203 F 
ATOM     66  F   UNL A   1      40.819  36.753  37.828  1.00  0.00    -0.200 F 
ATOM     67  C   UNL A   1      39.280  35.225  38.759  1.00  0.00     0.200 A 
ATOM     68  F   UNL A   1      37.758  33.659  39.658  1.00  0.00    -0.200 F 
ATOM     69  F   UNL A   1      39.093  36.031  39.813  1.00  0.00    -0.200 F 
ENDBRANCH  45  59
BRANCH  46  70
ATOM     70  C   UNL A   1      40.802  27.920  28.375  1.00  0.00     0.064 A 
ATOM     71  C   UNL A   1      40.141  26.690  28.241  1.00  0.00     0.173 A 
ATOM     72  C   UNL A   1      41.636  28.330  27.325  1.00  0.00     0.173 A 
ATOM     73  F   UNL A   1      39.348  26.247  29.227  1.00  0.00    -0.203 F 
ATOM     74  C   UNL A   1      40.327  25.892  27.114  1.00  0.00     0.198 A 
ATOM     75  C   UNL A   1      41.798  27.545  26.186  1.00  0.00     0.198 A 
ATOM     76  F   UNL A   1      42.285  29.502  27.402  1.00  0.00    -0.203 F 
ATOM     77  F   UNL A   1      39.720  24.700  27.034  1.00  0.00    -0.200 F 
ATOM     78  C   UNL A   1      41.151  26.322  26.085  1.00  0.00     0.200 A 
ATOM     79  F   UNL A   1      42.584  27.970  25.188  1.00  0.00    -0.200 F 
ATOM     80  F   UNL A   1      41.327  25.556  25.001  1.00  0.00    -0.200 F 
ENDBRANCH  46  70
BRANCH  58  81
ATOM     81  C   UNL A   1      43.858  27.952  34.629  1.00  0.00     0.064 A 
ATOM     82  C   UNL A   1      45.216  28.300  34.565  1.00  0.00     0.173 A 
ATOM     83  C   UNL A   1      43.516  26.766  35.296  1.00  0.00     0.173 A 
ATOM     84  F   UNL A   1      45.597  29.417  33.926  1.00  0.00    -0.203 F 
ATOM     85  C   UNL A   1      46.193  27.473  35.112  1.00  0.00     0.198 A 
ATOM     86  C   UNL A   1      44.493  25.959  35.870  1.00  0.00     0.198 A 
ATOM     87  F   UNL A   1      42.231  26.391  35.392  1.00  0.00    -0.203 F 
ATOM     88  F   UNL A   1      47.488  27.796  34.986  1.00  0.00    -0.200 F 
ATOM     89  C   UNL A   1      45.831  26.307  35.769  1.00  0.00     0.200 A 
ATOM     90  F   UNL A   1      44.140  24.838  36.516  1.00  0.00    -0.200 F 
ATOM     91  F   UNL A   1      46.773  25.513  36.295  1.00  0.00    -0.200 F 
ENDBRANCH  58  81
ENDBRANCH  32  33
ENDBRANCH  24  27
ENDBRANCH  22  23
ENDBRANCH  21  22
ENDBRANCH   1  21
TORSDOF 14
ENDMDL
