MODEL 1
REMARK VINA RESULT:     -12.3      0.000      0.000
REMARK SMILES O=C(NCCCCNC(=O)c1sccc1S(=O)(=O)Nc1ccccc1N1CCCCC1)c1ccc(-c2c3nc(c(-c4c(F)c(F)c(F)c(F)c4F)c4ccc([nH]4)c(-c4c(F)c(F)c(F)c(F)c4F)c4nc(c(-c5c(F)c(F)c(F)c(F)c5F)c5ccc2[nH]5)C=C4)C=C3)cc1
REMARK SMILES IDX 6 1 5 2 4 3 3 4 1 5 2 6 32 8 33 9 94 10 34 11 93 12 35 13
REMARK SMILES IDX 36 14 37 15 87 16 38 17 92 18 86 19 88 20 39 21 91 22 85 23
REMARK SMILES IDX 84 24 40 26 72 27 52 28 71 29 53 30 56 31 70 32 89 33 54 34
REMARK SMILES IDX 55 35 69 37 90 38 57 39 41 40 42 41 50 42 43 43 44 44 48 45
REMARK SMILES IDX 51 46 45 47 46 48 49 49 47 50 73 51 74 52 82 53 75 54 76 55
REMARK SMILES IDX 80 56 83 57 77 58 78 59 81 60 79 61 58 62 59 63 67 64 60 65
REMARK SMILES IDX 61 66 65 67 68 68 62 69 63 70 66 71 64 72 7 73 8 74 9 75
REMARK SMILES IDX 10 77 11 78 12 79 15 80 13 81 14 82 16 83 17 84 18 85 19 86
REMARK SMILES IDX 20 88 21 89 25 90 22 91 24 92 23 93 26 94 27 95 31 96 28 97
REMARK SMILES IDX 30 98 29 99
REMARK H PARENT 3 7 88 25 56 36 8 76 19 87
REMARK Flexibility Score: inf
ROOT
ATOM      1  C   UNL A   1      36.757  19.951  24.920  1.00  0.00     0.023 C 
ENDROOT
BRANCH   1   2
ATOM      2  C   UNL A   1      38.277  20.014  24.736  1.00  0.00     0.023 C 
BRANCH   2   3
ATOM      3  C   UNL A   1      39.084  20.034  26.032  1.00  0.00     0.116 C 
BRANCH   3   4
ATOM      4  N   UNL A   1      40.237  19.151  25.998  1.00  0.00    -0.352 N 
ATOM      5  O   UNL A   1      42.420  18.596  25.822  1.00  0.00    -0.269 OA
ATOM      6  C   UNL A   1      41.575  19.454  26.053  1.00  0.00     0.251 C 
ATOM      7  H   UNL A   1      40.028  18.192  25.923  1.00  0.00     0.163 HD
BRANCH   6   8
ATOM      8  C   UNL A   1      41.998  20.830  26.378  1.00  0.00     0.039 A 
ATOM      9  C   UNL A   1      42.101  21.797  25.375  1.00  0.00     0.014 A 
ATOM     10  C   UNL A   1      42.277  21.162  27.707  1.00  0.00     0.014 A 
ATOM     11  C   UNL A   1      42.621  23.050  25.675  1.00  0.00     0.010 A 
ATOM     12  C   UNL A   1      42.715  22.450  28.021  1.00  0.00     0.010 A 
ATOM     13  C   UNL A   1      42.918  23.395  27.003  1.00  0.00    -0.014 A 
BRANCH  13  14
ATOM     14  C   UNL A   1      43.372  24.773  27.315  1.00  0.00     0.031 A 
ATOM     15  C   UNL A   1      42.435  25.782  27.916  1.00  0.00     0.074 A 
ATOM     16  C   UNL A   1      44.651  25.103  27.058  1.00  0.00     0.049 A 
ATOM     17  N   UNL A   1      42.664  27.032  28.235  1.00  0.00    -0.248 NA
ATOM     18  C   UNL A   1      41.061  25.336  28.192  1.00  0.00     0.031 C 
ATOM     19  C   UNL A   1      45.646  24.207  26.462  1.00  0.00     0.029 A 
ATOM     20  N   UNL A   1      45.340  26.269  27.269  1.00  0.00    -0.354 N 
ATOM     21  C   UNL A   1      41.464  27.527  28.726  1.00  0.00     0.074 A 
ATOM     22  C   UNL A   1      40.500  26.449  28.647  1.00  0.00     0.031 C 
ATOM     23  C   UNL A   1      46.824  24.843  26.391  1.00  0.00     0.029 A 
ATOM     24  C   UNL A   1      46.654  26.208  26.875  1.00  0.00     0.049 A 
ATOM     25  H   UNL A   1      44.932  27.073  27.664  1.00  0.00     0.167 HD
ATOM     26  C   UNL A   1      41.196  28.767  29.202  1.00  0.00     0.037 A 
ATOM     27  C   UNL A   1      47.612  27.153  26.881  1.00  0.00     0.037 A 
ATOM     28  C   UNL A   1      42.167  29.828  29.294  1.00  0.00     0.049 A 
ATOM     29  C   UNL A   1      47.280  28.521  27.400  1.00  0.00     0.074 A 
ATOM     30  C   UNL A   1      42.003  31.107  29.798  1.00  0.00     0.029 A 
ATOM     31  N   UNL A   1      43.485  29.733  28.869  1.00  0.00    -0.354 N 
ATOM     32  N   UNL A   1      46.149  28.967  27.889  1.00  0.00    -0.248 NA
ATOM     33  C   UNL A   1      48.356  29.519  27.363  1.00  0.00     0.031 C 
ATOM     34  C   UNL A   1      43.209  31.800  29.640  1.00  0.00     0.029 A 
ATOM     35  C   UNL A   1      44.139  30.937  29.081  1.00  0.00     0.049 A 
ATOM     36  H   UNL A   1      43.895  28.929  28.476  1.00  0.00     0.167 HD
ATOM     37  C   UNL A   1      46.379  30.290  28.233  1.00  0.00     0.074 A 
ATOM     38  C   UNL A   1      47.765  30.569  27.916  1.00  0.00     0.031 C 
ATOM     39  C   UNL A   1      45.519  31.194  28.760  1.00  0.00     0.037 A 
BRANCH  26  40
ATOM     40  C   UNL A   1      39.795  29.058  29.652  1.00  0.00     0.064 A 
ATOM     41  C   UNL A   1      38.803  29.478  28.753  1.00  0.00     0.173 A 
ATOM     42  C   UNL A   1      39.422  28.854  30.990  1.00  0.00     0.173 A 
ATOM     43  F   UNL A   1      39.110  29.699  27.466  1.00  0.00    -0.203 F 
ATOM     44  C   UNL A   1      37.496  29.698  29.180  1.00  0.00     0.198 A 
ATOM     45  C   UNL A   1      38.108  29.050  31.408  1.00  0.00     0.198 A 
ATOM     46  F   UNL A   1      40.330  28.447  31.890  1.00  0.00    -0.203 F 
ATOM     47  F   UNL A   1      36.572  30.131  28.309  1.00  0.00    -0.200 F 
ATOM     48  C   UNL A   1      37.147  29.476  30.504  1.00  0.00     0.200 A 
ATOM     49  F   UNL A   1      37.771  28.824  32.685  1.00  0.00    -0.200 F 
ATOM     50  F   UNL A   1      35.885  29.676  30.910  1.00  0.00    -0.200 F 
ENDBRANCH  26  40
BRANCH  27  51
ATOM     51  C   UNL A   1      48.968  26.828  26.372  1.00  0.00     0.064 A 
ATOM     52  C   UNL A   1      49.939  26.267  27.213  1.00  0.00     0.173 A 
ATOM     53  C   UNL A   1      49.316  27.056  25.032  1.00  0.00     0.173 A 
ATOM     54  F   UNL A   1      49.658  26.048  28.505  1.00  0.00    -0.203 F 
ATOM     55  C   UNL A   1      51.211  25.960  26.735  1.00  0.00     0.198 A 
ATOM     56  C   UNL A   1      50.577  26.720  24.549  1.00  0.00     0.198 A 
ATOM     57  F   UNL A   1      48.418  27.584  24.187  1.00  0.00    -0.203 F 
ATOM     58  F   UNL A   1      52.133  25.461  27.568  1.00  0.00    -0.200 F 
ATOM     59  C   UNL A   1      51.526  26.179  25.402  1.00  0.00     0.200 A 
ATOM     60  F   UNL A   1      50.872  26.918  23.256  1.00  0.00    -0.200 F 
ATOM     61  F   UNL A   1      52.747  25.875  24.942  1.00  0.00    -0.200 F 
ENDBRANCH  27  51
BRANCH  39  62
ATOM     62  C   UNL A   1      46.064  32.560  29.053  1.00  0.00     0.064 A 
ATOM     63  C   UNL A   1      45.997  33.595  28.107  1.00  0.00     0.173 A 
ATOM     64  C   UNL A   1      46.637  32.844  30.301  1.00  0.00     0.173 A 
ATOM     65  F   UNL A   1      45.474  33.366  26.893  1.00  0.00    -0.203 F 
ATOM     66  C   UNL A   1      46.508  34.857  28.393  1.00  0.00     0.198 A 
ATOM     67  C   UNL A   1      47.122  34.116  30.592  1.00  0.00     0.198 A 
ATOM     68  F   UNL A   1      46.720  31.889  31.239  1.00  0.00    -0.203 F 
ATOM     69  F   UNL A   1      46.478  35.816  27.458  1.00  0.00    -0.200 F 
ATOM     70  C   UNL A   1      47.064  35.118  29.636  1.00  0.00     0.200 A 
ATOM     71  F   UNL A   1      47.650  34.369  31.799  1.00  0.00    -0.200 F 
ATOM     72  F   UNL A   1      47.554  36.335  29.911  1.00  0.00    -0.200 F 
ENDBRANCH  39  62
ENDBRANCH  13  14
ENDBRANCH   6   8
ENDBRANCH   3   4
ENDBRANCH   2   3
ENDBRANCH   1   2
BRANCH   1  73
ATOM     73  C   UNL A   1      36.126  21.274  25.337  1.00  0.00     0.116 C 
BRANCH  73  74
ATOM     74  N   UNL A   1      35.315  21.154  26.524  1.00  0.00    -0.351 N 
ATOM     75  C   UNL A   1      34.013  21.532  26.711  1.00  0.00     0.262 C 
ATOM     76  H   UNL A   1      35.758  20.749  27.304  1.00  0.00     0.163 HD
ATOM     77  O   UNL A   1      33.618  21.581  27.875  1.00  0.00    -0.268 OA
BRANCH  75  78
ATOM     78  C   UNL A   1      33.205  21.951  25.587  1.00  0.00     0.112 A 
ATOM     79  S   UNL A   1      33.064  20.757  24.337  1.00  0.00    -0.137 S 
ATOM     80  C   UNL A   1      32.555  23.125  25.236  1.00  0.00     0.111 A 
ATOM     81  C   UNL A   1      32.098  21.763  23.368  1.00  0.00     0.067 A 
ATOM     82  C   UNL A   1      31.892  22.985  23.959  1.00  0.00     0.035 A 
BRANCH  80  83
ATOM     83  S   UNL A   1      32.365  24.607  26.122  1.00  0.00     0.263 S 
ATOM     84  O   UNL A   1      31.724  24.186  27.353  1.00  0.00    -0.201 OA
ATOM     85  O   UNL A   1      33.721  25.112  26.214  1.00  0.00    -0.201 OA
BRANCH  83  86
ATOM     86  N   UNL A   1      31.439  25.878  25.563  1.00  0.00    -0.277 N 
ATOM     87  H   UNL A   1      30.626  25.665  25.050  1.00  0.00     0.180 HD
BRANCH  86  88
ATOM     88  C   UNL A   1      31.749  27.251  25.778  1.00  0.00     0.072 A 
ATOM     89  C   UNL A   1      31.466  27.783  27.045  1.00  0.00     0.029 A 
ATOM     90  C   UNL A   1      32.263  28.066  24.747  1.00  0.00     0.061 A 
ATOM     91  C   UNL A   1      31.744  29.117  27.333  1.00  0.00     0.002 A 
ATOM     92  C   UNL A   1      32.545  29.404  25.072  1.00  0.00     0.028 A 
ATOM     93  C   UNL A   1      32.297  29.924  26.348  1.00  0.00     0.002 A 
BRANCH  90  94
ATOM     94  N   UNL A   1      32.432  27.627  23.444  1.00  0.00    -0.370 N 
ATOM     95  C   UNL A   1      31.320  27.626  22.498  1.00  0.00     0.116 C 
ATOM     96  C   UNL A   1      33.746  27.183  22.980  1.00  0.00     0.116 C 
ATOM     97  C   UNL A   1      31.213  26.282  21.788  1.00  0.00     0.021 C 
ATOM     98  C   UNL A   1      33.624  25.830  22.283  1.00  0.00     0.021 C 
ATOM     99  C   UNL A   1      32.556  25.870  21.193  1.00  0.00     0.004 C 
ENDBRANCH  90  94
ENDBRANCH  86  88
ENDBRANCH  83  86
ENDBRANCH  80  83
ENDBRANCH  75  78
ENDBRANCH  73  74
ENDBRANCH   1  73
TORSDOF 15
ENDMDL
MODEL 2
REMARK VINA RESULT:     -12.3      0.446      7.228
REMARK SMILES O=C(NCCCCNC(=O)c1sccc1S(=O)(=O)Nc1ccccc1N1CCCCC1)c1ccc(-c2c3nc(c(-c4c(F)c(F)c(F)c(F)c4F)c4ccc([nH]4)c(-c4c(F)c(F)c(F)c(F)c4F)c4nc(c(-c5c(F)c(F)c(F)c(F)c5F)c5ccc2[nH]5)C=C4)C=C3)cc1
REMARK SMILES IDX 6 1 5 2 4 3 3 4 1 5 2 6 32 8 33 9 94 10 34 11 93 12 35 13
REMARK SMILES IDX 36 14 37 15 87 16 38 17 92 18 86 19 88 20 39 21 91 22 85 23
REMARK SMILES IDX 84 24 40 26 72 27 52 28 71 29 53 30 56 31 70 32 89 33 54 34
REMARK SMILES IDX 55 35 69 37 90 38 57 39 41 40 42 41 50 42 43 43 44 44 48 45
REMARK SMILES IDX 51 46 45 47 46 48 49 49 47 50 73 51 74 52 82 53 75 54 76 55
REMARK SMILES IDX 80 56 83 57 77 58 78 59 81 60 79 61 58 62 59 63 67 64 60 65
REMARK SMILES IDX 61 66 65 67 68 68 62 69 63 70 66 71 64 72 7 73 8 74 9 75
REMARK SMILES IDX 10 77 11 78 12 79 15 80 13 81 14 82 16 83 17 84 18 85 19 86
REMARK SMILES IDX 20 88 21 89 25 90 22 91 24 92 23 93 26 94 27 95 31 96 28 97
REMARK SMILES IDX 30 98 29 99
REMARK H PARENT 3 7 88 25 56 36 8 76 19 87
REMARK Flexibility Score: inf
ROOT
ATOM      1  C   UNL A   1      36.764  20.966  24.436  1.00  0.00     0.023 C 
ENDROOT
BRANCH   1   2
ATOM      2  C   UNL A   1      37.699  19.903  25.023  1.00  0.00     0.023 C 
BRANCH   2   3
ATOM      3  C   UNL A   1      38.896  20.452  25.796  1.00  0.00     0.116 C 
BRANCH   3   4
ATOM      4  N   UNL A   1      39.964  19.480  25.955  1.00  0.00    -0.352 N 
ATOM      5  O   UNL A   1      42.095  18.746  26.100  1.00  0.00    -0.269 OA
ATOM      6  C   UNL A   1      41.304  19.679  26.178  1.00  0.00     0.251 C 
ATOM      7  H   UNL A   1      39.686  18.538  25.893  1.00  0.00     0.163 HD
BRANCH   6   8
ATOM      8  C   UNL A   1      41.797  21.033  26.499  1.00  0.00     0.039 A 
ATOM      9  C   UNL A   1      42.062  21.397  27.821  1.00  0.00     0.014 A 
ATOM     10  C   UNL A   1      42.016  21.942  25.460  1.00  0.00     0.014 A 
ATOM     11  C   UNL A   1      42.404  22.710  28.119  1.00  0.00     0.010 A 
ATOM     12  C   UNL A   1      42.447  23.238  25.754  1.00  0.00     0.010 A 
ATOM     13  C   UNL A   1      42.616  23.640  27.088  1.00  0.00    -0.014 A 
BRANCH  13  14
ATOM     14  C   UNL A   1      43.083  25.008  27.424  1.00  0.00     0.031 A 
ATOM     15  C   UNL A   1      44.493  25.439  27.136  1.00  0.00     0.074 A 
ATOM     16  C   UNL A   1      42.210  25.866  27.984  1.00  0.00     0.049 A 
ATOM     17  N   UNL A   1      45.068  26.590  27.380  1.00  0.00    -0.248 NA
ATOM     18  C   UNL A   1      45.376  24.452  26.497  1.00  0.00     0.031 C 
ATOM     19  C   UNL A   1      40.819  25.551  28.321  1.00  0.00     0.029 A 
ATOM     20  N   UNL A   1      42.354  27.176  28.363  1.00  0.00    -0.354 N 
ATOM     21  C   UNL A   1      46.381  26.460  26.947  1.00  0.00     0.074 A 
ATOM     22  C   UNL A   1      46.526  25.112  26.442  1.00  0.00     0.031 C 
ATOM     23  C   UNL A   1      40.228  26.645  28.819  1.00  0.00     0.029 A 
ATOM     24  C   UNL A   1      41.211  27.719  28.898  1.00  0.00     0.049 A 
ATOM     25  H   UNL A   1      43.194  27.678  28.262  1.00  0.00     0.167 HD
ATOM     26  C   UNL A   1      47.369  27.387  26.968  1.00  0.00     0.037 A 
ATOM     27  C   UNL A   1      40.986  28.940  29.415  1.00  0.00     0.037 A 
ATOM     28  C   UNL A   1      47.210  28.733  27.457  1.00  0.00     0.049 A 
ATOM     29  C   UNL A   1      42.106  29.938  29.439  1.00  0.00     0.074 A 
ATOM     30  C   UNL A   1      48.142  29.757  27.484  1.00  0.00     0.029 A 
ATOM     31  N   UNL A   1      46.041  29.242  28.006  1.00  0.00    -0.354 N 
ATOM     32  N   UNL A   1      43.334  29.812  28.999  1.00  0.00    -0.248 NA
ATOM     33  C   UNL A   1      41.810  31.247  30.035  1.00  0.00     0.031 C 
ATOM     34  C   UNL A   1      47.550  30.873  28.088  1.00  0.00     0.029 A 
ATOM     35  C   UNL A   1      46.236  30.559  28.393  1.00  0.00     0.049 A 
ATOM     36  H   UNL A   1      45.200  28.742  28.106  1.00  0.00     0.167 HD
ATOM     37  C   UNL A   1      43.954  31.027  29.249  1.00  0.00     0.074 A 
ATOM     38  C   UNL A   1      42.959  31.886  29.860  1.00  0.00     0.031 C 
ATOM     39  C   UNL A   1      45.233  31.397  28.999  1.00  0.00     0.037 A 
BRANCH  26  40
ATOM     40  C   UNL A   1      48.722  26.980  26.461  1.00  0.00     0.064 A 
ATOM     41  C   UNL A   1      49.684  26.406  27.304  1.00  0.00     0.173 A 
ATOM     42  C   UNL A   1      49.037  27.109  25.099  1.00  0.00     0.173 A 
ATOM     43  F   UNL A   1      49.437  26.271  28.616  1.00  0.00    -0.203 F 
ATOM     44  C   UNL A   1      50.917  25.990  26.806  1.00  0.00     0.198 A 
ATOM     45  C   UNL A   1      50.260  26.670  24.600  1.00  0.00     0.198 A 
ATOM     46  F   UNL A   1      48.150  27.646  24.248  1.00  0.00    -0.203 F 
ATOM     47  F   UNL A   1      51.834  25.474  27.637  1.00  0.00    -0.200 F 
ATOM     48  C   UNL A   1      51.201  26.114  25.454  1.00  0.00     0.200 A 
ATOM     49  F   UNL A   1      50.528  26.779  23.291  1.00  0.00    -0.200 F 
ATOM     50  F   UNL A   1      52.383  25.703  24.975  1.00  0.00    -0.200 F 
ENDBRANCH  26  40
BRANCH  27  51
ATOM     51  C   UNL A   1      39.644  29.273  29.956  1.00  0.00     0.064 A 
ATOM     52  C   UNL A   1      38.636  29.780  29.124  1.00  0.00     0.173 A 
ATOM     53  C   UNL A   1      39.336  29.076  31.310  1.00  0.00     0.173 A 
ATOM     54  F   UNL A   1      38.890  30.003  27.826  1.00  0.00    -0.203 F 
ATOM     55  C   UNL A   1      37.377  30.090  29.630  1.00  0.00     0.198 A 
ATOM     56  C   UNL A   1      38.067  29.357  31.808  1.00  0.00     0.198 A 
ATOM     57  F   UNL A   1      40.264  28.585  32.145  1.00  0.00    -0.203 F 
ATOM     58  F   UNL A   1      36.443  30.611  28.822  1.00  0.00    -0.200 F 
ATOM     59  C   UNL A   1      37.090  29.871  30.970  1.00  0.00     0.200 A 
ATOM     60  F   UNL A   1      37.790  29.127  33.099  1.00  0.00    -0.200 F 
ATOM     61  F   UNL A   1      35.875  30.161  31.453  1.00  0.00    -0.200 F 
ENDBRANCH  27  51
BRANCH  39  62
ATOM     62  C   UNL A   1      45.618  32.801  29.361  1.00  0.00     0.064 A 
ATOM     63  C   UNL A   1      45.423  33.868  28.471  1.00  0.00     0.173 A 
ATOM     64  C   UNL A   1      46.165  33.084  30.621  1.00  0.00     0.173 A 
ATOM     65  F   UNL A   1      44.920  33.643  27.248  1.00  0.00    -0.203 F 
ATOM     66  C   UNL A   1      45.787  35.164  28.821  1.00  0.00     0.198 A 
ATOM     67  C   UNL A   1      46.501  34.387  30.977  1.00  0.00     0.198 A 
ATOM     68  F   UNL A   1      46.366  32.099  31.508  1.00  0.00    -0.203 F 
ATOM     69  F   UNL A   1      45.638  36.161  27.938  1.00  0.00    -0.200 F 
ATOM     70  C   UNL A   1      46.319  35.424  30.075  1.00  0.00     0.200 A 
ATOM     71  F   UNL A   1      47.007  34.637  32.194  1.00  0.00    -0.200 F 
ATOM     72  F   UNL A   1      46.666  36.674  30.411  1.00  0.00    -0.200 F 
ENDBRANCH  39  62
ENDBRANCH  13  14
ENDBRANCH   6   8
ENDBRANCH   3   4
ENDBRANCH   2   3
ENDBRANCH   1   2
BRANCH   1  73
ATOM     73  C   UNL A   1      36.311  22.017  25.441  1.00  0.00     0.116 C 
BRANCH  73  74
ATOM     74  N   UNL A   1      35.490  21.465  26.492  1.00  0.00    -0.351 N 
ATOM     75  C   UNL A   1      34.126  21.473  26.605  1.00  0.00     0.262 C 
ATOM     76  H   UNL A   1      35.977  21.025  27.227  1.00  0.00     0.163 HD
ATOM     77  O   UNL A   1      33.666  21.185  27.709  1.00  0.00    -0.268 OA
BRANCH  75  78
ATOM     78  C   UNL A   1      33.304  21.910  25.498  1.00  0.00     0.112 A 
ATOM     79  S   UNL A   1      33.179  20.751  24.214  1.00  0.00    -0.137 S 
ATOM     80  C   UNL A   1      32.629  23.081  25.186  1.00  0.00     0.111 A 
ATOM     81  C   UNL A   1      32.188  21.766  23.281  1.00  0.00     0.067 A 
ATOM     82  C   UNL A   1      31.962  22.966  23.909  1.00  0.00     0.035 A 
BRANCH  80  83
ATOM     83  S   UNL A   1      32.415  24.532  26.117  1.00  0.00     0.263 S 
ATOM     84  O   UNL A   1      31.802  24.060  27.343  1.00  0.00    -0.201 OA
ATOM     85  O   UNL A   1      33.760  25.067  26.206  1.00  0.00    -0.201 OA
BRANCH  83  86
ATOM     86  N   UNL A   1      31.451  25.795  25.607  1.00  0.00    -0.277 N 
ATOM     87  H   UNL A   1      30.625  25.575  25.118  1.00  0.00     0.180 HD
BRANCH  86  88
ATOM     88  C   UNL A   1      31.746  27.169  25.831  1.00  0.00     0.072 A 
ATOM     89  C   UNL A   1      31.459  27.690  27.102  1.00  0.00     0.029 A 
ATOM     90  C   UNL A   1      32.250  27.997  24.805  1.00  0.00     0.061 A 
ATOM     91  C   UNL A   1      31.723  29.025  27.398  1.00  0.00     0.002 A 
ATOM     92  C   UNL A   1      32.518  29.335  25.138  1.00  0.00     0.028 A 
ATOM     93  C   UNL A   1      32.265  29.844  26.418  1.00  0.00     0.002 A 
BRANCH  90  94
ATOM     94  N   UNL A   1      32.422  27.568  23.498  1.00  0.00    -0.370 N 
ATOM     95  C   UNL A   1      31.302  27.540  22.560  1.00  0.00     0.116 C 
ATOM     96  C   UNL A   1      33.744  27.164  23.023  1.00  0.00     0.116 C 
ATOM     97  C   UNL A   1      31.229  26.197  21.845  1.00  0.00     0.021 C 
ATOM     98  C   UNL A   1      33.655  25.811  22.320  1.00  0.00     0.021 C 
ATOM     99  C   UNL A   1      32.579  25.826  21.239  1.00  0.00     0.004 C 
ENDBRANCH  90  94
ENDBRANCH  86  88
ENDBRANCH  83  86
ENDBRANCH  80  83
ENDBRANCH  75  78
ENDBRANCH  73  74
ENDBRANCH   1  73
TORSDOF 15
ENDMDL
MODEL 3
REMARK VINA RESULT:     -12.2      4.867      9.195
REMARK SMILES O=C(NCCCCNC(=O)c1sccc1S(=O)(=O)Nc1ccccc1N1CCCCC1)c1ccc(-c2c3nc(c(-c4c(F)c(F)c(F)c(F)c4F)c4ccc([nH]4)c(-c4c(F)c(F)c(F)c(F)c4F)c4nc(c(-c5c(F)c(F)c(F)c(F)c5F)c5ccc2[nH]5)C=C4)C=C3)cc1
REMARK SMILES IDX 6 1 5 2 4 3 3 4 1 5 2 6 32 8 33 9 94 10 34 11 93 12 35 13
REMARK SMILES IDX 36 14 37 15 87 16 38 17 92 18 86 19 88 20 39 21 91 22 85 23
REMARK SMILES IDX 84 24 40 26 72 27 52 28 71 29 53 30 56 31 70 32 89 33 54 34
REMARK SMILES IDX 55 35 69 37 90 38 57 39 41 40 42 41 50 42 43 43 44 44 48 45
REMARK SMILES IDX 51 46 45 47 46 48 49 49 47 50 73 51 74 52 82 53 75 54 76 55
REMARK SMILES IDX 80 56 83 57 77 58 78 59 81 60 79 61 58 62 59 63 67 64 60 65
REMARK SMILES IDX 61 66 65 67 68 68 62 69 63 70 66 71 64 72 7 73 8 74 9 75
REMARK SMILES IDX 10 77 11 78 12 79 15 80 13 81 14 82 16 83 17 84 18 85 19 86
REMARK SMILES IDX 20 88 21 89 25 90 22 91 24 92 23 93 26 94 27 95 31 96 28 97
REMARK SMILES IDX 30 98 29 99
REMARK H PARENT 3 7 88 25 56 36 8 76 19 87
REMARK Flexibility Score: inf
ROOT
ATOM      1  C   UNL A   1      31.412  30.101  26.456  1.00  0.00     0.023 C 
ENDROOT
BRANCH   1   2
ATOM      2  C   UNL A   1      31.487  31.631  26.399  1.00  0.00     0.023 C 
BRANCH   2   3
ATOM      3  C   UNL A   1      32.753  32.238  26.998  1.00  0.00     0.116 C 
BRANCH   3   4
ATOM      4  N   UNL A   1      32.579  33.618  27.415  1.00  0.00    -0.352 N 
ATOM      5  O   UNL A   1      32.814  35.428  28.747  1.00  0.00    -0.269 OA
ATOM      6  C   UNL A   1      33.218  34.322  28.407  1.00  0.00     0.251 C 
ATOM      7  H   UNL A   1      31.903  34.126  26.912  1.00  0.00     0.163 HD
BRANCH   6   8
ATOM      8  C   UNL A   1      34.391  33.732  29.080  1.00  0.00     0.039 A 
ATOM      9  C   UNL A   1      35.681  34.168  28.770  1.00  0.00     0.014 A 
ATOM     10  C   UNL A   1      34.196  32.743  30.048  1.00  0.00     0.014 A 
ATOM     11  C   UNL A   1      36.780  33.517  29.318  1.00  0.00     0.010 A 
ATOM     12  C   UNL A   1      35.300  32.150  30.664  1.00  0.00     0.010 A 
ATOM     13  C   UNL A   1      36.601  32.513  30.282  1.00  0.00    -0.014 A 
BRANCH  13  14
ATOM     14  C   UNL A   1      37.789  31.905  30.931  1.00  0.00     0.031 A 
ATOM     15  C   UNL A   1      38.203  32.301  32.321  1.00  0.00     0.074 A 
ATOM     16  C   UNL A   1      38.488  30.976  30.253  1.00  0.00     0.049 A 
ATOM     17  N   UNL A   1      39.222  31.881  33.028  1.00  0.00    -0.248 NA
ATOM     18  C   UNL A   1      37.371  33.303  33.005  1.00  0.00     0.031 C 
ATOM     19  C   UNL A   1      38.185  30.524  28.893  1.00  0.00     0.029 A 
ATOM     20  N   UNL A   1      39.588  30.239  30.610  1.00  0.00    -0.354 N 
ATOM     21  C   UNL A   1      39.168  32.579  34.227  1.00  0.00     0.074 A 
ATOM     22  C   UNL A   1      38.027  33.466  34.147  1.00  0.00     0.031 C 
ATOM     23  C   UNL A   1      39.052  29.563  28.545  1.00  0.00     0.029 A 
ATOM     24  C   UNL A   1      40.009  29.375  29.629  1.00  0.00     0.049 A 
ATOM     25  H   UNL A   1      40.032  30.322  31.484  1.00  0.00     0.167 HD
ATOM     26  C   UNL A   1      39.996  32.481  35.296  1.00  0.00     0.037 A 
ATOM     27  C   UNL A   1      41.063  28.539  29.597  1.00  0.00     0.037 A 
ATOM     28  C   UNL A   1      41.119  31.582  35.373  1.00  0.00     0.049 A 
ATOM     29  C   UNL A   1      41.970  28.467  30.790  1.00  0.00     0.074 A 
ATOM     30  C   UNL A   1      41.994  31.382  36.427  1.00  0.00     0.029 A 
ATOM     31  N   UNL A   1      41.524  30.733  34.352  1.00  0.00    -0.354 N 
ATOM     32  N   UNL A   1      41.890  29.110  31.929  1.00  0.00    -0.248 NA
ATOM     33  C   UNL A   1      43.117  27.555  30.691  1.00  0.00     0.031 C 
ATOM     34  C   UNL A   1      42.953  30.444  36.030  1.00  0.00     0.029 A 
ATOM     35  C   UNL A   1      42.648  30.023  34.746  1.00  0.00     0.049 A 
ATOM     36  H   UNL A   1      41.079  30.648  33.479  1.00  0.00     0.167 HD
ATOM     37  C   UNL A   1      42.963  28.671  32.689  1.00  0.00     0.074 A 
ATOM     38  C   UNL A   1      43.669  27.690  31.889  1.00  0.00     0.031 C 
ATOM     39  C   UNL A   1      43.334  29.050  33.936  1.00  0.00     0.037 A 
BRANCH  26  40
ATOM     40  C   UNL A   1      39.732  33.377  36.470  1.00  0.00     0.064 A 
ATOM     41  C   UNL A   1      40.337  34.638  36.587  1.00  0.00     0.173 A 
ATOM     42  C   UNL A   1      38.814  32.997  37.461  1.00  0.00     0.173 A 
ATOM     43  F   UNL A   1      41.230  35.045  35.673  1.00  0.00    -0.203 F 
ATOM     44  C   UNL A   1      40.044  35.476  37.661  1.00  0.00     0.198 A 
ATOM     45  C   UNL A   1      38.504  33.847  38.520  1.00  0.00     0.198 A 
ATOM     46  F   UNL A   1      38.203  31.804  37.394  1.00  0.00    -0.203 F 
ATOM     47  F   UNL A   1      40.658  36.662  37.769  1.00  0.00    -0.200 F 
ATOM     48  C   UNL A   1      39.122  35.084  38.620  1.00  0.00     0.200 A 
ATOM     49  F   UNL A   1      37.605  33.472  39.439  1.00  0.00    -0.200 F 
ATOM     50  F   UNL A   1      38.833  35.897  39.646  1.00  0.00    -0.200 F 
ENDBRANCH  26  40
BRANCH  27  51
ATOM     51  C   UNL A   1      41.311  27.715  28.387  1.00  0.00     0.064 A 
ATOM     52  C   UNL A   1      40.644  26.498  28.194  1.00  0.00     0.173 A 
ATOM     53  C   UNL A   1      42.206  28.136  27.392  1.00  0.00     0.173 A 
ATOM     54  F   UNL A   1      39.792  26.047  29.126  1.00  0.00    -0.203 F 
ATOM     55  C   UNL A   1      40.874  25.726  27.058  1.00  0.00     0.198 A 
ATOM     56  C   UNL A   1      42.412  27.379  26.243  1.00  0.00     0.198 A 
ATOM     57  F   UNL A   1      42.863  29.298  27.528  1.00  0.00    -0.203 F 
ATOM     58  F   UNL A   1      40.253  24.548  26.915  1.00  0.00    -0.200 F 
ATOM     59  C   UNL A   1      41.752  26.171  26.080  1.00  0.00     0.200 A 
ATOM     60  F   UNL A   1      43.247  27.820  25.292  1.00  0.00    -0.200 F 
ATOM     61  F   UNL A   1      41.965  25.431  24.983  1.00  0.00    -0.200 F 
ENDBRANCH  27  51
BRANCH  39  62
ATOM     62  C   UNL A   1      44.541  28.378  34.519  1.00  0.00     0.064 A 
ATOM     63  C   UNL A   1      44.439  27.169  35.223  1.00  0.00     0.173 A 
ATOM     64  C   UNL A   1      45.817  28.939  34.353  1.00  0.00     0.173 A 
ATOM     65  F   UNL A   1      43.239  26.604  35.424  1.00  0.00    -0.203 F 
ATOM     66  C   UNL A   1      45.569  26.558  35.760  1.00  0.00     0.198 A 
ATOM     67  C   UNL A   1      46.946  28.310  34.868  1.00  0.00     0.198 A 
ATOM     68  F   UNL A   1      45.965  30.091  33.684  1.00  0.00    -0.203 F 
ATOM     69  F   UNL A   1      45.442  25.429  36.471  1.00  0.00    -0.200 F 
ATOM     70  C   UNL A   1      46.820  27.125  35.577  1.00  0.00     0.200 A 
ATOM     71  F   UNL A   1      48.157  28.855  34.680  1.00  0.00    -0.200 F 
ATOM     72  F   UNL A   1      47.907  26.534  36.093  1.00  0.00    -0.200 F 
ENDBRANCH  39  62
ENDBRANCH  13  14
ENDBRANCH   6   8
ENDBRANCH   3   4
ENDBRANCH   2   3
ENDBRANCH   1   2
BRANCH   1  73
ATOM     73  C   UNL A   1      32.658  29.399  25.931  1.00  0.00     0.116 C 
BRANCH  73  74
ATOM     74  N   UNL A   1      32.919  29.693  24.542  1.00  0.00    -0.351 N 
ATOM     75  C   UNL A   1      32.637  28.932  23.440  1.00  0.00     0.262 C 
ATOM     76  H   UNL A   1      33.361  30.555  24.364  1.00  0.00     0.163 HD
ATOM     77  O   UNL A   1      33.191  29.260  22.392  1.00  0.00    -0.268 OA
BRANCH  75  78
ATOM     78  C   UNL A   1      31.815  27.748  23.560  1.00  0.00     0.112 A 
ATOM     79  S   UNL A   1      30.128  28.081  23.780  1.00  0.00    -0.137 S 
ATOM     80  C   UNL A   1      32.068  26.385  23.605  1.00  0.00     0.111 A 
ATOM     81  C   UNL A   1      29.727  26.434  23.869  1.00  0.00     0.067 A 
ATOM     82  C   UNL A   1      30.840  25.638  23.752  1.00  0.00     0.035 A 
BRANCH  80  83
ATOM     83  S   UNL A   1      33.561  25.516  23.417  1.00  0.00     0.263 S 
ATOM     84  O   UNL A   1      34.035  25.936  22.112  1.00  0.00    -0.201 OA
ATOM     85  O   UNL A   1      34.332  25.933  24.572  1.00  0.00    -0.201 OA
BRANCH  83  86
ATOM     86  N   UNL A   1      33.636  23.849  23.391  1.00  0.00    -0.277 N 
ATOM     87  H   UNL A   1      32.916  23.363  22.929  1.00  0.00     0.180 HD
BRANCH  86  88
ATOM     88  C   UNL A   1      34.673  23.084  23.996  1.00  0.00     0.072 A 
ATOM     89  C   UNL A   1      35.878  22.960  23.287  1.00  0.00     0.029 A 
ATOM     90  C   UNL A   1      34.486  22.425  25.230  1.00  0.00     0.061 A 
ATOM     91  C   UNL A   1      36.940  22.230  23.816  1.00  0.00     0.002 A 
ATOM     92  C   UNL A   1      35.580  21.708  25.742  1.00  0.00     0.028 A 
ATOM     93  C   UNL A   1      36.794  21.615  25.052  1.00  0.00     0.002 A 
BRANCH  90  94
ATOM     94  N   UNL A   1      33.275  22.403  25.903  1.00  0.00    -0.370 N 
ATOM     95  C   UNL A   1      32.212  21.480  25.514  1.00  0.00     0.116 C 
ATOM     96  C   UNL A   1      33.050  23.288  27.045  1.00  0.00     0.116 C 
ATOM     97  C   UNL A   1      30.884  22.211  25.373  1.00  0.00     0.021 C 
ATOM     98  C   UNL A   1      31.721  24.023  26.882  1.00  0.00     0.021 C 
ATOM     99  C   UNL A   1      30.583  23.043  26.616  1.00  0.00     0.004 C 
ENDBRANCH  90  94
ENDBRANCH  86  88
ENDBRANCH  83  86
ENDBRANCH  80  83
ENDBRANCH  75  78
ENDBRANCH  73  74
ENDBRANCH   1  73
TORSDOF 15
ENDMDL
