MODEL 1
REMARK VINA RESULT:     -11.8      0.000      0.000
REMARK SMILES CCC(CC)(C(=O)NCCCCNC(=O)c1ccc(-c2c3nc(c(-c4c(F)c(F)c(F)c(F)c4F)c4ccc([nH]4)c(-c4c(F)c(F)c(F)c(F)c4F)c4nc(c(-c5c(F)c(F)c(F)c(F)c5F)c5ccc2[nH]5)C=C4)C=C3)cc1)n1nnnc1C[C@@H](C)C(C)(C)C
REMARK SMILES IDX 9 1 8 2 6 3 7 4 3 6 2 7 1 8 4 9 5 10 79 11 80 12 83 13 81 14
REMARK SMILES IDX 82 15 84 16 85 17 86 18 87 19 88 20 89 21 90 22 10 23 11 24
REMARK SMILES IDX 12 25 13 26 14 27 15 29 16 30 17 31 78 32 18 33 77 34 19 35
REMARK SMILES IDX 20 36 21 37 71 38 22 39 76 40 70 41 72 42 23 43 75 44 69 45
REMARK SMILES IDX 68 46 24 48 56 49 36 50 55 51 37 52 40 53 54 54 73 55 38 56
REMARK SMILES IDX 39 57 53 59 74 60 41 61 25 62 26 63 34 64 27 65 28 66 32 67
REMARK SMILES IDX 35 68 29 69 30 70 33 71 31 72 57 73 58 74 66 75 59 76 60 77
REMARK SMILES IDX 64 78 67 79 61 80 62 81 65 82 63 83 42 84 43 85 51 86 44 87
REMARK SMILES IDX 45 88 49 89 52 90 46 91 47 92 50 93 48 94
REMARK H PARENT 8 5 13 28 72 47 40 58
REMARK Flexibility Score: inf
ROOT
ATOM      1  C   UNL A   1      31.422  30.154  25.177  1.00  0.00     0.116 C 
ENDROOT
BRANCH   1   2
ATOM      2  N   UNL A   1      32.594  29.703  24.451  1.00  0.00    -0.354 N 
ATOM      3  C   UNL A   1      32.957  28.517  23.882  1.00  0.00     0.248 C 
ATOM      4  O   UNL A   1      34.153  28.473  23.570  1.00  0.00    -0.272 OA
ATOM      5  H   UNL A   1      33.276  30.405  24.347  1.00  0.00     0.163 HD
BRANCH   3   6
ATOM      6  C   UNL A   1      31.990  27.302  23.648  1.00  0.00     0.144 C 
BRANCH   6   7
ATOM      7  C   UNL A   1      31.353  26.900  25.001  1.00  0.00     0.037 C 
ATOM      8  C   UNL A   1      30.609  25.578  25.037  1.00  0.00     0.007 C 
ENDBRANCH   6   7
BRANCH   6   9
ATOM      9  C   UNL A   1      30.914  27.655  22.545  1.00  0.00     0.037 C 
ATOM     10  C   UNL A   1      29.560  28.247  22.901  1.00  0.00     0.007 C 
ENDBRANCH   6   9
BRANCH   6  11
ATOM     11  N   UNL A   1      32.825  26.207  23.039  1.00  0.00    -0.214 N 
ATOM     12  N   UNL A   1      32.651  26.000  21.701  1.00  0.00    -0.044 NA
ATOM     13  C   UNL A   1      33.783  25.297  23.471  1.00  0.00     0.152 A 
ATOM     14  N   UNL A   1      33.491  25.053  21.344  1.00  0.00    -0.024 NA
ATOM     15  N   UNL A   1      34.198  24.620  22.413  1.00  0.00    -0.114 NA
BRANCH  13  16
ATOM     16  C   UNL A   1      34.380  25.032  24.821  1.00  0.00     0.083 C 
BRANCH  16  17
ATOM     17  C   UNL A   1      35.066  23.635  24.939  1.00  0.00    -0.001 C 
ATOM     18  C   UNL A   1      36.447  23.781  25.613  1.00  0.00     0.008 C 
BRANCH  17  19
ATOM     19  C   UNL A   1      34.171  22.542  25.653  1.00  0.00    -0.035 C 
ATOM     20  C   UNL A   1      35.036  21.448  26.311  1.00  0.00     0.011 C 
ATOM     21  C   UNL A   1      33.344  23.172  26.800  1.00  0.00     0.011 C 
ATOM     22  C   UNL A   1      33.203  21.856  24.673  1.00  0.00     0.011 C 
ENDBRANCH  17  19
ENDBRANCH  16  17
ENDBRANCH  13  16
ENDBRANCH   6  11
ENDBRANCH   3   6
ENDBRANCH   1   2
BRANCH   1  23
ATOM     23  C   UNL A   1      31.780  30.620  26.587  1.00  0.00     0.023 C 
BRANCH  23  24
ATOM     24  C   UNL A   1      31.538  32.106  26.838  1.00  0.00     0.023 C 
BRANCH  24  25
ATOM     25  C   UNL A   1      32.728  32.865  27.415  1.00  0.00     0.116 C 
BRANCH  25  26
ATOM     26  N   UNL A   1      32.448  34.265  27.702  1.00  0.00    -0.352 N 
ATOM     27  C   UNL A   1      33.059  35.090  28.612  1.00  0.00     0.251 C 
ATOM     28  H   UNL A   1      31.724  34.672  27.174  1.00  0.00     0.163 HD
ATOM     29  O   UNL A   1      32.641  36.228  28.799  1.00  0.00    -0.269 OA
BRANCH  27  30
ATOM     30  C   UNL A   1      34.196  34.575  29.400  1.00  0.00     0.039 A 
ATOM     31  C   UNL A   1      33.941  34.006  30.649  1.00  0.00     0.014 A 
ATOM     32  C   UNL A   1      35.495  34.607  28.886  1.00  0.00     0.014 A 
ATOM     33  C   UNL A   1      34.985  33.408  31.354  1.00  0.00     0.010 A 
ATOM     34  C   UNL A   1      36.516  33.936  29.550  1.00  0.00     0.010 A 
ATOM     35  C   UNL A   1      36.270  33.333  30.792  1.00  0.00    -0.014 A 
BRANCH  35  36
ATOM     36  C   UNL A   1      37.359  32.616  31.500  1.00  0.00     0.031 A 
ATOM     37  C   UNL A   1      38.052  31.452  30.851  1.00  0.00     0.074 A 
ATOM     38  C   UNL A   1      37.701  33.002  32.745  1.00  0.00     0.049 A 
ATOM     39  N   UNL A   1      39.041  30.722  31.303  1.00  0.00    -0.248 NA
ATOM     40  C   UNL A   1      37.553  31.031  29.533  1.00  0.00     0.031 C 
ATOM     41  C   UNL A   1      37.047  34.065  33.510  1.00  0.00     0.029 A 
ATOM     42  N   UNL A   1      38.684  32.544  33.586  1.00  0.00    -0.354 N 
ATOM     43  C   UNL A   1      39.282  29.766  30.326  1.00  0.00     0.074 A 
ATOM     44  C   UNL A   1      38.290  29.958  29.292  1.00  0.00     0.031 C 
ATOM     45  C   UNL A   1      37.667  34.202  34.693  1.00  0.00     0.029 A 
ATOM     46  C   UNL A   1      38.746  33.221  34.780  1.00  0.00     0.049 A 
ATOM     47  H   UNL A   1      39.288  31.802  33.356  1.00  0.00     0.167 HD
ATOM     48  C   UNL A   1      40.266  28.837  30.277  1.00  0.00     0.037 A 
ATOM     49  C   UNL A   1      39.584  33.073  35.822  1.00  0.00     0.037 A 
ATOM     50  C   UNL A   1      41.258  28.656  31.304  1.00  0.00     0.049 A 
ATOM     51  C   UNL A   1      40.681  32.046  35.733  1.00  0.00     0.074 A 
ATOM     52  C   UNL A   1      42.318  27.767  31.337  1.00  0.00     0.029 A 
ATOM     53  N   UNL A   1      41.309  29.382  32.486  1.00  0.00    -0.354 N 
ATOM     54  N   UNL A   1      40.950  31.203  34.767  1.00  0.00    -0.248 NA
ATOM     55  C   UNL A   1      41.604  31.966  36.874  1.00  0.00     0.031 C 
ATOM     56  C   UNL A   1      42.988  27.930  32.554  1.00  0.00     0.029 A 
ATOM     57  C   UNL A   1      42.376  28.953  33.259  1.00  0.00     0.049 A 
ATOM     58  H   UNL A   1      40.680  30.096  32.738  1.00  0.00     0.167 HD
ATOM     59  C   UNL A   1      42.081  30.507  35.171  1.00  0.00     0.074 A 
ATOM     60  C   UNL A   1      42.466  31.050  36.458  1.00  0.00     0.031 C 
ATOM     61  C   UNL A   1      42.741  29.505  34.538  1.00  0.00     0.037 A 
BRANCH  48  62
ATOM     62  C   UNL A   1      40.328  27.961  29.059  1.00  0.00     0.064 A 
ATOM     63  C   UNL A   1      39.615  26.753  28.992  1.00  0.00     0.173 A 
ATOM     64  C   UNL A   1      41.075  28.344  27.936  1.00  0.00     0.173 A 
ATOM     65  F   UNL A   1      38.897  26.334  30.045  1.00  0.00    -0.203 F 
ATOM     66  C   UNL A   1      39.672  25.948  27.858  1.00  0.00     0.198 A 
ATOM     67  C   UNL A   1      41.104  27.551  26.791  1.00  0.00     0.198 A 
ATOM     68  F   UNL A   1      41.773  29.489  27.944  1.00  0.00    -0.203 F 
ATOM     69  F   UNL A   1      39.023  24.776  27.838  1.00  0.00    -0.200 F 
ATOM     70  C   UNL A   1      40.408  26.351  26.756  1.00  0.00     0.200 A 
ATOM     71  F   UNL A   1      41.807  27.947  25.721  1.00  0.00    -0.200 F 
ATOM     72  F   UNL A   1      40.456  25.579  25.660  1.00  0.00    -0.200 F 
ENDBRANCH  48  62
BRANCH  49  73
ATOM     73  C   UNL A   1      39.442  33.938  37.022  1.00  0.00     0.064 A 
ATOM     74  C   UNL A   1      38.699  33.518  38.134  1.00  0.00     0.173 A 
ATOM     75  C   UNL A   1      40.036  35.208  37.077  1.00  0.00     0.173 A 
ATOM     76  F   UNL A   1      38.098  32.319  38.123  1.00  0.00    -0.203 F 
ATOM     77  C   UNL A   1      38.530  34.345  39.243  1.00  0.00     0.198 A 
ATOM     78  C   UNL A   1      39.892  36.021  38.198  1.00  0.00     0.198 A 
ATOM     79  F   UNL A   1      40.766  35.654  36.044  1.00  0.00    -0.203 F 
ATOM     80  F   UNL A   1      37.770  33.940  40.269  1.00  0.00    -0.200 F 
ATOM     81  C   UNL A   1      39.131  35.595  39.276  1.00  0.00     0.200 A 
ATOM     82  F   UNL A   1      40.490  37.221  38.233  1.00  0.00    -0.200 F 
ATOM     83  F   UNL A   1      38.970  36.390  40.342  1.00  0.00    -0.200 F 
ENDBRANCH  49  73
BRANCH  61  84
ATOM     84  C   UNL A   1      43.956  28.950  35.224  1.00  0.00     0.064 A 
ATOM     85  C   UNL A   1      45.236  29.478  34.993  1.00  0.00     0.173 A 
ATOM     86  C   UNL A   1      43.838  27.886  36.130  1.00  0.00     0.173 A 
ATOM     87  F   UNL A   1      45.404  30.486  34.125  1.00  0.00    -0.203 F 
ATOM     88  C   UNL A   1      46.357  28.934  35.615  1.00  0.00     0.198 A 
ATOM     89  C   UNL A   1      44.956  27.368  36.776  1.00  0.00     0.198 A 
ATOM     90  F   UNL A   1      42.636  27.352  36.393  1.00  0.00    -0.203 F 
ATOM     91  F   UNL A   1      47.575  29.412  35.330  1.00  0.00    -0.200 F 
ATOM     92  C   UNL A   1      46.216  27.883  36.509  1.00  0.00     0.200 A 
ATOM     93  F   UNL A   1      44.816  26.362  37.650  1.00  0.00    -0.200 F 
ATOM     94  F   UNL A   1      47.295  27.360  37.105  1.00  0.00    -0.200 F 
ENDBRANCH  61  84
ENDBRANCH  35  36
ENDBRANCH  27  30
ENDBRANCH  25  26
ENDBRANCH  24  25
ENDBRANCH  23  24
ENDBRANCH   1  23
TORSDOF 17
ENDMDL
MODEL 2
REMARK VINA RESULT:     -11.7      0.838      7.328
REMARK SMILES CCC(CC)(C(=O)NCCCCNC(=O)c1ccc(-c2c3nc(c(-c4c(F)c(F)c(F)c(F)c4F)c4ccc([nH]4)c(-c4c(F)c(F)c(F)c(F)c4F)c4nc(c(-c5c(F)c(F)c(F)c(F)c5F)c5ccc2[nH]5)C=C4)C=C3)cc1)n1nnnc1C[C@@H](C)C(C)(C)C
REMARK SMILES IDX 9 1 8 2 6 3 7 4 3 6 2 7 1 8 4 9 5 10 79 11 80 12 83 13 81 14
REMARK SMILES IDX 82 15 84 16 85 17 86 18 87 19 88 20 89 21 90 22 10 23 11 24
REMARK SMILES IDX 12 25 13 26 14 27 15 29 16 30 17 31 78 32 18 33 77 34 19 35
REMARK SMILES IDX 20 36 21 37 71 38 22 39 76 40 70 41 72 42 23 43 75 44 69 45
REMARK SMILES IDX 68 46 24 48 56 49 36 50 55 51 37 52 40 53 54 54 73 55 38 56
REMARK SMILES IDX 39 57 53 59 74 60 41 61 25 62 26 63 34 64 27 65 28 66 32 67
REMARK SMILES IDX 35 68 29 69 30 70 33 71 31 72 57 73 58 74 66 75 59 76 60 77
REMARK SMILES IDX 64 78 67 79 61 80 62 81 65 82 63 83 42 84 43 85 51 86 44 87
REMARK SMILES IDX 45 88 49 89 52 90 46 91 47 92 50 93 48 94
REMARK H PARENT 8 5 13 28 72 47 40 58
REMARK Flexibility Score: inf
ROOT
ATOM      1  C   UNL A   1      31.334  30.030  25.155  1.00  0.00     0.116 C 
ENDROOT
BRANCH   1   2
ATOM      2  N   UNL A   1      32.465  29.576  24.368  1.00  0.00    -0.354 N 
ATOM      3  C   UNL A   1      32.842  28.366  23.863  1.00  0.00     0.248 C 
ATOM      4  O   UNL A   1      34.009  28.351  23.455  1.00  0.00    -0.272 OA
ATOM      5  H   UNL A   1      33.098  30.298  24.152  1.00  0.00     0.163 HD
BRANCH   3   6
ATOM      6  C   UNL A   1      31.923  27.093  23.807  1.00  0.00     0.144 C 
BRANCH   6   7
ATOM      7  C   UNL A   1      31.760  26.528  25.241  1.00  0.00     0.037 C 
ATOM      8  C   UNL A   1      32.886  26.813  26.217  1.00  0.00     0.007 C 
ENDBRANCH   6   7
BRANCH   6   9
ATOM      9  C   UNL A   1      30.541  27.436  23.123  1.00  0.00     0.037 C 
ATOM     10  C   UNL A   1      29.214  27.008  23.728  1.00  0.00     0.007 C 
ENDBRANCH   6   9
BRANCH   6  11
ATOM     11  N   UNL A   1      32.594  26.128  22.866  1.00  0.00    -0.214 N 
ATOM     12  N   UNL A   1      32.249  26.244  21.549  1.00  0.00    -0.044 NA
ATOM     13  C   UNL A   1      33.523  25.096  22.954  1.00  0.00     0.152 A 
ATOM     14  N   UNL A   1      32.966  25.365  20.883  1.00  0.00    -0.024 NA
ATOM     15  N   UNL A   1      33.757  24.663  21.726  1.00  0.00    -0.114 NA
BRANCH  13  16
ATOM     16  C   UNL A   1      34.250  24.498  24.120  1.00  0.00     0.083 C 
BRANCH  16  17
ATOM     17  C   UNL A   1      34.103  22.948  24.222  1.00  0.00    -0.001 C 
ATOM     18  C   UNL A   1      35.498  22.285  24.243  1.00  0.00     0.008 C 
BRANCH  17  19
ATOM     19  C   UNL A   1      33.202  22.470  25.432  1.00  0.00    -0.035 C 
ATOM     20  C   UNL A   1      33.322  20.949  25.657  1.00  0.00     0.011 C 
ATOM     21  C   UNL A   1      33.662  23.129  26.754  1.00  0.00     0.011 C 
ATOM     22  C   UNL A   1      31.715  22.801  25.212  1.00  0.00     0.011 C 
ENDBRANCH  17  19
ENDBRANCH  16  17
ENDBRANCH  13  16
ENDBRANCH   6  11
ENDBRANCH   3   6
ENDBRANCH   1   2
BRANCH   1  23
ATOM     23  C   UNL A   1      31.773  30.540  26.526  1.00  0.00     0.023 C 
BRANCH  23  24
ATOM     24  C   UNL A   1      31.494  32.022  26.764  1.00  0.00     0.023 C 
BRANCH  24  25
ATOM     25  C   UNL A   1      32.691  32.834  27.245  1.00  0.00     0.116 C 
BRANCH  25  26
ATOM     26  N   UNL A   1      32.354  34.189  27.659  1.00  0.00    -0.352 N 
ATOM     27  C   UNL A   1      32.969  34.973  28.602  1.00  0.00     0.251 C 
ATOM     28  H   UNL A   1      31.581  34.595  27.203  1.00  0.00     0.163 HD
ATOM     29  O   UNL A   1      32.501  36.067  28.902  1.00  0.00    -0.269 OA
BRANCH  27  30
ATOM     30  C   UNL A   1      34.173  34.464  29.288  1.00  0.00     0.039 A 
ATOM     31  C   UNL A   1      34.014  33.749  30.475  1.00  0.00     0.014 A 
ATOM     32  C   UNL A   1      35.442  34.647  28.733  1.00  0.00     0.014 A 
ATOM     33  C   UNL A   1      35.126  33.159  31.073  1.00  0.00     0.010 A 
ATOM     34  C   UNL A   1      36.536  33.988  29.283  1.00  0.00     0.010 A 
ATOM     35  C   UNL A   1      36.388  33.239  30.460  1.00  0.00    -0.014 A 
BRANCH  35  36
ATOM     36  C   UNL A   1      37.555  32.534  31.045  1.00  0.00     0.031 A 
ATOM     37  C   UNL A   1      38.067  32.911  32.407  1.00  0.00     0.074 A 
ATOM     38  C   UNL A   1      38.170  31.572  30.330  1.00  0.00     0.049 A 
ATOM     39  N   UNL A   1      39.055  32.389  33.091  1.00  0.00    -0.248 NA
ATOM     40  C   UNL A   1      37.403  34.038  33.079  1.00  0.00     0.031 C 
ATOM     41  C   UNL A   1      37.814  31.175  28.966  1.00  0.00     0.029 A 
ATOM     42  N   UNL A   1      39.222  30.752  30.651  1.00  0.00    -0.354 N 
ATOM     43  C   UNL A   1      39.124  33.120  34.269  1.00  0.00     0.074 A 
ATOM     44  C   UNL A   1      38.132  34.168  34.177  1.00  0.00     0.031 C 
ATOM     45  C   UNL A   1      38.611  30.165  28.581  1.00  0.00     0.029 A 
ATOM     46  C   UNL A   1      39.547  29.861  29.658  1.00  0.00     0.049 A 
ATOM     47  H   UNL A   1      39.698  30.797  31.511  1.00  0.00     0.167 HD
ATOM     48  C   UNL A   1      39.917  32.912  35.347  1.00  0.00     0.037 A 
ATOM     49  C   UNL A   1      40.490  28.900  29.626  1.00  0.00     0.037 A 
ATOM     50  C   UNL A   1      40.897  31.862  35.438  1.00  0.00     0.049 A 
ATOM     51  C   UNL A   1      41.344  28.677  30.844  1.00  0.00     0.074 A 
ATOM     52  C   UNL A   1      41.728  31.543  36.498  1.00  0.00     0.029 A 
ATOM     53  N   UNL A   1      41.177  30.957  34.424  1.00  0.00    -0.354 N 
ATOM     54  N   UNL A   1      41.344  29.322  31.985  1.00  0.00    -0.248 NA
ATOM     55  C   UNL A   1      42.316  27.578  30.776  1.00  0.00     0.031 C 
ATOM     56  C   UNL A   1      42.537  30.469  36.111  1.00  0.00     0.029 A 
ATOM     57  C   UNL A   1      42.177  30.086  34.829  1.00  0.00     0.049 A 
ATOM     58  H   UNL A   1      40.733  30.936  33.546  1.00  0.00     0.167 HD
ATOM     59  C   UNL A   1      42.297  28.697  32.777  1.00  0.00     0.074 A 
ATOM     60  C   UNL A   1      42.834  27.601  31.996  1.00  0.00     0.031 C 
ATOM     61  C   UNL A   1      42.699  29.004  34.036  1.00  0.00     0.037 A 
BRANCH  48  62
ATOM     62  C   UNL A   1      39.739  33.829  36.522  1.00  0.00     0.064 A 
ATOM     63  C   UNL A   1      38.926  33.471  37.610  1.00  0.00     0.173 A 
ATOM     64  C   UNL A   1      40.410  35.058  36.583  1.00  0.00     0.173 A 
ATOM     65  F   UNL A   1      38.250  32.312  37.595  1.00  0.00    -0.203 F 
ATOM     66  C   UNL A   1      38.769  34.322  38.700  1.00  0.00     0.198 A 
ATOM     67  C   UNL A   1      40.276  35.894  37.690  1.00  0.00     0.198 A 
ATOM     68  F   UNL A   1      41.202  35.448  35.574  1.00  0.00    -0.203 F 
ATOM     69  F   UNL A   1      37.948  33.981  39.702  1.00  0.00    -0.200 F 
ATOM     70  C   UNL A   1      39.450  35.529  38.743  1.00  0.00     0.200 A 
ATOM     71  F   UNL A   1      40.944  37.055  37.736  1.00  0.00    -0.200 F 
ATOM     72  F   UNL A   1      39.305  36.345  39.797  1.00  0.00    -0.200 F 
ENDBRANCH  48  62
BRANCH  49  73
ATOM     73  C   UNL A   1      40.651  28.055  28.414  1.00  0.00     0.064 A 
ATOM     74  C   UNL A   1      40.030  26.802  28.316  1.00  0.00     0.173 A 
ATOM     75  C   UNL A   1      41.439  28.478  27.333  1.00  0.00     0.173 A 
ATOM     76  F   UNL A   1      39.280  26.347  29.330  1.00  0.00    -0.203 F 
ATOM     77  C   UNL A   1      40.214  25.991  27.198  1.00  0.00     0.198 A 
ATOM     78  C   UNL A   1      41.598  27.680  26.202  1.00  0.00     0.198 A 
ATOM     79  F   UNL A   1      42.047  29.673  27.371  1.00  0.00    -0.203 F 
ATOM     80  F   UNL A   1      39.653  24.776  27.155  1.00  0.00    -0.200 F 
ATOM     81  C   UNL A   1      40.995  26.433  26.140  1.00  0.00     0.200 A 
ATOM     82  F   UNL A   1      42.338  28.118  25.175  1.00  0.00    -0.200 F 
ATOM     83  F   UNL A   1      41.171  25.654  25.064  1.00  0.00    -0.200 F 
ENDBRANCH  49  73
BRANCH  61  84
ATOM     84  C   UNL A   1      43.753  28.127  34.647  1.00  0.00     0.064 A 
ATOM     85  C   UNL A   1      43.422  26.954  35.344  1.00  0.00     0.173 A 
ATOM     86  C   UNL A   1      45.111  28.457  34.526  1.00  0.00     0.173 A 
ATOM     87  F   UNL A   1      42.137  26.601  35.500  1.00  0.00    -0.203 F 
ATOM     88  C   UNL A   1      44.410  26.167  35.930  1.00  0.00     0.198 A 
ATOM     89  C   UNL A   1      46.097  27.650  35.084  1.00  0.00     0.198 A 
ATOM     90  F   UNL A   1      45.481  29.563  33.862  1.00  0.00    -0.203 F 
ATOM     91  F   UNL A   1      44.065  25.087  36.644  1.00  0.00    -0.200 F 
ATOM     92  C   UNL A   1      45.746  26.512  35.795  1.00  0.00     0.200 A 
ATOM     93  F   UNL A   1      47.389  27.977  34.941  1.00  0.00    -0.200 F 
ATOM     94  F   UNL A   1      46.695  25.755  36.361  1.00  0.00    -0.200 F 
ENDBRANCH  61  84
ENDBRANCH  35  36
ENDBRANCH  27  30
ENDBRANCH  25  26
ENDBRANCH  24  25
ENDBRANCH  23  24
ENDBRANCH   1  23
TORSDOF 17
ENDMDL
MODEL 3
REMARK VINA RESULT:     -11.7      5.611     10.081
REMARK SMILES CCC(CC)(C(=O)NCCCCNC(=O)c1ccc(-c2c3nc(c(-c4c(F)c(F)c(F)c(F)c4F)c4ccc([nH]4)c(-c4c(F)c(F)c(F)c(F)c4F)c4nc(c(-c5c(F)c(F)c(F)c(F)c5F)c5ccc2[nH]5)C=C4)C=C3)cc1)n1nnnc1C[C@@H](C)C(C)(C)C
REMARK SMILES IDX 9 1 8 2 6 3 7 4 3 6 2 7 1 8 4 9 5 10 79 11 80 12 83 13 81 14
REMARK SMILES IDX 82 15 84 16 85 17 86 18 87 19 88 20 89 21 90 22 10 23 11 24
REMARK SMILES IDX 12 25 13 26 14 27 15 29 16 30 17 31 78 32 18 33 77 34 19 35
REMARK SMILES IDX 20 36 21 37 71 38 22 39 76 40 70 41 72 42 23 43 75 44 69 45
REMARK SMILES IDX 68 46 24 48 56 49 36 50 55 51 37 52 40 53 54 54 73 55 38 56
REMARK SMILES IDX 39 57 53 59 74 60 41 61 25 62 26 63 34 64 27 65 28 66 32 67
REMARK SMILES IDX 35 68 29 69 30 70 33 71 31 72 57 73 58 74 66 75 59 76 60 77
REMARK SMILES IDX 64 78 67 79 61 80 62 81 65 82 63 83 42 84 43 85 51 86 44 87
REMARK SMILES IDX 45 88 49 89 52 90 46 91 47 92 50 93 48 94
REMARK H PARENT 8 5 13 28 72 47 40 58
REMARK Flexibility Score: inf
ROOT
ATOM      1  C   UNL A   1      35.631  20.533  25.051  1.00  0.00     0.116 C 
ENDROOT
BRANCH   1   2
ATOM      2  N   UNL A   1      35.049  21.152  26.226  1.00  0.00    -0.354 N 
ATOM      3  C   UNL A   1      34.085  22.098  26.419  1.00  0.00     0.248 C 
ATOM      4  O   UNL A   1      34.054  22.533  27.576  1.00  0.00    -0.272 OA
ATOM      5  H   UNL A   1      35.435  20.819  27.068  1.00  0.00     0.163 HD
BRANCH   3   6
ATOM      6  C   UNL A   1      33.108  22.622  25.306  1.00  0.00     0.144 C 
BRANCH   6   7
ATOM      7  C   UNL A   1      33.889  23.561  24.353  1.00  0.00     0.037 C 
ATOM      8  C   UNL A   1      35.098  24.269  24.936  1.00  0.00     0.007 C 
ENDBRANCH   6   7
BRANCH   6   9
ATOM      9  C   UNL A   1      32.428  21.411  24.552  1.00  0.00     0.037 C 
ATOM     10  C   UNL A   1      32.357  21.344  23.034  1.00  0.00     0.007 C 
ENDBRANCH   6   9
BRANCH   6  11
ATOM     11  N   UNL A   1      31.981  23.315  26.024  1.00  0.00    -0.214 N 
ATOM     12  N   UNL A   1      30.961  22.511  26.447  1.00  0.00    -0.044 NA
ATOM     13  C   UNL A   1      31.662  24.613  26.409  1.00  0.00     0.152 A 
ATOM     14  N   UNL A   1      30.106  23.276  27.090  1.00  0.00    -0.024 NA
ATOM     15  N   UNL A   1      30.525  24.563  27.084  1.00  0.00    -0.114 NA
BRANCH  13  16
ATOM     16  C   UNL A   1      32.374  25.919  26.220  1.00  0.00     0.083 C 
BRANCH  16  17
ATOM     17  C   UNL A   1      31.419  27.153  26.181  1.00  0.00    -0.001 C 
ATOM     18  C   UNL A   1      31.676  28.058  27.406  1.00  0.00     0.008 C 
BRANCH  17  19
ATOM     19  C   UNL A   1      31.478  27.962  24.823  1.00  0.00    -0.035 C 
ATOM     20  C   UNL A   1      31.462  29.484  25.074  1.00  0.00     0.011 C 
ATOM     21  C   UNL A   1      32.797  27.674  24.067  1.00  0.00     0.011 C 
ATOM     22  C   UNL A   1      30.299  27.623  23.895  1.00  0.00     0.011 C 
ENDBRANCH  17  19
ENDBRANCH  16  17
ENDBRANCH  13  16
ENDBRANCH   6  11
ENDBRANCH   3   6
ENDBRANCH   1   2
BRANCH   1  23
ATOM     23  C   UNL A   1      37.091  20.942  24.864  1.00  0.00     0.023 C 
BRANCH  23  24
ATOM     24  C   UNL A   1      38.090  19.802  25.044  1.00  0.00     0.023 C 
BRANCH  24  25
ATOM     25  C   UNL A   1      39.359  20.170  25.804  1.00  0.00     0.116 C 
BRANCH  25  26
ATOM     26  N   UNL A   1      40.356  19.109  25.832  1.00  0.00    -0.352 N 
ATOM     27  C   UNL A   1      41.700  19.205  26.091  1.00  0.00     0.251 C 
ATOM     28  H   UNL A   1      40.021  18.203  25.639  1.00  0.00     0.163 HD
ATOM     29  O   UNL A   1      42.425  18.222  25.983  1.00  0.00    -0.269 OA
BRANCH  27  30
ATOM     30  C   UNL A   1      42.272  20.517  26.452  1.00  0.00     0.039 A 
ATOM     31  C   UNL A   1      42.735  21.348  25.431  1.00  0.00     0.014 A 
ATOM     32  C   UNL A   1      42.301  20.942  27.783  1.00  0.00     0.014 A 
ATOM     33  C   UNL A   1      43.166  22.637  25.742  1.00  0.00     0.010 A 
ATOM     34  C   UNL A   1      42.651  22.255  28.080  1.00  0.00     0.010 A 
ATOM     35  C   UNL A   1      43.090  23.114  27.061  1.00  0.00    -0.014 A 
BRANCH  35  36
ATOM     36  C   UNL A   1      43.462  24.514  27.377  1.00  0.00     0.031 A 
ATOM     37  C   UNL A   1      44.861  25.004  27.133  1.00  0.00     0.074 A 
ATOM     38  C   UNL A   1      42.539  25.335  27.915  1.00  0.00     0.049 A 
ATOM     39  N   UNL A   1      45.363  26.199  27.322  1.00  0.00    -0.248 NA
ATOM     40  C   UNL A   1      45.835  24.018  26.639  1.00  0.00     0.031 C 
ATOM     41  C   UNL A   1      41.172  24.952  28.272  1.00  0.00     0.029 A 
ATOM     42  N   UNL A   1      42.610  26.664  28.253  1.00  0.00    -0.354 N 
ATOM     43  C   UNL A   1      46.701  26.107  26.965  1.00  0.00     0.074 A 
ATOM     44  C   UNL A   1      46.954  24.725  26.622  1.00  0.00     0.031 C 
ATOM     45  C   UNL A   1      40.523  26.027  28.747  1.00  0.00     0.029 A 
ATOM     46  C   UNL A   1      41.434  27.168  28.751  1.00  0.00     0.049 A 
ATOM     47  H   UNL A   1      43.426  27.204  28.149  1.00  0.00     0.167 HD
ATOM     48  C   UNL A   1      47.627  27.093  26.892  1.00  0.00     0.037 A 
ATOM     49  C   UNL A   1      41.123  28.414  29.156  1.00  0.00     0.037 A 
ATOM     50  C   UNL A   1      47.368  28.469  27.226  1.00  0.00     0.049 A 
ATOM     51  C   UNL A   1      42.164  29.495  29.046  1.00  0.00     0.074 A 
ATOM     52  C   UNL A   1      48.226  29.553  27.155  1.00  0.00     0.029 A 
ATOM     53  N   UNL A   1      46.154  28.950  27.697  1.00  0.00    -0.354 N 
ATOM     54  N   UNL A   1      43.404  29.412  28.629  1.00  0.00    -0.248 NA
ATOM     55  C   UNL A   1      41.755  30.848  29.446  1.00  0.00     0.031 C 
ATOM     56  C   UNL A   1      47.543  30.682  27.618  1.00  0.00     0.029 A 
ATOM     57  C   UNL A   1      46.244  30.314  27.931  1.00  0.00     0.049 A 
ATOM     58  H   UNL A   1      45.349  28.405  27.844  1.00  0.00     0.167 HD
ATOM     59  C   UNL A   1      43.916  30.701  28.695  1.00  0.00     0.074 A 
ATOM     60  C   UNL A   1      42.842  31.552  29.165  1.00  0.00     0.031 C 
ATOM     61  C   UNL A   1      45.164  31.142  28.401  1.00  0.00     0.037 A 
BRANCH  48  62
ATOM     62  C   UNL A   1      48.998  26.718  26.413  1.00  0.00     0.064 A 
ATOM     63  C   UNL A   1      49.373  26.885  25.069  1.00  0.00     0.173 A 
ATOM     64  C   UNL A   1      49.961  26.222  27.304  1.00  0.00     0.173 A 
ATOM     65  F   UNL A   1      48.486  27.342  24.174  1.00  0.00    -0.203 F 
ATOM     66  C   UNL A   1      50.649  26.541  24.632  1.00  0.00     0.198 A 
ATOM     67  C   UNL A   1      51.247  25.908  26.869  1.00  0.00     0.198 A 
ATOM     68  F   UNL A   1      49.658  26.046  28.598  1.00  0.00    -0.203 F 
ATOM     69  F   UNL A   1      50.966  26.662  23.336  1.00  0.00    -0.200 F 
ATOM     70  C   UNL A   1      51.587  26.062  25.532  1.00  0.00     0.200 A 
ATOM     71  F   UNL A   1      52.157  25.456  27.742  1.00  0.00    -0.200 F 
ATOM     72  F   UNL A   1      52.819  25.739  25.112  1.00  0.00    -0.200 F 
ENDBRANCH  48  62
BRANCH  49  73
ATOM     73  C   UNL A   1      39.761  28.713  29.668  1.00  0.00     0.064 A 
ATOM     74  C   UNL A   1      39.434  28.514  31.016  1.00  0.00     0.173 A 
ATOM     75  C   UNL A   1      38.754  29.193  28.817  1.00  0.00     0.173 A 
ATOM     76  F   UNL A   1      40.358  28.041  31.866  1.00  0.00    -0.203 F 
ATOM     77  C   UNL A   1      38.145  28.754  31.489  1.00  0.00     0.198 A 
ATOM     78  C   UNL A   1      37.474  29.463  29.297  1.00  0.00     0.198 A 
ATOM     79  F   UNL A   1      39.017  29.411  27.520  1.00  0.00    -0.203 F 
ATOM     80  F   UNL A   1      37.846  28.504  32.770  1.00  0.00    -0.200 F 
ATOM     81  C   UNL A   1      37.167  29.233  30.629  1.00  0.00     0.200 A 
ATOM     82  F   UNL A   1      36.538  29.943  28.467  1.00  0.00    -0.200 F 
ATOM     83  F   UNL A   1      35.928  29.466  31.084  1.00  0.00    -0.200 F 
ENDBRANCH  49  73
BRANCH  61  84
ATOM     84  C   UNL A   1      45.422  32.612  28.559  1.00  0.00     0.064 A 
ATOM     85  C   UNL A   1      45.937  33.145  29.752  1.00  0.00     0.173 A 
ATOM     86  C   UNL A   1      45.161  33.498  27.503  1.00  0.00     0.173 A 
ATOM     87  F   UNL A   1      46.189  32.342  30.796  1.00  0.00    -0.203 F 
ATOM     88  C   UNL A   1      46.143  34.514  29.893  1.00  0.00     0.198 A 
ATOM     89  C   UNL A   1      45.401  34.862  27.637  1.00  0.00     0.198 A 
ATOM     90  F   UNL A   1      44.677  33.039  26.339  1.00  0.00    -0.203 F 
ATOM     91  F   UNL A   1      46.575  35.006  31.062  1.00  0.00    -0.200 F 
ATOM     92  C   UNL A   1      45.880  35.371  28.835  1.00  0.00     0.200 A 
ATOM     93  F   UNL A   1      45.160  35.687  26.608  1.00  0.00    -0.200 F 
ATOM     94  F   UNL A   1      46.078  36.688  28.973  1.00  0.00    -0.200 F 
ENDBRANCH  61  84
ENDBRANCH  35  36
ENDBRANCH  27  30
ENDBRANCH  25  26
ENDBRANCH  24  25
ENDBRANCH  23  24
ENDBRANCH   1  23
TORSDOF 17
ENDMDL
