MODEL 1
REMARK VINA RESULT:     -12.9      0.000      0.000
REMARK SMILES C[C@H]([C@@H](C)C(=O)NCCCCNC(=O)c1ccc(-c2c3nc(c(-c4c(F)c(F)c(F)c(F)c4F)c4ccc([nH]4)c(-c4c(F)c(F)c(F)c(F)c4F)c4nc(c(-c5c(F)c(F)c(F)c(F)c5F)c5ccc2[nH]5)C=C4)C=C3)cc1)[S@@](=O)c1ccc2ccccc2c1
REMARK SMILES IDX 9 1 8 2 7 3 5 4 6 5 3 7 4 8 2 9 1 10 78 11 79 12 80 13 81 14
REMARK SMILES IDX 89 15 82 16 88 17 83 18 87 19 84 20 86 21 85 22 10 23 11 24
REMARK SMILES IDX 12 25 13 26 14 28 15 29 16 30 77 31 17 32 76 33 18 34 19 35
REMARK SMILES IDX 20 36 70 37 21 38 75 39 69 40 71 41 22 42 74 43 68 44 67 45
REMARK SMILES IDX 23 47 55 48 35 49 54 50 36 51 39 52 53 53 72 54 37 55 38 56
REMARK SMILES IDX 52 58 73 59 40 60 24 61 25 62 33 63 26 64 27 65 31 66 34 67
REMARK SMILES IDX 28 68 29 69 32 70 30 71 56 72 57 73 65 74 58 75 59 76 63 77
REMARK SMILES IDX 66 78 60 79 61 80 64 81 62 82 41 83 42 84 50 85 43 86 44 87
REMARK SMILES IDX 48 88 51 89 45 90 46 91 49 92 47 93
REMARK H PARENT 7 6 12 27 71 46 39 57
REMARK Flexibility Score: inf
ROOT
ATOM      1  C   UNL A   1      32.082  30.422  26.702  1.00  0.00     0.023 C 
ENDROOT
BRANCH   1   2
ATOM      2  C   UNL A   1      31.543  29.806  25.407  1.00  0.00     0.116 C 
BRANCH   2   3
ATOM      3  N   UNL A   1      32.605  29.721  24.425  1.00  0.00    -0.356 N 
ATOM      4  C   UNL A   1      32.713  28.949  23.310  1.00  0.00     0.224 C 
ATOM      5  O   UNL A   1      33.827  28.863  22.788  1.00  0.00    -0.275 OA
ATOM      6  H   UNL A   1      33.370  30.318  24.591  1.00  0.00     0.163 HD
BRANCH   4   7
ATOM      7  C   UNL A   1      31.509  28.268  22.663  1.00  0.00     0.091 C 
ATOM      8  C   UNL A   1      30.414  29.316  22.438  1.00  0.00     0.019 C 
BRANCH   7   9
ATOM      9  C   UNL A   1      31.036  26.981  23.366  1.00  0.00     0.093 C 
ATOM     10  C   UNL A   1      29.547  26.959  23.708  1.00  0.00     0.023 C 
BRANCH   9  11
ATOM     11  S   UNL A   1      31.598  25.453  22.497  1.00  0.00     0.057 S 
ATOM     12  O   UNL A   1      32.147  25.881  21.168  1.00  0.00    -0.254 OA
BRANCH  11  13
ATOM     13  C   UNL A   1      33.020  24.984  23.489  1.00  0.00     0.040 A 
ATOM     14  C   UNL A   1      33.225  25.624  24.714  1.00  0.00     0.018 A 
ATOM     15  C   UNL A   1      33.903  23.984  23.078  1.00  0.00     0.026 A 
ATOM     16  C   UNL A   1      34.321  25.283  25.508  1.00  0.00     0.010 A 
ATOM     17  C   UNL A   1      35.045  23.677  23.833  1.00  0.00    -0.017 A 
ATOM     18  C   UNL A   1      35.248  24.324  25.073  1.00  0.00    -0.018 A 
ATOM     19  C   UNL A   1      35.994  22.753  23.372  1.00  0.00     0.009 A 
ATOM     20  C   UNL A   1      36.378  23.998  25.838  1.00  0.00     0.009 A 
ATOM     21  C   UNL A   1      37.131  22.466  24.129  1.00  0.00     0.001 A 
ATOM     22  C   UNL A   1      37.316  23.079  25.365  1.00  0.00     0.001 A 
ENDBRANCH  11  13
ENDBRANCH   9  11
ENDBRANCH   7   9
ENDBRANCH   4   7
ENDBRANCH   2   3
ENDBRANCH   1   2
BRANCH   1  23
ATOM     23  C   UNL A   1      31.709  31.890  26.892  1.00  0.00     0.023 C 
BRANCH  23  24
ATOM     24  C   UNL A   1      32.870  32.781  27.309  1.00  0.00     0.116 C 
BRANCH  24  25
ATOM     25  N   UNL A   1      32.466  34.140  27.638  1.00  0.00    -0.352 N 
ATOM     26  C   UNL A   1      32.992  34.969  28.598  1.00  0.00     0.251 C 
ATOM     27  H   UNL A   1      31.725  34.511  27.107  1.00  0.00     0.163 HD
ATOM     28  O   UNL A   1      32.488  36.061  28.834  1.00  0.00    -0.269 OA
BRANCH  26  29
ATOM     29  C   UNL A   1      34.152  34.498  29.375  1.00  0.00     0.039 A 
ATOM     30  C   UNL A   1      33.930  33.902  30.617  1.00  0.00     0.014 A 
ATOM     31  C   UNL A   1      35.440  34.581  28.840  1.00  0.00     0.014 A 
ATOM     32  C   UNL A   1      35.002  33.329  31.299  1.00  0.00     0.010 A 
ATOM     33  C   UNL A   1      36.490  33.940  29.483  1.00  0.00     0.010 A 
ATOM     34  C   UNL A   1      36.281  33.312  30.720  1.00  0.00    -0.014 A 
BRANCH  34  35
ATOM     35  C   UNL A   1      37.418  32.644  31.396  1.00  0.00     0.031 A 
ATOM     36  C   UNL A   1      38.098  31.478  30.740  1.00  0.00     0.074 A 
ATOM     37  C   UNL A   1      37.792  33.050  32.625  1.00  0.00     0.049 A 
ATOM     38  N   UNL A   1      39.068  30.724  31.192  1.00  0.00    -0.248 NA
ATOM     39  C   UNL A   1      37.603  31.086  29.411  1.00  0.00     0.031 C 
ATOM     40  C   UNL A   1      37.169  34.136  33.383  1.00  0.00     0.029 A 
ATOM     41  N   UNL A   1      38.780  32.589  33.457  1.00  0.00    -0.354 N 
ATOM     42  C   UNL A   1      39.286  29.765  30.211  1.00  0.00     0.074 A 
ATOM     43  C   UNL A   1      38.310  29.993  29.169  1.00  0.00     0.031 C 
ATOM     44  C   UNL A   1      37.807  34.274  34.557  1.00  0.00     0.029 A 
ATOM     45  C   UNL A   1      38.856  33.264  34.650  1.00  0.00     0.049 A 
ATOM     46  H   UNL A   1      39.379  31.843  33.221  1.00  0.00     0.167 HD
ATOM     47  C   UNL A   1      40.234  28.800  30.173  1.00  0.00     0.037 A 
ATOM     48  C   UNL A   1      39.678  33.084  35.701  1.00  0.00     0.037 A 
ATOM     49  C   UNL A   1      41.218  28.596  31.203  1.00  0.00     0.049 A 
ATOM     50  C   UNL A   1      40.722  32.000  35.633  1.00  0.00     0.074 A 
ATOM     51  C   UNL A   1      42.262  27.688  31.232  1.00  0.00     0.029 A 
ATOM     52  N   UNL A   1      41.275  29.311  32.391  1.00  0.00    -0.354 N 
ATOM     53  N   UNL A   1      40.970  31.149  34.668  1.00  0.00    -0.248 NA
ATOM     54  C   UNL A   1      41.602  31.858  36.800  1.00  0.00     0.031 C 
ATOM     55  C   UNL A   1      42.922  27.822  32.458  1.00  0.00     0.029 A 
ATOM     56  C   UNL A   1      42.322  28.848  33.171  1.00  0.00     0.049 A 
ATOM     57  H   UNL A   1      40.663  30.040  32.642  1.00  0.00     0.167 HD
ATOM     58  C   UNL A   1      42.050  30.390  35.097  1.00  0.00     0.074 A 
ATOM     59  C   UNL A   1      42.420  30.893  36.403  1.00  0.00     0.031 C 
ATOM     60  C   UNL A   1      42.678  29.366  34.467  1.00  0.00     0.037 A 
BRANCH  47  61
ATOM     61  C   UNL A   1      40.254  27.895  28.975  1.00  0.00     0.064 A 
ATOM     62  C   UNL A   1      40.988  28.216  27.822  1.00  0.00     0.173 A 
ATOM     63  C   UNL A   1      39.555  26.679  28.989  1.00  0.00     0.173 A 
ATOM     64  F   UNL A   1      41.663  29.373  27.752  1.00  0.00    -0.203 F 
ATOM     65  C   UNL A   1      40.993  27.369  26.717  1.00  0.00     0.198 A 
ATOM     66  C   UNL A   1      39.590  25.819  27.894  1.00  0.00     0.198 A 
ATOM     67  F   UNL A   1      38.841  26.321  30.066  1.00  0.00    -0.203 F 
ATOM     68  F   UNL A   1      41.657  27.724  25.608  1.00  0.00    -0.200 F 
ATOM     69  C   UNL A   1      40.302  26.169  26.757  1.00  0.00     0.200 A 
ATOM     70  F   UNL A   1      38.930  24.655  27.938  1.00  0.00    -0.200 F 
ATOM     71  F   UNL A   1      40.313  25.352  25.694  1.00  0.00    -0.200 F 
ENDBRANCH  47  61
BRANCH  48  72
ATOM     72  C   UNL A   1      39.568  33.965  36.893  1.00  0.00     0.064 A 
ATOM     73  C   UNL A   1      38.805  33.580  38.003  1.00  0.00     0.173 A 
ATOM     74  C   UNL A   1      40.215  35.207  36.944  1.00  0.00     0.173 A 
ATOM     75  F   UNL A   1      38.151  32.409  37.993  1.00  0.00    -0.203 F 
ATOM     76  C   UNL A   1      38.675  34.414  39.112  1.00  0.00     0.198 A 
ATOM     77  C   UNL A   1      40.108  36.029  38.065  1.00  0.00     0.198 A 
ATOM     78  F   UNL A   1      40.963  35.621  35.910  1.00  0.00    -0.203 F 
ATOM     79  F   UNL A   1      37.900  34.042  40.140  1.00  0.00    -0.200 F 
ATOM     80  C   UNL A   1      39.331  35.635  39.145  1.00  0.00     0.200 A 
ATOM     81  F   UNL A   1      40.756  37.201  38.098  1.00  0.00    -0.200 F 
ATOM     82  F   UNL A   1      39.208  36.436  40.212  1.00  0.00    -0.200 F 
ENDBRANCH  48  72
BRANCH  60  83
ATOM     83  C   UNL A   1      43.849  28.744  35.170  1.00  0.00     0.064 A 
ATOM     84  C   UNL A   1      43.694  27.649  36.032  1.00  0.00     0.173 A 
ATOM     85  C   UNL A   1      45.149  29.224  34.943  1.00  0.00     0.173 A 
ATOM     86  F   UNL A   1      42.471  27.162  36.291  1.00  0.00    -0.203 F 
ATOM     87  C   UNL A   1      44.794  27.073  36.662  1.00  0.00     0.198 A 
ATOM     88  C   UNL A   1      46.249  28.625  35.551  1.00  0.00     0.198 A 
ATOM     89  F   UNL A   1      45.353  30.265  34.122  1.00  0.00    -0.203 F 
ATOM     90  F   UNL A   1      44.616  26.059  37.520  1.00  0.00    -0.200 F 
ATOM     91  C   UNL A   1      46.070  27.556  36.415  1.00  0.00     0.200 A 
ATOM     92  F   UNL A   1      47.483  29.083  35.299  1.00  0.00    -0.200 F 
ATOM     93  F   UNL A   1      47.128  26.995  37.016  1.00  0.00    -0.200 F 
ENDBRANCH  60  83
ENDBRANCH  34  35
ENDBRANCH  26  29
ENDBRANCH  24  25
ENDBRANCH  23  24
ENDBRANCH   1  23
TORSDOF 14
ENDMDL
MODEL 2
REMARK VINA RESULT:     -12.9      0.075      1.594
REMARK SMILES C[C@H]([C@@H](C)C(=O)NCCCCNC(=O)c1ccc(-c2c3nc(c(-c4c(F)c(F)c(F)c(F)c4F)c4ccc([nH]4)c(-c4c(F)c(F)c(F)c(F)c4F)c4nc(c(-c5c(F)c(F)c(F)c(F)c5F)c5ccc2[nH]5)C=C4)C=C3)cc1)[S@@](=O)c1ccc2ccccc2c1
REMARK SMILES IDX 9 1 8 2 7 3 5 4 6 5 3 7 4 8 2 9 1 10 78 11 79 12 80 13 81 14
REMARK SMILES IDX 89 15 82 16 88 17 83 18 87 19 84 20 86 21 85 22 10 23 11 24
REMARK SMILES IDX 12 25 13 26 14 28 15 29 16 30 77 31 17 32 76 33 18 34 19 35
REMARK SMILES IDX 20 36 70 37 21 38 75 39 69 40 71 41 22 42 74 43 68 44 67 45
REMARK SMILES IDX 23 47 55 48 35 49 54 50 36 51 39 52 53 53 72 54 37 55 38 56
REMARK SMILES IDX 52 58 73 59 40 60 24 61 25 62 33 63 26 64 27 65 31 66 34 67
REMARK SMILES IDX 28 68 29 69 32 70 30 71 56 72 57 73 65 74 58 75 59 76 63 77
REMARK SMILES IDX 66 78 60 79 61 80 64 81 62 82 41 83 42 84 50 85 43 86 44 87
REMARK SMILES IDX 48 88 51 89 45 90 46 91 49 92 47 93
REMARK H PARENT 7 6 12 27 71 46 39 57
REMARK Flexibility Score: inf
ROOT
ATOM      1  C   UNL A   1      32.018  30.373  26.784  1.00  0.00     0.023 C 
ENDROOT
BRANCH   1   2
ATOM      2  C   UNL A   1      31.555  29.655  25.513  1.00  0.00     0.116 C 
BRANCH   2   3
ATOM      3  N   UNL A   1      32.612  29.682  24.522  1.00  0.00    -0.356 N 
ATOM      4  C   UNL A   1      32.744  28.992  23.357  1.00  0.00     0.224 C 
ATOM      5  O   UNL A   1      33.856  28.989  22.824  1.00  0.00    -0.275 OA
ATOM      6  H   UNL A   1      33.352  30.299  24.723  1.00  0.00     0.163 HD
BRANCH   4   7
ATOM      7  C   UNL A   1      31.565  28.304  22.672  1.00  0.00     0.091 C 
ATOM      8  C   UNL A   1      30.482  29.351  22.389  1.00  0.00     0.019 C 
BRANCH   7   9
ATOM      9  C   UNL A   1      31.060  27.029  23.374  1.00  0.00     0.093 C 
ATOM     10  C   UNL A   1      29.568  27.035  23.700  1.00  0.00     0.023 C 
BRANCH   9  11
ATOM     11  S   UNL A   1      31.603  25.488  22.514  1.00  0.00     0.057 S 
ATOM     12  O   UNL A   1      32.157  25.900  21.183  1.00  0.00    -0.254 OA
BRANCH  11  13
ATOM     13  C   UNL A   1      33.019  25.008  23.510  1.00  0.00     0.040 A 
ATOM     14  C   UNL A   1      33.207  25.621  24.752  1.00  0.00     0.018 A 
ATOM     15  C   UNL A   1      33.914  24.024  23.085  1.00  0.00     0.026 A 
ATOM     16  C   UNL A   1      34.297  25.270  25.548  1.00  0.00     0.010 A 
ATOM     17  C   UNL A   1      35.050  23.709  23.844  1.00  0.00    -0.017 A 
ATOM     18  C   UNL A   1      35.236  24.328  25.101  1.00  0.00    -0.018 A 
ATOM     19  C   UNL A   1      36.012  22.803  23.372  1.00  0.00     0.009 A 
ATOM     20  C   UNL A   1      36.361  23.994  25.869  1.00  0.00     0.009 A 
ATOM     21  C   UNL A   1      37.143  22.508  24.133  1.00  0.00     0.001 A 
ATOM     22  C   UNL A   1      37.312  23.093  25.384  1.00  0.00     0.001 A 
ENDBRANCH  11  13
ENDBRANCH   9  11
ENDBRANCH   7   9
ENDBRANCH   4   7
ENDBRANCH   2   3
ENDBRANCH   1   2
BRANCH   1  23
ATOM     23  C   UNL A   1      31.719  31.871  26.795  1.00  0.00     0.023 C 
BRANCH  23  24
ATOM     24  C   UNL A   1      32.858  32.732  27.322  1.00  0.00     0.116 C 
BRANCH  24  25
ATOM     25  N   UNL A   1      32.456  34.096  27.631  1.00  0.00    -0.352 N 
ATOM     26  C   UNL A   1      32.978  34.937  28.581  1.00  0.00     0.251 C 
ATOM     27  H   UNL A   1      31.718  34.461  27.091  1.00  0.00     0.163 HD
ATOM     28  O   UNL A   1      32.475  36.033  28.800  1.00  0.00    -0.269 OA
BRANCH  26  29
ATOM     29  C   UNL A   1      34.133  34.474  29.371  1.00  0.00     0.039 A 
ATOM     30  C   UNL A   1      33.901  33.850  30.598  1.00  0.00     0.014 A 
ATOM     31  C   UNL A   1      35.428  34.593  28.862  1.00  0.00     0.014 A 
ATOM     32  C   UNL A   1      34.971  33.286  31.289  1.00  0.00     0.010 A 
ATOM     33  C   UNL A   1      36.479  33.961  29.513  1.00  0.00     0.010 A 
ATOM     34  C   UNL A   1      36.260  33.305  30.733  1.00  0.00    -0.014 A 
BRANCH  34  35
ATOM     35  C   UNL A   1      37.399  32.647  31.418  1.00  0.00     0.031 A 
ATOM     36  C   UNL A   1      38.091  31.484  30.769  1.00  0.00     0.074 A 
ATOM     37  C   UNL A   1      37.762  33.058  32.648  1.00  0.00     0.049 A 
ATOM     38  N   UNL A   1      39.063  30.738  31.229  1.00  0.00    -0.248 NA
ATOM     39  C   UNL A   1      37.606  31.085  29.438  1.00  0.00     0.031 C 
ATOM     40  C   UNL A   1      37.127  34.142  33.400  1.00  0.00     0.029 A 
ATOM     41  N   UNL A   1      38.748  32.606  33.487  1.00  0.00    -0.354 N 
ATOM     42  C   UNL A   1      39.293  29.778  30.251  1.00  0.00     0.074 A 
ATOM     43  C   UNL A   1      38.323  29.996  29.203  1.00  0.00     0.031 C 
ATOM     44  C   UNL A   1      37.756  34.287  34.577  1.00  0.00     0.029 A 
ATOM     45  C   UNL A   1      38.813  33.285  34.678  1.00  0.00     0.049 A 
ATOM     46  H   UNL A   1      39.354  31.864  33.256  1.00  0.00     0.167 HD
ATOM     47  C   UNL A   1      40.249  28.820  30.222  1.00  0.00     0.037 A 
ATOM     48  C   UNL A   1      39.629  33.113  35.735  1.00  0.00     0.037 A 
ATOM     49  C   UNL A   1      41.228  28.625  31.258  1.00  0.00     0.049 A 
ATOM     50  C   UNL A   1      40.681  32.037  35.676  1.00  0.00     0.074 A 
ATOM     51  C   UNL A   1      42.278  27.725  31.295  1.00  0.00     0.029 A 
ATOM     52  N   UNL A   1      41.273  29.344  32.444  1.00  0.00    -0.354 N 
ATOM     53  N   UNL A   1      40.941  31.185  34.715  1.00  0.00    -0.248 NA
ATOM     54  C   UNL A   1      41.556  31.904  36.849  1.00  0.00     0.031 C 
ATOM     55  C   UNL A   1      42.929  27.867  32.525  1.00  0.00     0.029 A 
ATOM     56  C   UNL A   1      42.319  28.890  33.231  1.00  0.00     0.049 A 
ATOM     57  H   UNL A   1      40.654  30.069  32.690  1.00  0.00     0.167 HD
ATOM     58  C   UNL A   1      42.024  30.435  35.152  1.00  0.00     0.074 A 
ATOM     59  C   UNL A   1      42.382  30.944  36.459  1.00  0.00     0.031 C 
ATOM     60  C   UNL A   1      42.662  29.414  34.529  1.00  0.00     0.037 A 
BRANCH  47  61
ATOM     61  C   UNL A   1      40.282  27.912  29.026  1.00  0.00     0.064 A 
ATOM     62  C   UNL A   1      39.566  26.704  28.999  1.00  0.00     0.173 A 
ATOM     63  C   UNL A   1      41.017  28.263  27.884  1.00  0.00     0.173 A 
ATOM     64  F   UNL A   1      38.858  26.314  30.070  1.00  0.00    -0.203 F 
ATOM     65  C   UNL A   1      39.610  25.870  27.885  1.00  0.00     0.198 A 
ATOM     66  C   UNL A   1      41.032  27.442  26.760  1.00  0.00     0.198 A 
ATOM     67  F   UNL A   1      41.717  29.407  27.856  1.00  0.00    -0.203 F 
ATOM     68  F   UNL A   1      38.961  24.697  27.904  1.00  0.00    -0.200 F 
ATOM     69  C   UNL A   1      40.336  26.242  26.765  1.00  0.00     0.200 A 
ATOM     70  F   UNL A   1      41.725  27.808  25.674  1.00  0.00    -0.200 F 
ATOM     71  F   UNL A   1      40.372  25.440  25.691  1.00  0.00    -0.200 F 
ENDBRANCH  47  61
BRANCH  48  72
ATOM     72  C   UNL A   1      39.505  33.996  36.924  1.00  0.00     0.064 A 
ATOM     73  C   UNL A   1      40.139  35.245  36.961  1.00  0.00     0.173 A 
ATOM     74  C   UNL A   1      38.759  33.609  38.045  1.00  0.00     0.173 A 
ATOM     75  F   UNL A   1      40.880  35.652  35.920  1.00  0.00    -0.203 F 
ATOM     76  C   UNL A   1      40.049  36.066  38.084  1.00  0.00     0.198 A 
ATOM     77  C   UNL A   1      38.645  34.443  39.157  1.00  0.00     0.198 A 
ATOM     78  F   UNL A   1      38.127  32.426  38.059  1.00  0.00    -0.203 F 
ATOM     79  F   UNL A   1      40.705  37.234  38.112  1.00  0.00    -0.200 F 
ATOM     80  C   UNL A   1      39.298  35.667  39.179  1.00  0.00     0.200 A 
ATOM     81  F   UNL A   1      37.907  34.059  40.207  1.00  0.00    -0.200 F 
ATOM     82  F   UNL A   1      39.210  36.456  40.258  1.00  0.00    -0.200 F 
ENDBRANCH  48  72
BRANCH  60  83
ATOM     83  C   UNL A   1      43.834  28.802  35.240  1.00  0.00     0.064 A 
ATOM     84  C   UNL A   1      43.680  27.715  36.112  1.00  0.00     0.173 A 
ATOM     85  C   UNL A   1      45.133  29.283  35.011  1.00  0.00     0.173 A 
ATOM     86  F   UNL A   1      42.457  27.228  36.374  1.00  0.00    -0.203 F 
ATOM     87  C   UNL A   1      44.780  27.149  36.750  1.00  0.00     0.198 A 
ATOM     88  C   UNL A   1      46.234  28.693  35.627  1.00  0.00     0.198 A 
ATOM     89  F   UNL A   1      45.336  30.316  34.180  1.00  0.00    -0.203 F 
ATOM     90  F   UNL A   1      44.603  26.142  37.618  1.00  0.00    -0.200 F 
ATOM     91  C   UNL A   1      46.056  27.632  36.501  1.00  0.00     0.200 A 
ATOM     92  F   UNL A   1      47.467  29.152  35.373  1.00  0.00    -0.200 F 
ATOM     93  F   UNL A   1      47.113  27.080  37.110  1.00  0.00    -0.200 F 
ENDBRANCH  60  83
ENDBRANCH  34  35
ENDBRANCH  26  29
ENDBRANCH  24  25
ENDBRANCH  23  24
ENDBRANCH   1  23
TORSDOF 14
ENDMDL
MODEL 3
REMARK VINA RESULT:     -12.8      5.896     11.249
REMARK SMILES C[C@H]([C@@H](C)C(=O)NCCCCNC(=O)c1ccc(-c2c3nc(c(-c4c(F)c(F)c(F)c(F)c4F)c4ccc([nH]4)c(-c4c(F)c(F)c(F)c(F)c4F)c4nc(c(-c5c(F)c(F)c(F)c(F)c5F)c5ccc2[nH]5)C=C4)C=C3)cc1)[S@@](=O)c1ccc2ccccc2c1
REMARK SMILES IDX 9 1 8 2 7 3 5 4 6 5 3 7 4 8 2 9 1 10 78 11 79 12 80 13 81 14
REMARK SMILES IDX 89 15 82 16 88 17 83 18 87 19 84 20 86 21 85 22 10 23 11 24
REMARK SMILES IDX 12 25 13 26 14 28 15 29 16 30 77 31 17 32 76 33 18 34 19 35
REMARK SMILES IDX 20 36 70 37 21 38 75 39 69 40 71 41 22 42 74 43 68 44 67 45
REMARK SMILES IDX 23 47 55 48 35 49 54 50 36 51 39 52 53 53 72 54 37 55 38 56
REMARK SMILES IDX 52 58 73 59 40 60 24 61 25 62 33 63 26 64 27 65 31 66 34 67
REMARK SMILES IDX 28 68 29 69 32 70 30 71 56 72 57 73 65 74 58 75 59 76 63 77
REMARK SMILES IDX 66 78 60 79 61 80 64 81 62 82 41 83 42 84 50 85 43 86 44 87
REMARK SMILES IDX 48 88 51 89 45 90 46 91 49 92 47 93
REMARK H PARENT 7 6 12 27 71 46 39 57
REMARK Flexibility Score: inf
ROOT
ATOM      1  C   UNL A   1      37.323  21.354  24.759  1.00  0.00     0.023 C 
ENDROOT
BRANCH   1   2
ATOM      2  C   UNL A   1      35.812  21.109  24.712  1.00  0.00     0.116 C 
BRANCH   2   3
ATOM      3  N   UNL A   1      35.273  21.113  26.057  1.00  0.00    -0.356 N 
ATOM      4  C   UNL A   1      33.986  21.206  26.490  1.00  0.00     0.224 C 
ATOM      5  O   UNL A   1      33.808  21.458  27.684  1.00  0.00    -0.275 OA
ATOM      6  H   UNL A   1      35.945  21.036  26.772  1.00  0.00     0.163 HD
BRANCH   4   7
ATOM      7  C   UNL A   1      32.792  20.938  25.576  1.00  0.00     0.091 C 
ATOM      8  C   UNL A   1      32.976  19.566  24.917  1.00  0.00     0.019 C 
BRANCH   7   9
ATOM      9  C   UNL A   1      32.451  22.081  24.601  1.00  0.00     0.093 C 
ATOM     10  C   UNL A   1      32.233  21.635  23.156  1.00  0.00     0.023 C 
BRANCH   9  11
ATOM     11  S   UNL A   1      31.098  23.166  25.232  1.00  0.00     0.057 S 
ATOM     12  O   UNL A   1      30.682  22.620  26.566  1.00  0.00    -0.254 OA
BRANCH  11  13
ATOM     13  C   UNL A   1      31.994  24.684  25.579  1.00  0.00     0.040 A 
ATOM     14  C   UNL A   1      33.364  24.733  25.305  1.00  0.00     0.018 A 
ATOM     15  C   UNL A   1      31.352  25.815  26.088  1.00  0.00     0.026 A 
ATOM     16  C   UNL A   1      34.089  25.897  25.564  1.00  0.00     0.010 A 
ATOM     17  C   UNL A   1      32.079  26.968  26.415  1.00  0.00    -0.017 A 
ATOM     18  C   UNL A   1      33.464  27.016  26.135  1.00  0.00    -0.018 A 
ATOM     19  C   UNL A   1      31.461  28.068  27.029  1.00  0.00     0.009 A 
ATOM     20  C   UNL A   1      34.185  28.180  26.441  1.00  0.00     0.009 A 
ATOM     21  C   UNL A   1      32.199  29.205  27.360  1.00  0.00     0.001 A 
ATOM     22  C   UNL A   1      33.556  29.265  27.055  1.00  0.00     0.001 A 
ENDBRANCH  11  13
ENDBRANCH   9  11
ENDBRANCH   7   9
ENDBRANCH   4   7
ENDBRANCH   2   3
ENDBRANCH   1   2
BRANCH   1  23
ATOM     23  C   UNL A   1      38.149  20.095  25.010  1.00  0.00     0.023 C 
BRANCH  23  24
ATOM     24  C   UNL A   1      39.360  20.309  25.907  1.00  0.00     0.116 C 
BRANCH  24  25
ATOM     25  N   UNL A   1      40.288  19.188  25.903  1.00  0.00    -0.352 N 
ATOM     26  C   UNL A   1      41.648  19.217  26.085  1.00  0.00     0.251 C 
ATOM     27  H   UNL A   1      39.891  18.301  25.752  1.00  0.00     0.163 HD
ATOM     28  O   UNL A   1      42.324  18.201  25.959  1.00  0.00    -0.269 OA
BRANCH  26  29
ATOM     29  C   UNL A   1      42.290  20.507  26.390  1.00  0.00     0.039 A 
ATOM     30  C   UNL A   1      42.811  21.263  25.338  1.00  0.00     0.014 A 
ATOM     31  C   UNL A   1      42.307  20.995  27.698  1.00  0.00     0.014 A 
ATOM     32  C   UNL A   1      43.296  22.544  25.594  1.00  0.00     0.010 A 
ATOM     33  C   UNL A   1      42.716  22.300  27.937  1.00  0.00     0.010 A 
ATOM     34  C   UNL A   1      43.217  23.084  26.888  1.00  0.00    -0.014 A 
BRANCH  34  35
ATOM     35  C   UNL A   1      43.661  24.471  27.166  1.00  0.00     0.031 A 
ATOM     36  C   UNL A   1      42.673  25.487  27.659  1.00  0.00     0.074 A 
ATOM     37  C   UNL A   1      44.936  24.825  26.912  1.00  0.00     0.049 A 
ATOM     38  N   UNL A   1      42.848  26.761  27.903  1.00  0.00    -0.248 NA
ATOM     39  C   UNL A   1      41.296  25.018  27.879  1.00  0.00     0.031 C 
ATOM     40  C   UNL A   1      45.970  23.936  26.380  1.00  0.00     0.029 A 
ATOM     41  N   UNL A   1      45.575  26.029  27.059  1.00  0.00    -0.354 N 
ATOM     42  C   UNL A   1      41.604  27.243  28.290  1.00  0.00     0.074 A 
ATOM     43  C   UNL A   1      40.671  26.144  28.190  1.00  0.00     0.031 C 
ATOM     44  C   UNL A   1      47.121  24.619  26.270  1.00  0.00     0.029 A 
ATOM     45  C   UNL A   1      46.897  26.000  26.687  1.00  0.00     0.049 A 
ATOM     46  H   UNL A   1      45.129  26.838  27.400  1.00  0.00     0.167 HD
ATOM     47  C   UNL A   1      41.278  28.486  28.716  1.00  0.00     0.037 A 
ATOM     48  C   UNL A   1      47.820  26.980  26.680  1.00  0.00     0.037 A 
ATOM     49  C   UNL A   1      42.218  29.569  28.837  1.00  0.00     0.049 A 
ATOM     50  C   UNL A   1      47.430  28.354  27.156  1.00  0.00     0.074 A 
ATOM     51  C   UNL A   1      42.004  30.848  29.319  1.00  0.00     0.029 A 
ATOM     52  N   UNL A   1      43.553  29.498  28.466  1.00  0.00    -0.354 N 
ATOM     53  N   UNL A   1      46.270  28.780  27.593  1.00  0.00    -0.248 NA
ATOM     54  C   UNL A   1      48.480  29.381  27.143  1.00  0.00     0.031 C 
ATOM     55  C   UNL A   1      43.198  31.565  29.196  1.00  0.00     0.029 A 
ATOM     56  C   UNL A   1      44.170  30.719  28.686  1.00  0.00     0.049 A 
ATOM     57  H   UNL A   1      43.998  28.698  28.101  1.00  0.00     0.167 HD
ATOM     58  C   UNL A   1      46.456  30.113  27.933  1.00  0.00     0.074 A 
ATOM     59  C   UNL A   1      47.845  30.420  27.666  1.00  0.00     0.031 C 
ATOM     60  C   UNL A   1      45.557  31.003  28.419  1.00  0.00     0.037 A 
BRANCH  47  61
ATOM     61  C   UNL A   1      39.845  28.738  29.088  1.00  0.00     0.064 A 
ATOM     62  C   UNL A   1      39.369  28.497  30.387  1.00  0.00     0.173 A 
ATOM     63  C   UNL A   1      38.944  29.251  28.144  1.00  0.00     0.173 A 
ATOM     64  F   UNL A   1      40.187  27.993  31.323  1.00  0.00    -0.203 F 
ATOM     65  C   UNL A   1      38.036  28.731  30.716  1.00  0.00     0.198 A 
ATOM     66  C   UNL A   1      37.620  29.514  28.487  1.00  0.00     0.198 A 
ATOM     67  F   UNL A   1      39.347  29.502  26.890  1.00  0.00    -0.203 F 
ATOM     68  F   UNL A   1      37.593  28.442  31.947  1.00  0.00    -0.200 F 
ATOM     69  C   UNL A   1      37.166  29.246  29.769  1.00  0.00     0.200 A 
ATOM     70  F   UNL A   1      36.782  30.023  27.573  1.00  0.00    -0.200 F 
ATOM     71  F   UNL A   1      35.885  29.476  30.090  1.00  0.00    -0.200 F 
ENDBRANCH  47  61
BRANCH  48  72
ATOM     72  C   UNL A   1      49.208  26.692  26.234  1.00  0.00     0.064 A 
ATOM     73  C   UNL A   1      49.608  26.947  24.916  1.00  0.00     0.173 A 
ATOM     74  C   UNL A   1      50.160  26.152  27.111  1.00  0.00     0.173 A 
ATOM     75  F   UNL A   1      48.728  27.445  24.034  1.00  0.00    -0.203 F 
ATOM     76  C   UNL A   1      50.900  26.653  24.484  1.00  0.00     0.198 A 
ATOM     77  C   UNL A   1      51.460  25.885  26.687  1.00  0.00     0.198 A 
ATOM     78  F   UNL A   1      49.831  25.895  28.386  1.00  0.00    -0.203 F 
ATOM     79  F   UNL A   1      51.241  26.862  23.205  1.00  0.00    -0.200 F 
ATOM     80  C   UNL A   1      51.827  26.128  25.371  1.00  0.00     0.200 A 
ATOM     81  F   UNL A   1      52.357  25.391  27.552  1.00  0.00    -0.200 F 
ATOM     82  F   UNL A   1      53.070  25.847  24.957  1.00  0.00    -0.200 F 
ENDBRANCH  48  72
BRANCH  60  83
ATOM     83  C   UNL A   1      46.057  32.386  28.724  1.00  0.00     0.064 A 
ATOM     84  C   UNL A   1      46.607  32.711  29.972  1.00  0.00     0.173 A 
ATOM     85  C   UNL A   1      46.022  33.386  27.740  1.00  0.00     0.173 A 
ATOM     86  F   UNL A   1      46.651  31.793  30.951  1.00  0.00    -0.203 F 
ATOM     87  C   UNL A   1      47.082  33.993  30.232  1.00  0.00     0.198 A 
ATOM     88  C   UNL A   1      46.526  34.658  27.994  1.00  0.00     0.198 A 
ATOM     89  F   UNL A   1      45.511  33.124  26.527  1.00  0.00    -0.203 F 
ATOM     90  F   UNL A   1      47.559  34.295  31.448  1.00  0.00    -0.200 F 
ATOM     91  C   UNL A   1      47.048  34.963  29.242  1.00  0.00     0.200 A 
ATOM     92  F   UNL A   1      46.507  35.589  27.030  1.00  0.00    -0.200 F 
ATOM     93  F   UNL A   1      47.513  36.195  29.492  1.00  0.00    -0.200 F 
ENDBRANCH  60  83
ENDBRANCH  34  35
ENDBRANCH  26  29
ENDBRANCH  24  25
ENDBRANCH  23  24
ENDBRANCH   1  23
TORSDOF 14
ENDMDL
