MODEL 1
REMARK VINA RESULT:     -11.2      0.000      0.000
REMARK SMILES CC[N@@H+](C[C@@H]1CCCO1)[C@@H](C)c1ccc(C(=O)NCCCCNC(=O)c2ccc(-c3c4nc(c(-c5c(F)c(F)c(F)c(F)c5F)c5ccc([nH]5)c(-c5c(F)c(F)c(F)c(F)c5F)c5nc(c(-c6c(F)c(F)c(F)c(F)c6F)c6ccc3[nH]6)C=C5)C=C4)cc2)o1
REMARK SMILES IDX 19 1 18 2 16 3 17 4 15 6 12 7 13 8 89 9 14 10 10 11 11 12
REMARK SMILES IDX 3 13 2 15 1 16 4 17 5 18 6 19 9 20 7 21 8 22 20 23 21 24
REMARK SMILES IDX 22 25 23 26 24 27 25 29 26 30 27 31 88 32 28 33 87 34 29 35
REMARK SMILES IDX 30 36 31 37 81 38 32 39 86 40 80 41 82 42 33 43 85 44 79 45
REMARK SMILES IDX 78 46 34 48 66 49 46 50 65 51 47 52 50 53 64 54 83 55 48 56
REMARK SMILES IDX 49 57 63 59 84 60 51 61 35 62 36 63 44 64 37 65 38 66 42 67
REMARK SMILES IDX 45 68 39 69 40 70 43 71 41 72 67 73 68 74 76 75 69 76 70 77
REMARK SMILES IDX 74 78 77 79 71 80 72 81 75 82 73 83 52 84 53 85 61 86 54 87
REMARK SMILES IDX 55 88 59 89 62 90 56 91 57 92 60 93 58 94
REMARK H PARENT 18 5 3 14 23 28 82 47 50 58
REMARK Flexibility Score: inf
ROOT
ATOM      1  C   UNL A   1      35.270  32.898  27.870  1.00  0.00     0.116 C 
ENDROOT
BRANCH   1   2
ATOM      2  N   UNL A   1      35.649  31.513  27.993  1.00  0.00    -0.349 N 
ATOM      3  C   UNL A   1      34.986  30.365  27.631  1.00  0.00     0.287 C 
ATOM      4  O   UNL A   1      35.589  29.315  27.872  1.00  0.00    -0.266 OA
ATOM      5  H   UNL A   1      36.529  31.365  28.408  1.00  0.00     0.163 HD
BRANCH   3   6
ATOM      6  C   UNL A   1      33.675  30.404  27.006  1.00  0.00     0.191 A 
ATOM      7  C   UNL A   1      32.094  29.504  25.743  1.00  0.00     0.161 A 
ATOM      8  C   UNL A   1      31.599  30.716  26.168  1.00  0.00     0.053 A 
ATOM      9  O   UNL A   1      33.359  29.330  26.208  1.00  0.00    -0.450 OA
ATOM     10  C   UNL A   1      32.585  31.260  27.020  1.00  0.00     0.057 A 
BRANCH   7  11
ATOM     11  C   UNL A   1      31.512  28.396  24.924  1.00  0.00     0.248 C 
ATOM     12  C   UNL A   1      31.991  27.067  25.533  1.00  0.00     0.084 C 
BRANCH  11  13
ATOM     13  N   UNL A   1      31.678  28.573  23.463  1.00  0.00    -0.324 N 
ATOM     14  H   UNL A   1      32.054  29.518  23.545  1.00  0.00     0.348 HD
BRANCH  13  15
ATOM     15  C   UNL A   1      32.780  27.929  22.741  1.00  0.00     0.259 C 
ATOM     16  C   UNL A   1      34.124  28.659  22.718  1.00  0.00     0.071 C 
ENDBRANCH  13  15
BRANCH  13  17
ATOM     17  C   UNL A   1      30.438  28.650  22.668  1.00  0.00     0.295 C 
BRANCH  17  18
ATOM     18  C   UNL A   1      29.805  30.027  22.365  1.00  0.00     0.173 C 
ATOM     19  C   UNL A   1      28.892  30.630  23.417  1.00  0.00     0.040 C 
ATOM     20  O   UNL A   1      28.973  29.972  21.186  1.00  0.00    -0.372 OA
ATOM     21  C   UNL A   1      28.219  31.718  22.622  1.00  0.00     0.031 C 
ATOM     22  C   UNL A   1      28.034  31.060  21.268  1.00  0.00     0.161 C 
ENDBRANCH  17  18
ENDBRANCH  13  17
ENDBRANCH  11  13
ENDBRANCH   7  11
ENDBRANCH   3   6
ENDBRANCH   1   2
BRANCH   1  23
ATOM     23  C   UNL A   1      34.690  33.427  29.182  1.00  0.00     0.023 C 
BRANCH  23  24
ATOM     24  C   UNL A   1      33.446  34.298  28.982  1.00  0.00     0.023 C 
BRANCH  24  25
ATOM     25  C   UNL A   1      33.501  35.646  29.693  1.00  0.00     0.116 C 
BRANCH  25  26
ATOM     26  N   UNL A   1      32.503  35.790  30.741  1.00  0.00    -0.352 N 
ATOM     27  C   UNL A   1      32.581  35.371  32.050  1.00  0.00     0.251 C 
ATOM     28  H   UNL A   1      31.668  36.241  30.483  1.00  0.00     0.163 HD
ATOM     29  O   UNL A   1      31.615  35.451  32.790  1.00  0.00    -0.269 OA
BRANCH  27  30
ATOM     30  C   UNL A   1      33.847  34.775  32.527  1.00  0.00     0.039 A 
ATOM     31  C   UNL A   1      33.846  33.438  32.923  1.00  0.00     0.014 A 
ATOM     32  C   UNL A   1      35.029  35.518  32.529  1.00  0.00     0.014 A 
ATOM     33  C   UNL A   1      35.051  32.828  33.270  1.00  0.00     0.010 A 
ATOM     34  C   UNL A   1      36.240  34.884  32.787  1.00  0.00     0.010 A 
ATOM     35  C   UNL A   1      36.263  33.536  33.168  1.00  0.00    -0.014 A 
BRANCH  35  36
ATOM     36  C   UNL A   1      37.552  32.860  33.455  1.00  0.00     0.031 A 
ATOM     37  C   UNL A   1      38.312  33.168  34.715  1.00  0.00     0.074 A 
ATOM     38  C   UNL A   1      38.050  31.984  32.561  1.00  0.00     0.049 A 
ATOM     39  N   UNL A   1      39.427  32.642  35.156  1.00  0.00    -0.248 NA
ATOM     40  C   UNL A   1      37.766  34.224  35.581  1.00  0.00     0.031 C 
ATOM     41  C   UNL A   1      37.443  31.661  31.268  1.00  0.00     0.029 A 
ATOM     42  N   UNL A   1      39.174  31.199  32.605  1.00  0.00    -0.354 N 
ATOM     43  C   UNL A   1      39.712  33.303  36.344  1.00  0.00     0.074 A 
ATOM     44  C   UNL A   1      38.696  34.317  36.519  1.00  0.00     0.031 C 
ATOM     45  C   UNL A   1      38.174  30.711  30.664  1.00  0.00     0.029 A 
ATOM     46  C   UNL A   1      39.316  30.382  31.511  1.00  0.00     0.049 A 
ATOM     47  H   UNL A   1      39.816  31.219  33.351  1.00  0.00     0.167 HD
ATOM     48  C   UNL A   1      40.712  33.065  37.226  1.00  0.00     0.037 A 
ATOM     49  C   UNL A   1      40.257  29.460  31.230  1.00  0.00     0.037 A 
ATOM     50  C   UNL A   1      41.714  32.045  37.051  1.00  0.00     0.049 A 
ATOM     51  C   UNL A   1      41.348  29.204  32.233  1.00  0.00     0.074 A 
ATOM     52  C   UNL A   1      42.739  31.686  37.908  1.00  0.00     0.029 A 
ATOM     53  N   UNL A   1      41.820  31.225  35.937  1.00  0.00    -0.354 N 
ATOM     54  N   UNL A   1      41.556  29.772  33.396  1.00  0.00    -0.248 NA
ATOM     55  C   UNL A   1      42.325  28.162  31.891  1.00  0.00     0.031 C 
ATOM     56  C   UNL A   1      43.497  30.685  37.289  1.00  0.00     0.029 A 
ATOM     57  C   UNL A   1      42.905  30.374  36.075  1.00  0.00     0.049 A 
ATOM     58  H   UNL A   1      41.212  31.244  35.162  1.00  0.00     0.167 HD
ATOM     59  C   UNL A   1      42.666  29.136  33.938  1.00  0.00     0.074 A 
ATOM     60  C   UNL A   1      43.070  28.123  32.985  1.00  0.00     0.031 C 
ATOM     61  C   UNL A   1      43.294  29.370  35.118  1.00  0.00     0.037 A 
BRANCH  48  62
ATOM     62  C   UNL A   1      40.767  33.918  38.462  1.00  0.00     0.064 A 
ATOM     63  C   UNL A   1      40.040  33.589  39.617  1.00  0.00     0.173 A 
ATOM     64  C   UNL A   1      41.579  35.061  38.504  1.00  0.00     0.173 A 
ATOM     65  F   UNL A   1      39.238  32.514  39.627  1.00  0.00    -0.203 F 
ATOM     66  C   UNL A   1      40.099  34.390  40.755  1.00  0.00     0.198 A 
ATOM     67  C   UNL A   1      41.662  35.840  39.656  1.00  0.00     0.198 A 
ATOM     68  F   UNL A   1      42.298  35.421  37.431  1.00  0.00    -0.203 F 
ATOM     69  F   UNL A   1      39.352  34.086  41.826  1.00  0.00    -0.200 F 
ATOM     70  C   UNL A   1      40.915  35.510  40.777  1.00  0.00     0.200 A 
ATOM     71  F   UNL A   1      42.464  36.914  39.680  1.00  0.00    -0.200 F 
ATOM     72  F   UNL A   1      40.978  36.275  41.875  1.00  0.00    -0.200 F 
ENDBRANCH  48  62
BRANCH  49  73
ATOM     73  C   UNL A   1      40.182  28.681  29.966  1.00  0.00     0.064 A 
ATOM     74  C   UNL A   1      39.525  27.441  29.919  1.00  0.00     0.173 A 
ATOM     75  C   UNL A   1      40.771  29.150  28.783  1.00  0.00     0.173 A 
ATOM     76  F   UNL A   1      38.961  26.940  31.027  1.00  0.00    -0.203 F 
ATOM     77  C   UNL A   1      39.488  26.690  28.746  1.00  0.00     0.198 A 
ATOM     78  C   UNL A   1      40.704  28.413  27.602  1.00  0.00     0.198 A 
ATOM     79  F   UNL A   1      41.402  30.334  28.770  1.00  0.00    -0.203 F 
ATOM     80  F   UNL A   1      38.902  25.485  28.744  1.00  0.00    -0.200 F 
ATOM     81  C   UNL A   1      40.072  27.179  27.588  1.00  0.00     0.200 A 
ATOM     82  F   UNL A   1      41.254  28.897  26.481  1.00  0.00    -0.200 F 
ATOM     83  F   UNL A   1      40.033  26.457  26.460  1.00  0.00    -0.200 F 
ENDBRANCH  49  73
BRANCH  61  84
ATOM     84  C   UNL A   1      44.458  28.481  35.458  1.00  0.00     0.064 A 
ATOM     85  C   UNL A   1      45.773  28.808  35.093  1.00  0.00     0.173 A 
ATOM     86  C   UNL A   1      44.252  27.284  36.162  1.00  0.00     0.173 A 
ATOM     87  F   UNL A   1      46.024  29.934  34.409  1.00  0.00    -0.203 F 
ATOM     88  C   UNL A   1      46.830  27.946  35.375  1.00  0.00     0.198 A 
ATOM     89  C   UNL A   1      45.317  26.444  36.477  1.00  0.00     0.198 A 
ATOM     90  F   UNL A   1      43.017  26.928  36.546  1.00  0.00    -0.203 F 
ATOM     91  F   UNL A   1      48.065  28.243  34.950  1.00  0.00    -0.200 F 
ATOM     92  C   UNL A   1      46.602  26.768  36.070  1.00  0.00     0.200 A 
ATOM     93  F   UNL A   1      45.096  25.315  37.164  1.00  0.00    -0.200 F 
ATOM     94  F   UNL A   1      47.619  25.937  36.337  1.00  0.00    -0.200 F 
ENDBRANCH  61  84
ENDBRANCH  35  36
ENDBRANCH  27  30
ENDBRANCH  25  26
ENDBRANCH  24  25
ENDBRANCH  23  24
ENDBRANCH   1  23
TORSDOF 16
ENDMDL
MODEL 2
REMARK VINA RESULT:     -11.2      3.166      5.747
REMARK SMILES CC[N@@H+](C[C@@H]1CCCO1)[C@@H](C)c1ccc(C(=O)NCCCCNC(=O)c2ccc(-c3c4nc(c(-c5c(F)c(F)c(F)c(F)c5F)c5ccc([nH]5)c(-c5c(F)c(F)c(F)c(F)c5F)c5nc(c(-c6c(F)c(F)c(F)c(F)c6F)c6ccc3[nH]6)C=C5)C=C4)cc2)o1
REMARK SMILES IDX 19 1 18 2 16 3 17 4 15 6 12 7 13 8 89 9 14 10 10 11 11 12
REMARK SMILES IDX 3 13 2 15 1 16 4 17 5 18 6 19 9 20 7 21 8 22 20 23 21 24
REMARK SMILES IDX 22 25 23 26 24 27 25 29 26 30 27 31 88 32 28 33 87 34 29 35
REMARK SMILES IDX 30 36 31 37 81 38 32 39 86 40 80 41 82 42 33 43 85 44 79 45
REMARK SMILES IDX 78 46 34 48 66 49 46 50 65 51 47 52 50 53 64 54 83 55 48 56
REMARK SMILES IDX 49 57 63 59 84 60 51 61 35 62 36 63 44 64 37 65 38 66 42 67
REMARK SMILES IDX 45 68 39 69 40 70 43 71 41 72 67 73 68 74 76 75 69 76 70 77
REMARK SMILES IDX 74 78 77 79 71 80 72 81 75 82 73 83 52 84 53 85 61 86 54 87
REMARK SMILES IDX 55 88 59 89 62 90 56 91 57 92 60 93 58 94
REMARK H PARENT 18 5 3 14 23 28 82 47 50 58
REMARK Flexibility Score: inf
ROOT
ATOM      1  C   UNL A   1      30.697  27.513  23.957  1.00  0.00     0.116 C 
ENDROOT
BRANCH   1   2
ATOM      2  N   UNL A   1      30.110  26.653  24.955  1.00  0.00    -0.349 N 
ATOM      3  C   UNL A   1      30.668  25.661  25.725  1.00  0.00     0.287 C 
ATOM      4  O   UNL A   1      29.889  25.101  26.501  1.00  0.00    -0.266 OA
ATOM      5  H   UNL A   1      29.150  26.800  25.109  1.00  0.00     0.163 HD
BRANCH   3   6
ATOM      6  C   UNL A   1      32.076  25.315  25.624  1.00  0.00     0.191 A 
ATOM      7  C   UNL A   1      33.722  24.085  24.799  1.00  0.00     0.161 A 
ATOM      8  C   UNL A   1      34.314  24.997  25.642  1.00  0.00     0.053 A 
ATOM      9  O   UNL A   1      32.373  24.242  24.816  1.00  0.00    -0.450 OA
ATOM     10  C   UNL A   1      33.269  25.817  26.121  1.00  0.00     0.057 A 
BRANCH   7  11
ATOM     11  C   UNL A   1      34.272  23.024  23.899  1.00  0.00     0.248 C 
ATOM     12  C   UNL A   1      33.238  22.776  22.787  1.00  0.00     0.084 C 
BRANCH  11  13
ATOM     13  N   UNL A   1      34.798  21.838  24.614  1.00  0.00    -0.324 N 
ATOM     14  H   UNL A   1      34.545  22.190  25.537  1.00  0.00     0.348 HD
BRANCH  13  15
ATOM     15  C   UNL A   1      34.065  20.569  24.621  1.00  0.00     0.259 C 
ATOM     16  C   UNL A   1      33.186  20.273  25.838  1.00  0.00     0.071 C 
ENDBRANCH  13  15
BRANCH  13  17
ATOM     17  C   UNL A   1      36.262  21.656  24.588  1.00  0.00     0.295 C 
BRANCH  17  18
ATOM     18  C   UNL A   1      37.130  22.260  25.715  1.00  0.00     0.173 C 
ATOM     19  C   UNL A   1      37.577  23.703  25.564  1.00  0.00     0.040 C 
ATOM     20  O   UNL A   1      38.370  21.534  25.866  1.00  0.00    -0.372 OA
ATOM     21  C   UNL A   1      38.654  23.779  26.614  1.00  0.00     0.031 C 
ATOM     22  C   UNL A   1      39.313  22.418  26.501  1.00  0.00     0.161 C 
ENDBRANCH  17  18
ENDBRANCH  13  17
ENDBRANCH  11  13
ENDBRANCH   7  11
ENDBRANCH   3   6
ENDBRANCH   1   2
BRANCH   1  23
ATOM     23  C   UNL A   1      31.120  28.850  24.567  1.00  0.00     0.023 C 
BRANCH  23  24
ATOM     24  C   UNL A   1      32.632  29.084  24.515  1.00  0.00     0.023 C 
BRANCH  24  25
ATOM     25  C   UNL A   1      33.255  29.471  25.852  1.00  0.00     0.116 C 
BRANCH  25  26
ATOM     26  N   UNL A   1      32.862  30.792  26.315  1.00  0.00    -0.352 N 
ATOM     27  C   UNL A   1      33.488  31.583  27.251  1.00  0.00     0.251 C 
ATOM     28  H   UNL A   1      32.048  31.167  25.909  1.00  0.00     0.163 HD
ATOM     29  O   UNL A   1      32.977  32.624  27.631  1.00  0.00    -0.269 OA
BRANCH  27  30
ATOM     30  C   UNL A   1      34.769  31.121  27.825  1.00  0.00     0.039 A 
ATOM     31  C   UNL A   1      35.795  32.049  27.999  1.00  0.00     0.014 A 
ATOM     32  C   UNL A   1      34.930  29.795  28.235  1.00  0.00     0.014 A 
ATOM     33  C   UNL A   1      36.968  31.656  28.640  1.00  0.00     0.010 A 
ATOM     34  C   UNL A   1      36.063  29.430  28.954  1.00  0.00     0.010 A 
ATOM     35  C   UNL A   1      37.097  30.353  29.156  1.00  0.00    -0.014 A 
BRANCH  35  36
ATOM     36  C   UNL A   1      38.312  29.963  29.913  1.00  0.00     0.031 A 
ATOM     37  C   UNL A   1      38.528  30.456  31.317  1.00  0.00     0.074 A 
ATOM     38  C   UNL A   1      39.235  29.182  29.320  1.00  0.00     0.049 A 
ATOM     39  N   UNL A   1      39.502  30.181  32.149  1.00  0.00    -0.248 NA
ATOM     40  C   UNL A   1      37.536  31.402  31.851  1.00  0.00     0.031 C 
ATOM     41  C   UNL A   1      39.175  28.706  27.937  1.00  0.00     0.029 A 
ATOM     42  N   UNL A   1      40.400  28.644  29.805  1.00  0.00    -0.354 N 
ATOM     43  C   UNL A   1      39.240  30.920  33.295  1.00  0.00     0.074 A 
ATOM     44  C   UNL A   1      38.058  31.709  33.029  1.00  0.00     0.031 C 
ATOM     45  C   UNL A   1      40.228  27.907  27.700  1.00  0.00     0.029 A 
ATOM     46  C   UNL A   1      41.053  27.843  28.902  1.00  0.00     0.049 A 
ATOM     47  H   UNL A   1      40.735  28.817  30.715  1.00  0.00     0.167 HD
ATOM     48  C   UNL A   1      39.906  30.915  34.475  1.00  0.00     0.037 A 
ATOM     49  C   UNL A   1      42.184  27.124  29.035  1.00  0.00     0.037 A 
ATOM     50  C   UNL A   1      41.075  30.117  34.737  1.00  0.00     0.049 A 
ATOM     51  C   UNL A   1      42.896  27.125  30.360  1.00  0.00     0.074 A 
ATOM     52  C   UNL A   1      41.795  29.998  35.912  1.00  0.00     0.029 A 
ATOM     53  N   UNL A   1      41.701  29.304  33.802  1.00  0.00    -0.354 N 
ATOM     54  N   UNL A   1      42.589  27.756  31.467  1.00  0.00    -0.248 NA
ATOM     55  C   UNL A   1      44.103  26.295  30.458  1.00  0.00     0.031 C 
ATOM     56  C   UNL A   1      42.887  29.156  35.675  1.00  0.00     0.029 A 
ATOM     57  C   UNL A   1      42.811  28.697  34.370  1.00  0.00     0.049 A 
ATOM     58  H   UNL A   1      41.402  29.177  32.873  1.00  0.00     0.167 HD
ATOM     59  C   UNL A   1      43.544  27.376  32.401  1.00  0.00     0.074 A 
ATOM     60  C   UNL A   1      44.425  26.440  31.735  1.00  0.00     0.031 C 
ATOM     61  C   UNL A   1      43.679  27.766  33.694  1.00  0.00     0.037 A 
BRANCH  48  62
ATOM     62  C   UNL A   1      39.380  31.796  35.572  1.00  0.00     0.064 A 
ATOM     63  C   UNL A   1      38.446  31.328  36.511  1.00  0.00     0.173 A 
ATOM     64  C   UNL A   1      39.836  33.116  35.709  1.00  0.00     0.173 A 
ATOM     65  F   UNL A   1      37.966  30.078  36.419  1.00  0.00    -0.203 F 
ATOM     66  C   UNL A   1      37.965  32.156  37.522  1.00  0.00     0.198 A 
ATOM     67  C   UNL A   1      39.379  33.930  36.743  1.00  0.00     0.198 A 
ATOM     68  F   UNL A   1      40.731  33.616  34.843  1.00  0.00    -0.203 F 
ATOM     69  F   UNL A   1      37.032  31.702  38.370  1.00  0.00    -0.200 F 
ATOM     70  C   UNL A   1      38.439  33.453  37.642  1.00  0.00     0.200 A 
ATOM     71  F   UNL A   1      39.849  35.180  36.866  1.00  0.00    -0.200 F 
ATOM     72  F   UNL A   1      37.983  34.246  38.622  1.00  0.00    -0.200 F 
ENDBRANCH  48  62
BRANCH  49  73
ATOM     73  C   UNL A   1      42.688  26.311  27.897  1.00  0.00     0.064 A 
ATOM     74  C   UNL A   1      43.555  26.862  26.942  1.00  0.00     0.173 A 
ATOM     75  C   UNL A   1      42.306  24.971  27.732  1.00  0.00     0.173 A 
ATOM     76  F   UNL A   1      43.936  28.144  27.045  1.00  0.00    -0.203 F 
ATOM     77  C   UNL A   1      43.997  26.114  25.852  1.00  0.00     0.198 A 
ATOM     78  C   UNL A   1      42.775  24.215  26.660  1.00  0.00     0.198 A 
ATOM     79  F   UNL A   1      41.487  24.392  28.622  1.00  0.00    -0.203 F 
ATOM     80  F   UNL A   1      44.781  26.684  24.926  1.00  0.00    -0.200 F 
ATOM     81  C   UNL A   1      43.611  24.790  25.715  1.00  0.00     0.200 A 
ATOM     82  F   UNL A   1      42.415  22.930  26.541  1.00  0.00    -0.200 F 
ATOM     83  F   UNL A   1      44.039  24.071  24.669  1.00  0.00    -0.200 F 
ENDBRANCH  49  73
BRANCH  61  84
ATOM     84  C   UNL A   1      44.799  27.143  34.480  1.00  0.00     0.064 A 
ATOM     85  C   UNL A   1      46.074  27.726  34.544  1.00  0.00     0.173 A 
ATOM     86  C   UNL A   1      44.589  25.946  35.182  1.00  0.00     0.173 A 
ATOM     87  F   UNL A   1      46.331  28.864  33.882  1.00  0.00    -0.203 F 
ATOM     88  C   UNL A   1      47.110  27.106  35.238  1.00  0.00     0.198 A 
ATOM     89  C   UNL A   1      45.618  25.350  35.907  1.00  0.00     0.198 A 
ATOM     90  F   UNL A   1      43.387  25.353  35.166  1.00  0.00    -0.203 F 
ATOM     91  F   UNL A   1      48.339  27.641  35.221  1.00  0.00    -0.200 F 
ATOM     92  C   UNL A   1      46.880  25.922  35.922  1.00  0.00     0.200 A 
ATOM     93  F   UNL A   1      45.388  24.215  36.583  1.00  0.00    -0.200 F 
ATOM     94  F   UNL A   1      47.880  25.324  36.586  1.00  0.00    -0.200 F 
ENDBRANCH  61  84
ENDBRANCH  35  36
ENDBRANCH  27  30
ENDBRANCH  25  26
ENDBRANCH  24  25
ENDBRANCH  23  24
ENDBRANCH   1  23
TORSDOF 16
ENDMDL
MODEL 3
REMARK VINA RESULT:     -11.1      6.564     11.226
REMARK SMILES CC[N@@H+](C[C@@H]1CCCO1)[C@@H](C)c1ccc(C(=O)NCCCCNC(=O)c2ccc(-c3c4nc(c(-c5c(F)c(F)c(F)c(F)c5F)c5ccc([nH]5)c(-c5c(F)c(F)c(F)c(F)c5F)c5nc(c(-c6c(F)c(F)c(F)c(F)c6F)c6ccc3[nH]6)C=C5)C=C4)cc2)o1
REMARK SMILES IDX 19 1 18 2 16 3 17 4 15 6 12 7 13 8 89 9 14 10 10 11 11 12
REMARK SMILES IDX 3 13 2 15 1 16 4 17 5 18 6 19 9 20 7 21 8 22 20 23 21 24
REMARK SMILES IDX 22 25 23 26 24 27 25 29 26 30 27 31 88 32 28 33 87 34 29 35
REMARK SMILES IDX 30 36 31 37 81 38 32 39 86 40 80 41 82 42 33 43 85 44 79 45
REMARK SMILES IDX 78 46 34 48 66 49 46 50 65 51 47 52 50 53 64 54 83 55 48 56
REMARK SMILES IDX 49 57 63 59 84 60 51 61 35 62 36 63 44 64 37 65 38 66 42 67
REMARK SMILES IDX 45 68 39 69 40 70 43 71 41 72 67 73 68 74 76 75 69 76 70 77
REMARK SMILES IDX 74 78 77 79 71 80 72 81 75 82 73 83 52 84 53 85 61 86 54 87
REMARK SMILES IDX 55 88 59 89 62 90 56 91 57 92 60 93 58 94
REMARK H PARENT 18 5 3 14 23 28 82 47 50 58
REMARK Flexibility Score: inf
ROOT
ATOM      1  C   UNL A   1      36.064  21.088  25.394  1.00  0.00     0.116 C 
ENDROOT
BRANCH   1   2
ATOM      2  N   UNL A   1      35.294  19.891  25.165  1.00  0.00    -0.349 N 
ATOM      3  C   UNL A   1      33.990  19.726  24.763  1.00  0.00     0.287 C 
ATOM      4  O   UNL A   1      33.622  18.553  24.655  1.00  0.00    -0.266 OA
ATOM      5  H   UNL A   1      35.783  19.053  25.324  1.00  0.00     0.163 HD
BRANCH   3   6
ATOM      6  C   UNL A   1      33.126  20.861  24.485  1.00  0.00     0.191 A 
ATOM      7  C   UNL A   1      32.004  22.657  25.133  1.00  0.00     0.161 A 
ATOM      8  C   UNL A   1      31.796  22.546  23.778  1.00  0.00     0.053 A 
ATOM      9  O   UNL A   1      32.768  21.622  25.573  1.00  0.00    -0.450 OA
ATOM     10  C   UNL A   1      32.559  21.435  23.358  1.00  0.00     0.057 A 
BRANCH   7  11
ATOM     11  C   UNL A   1      31.581  23.669  26.150  1.00  0.00     0.248 C 
ATOM     12  C   UNL A   1      30.304  23.142  26.827  1.00  0.00     0.084 C 
BRANCH  11  13
ATOM     13  N   UNL A   1      31.558  25.061  25.643  1.00  0.00    -0.324 N 
ATOM     14  H   UNL A   1      31.512  24.782  24.663  1.00  0.00     0.348 HD
BRANCH  13  15
ATOM     15  C   UNL A   1      30.344  25.878  25.727  1.00  0.00     0.259 C 
ATOM     16  C   UNL A   1      29.778  26.430  24.417  1.00  0.00     0.071 C 
ENDBRANCH  13  15
BRANCH  13  17
ATOM     17  C   UNL A   1      32.793  25.846  25.831  1.00  0.00     0.295 C 
BRANCH  17  18
ATOM     18  C   UNL A   1      33.507  26.457  24.603  1.00  0.00     0.173 C 
ATOM     19  C   UNL A   1      33.299  27.936  24.331  1.00  0.00     0.040 C 
ATOM     20  O   UNL A   1      33.077  25.823  23.379  1.00  0.00    -0.372 OA
ATOM     21  C   UNL A   1      33.817  28.042  22.921  1.00  0.00     0.031 C 
ATOM     22  C   UNL A   1      33.335  26.743  22.302  1.00  0.00     0.161 C 
ENDBRANCH  17  18
ENDBRANCH  13  17
ENDBRANCH  11  13
ENDBRANCH   7  11
ENDBRANCH   3   6
ENDBRANCH   1   2
BRANCH   1  23
ATOM     23  C   UNL A   1      37.404  21.027  24.661  1.00  0.00     0.023 C 
BRANCH  23  24
ATOM     24  C   UNL A   1      38.230  19.788  25.019  1.00  0.00     0.023 C 
BRANCH  24  25
ATOM     25  C   UNL A   1      39.433  20.070  25.913  1.00  0.00     0.116 C 
BRANCH  25  26
ATOM     26  N   UNL A   1      40.401  18.985  25.941  1.00  0.00    -0.352 N 
ATOM     27  C   UNL A   1      41.767  19.072  26.091  1.00  0.00     0.251 C 
ATOM     28  H   UNL A   1      40.035  18.078  25.840  1.00  0.00     0.163 HD
ATOM     29  O   UNL A   1      42.472  18.083  25.975  1.00  0.00    -0.269 OA
BRANCH  27  30
ATOM     30  C   UNL A   1      42.367  20.397  26.347  1.00  0.00     0.039 A 
ATOM     31  C   UNL A   1      42.826  21.142  25.260  1.00  0.00     0.014 A 
ATOM     32  C   UNL A   1      42.426  20.917  27.642  1.00  0.00     0.014 A 
ATOM     33  C   UNL A   1      43.293  22.438  25.470  1.00  0.00     0.010 A 
ATOM     34  C   UNL A   1      42.807  22.240  27.836  1.00  0.00     0.010 A 
ATOM     35  C   UNL A   1      43.252  23.011  26.754  1.00  0.00    -0.014 A 
BRANCH  35  36
ATOM     36  C   UNL A   1      43.669  24.420  26.961  1.00  0.00     0.031 A 
ATOM     37  C   UNL A   1      42.691  25.438  27.478  1.00  0.00     0.074 A 
ATOM     38  C   UNL A   1      44.928  24.786  26.654  1.00  0.00     0.049 A 
ATOM     39  N   UNL A   1      42.888  26.701  27.766  1.00  0.00    -0.248 NA
ATOM     40  C   UNL A   1      41.303  24.991  27.673  1.00  0.00     0.031 C 
ATOM     41  C   UNL A   1      45.945  23.907  26.072  1.00  0.00     0.029 A 
ATOM     42  N   UNL A   1      45.573  25.989  26.796  1.00  0.00    -0.354 N 
ATOM     43  C   UNL A   1      41.654  27.192  28.172  1.00  0.00     0.074 A 
ATOM     44  C   UNL A   1      40.700  26.116  28.025  1.00  0.00     0.031 C 
ATOM     45  C   UNL A   1      47.097  24.585  25.952  1.00  0.00     0.029 A 
ATOM     46  C   UNL A   1      46.892  25.953  26.418  1.00  0.00     0.049 A 
ATOM     47  H   UNL A   1      45.131  26.800  27.137  1.00  0.00     0.167 HD
ATOM     48  C   UNL A   1      41.350  28.421  28.655  1.00  0.00     0.037 A 
ATOM     49  C   UNL A   1      47.834  26.914  26.455  1.00  0.00     0.037 A 
ATOM     50  C   UNL A   1      42.308  29.485  28.810  1.00  0.00     0.049 A 
ATOM     51  C   UNL A   1      47.475  28.266  27.010  1.00  0.00     0.074 A 
ATOM     52  C   UNL A   1      42.116  30.749  29.338  1.00  0.00     0.029 A 
ATOM     53  N   UNL A   1      43.640  29.409  28.430  1.00  0.00    -0.354 N 
ATOM     54  N   UNL A   1      46.326  28.692  27.477  1.00  0.00    -0.248 NA
ATOM     55  C   UNL A   1      48.551  29.263  27.062  1.00  0.00     0.031 C 
ATOM     56  C   UNL A   1      43.319  31.457  29.228  1.00  0.00     0.029 A 
ATOM     57  C   UNL A   1      44.278  30.612  28.693  1.00  0.00     0.049 A 
ATOM     58  H   UNL A   1      44.070  28.617  28.033  1.00  0.00     0.167 HD
ATOM     59  C   UNL A   1      46.548  29.994  27.905  1.00  0.00     0.074 A 
ATOM     60  C   UNL A   1      47.948  30.277  27.665  1.00  0.00     0.031 C 
ATOM     61  C   UNL A   1      45.673  30.877  28.449  1.00  0.00     0.037 A 
BRANCH  48  62
ATOM     62  C   UNL A   1      39.925  28.677  29.056  1.00  0.00     0.064 A 
ATOM     63  C   UNL A   1      39.471  28.432  30.362  1.00  0.00     0.173 A 
ATOM     64  C   UNL A   1      39.007  29.201  28.133  1.00  0.00     0.173 A 
ATOM     65  F   UNL A   1      40.303  27.919  31.281  1.00  0.00    -0.203 F 
ATOM     66  C   UNL A   1      38.146  28.672  30.719  1.00  0.00     0.198 A 
ATOM     67  C   UNL A   1      37.692  29.473  28.504  1.00  0.00     0.198 A 
ATOM     68  F   UNL A   1      39.386  29.457  26.872  1.00  0.00    -0.203 F 
ATOM     69  F   UNL A   1      37.724  28.378  31.957  1.00  0.00    -0.200 F 
ATOM     70  C   UNL A   1      37.261  29.200  29.793  1.00  0.00     0.200 A 
ATOM     71  F   UNL A   1      36.840  29.996  27.611  1.00  0.00    -0.200 F 
ATOM     72  F   UNL A   1      35.988  29.439  30.140  1.00  0.00    -0.200 F 
ENDBRANCH  48  62
BRANCH  49  73
ATOM     73  C   UNL A   1      49.218  26.620  25.996  1.00  0.00     0.064 A 
ATOM     74  C   UNL A   1      50.158  26.039  26.861  1.00  0.00     0.173 A 
ATOM     75  C   UNL A   1      49.633  26.920  24.691  1.00  0.00     0.173 A 
ATOM     76  F   UNL A   1      49.816  25.749  28.125  1.00  0.00    -0.203 F 
ATOM     77  C   UNL A   1      51.467  25.799  26.447  1.00  0.00     0.198 A 
ATOM     78  C   UNL A   1      50.932  26.648  24.268  1.00  0.00     0.198 A 
ATOM     79  F   UNL A   1      48.771  27.466  23.821  1.00  0.00    -0.203 F 
ATOM     80  F   UNL A   1      52.358  25.295  27.311  1.00  0.00    -0.200 F 
ATOM     81  C   UNL A   1      51.851  26.098  25.149  1.00  0.00     0.200 A 
ATOM     82  F   UNL A   1      51.295  26.922  23.007  1.00  0.00    -0.200 F 
ATOM     83  F   UNL A   1      53.108  25.864  24.750  1.00  0.00    -0.200 F 
ENDBRANCH  49  73
BRANCH  61  84
ATOM     84  C   UNL A   1      46.221  32.215  28.860  1.00  0.00     0.064 A 
ATOM     85  C   UNL A   1      46.732  32.444  30.147  1.00  0.00     0.173 A 
ATOM     86  C   UNL A   1      46.237  33.283  27.949  1.00  0.00     0.173 A 
ATOM     87  F   UNL A   1      46.729  31.461  31.060  1.00  0.00    -0.203 F 
ATOM     88  C   UNL A   1      47.189  33.705  30.522  1.00  0.00     0.198 A 
ATOM     89  C   UNL A   1      46.732  34.532  28.316  1.00  0.00     0.198 A 
ATOM     90  F   UNL A   1      45.773  33.117  26.702  1.00  0.00    -0.203 F 
ATOM     91  F   UNL A   1      47.601  33.919  31.779  1.00  0.00    -0.200 F 
ATOM     92  C   UNL A   1      47.193  34.746  29.606  1.00  0.00     0.200 A 
ATOM     93  F   UNL A   1      46.752  35.531  27.423  1.00  0.00    -0.200 F 
ATOM     94  F   UNL A   1      47.630  35.960  29.969  1.00  0.00    -0.200 F 
ENDBRANCH  61  84
ENDBRANCH  35  36
ENDBRANCH  27  30
ENDBRANCH  25  26
ENDBRANCH  24  25
ENDBRANCH  23  24
ENDBRANCH   1  23
TORSDOF 16
ENDMDL
