MODEL 1
REMARK VINA RESULT:     -10.3      0.000      0.000
REMARK SMILES O=C(NCCCCNC(=O)c1[nH]c2ccc(Cl)cc2c1-c1ccccc1)c1ccc(-c2c3nc(c(-c4c(F)c(F)c(F)c(F)c4F)c4ccc([nH]4)c(-c4c(F)c(F)c(F)c(F)c4F)c4nc(c(-c5c(F)c(F)c(F)c(F)c5F)c5ccc2[nH]5)C=C4)C=C3)cc1
REMARK SMILES IDX 5 1 4 2 3 3 1 4 2 5 27 7 28 8 89 9 29 10 88 11 30 12 31 13
REMARK SMILES IDX 32 14 82 15 33 16 87 17 81 18 83 19 34 20 86 21 80 22 79 23
REMARK SMILES IDX 35 25 67 26 47 27 66 28 48 29 51 30 65 31 84 32 49 33 50 34
REMARK SMILES IDX 64 36 85 37 52 38 36 39 37 40 45 41 38 42 39 43 43 44 46 45
REMARK SMILES IDX 40 46 41 47 44 48 42 49 68 50 69 51 77 52 70 53 71 54 75 55
REMARK SMILES IDX 78 56 72 57 73 58 76 59 74 60 53 61 54 62 62 63 55 64 56 65
REMARK SMILES IDX 60 66 63 67 57 68 58 69 61 70 59 71 6 72 7 73 8 74 9 75
REMARK SMILES IDX 10 77 11 78 12 79 20 80 13 81 19 83 14 84 18 85 15 86 16 87
REMARK SMILES IDX 17 88 21 89 22 90 26 91 23 92 25 93 24 94
REMARK H PARENT 3 6 83 24 51 35 8 76 12 82
REMARK Flexibility Score: inf
ROOT
ATOM      1  C   UNL A   1      35.133  32.907  29.575  1.00  0.00     0.023 C 
ENDROOT
BRANCH   1   2
ATOM      2  C   UNL A   1      34.847  32.749  28.087  1.00  0.00     0.116 C 
BRANCH   2   3
ATOM      3  N   UNL A   1      34.043  31.576  27.777  1.00  0.00    -0.352 N 
ATOM      4  O   UNL A   1      33.632  29.416  27.251  1.00  0.00    -0.269 OA
ATOM      5  C   UNL A   1      34.429  30.263  27.641  1.00  0.00     0.251 C 
ATOM      6  H   UNL A   1      33.082  31.747  27.644  1.00  0.00     0.163 HD
BRANCH   5   7
ATOM      7  C   UNL A   1      35.825  29.876  27.940  1.00  0.00     0.039 A 
ATOM      8  C   UNL A   1      36.156  29.328  29.180  1.00  0.00     0.014 A 
ATOM      9  C   UNL A   1      36.817  30.078  26.975  1.00  0.00     0.014 A 
ATOM     10  C   UNL A   1      37.491  29.144  29.517  1.00  0.00     0.010 A 
ATOM     11  C   UNL A   1      38.152  29.797  27.281  1.00  0.00     0.010 A 
ATOM     12  C   UNL A   1      38.504  29.363  28.567  1.00  0.00    -0.014 A 
BRANCH  12  13
ATOM     13  C   UNL A   1      39.909  29.059  28.942  1.00  0.00     0.031 A 
ATOM     14  C   UNL A   1      40.702  29.974  29.833  1.00  0.00     0.074 A 
ATOM     15  C   UNL A   1      40.447  27.903  28.509  1.00  0.00     0.049 A 
ATOM     16  N   UNL A   1      41.916  29.819  30.299  1.00  0.00    -0.248 NA
ATOM     17  C   UNL A   1      40.056  31.226  30.255  1.00  0.00     0.031 C 
ATOM     18  C   UNL A   1      39.778  26.946  27.624  1.00  0.00     0.029 A 
ATOM     19  N   UNL A   1      41.658  27.317  28.775  1.00  0.00    -0.354 N 
ATOM     20  C   UNL A   1      42.186  30.954  31.053  1.00  0.00     0.074 A 
ATOM     21  C   UNL A   1      41.017  31.803  30.966  1.00  0.00     0.031 C 
ATOM     22  C   UNL A   1      40.559  25.868  27.470  1.00  0.00     0.029 A 
ATOM     23  C   UNL A   1      41.808  26.083  28.191  1.00  0.00     0.049 A 
ATOM     24  H   UNL A   1      42.352  27.739  29.331  1.00  0.00     0.167 HD
ATOM     25  C   UNL A   1      43.303  31.251  31.759  1.00  0.00     0.037 A 
ATOM     26  C   UNL A   1      42.840  25.221  28.223  1.00  0.00     0.037 A 
ATOM     27  C   UNL A   1      44.458  30.393  31.856  1.00  0.00     0.049 A 
ATOM     28  C   UNL A   1      44.063  25.581  29.013  1.00  0.00     0.074 A 
ATOM     29  C   UNL A   1      45.630  30.599  32.566  1.00  0.00     0.029 A 
ATOM     30  N   UNL A   1      44.585  29.164  31.227  1.00  0.00    -0.354 N 
ATOM     31  N   UNL A   1      44.293  26.648  29.739  1.00  0.00    -0.248 NA
ATOM     32  C   UNL A   1      45.173  24.619  28.986  1.00  0.00     0.031 C 
ATOM     33  C   UNL A   1      46.479  29.510  32.337  1.00  0.00     0.029 A 
ATOM     34  C   UNL A   1      45.822  28.608  31.517  1.00  0.00     0.049 A 
ATOM     35  H   UNL A   1      43.899  28.748  30.656  1.00  0.00     0.167 HD
ATOM     36  C   UNL A   1      45.569  26.488  30.255  1.00  0.00     0.074 A 
ATOM     37  C   UNL A   1      46.051  25.203  29.789  1.00  0.00     0.031 C 
ATOM     38  C   UNL A   1      46.284  27.333  31.036  1.00  0.00     0.037 A 
BRANCH  25  39
ATOM     39  C   UNL A   1      43.348  32.565  32.484  1.00  0.00     0.064 A 
ATOM     40  C   UNL A   1      43.652  33.760  31.819  1.00  0.00     0.173 A 
ATOM     41  C   UNL A   1      43.005  32.638  33.844  1.00  0.00     0.173 A 
ATOM     42  F   UNL A   1      43.996  33.743  30.522  1.00  0.00    -0.203 F 
ATOM     43  C   UNL A   1      43.623  34.981  32.490  1.00  0.00     0.198 A 
ATOM     44  C   UNL A   1      42.956  33.862  34.506  1.00  0.00     0.198 A 
ATOM     45  F   UNL A   1      42.699  31.523  34.525  1.00  0.00    -0.203 F 
ATOM     46  F   UNL A   1      43.944  36.109  31.840  1.00  0.00    -0.200 F 
ATOM     47  C   UNL A   1      43.267  35.032  33.829  1.00  0.00     0.200 A 
ATOM     48  F   UNL A   1      42.599  33.911  35.797  1.00  0.00    -0.200 F 
ATOM     49  F   UNL A   1      43.225  36.209  34.469  1.00  0.00    -0.200 F 
ENDBRANCH  25  39
BRANCH  26  50
ATOM     50  C   UNL A   1      42.757  23.941  27.475  1.00  0.00     0.064 A 
ATOM     51  C   UNL A   1      42.273  22.777  28.086  1.00  0.00     0.173 A 
ATOM     52  C   UNL A   1      43.150  23.861  26.130  1.00  0.00     0.173 A 
ATOM     53  F   UNL A   1      41.903  22.800  29.374  1.00  0.00    -0.203 F 
ATOM     54  C   UNL A   1      42.203  21.575  27.384  1.00  0.00     0.198 A 
ATOM     55  C   UNL A   1      43.050  22.667  25.422  1.00  0.00     0.198 A 
ATOM     56  F   UNL A   1      43.613  24.950  25.500  1.00  0.00    -0.203 F 
ATOM     57  F   UNL A   1      41.778  20.466  28.003  1.00  0.00    -0.200 F 
ATOM     58  C   UNL A   1      42.585  21.523  26.052  1.00  0.00     0.200 A 
ATOM     59  F   UNL A   1      43.403  22.625  24.131  1.00  0.00    -0.200 F 
ATOM     60  F   UNL A   1      42.509  20.368  25.376  1.00  0.00    -0.200 F 
ENDBRANCH  26  50
BRANCH  38  61
ATOM     61  C   UNL A   1      47.659  26.883  31.434  1.00  0.00     0.064 A 
ATOM     62  C   UNL A   1      47.863  26.077  32.564  1.00  0.00     0.173 A 
ATOM     63  C   UNL A   1      48.779  27.259  30.679  1.00  0.00     0.173 A 
ATOM     64  F   UNL A   1      46.823  25.710  33.328  1.00  0.00    -0.203 F 
ATOM     65  C   UNL A   1      49.145  25.689  32.941  1.00  0.00     0.198 A 
ATOM     66  C   UNL A   1      50.057  26.845  31.044  1.00  0.00     0.198 A 
ATOM     67  F   UNL A   1      48.633  28.025  29.589  1.00  0.00    -0.203 F 
ATOM     68  F   UNL A   1      49.323  24.963  34.054  1.00  0.00    -0.200 F 
ATOM     69  C   UNL A   1      50.240  26.069  32.179  1.00  0.00     0.200 A 
ATOM     70  F   UNL A   1      51.113  27.206  30.303  1.00  0.00    -0.200 F 
ATOM     71  F   UNL A   1      51.474  25.696  32.545  1.00  0.00    -0.200 F 
ENDBRANCH  38  61
ENDBRANCH  12  13
ENDBRANCH   5   7
ENDBRANCH   2   3
ENDBRANCH   1   2
BRANCH   1  72
ATOM     72  C   UNL A   1      36.608  32.902  29.959  1.00  0.00     0.023 C 
BRANCH  72  73
ATOM     73  C   UNL A   1      36.974  33.800  31.135  1.00  0.00     0.116 C 
BRANCH  73  74
ATOM     74  N   UNL A   1      35.974  33.812  32.188  1.00  0.00    -0.351 N 
ATOM     75  C   UNL A   1      35.871  32.977  33.271  1.00  0.00     0.268 C 
ATOM     76  H   UNL A   1      35.283  34.509  32.115  1.00  0.00     0.163 HD
ATOM     77  O   UNL A   1      34.887  33.078  34.001  1.00  0.00    -0.268 OA
BRANCH  75  78
ATOM     78  C   UNL A   1      36.864  31.948  33.447  1.00  0.00     0.113 A 
ATOM     79  N   UNL A   1      36.653  30.678  32.964  1.00  0.00    -0.350 N 
ATOM     80  C   UNL A   1      38.110  31.943  34.068  1.00  0.00     0.020 A 
ATOM     81  C   UNL A   1      37.809  29.940  33.022  1.00  0.00     0.047 A 
ATOM     82  H   UNL A   1      35.792  30.344  32.623  1.00  0.00     0.167 HD
ATOM     83  C   UNL A   1      38.740  30.698  33.735  1.00  0.00     0.010 A 
ATOM     84  C   UNL A   1      38.090  28.673  32.501  1.00  0.00     0.028 A 
ATOM     85  C   UNL A   1      40.018  30.146  33.959  1.00  0.00     0.031 A 
ATOM     86  C   UNL A   1      39.375  28.164  32.705  1.00  0.00     0.022 A 
ATOM     87  C   UNL A   1      40.321  28.889  33.425  1.00  0.00     0.041 A 
ATOM     88  Cl  UNL A   1      41.897  28.234  33.650  1.00  0.00    -0.084 Cl
BRANCH  80  89
ATOM     89  C   UNL A   1      38.654  33.092  34.783  1.00  0.00    -0.015 A 
ATOM     90  C   UNL A   1      38.510  33.199  36.174  1.00  0.00     0.009 A 
ATOM     91  C   UNL A   1      39.267  34.139  34.080  1.00  0.00     0.009 A 
ATOM     92  C   UNL A   1      38.943  34.345  36.843  1.00  0.00     0.001 A 
ATOM     93  C   UNL A   1      39.694  35.287  34.751  1.00  0.00     0.001 A 
ATOM     94  C   UNL A   1      39.527  35.392  36.131  1.00  0.00     0.000 A 
ENDBRANCH  80  89
ENDBRANCH  75  78
ENDBRANCH  73  74
ENDBRANCH  72  73
ENDBRANCH   1  72
TORSDOF 12
ENDMDL
MODEL 2
REMARK VINA RESULT:     -10.2      3.559     10.376
REMARK SMILES O=C(NCCCCNC(=O)c1[nH]c2ccc(Cl)cc2c1-c1ccccc1)c1ccc(-c2c3nc(c(-c4c(F)c(F)c(F)c(F)c4F)c4ccc([nH]4)c(-c4c(F)c(F)c(F)c(F)c4F)c4nc(c(-c5c(F)c(F)c(F)c(F)c5F)c5ccc2[nH]5)C=C4)C=C3)cc1
REMARK SMILES IDX 5 1 4 2 3 3 1 4 2 5 27 7 28 8 89 9 29 10 88 11 30 12 31 13
REMARK SMILES IDX 32 14 82 15 33 16 87 17 81 18 83 19 34 20 86 21 80 22 79 23
REMARK SMILES IDX 35 25 67 26 47 27 66 28 48 29 51 30 65 31 84 32 49 33 50 34
REMARK SMILES IDX 64 36 85 37 52 38 36 39 37 40 45 41 38 42 39 43 43 44 46 45
REMARK SMILES IDX 40 46 41 47 44 48 42 49 68 50 69 51 77 52 70 53 71 54 75 55
REMARK SMILES IDX 78 56 72 57 73 58 76 59 74 60 53 61 54 62 62 63 55 64 56 65
REMARK SMILES IDX 60 66 63 67 57 68 58 69 61 70 59 71 6 72 7 73 8 74 9 75
REMARK SMILES IDX 10 77 11 78 12 79 20 80 13 81 19 83 14 84 18 85 15 86 16 87
REMARK SMILES IDX 17 88 21 89 22 90 26 91 23 92 25 93 24 94
REMARK H PARENT 3 6 83 24 51 35 8 76 12 82
REMARK Flexibility Score: inf
ROOT
ATOM      1  C   UNL A   1      41.887  22.171  26.552  1.00  0.00     0.023 C 
ENDROOT
BRANCH   1   2
ATOM      2  C   UNL A   1      40.587  21.602  27.105  1.00  0.00     0.116 C 
BRANCH   2   3
ATOM      3  N   UNL A   1      39.438  21.849  26.246  1.00  0.00    -0.352 N 
ATOM      4  O   UNL A   1      37.656  22.974  25.428  1.00  0.00    -0.269 OA
ATOM      5  C   UNL A   1      38.672  22.984  26.115  1.00  0.00     0.251 C 
ATOM      6  H   UNL A   1      39.170  21.093  25.674  1.00  0.00     0.163 HD
BRANCH   5   7
ATOM      7  C   UNL A   1      39.063  24.216  26.834  1.00  0.00     0.039 A 
ATOM      8  C   UNL A   1      39.797  25.210  26.185  1.00  0.00     0.014 A 
ATOM      9  C   UNL A   1      38.704  24.373  28.177  1.00  0.00     0.014 A 
ATOM     10  C   UNL A   1      40.315  26.271  26.918  1.00  0.00     0.010 A 
ATOM     11  C   UNL A   1      39.143  25.494  28.888  1.00  0.00     0.010 A 
ATOM     12  C   UNL A   1      39.984  26.434  28.274  1.00  0.00    -0.014 A 
BRANCH  12  13
ATOM     13  C   UNL A   1      40.482  27.636  28.990  1.00  0.00     0.031 A 
ATOM     14  C   UNL A   1      41.925  27.774  29.386  1.00  0.00     0.074 A 
ATOM     15  C   UNL A   1      39.616  28.639  29.228  1.00  0.00     0.049 A 
ATOM     16  N   UNL A   1      42.527  28.785  29.962  1.00  0.00    -0.248 NA
ATOM     17  C   UNL A   1      42.811  26.633  29.108  1.00  0.00     0.031 C 
ATOM     18  C   UNL A   1      38.187  28.608  28.905  1.00  0.00     0.029 A 
ATOM     19  N   UNL A   1      39.807  29.887  29.763  1.00  0.00    -0.354 N 
ATOM     20  C   UNL A   1      43.851  28.400  30.129  1.00  0.00     0.074 A 
ATOM     21  C   UNL A   1      43.963  27.052  29.614  1.00  0.00     0.031 C 
ATOM     22  C   UNL A   1      37.645  29.800  29.190  1.00  0.00     0.029 A 
ATOM     23  C   UNL A   1      38.669  30.657  29.775  1.00  0.00     0.049 A 
ATOM     24  H   UNL A   1      40.675  30.200  30.107  1.00  0.00     0.167 HD
ATOM     25  C   UNL A   1      44.876  29.113  30.654  1.00  0.00     0.037 A 
ATOM     26  C   UNL A   1      38.469  31.912  30.215  1.00  0.00     0.037 A 
ATOM     27  C   UNL A   1      44.762  30.462  31.149  1.00  0.00     0.049 A 
ATOM     28  C   UNL A   1      39.625  32.672  30.792  1.00  0.00     0.074 A 
ATOM     29  C   UNL A   1      45.750  31.274  31.680  1.00  0.00     0.029 A 
ATOM     30  N   UNL A   1      43.587  31.199  31.170  1.00  0.00    -0.354 N 
ATOM     31  N   UNL A   1      40.875  32.302  30.922  1.00  0.00    -0.248 NA
ATOM     32  C   UNL A   1      39.342  34.025  31.289  1.00  0.00     0.031 C 
ATOM     33  C   UNL A   1      45.165  32.490  32.056  1.00  0.00     0.029 A 
ATOM     34  C   UNL A   1      43.822  32.450  31.722  1.00  0.00     0.049 A 
ATOM     35  H   UNL A   1      42.714  30.881  30.844  1.00  0.00     0.167 HD
ATOM     36  C   UNL A   1      41.529  33.373  31.512  1.00  0.00     0.074 A 
ATOM     37  C   UNL A   1      40.544  34.422  31.683  1.00  0.00     0.031 C 
ATOM     38  C   UNL A   1      42.826  33.475  31.890  1.00  0.00     0.037 A 
BRANCH  25  39
ATOM     39  C   UNL A   1      46.222  28.453  30.733  1.00  0.00     0.064 A 
ATOM     40  C   UNL A   1      46.549  27.576  31.777  1.00  0.00     0.173 A 
ATOM     41  C   UNL A   1      47.168  28.641  29.713  1.00  0.00     0.173 A 
ATOM     42  F   UNL A   1      45.684  27.370  32.781  1.00  0.00    -0.203 F 
ATOM     43  C   UNL A   1      47.777  26.919  31.802  1.00  0.00     0.198 A 
ATOM     44  C   UNL A   1      48.385  27.965  29.730  1.00  0.00     0.198 A 
ATOM     45  F   UNL A   1      46.901  29.466  28.688  1.00  0.00    -0.203 F 
ATOM     46  F   UNL A   1      48.079  26.104  32.823  1.00  0.00    -0.200 F 
ATOM     47  C   UNL A   1      48.690  27.107  30.775  1.00  0.00     0.200 A 
ATOM     48  F   UNL A   1      49.260  28.139  28.729  1.00  0.00    -0.200 F 
ATOM     49  F   UNL A   1      49.864  26.461  30.793  1.00  0.00    -0.200 F 
ENDBRANCH  25  39
BRANCH  26  50
ATOM     50  C   UNL A   1      37.115  32.515  30.131  1.00  0.00     0.064 A 
ATOM     51  C   UNL A   1      36.722  33.256  29.010  1.00  0.00     0.173 A 
ATOM     52  C   UNL A   1      36.184  32.354  31.169  1.00  0.00     0.173 A 
ATOM     53  F   UNL A   1      37.583  33.453  28.001  1.00  0.00    -0.203 F 
ATOM     54  C   UNL A   1      35.454  33.829  28.937  1.00  0.00     0.198 A 
ATOM     55  C   UNL A   1      34.907  32.900  31.081  1.00  0.00     0.198 A 
ATOM     56  F   UNL A   1      36.512  31.647  32.261  1.00  0.00    -0.203 F 
ATOM     57  F   UNL A   1      35.117  34.569  27.873  1.00  0.00    -0.200 F 
ATOM     58  C   UNL A   1      34.545  33.644  29.969  1.00  0.00     0.200 A 
ATOM     59  F   UNL A   1      34.028  32.704  32.072  1.00  0.00    -0.200 F 
ATOM     60  F   UNL A   1      33.323  34.189  29.894  1.00  0.00    -0.200 F 
ENDBRANCH  26  50
BRANCH  38  61
ATOM     61  C   UNL A   1      43.245  34.771  32.519  1.00  0.00     0.064 A 
ATOM     62  C   UNL A   1      43.680  35.853  31.739  1.00  0.00     0.173 A 
ATOM     63  C   UNL A   1      43.208  34.933  33.911  1.00  0.00     0.173 A 
ATOM     64  F   UNL A   1      43.751  35.736  30.404  1.00  0.00    -0.203 F 
ATOM     65  C   UNL A   1      44.093  37.041  32.333  1.00  0.00     0.198 A 
ATOM     66  C   UNL A   1      43.595  36.133  34.500  1.00  0.00     0.198 A 
ATOM     67  F   UNL A   1      42.795  33.929  34.698  1.00  0.00    -0.203 F 
ATOM     68  F   UNL A   1      44.556  38.043  31.573  1.00  0.00    -0.200 F 
ATOM     69  C   UNL A   1      44.046  37.182  33.712  1.00  0.00     0.200 A 
ATOM     70  F   UNL A   1      43.543  36.271  35.832  1.00  0.00    -0.200 F 
ATOM     71  F   UNL A   1      44.448  38.326  34.283  1.00  0.00    -0.200 F 
ENDBRANCH  38  61
ENDBRANCH  12  13
ENDBRANCH   5   7
ENDBRANCH   2   3
ENDBRANCH   1   2
BRANCH   1  72
ATOM     72  C   UNL A   1      42.583  23.193  27.443  1.00  0.00     0.023 C 
BRANCH  72  73
ATOM     73  C   UNL A   1      44.102  23.226  27.329  1.00  0.00     0.116 C 
BRANCH  73  74
ATOM     74  N   UNL A   1      44.588  22.947  25.989  1.00  0.00    -0.351 N 
ATOM     75  C   UNL A   1      44.865  23.837  24.984  1.00  0.00     0.268 C 
ATOM     76  H   UNL A   1      44.739  21.998  25.777  1.00  0.00     0.163 HD
ATOM     77  O   UNL A   1      45.169  23.399  23.876  1.00  0.00    -0.268 OA
BRANCH  75  78
ATOM     78  C   UNL A   1      44.686  25.244  25.238  1.00  0.00     0.113 A 
ATOM     79  N   UNL A   1      43.514  25.876  24.895  1.00  0.00    -0.350 N 
ATOM     80  C   UNL A   1      45.517  26.210  25.798  1.00  0.00     0.020 A 
ATOM     81  C   UNL A   1      43.465  27.134  25.442  1.00  0.00     0.047 A 
ATOM     82  H   UNL A   1      42.808  25.481  24.334  1.00  0.00     0.167 HD
ATOM     83  C   UNL A   1      44.721  27.386  25.997  1.00  0.00     0.010 A 
ATOM     84  C   UNL A   1      42.410  28.052  25.483  1.00  0.00     0.028 A 
ATOM     85  C   UNL A   1      44.941  28.638  26.608  1.00  0.00     0.031 A 
ATOM     86  C   UNL A   1      42.642  29.270  26.126  1.00  0.00     0.022 A 
ATOM     87  C   UNL A   1      43.889  29.557  26.676  1.00  0.00     0.041 A 
ATOM     88  Cl  UNL A   1      44.138  31.066  27.469  1.00  0.00    -0.084 Cl
BRANCH  80  89
ATOM     89  C   UNL A   1      46.892  25.944  26.210  1.00  0.00    -0.015 A 
ATOM     90  C   UNL A   1      47.965  26.298  25.381  1.00  0.00     0.009 A 
ATOM     91  C   UNL A   1      47.153  25.267  27.410  1.00  0.00     0.009 A 
ATOM     92  C   UNL A   1      49.272  25.953  25.731  1.00  0.00     0.001 A 
ATOM     93  C   UNL A   1      48.461  24.917  27.755  1.00  0.00     0.001 A 
ATOM     94  C   UNL A   1      49.518  25.256  26.913  1.00  0.00     0.000 A 
ENDBRANCH  80  89
ENDBRANCH  75  78
ENDBRANCH  73  74
ENDBRANCH  72  73
ENDBRANCH   1  72
TORSDOF 12
ENDMDL
MODEL 3
REMARK VINA RESULT:     -10.2      3.583     10.281
REMARK SMILES O=C(NCCCCNC(=O)c1[nH]c2ccc(Cl)cc2c1-c1ccccc1)c1ccc(-c2c3nc(c(-c4c(F)c(F)c(F)c(F)c4F)c4ccc([nH]4)c(-c4c(F)c(F)c(F)c(F)c4F)c4nc(c(-c5c(F)c(F)c(F)c(F)c5F)c5ccc2[nH]5)C=C4)C=C3)cc1
REMARK SMILES IDX 5 1 4 2 3 3 1 4 2 5 27 7 28 8 89 9 29 10 88 11 30 12 31 13
REMARK SMILES IDX 32 14 82 15 33 16 87 17 81 18 83 19 34 20 86 21 80 22 79 23
REMARK SMILES IDX 35 25 67 26 47 27 66 28 48 29 51 30 65 31 84 32 49 33 50 34
REMARK SMILES IDX 64 36 85 37 52 38 36 39 37 40 45 41 38 42 39 43 43 44 46 45
REMARK SMILES IDX 40 46 41 47 44 48 42 49 68 50 69 51 77 52 70 53 71 54 75 55
REMARK SMILES IDX 78 56 72 57 73 58 76 59 74 60 53 61 54 62 62 63 55 64 56 65
REMARK SMILES IDX 60 66 63 67 57 68 58 69 61 70 59 71 6 72 7 73 8 74 9 75
REMARK SMILES IDX 10 77 11 78 12 79 20 80 13 81 19 83 14 84 18 85 15 86 16 87
REMARK SMILES IDX 17 88 21 89 22 90 26 91 23 92 25 93 24 94
REMARK H PARENT 3 6 83 24 51 35 8 76 12 82
REMARK Flexibility Score: inf
ROOT
ATOM      1  C   UNL A   1      41.984  22.091  26.663  1.00  0.00     0.023 C 
ENDROOT
BRANCH   1   2
ATOM      2  C   UNL A   1      40.634  21.654  27.217  1.00  0.00     0.116 C 
BRANCH   2   3
ATOM      3  N   UNL A   1      39.529  21.905  26.303  1.00  0.00    -0.352 N 
ATOM      4  O   UNL A   1      37.800  23.044  25.393  1.00  0.00    -0.269 OA
ATOM      5  C   UNL A   1      38.784  23.048  26.126  1.00  0.00     0.251 C 
ATOM      6  H   UNL A   1      39.277  21.147  25.729  1.00  0.00     0.163 HD
BRANCH   5   7
ATOM      7  C   UNL A   1      39.158  24.284  26.848  1.00  0.00     0.039 A 
ATOM      8  C   UNL A   1      39.858  25.300  26.195  1.00  0.00     0.014 A 
ATOM      9  C   UNL A   1      38.817  24.423  28.197  1.00  0.00     0.014 A 
ATOM     10  C   UNL A   1      40.364  26.367  26.927  1.00  0.00     0.010 A 
ATOM     11  C   UNL A   1      39.242  25.548  28.910  1.00  0.00     0.010 A 
ATOM     12  C   UNL A   1      40.050  26.512  28.289  1.00  0.00    -0.014 A 
BRANCH  12  13
ATOM     13  C   UNL A   1      40.532  27.720  29.006  1.00  0.00     0.031 A 
ATOM     14  C   UNL A   1      41.974  27.877  29.404  1.00  0.00     0.074 A 
ATOM     15  C   UNL A   1      39.653  28.711  29.245  1.00  0.00     0.049 A 
ATOM     16  N   UNL A   1      42.561  28.895  29.980  1.00  0.00    -0.248 NA
ATOM     17  C   UNL A   1      42.875  26.748  29.125  1.00  0.00     0.031 C 
ATOM     18  C   UNL A   1      38.224  28.661  28.922  1.00  0.00     0.029 A 
ATOM     19  N   UNL A   1      39.827  29.961  29.782  1.00  0.00    -0.354 N 
ATOM     20  C   UNL A   1      43.890  28.529  30.147  1.00  0.00     0.074 A 
ATOM     21  C   UNL A   1      44.021  27.182  29.631  1.00  0.00     0.031 C 
ATOM     22  C   UNL A   1      37.666  29.845  29.208  1.00  0.00     0.029 A 
ATOM     23  C   UNL A   1      38.679  30.715  29.794  1.00  0.00     0.049 A 
ATOM     24  H   UNL A   1      40.691  30.286  30.126  1.00  0.00     0.167 HD
ATOM     25  C   UNL A   1      44.906  29.254  30.673  1.00  0.00     0.037 A 
ATOM     26  C   UNL A   1      38.461  31.967  30.236  1.00  0.00     0.037 A 
ATOM     27  C   UNL A   1      44.773  30.601  31.169  1.00  0.00     0.049 A 
ATOM     28  C   UNL A   1      39.608  32.743  30.814  1.00  0.00     0.074 A 
ATOM     29  C   UNL A   1      45.750  31.426  31.702  1.00  0.00     0.029 A 
ATOM     30  N   UNL A   1      43.588  31.322  31.191  1.00  0.00    -0.354 N 
ATOM     31  N   UNL A   1      40.863  32.390  30.943  1.00  0.00    -0.248 NA
ATOM     32  C   UNL A   1      39.306  34.091  31.311  1.00  0.00     0.031 C 
ATOM     33  C   UNL A   1      45.149  32.634  32.078  1.00  0.00     0.029 A 
ATOM     34  C   UNL A   1      43.807  32.576  31.744  1.00  0.00     0.049 A 
ATOM     35  H   UNL A   1      42.720  30.993  30.865  1.00  0.00     0.167 HD
ATOM     36  C   UNL A   1      41.502  33.468  31.534  1.00  0.00     0.074 A 
ATOM     37  C   UNL A   1      40.503  34.503  31.706  1.00  0.00     0.031 C 
ATOM     38  C   UNL A   1      42.797  33.587  31.913  1.00  0.00     0.037 A 
BRANCH  25  39
ATOM     39  C   UNL A   1      46.261  28.613  30.752  1.00  0.00     0.064 A 
ATOM     40  C   UNL A   1      46.592  27.724  31.784  1.00  0.00     0.173 A 
ATOM     41  C   UNL A   1      47.211  28.831  29.742  1.00  0.00     0.173 A 
ATOM     42  F   UNL A   1      45.724  27.489  32.779  1.00  0.00    -0.203 F 
ATOM     43  C   UNL A   1      47.829  27.083  31.808  1.00  0.00     0.198 A 
ATOM     44  C   UNL A   1      48.438  28.172  29.757  1.00  0.00     0.198 A 
ATOM     45  F   UNL A   1      46.940  29.667  28.729  1.00  0.00    -0.203 F 
ATOM     46  F   UNL A   1      48.135  26.257  32.818  1.00  0.00    -0.200 F 
ATOM     47  C   UNL A   1      48.747  27.301  30.791  1.00  0.00     0.200 A 
ATOM     48  F   UNL A   1      49.318  28.374  28.767  1.00  0.00    -0.200 F 
ATOM     49  F   UNL A   1      49.931  26.672  30.807  1.00  0.00    -0.200 F 
ENDBRANCH  25  39
BRANCH  26  50
ATOM     50  C   UNL A   1      37.100  32.552  30.152  1.00  0.00     0.064 A 
ATOM     51  C   UNL A   1      36.182  32.400  31.199  1.00  0.00     0.173 A 
ATOM     52  C   UNL A   1      36.694  33.285  29.026  1.00  0.00     0.173 A 
ATOM     53  F   UNL A   1      36.517  31.692  32.287  1.00  0.00    -0.203 F 
ATOM     54  C   UNL A   1      34.901  32.943  31.114  1.00  0.00     0.198 A 
ATOM     55  C   UNL A   1      35.426  33.854  28.957  1.00  0.00     0.198 A 
ATOM     56  F   UNL A   1      37.541  33.464  28.001  1.00  0.00    -0.203 F 
ATOM     57  F   UNL A   1      34.027  32.746  32.110  1.00  0.00    -0.200 F 
ATOM     58  C   UNL A   1      34.527  33.675  29.997  1.00  0.00     0.200 A 
ATOM     59  F   UNL A   1      35.075  34.574  27.884  1.00  0.00    -0.200 F 
ATOM     60  F   UNL A   1      33.298  34.204  29.921  1.00  0.00    -0.200 F 
ENDBRANCH  26  50
BRANCH  38  61
ATOM     61  C   UNL A   1      43.198  34.888  32.543  1.00  0.00     0.064 A 
ATOM     62  C   UNL A   1      43.171  35.063  33.935  1.00  0.00     0.173 A 
ATOM     63  C   UNL A   1      43.616  35.966  31.750  1.00  0.00     0.173 A 
ATOM     64  F   UNL A   1      42.759  34.066  34.732  1.00  0.00    -0.203 F 
ATOM     65  C   UNL A   1      43.518  36.283  34.508  1.00  0.00     0.198 A 
ATOM     66  C   UNL A   1      43.989  37.176  32.328  1.00  0.00     0.198 A 
ATOM     67  F   UNL A   1      43.663  35.846  30.415  1.00  0.00    -0.203 F 
ATOM     68  F   UNL A   1      43.433  36.445  35.836  1.00  0.00    -0.200 F 
ATOM     69  C   UNL A   1      43.931  37.336  33.705  1.00  0.00     0.200 A 
ATOM     70  F   UNL A   1      44.394  38.191  31.553  1.00  0.00    -0.200 F 
ATOM     71  F   UNL A   1      44.261  38.511  34.259  1.00  0.00    -0.200 F 
ENDBRANCH  38  61
ENDBRANCH  12  13
ENDBRANCH   5   7
ENDBRANCH   2   3
ENDBRANCH   1   2
BRANCH   1  72
ATOM     72  C   UNL A   1      42.656  23.236  27.411  1.00  0.00     0.023 C 
BRANCH  72  73
ATOM     73  C   UNL A   1      44.177  23.269  27.317  1.00  0.00     0.116 C 
BRANCH  73  74
ATOM     74  N   UNL A   1      44.680  22.999  25.982  1.00  0.00    -0.351 N 
ATOM     75  C   UNL A   1      44.958  23.895  24.982  1.00  0.00     0.268 C 
ATOM     76  H   UNL A   1      44.843  22.052  25.768  1.00  0.00     0.163 HD
ATOM     77  O   UNL A   1      45.279  23.464  23.876  1.00  0.00    -0.268 OA
BRANCH  75  78
ATOM     78  C   UNL A   1      44.763  25.299  25.238  1.00  0.00     0.113 A 
ATOM     79  N   UNL A   1      43.585  25.919  24.891  1.00  0.00    -0.350 N 
ATOM     80  C   UNL A   1      45.581  26.273  25.804  1.00  0.00     0.020 A 
ATOM     81  C   UNL A   1      43.519  27.175  25.442  1.00  0.00     0.047 A 
ATOM     82  H   UNL A   1      42.885  25.517  24.327  1.00  0.00     0.167 HD
ATOM     83  C   UNL A   1      44.770  27.440  26.002  1.00  0.00     0.010 A 
ATOM     84  C   UNL A   1      42.454  28.081  25.480  1.00  0.00     0.028 A 
ATOM     85  C   UNL A   1      44.974  28.693  26.617  1.00  0.00     0.031 A 
ATOM     86  C   UNL A   1      42.670  29.300  26.127  1.00  0.00     0.022 A 
ATOM     87  C   UNL A   1      43.911  29.600  26.682  1.00  0.00     0.041 A 
ATOM     88  Cl  UNL A   1      44.140  31.110  27.479  1.00  0.00    -0.084 Cl
BRANCH  80  89
ATOM     89  C   UNL A   1      46.956  26.022  26.221  1.00  0.00    -0.015 A 
ATOM     90  C   UNL A   1      48.023  26.287  25.352  1.00  0.00     0.009 A 
ATOM     91  C   UNL A   1      47.223  25.446  27.471  1.00  0.00     0.009 A 
ATOM     92  C   UNL A   1      49.330  25.953  25.715  1.00  0.00     0.001 A 
ATOM     93  C   UNL A   1      48.530  25.106  27.829  1.00  0.00     0.001 A 
ATOM     94  C   UNL A   1      49.582  25.355  26.949  1.00  0.00     0.000 A 
ENDBRANCH  80  89
ENDBRANCH  75  78
ENDBRANCH  73  74
ENDBRANCH  72  73
ENDBRANCH   1  72
TORSDOF 12
ENDMDL
