MODEL 1
REMARK VINA RESULT:     -10.8      0.000      0.000
REMARK SMILES O=C(NCCCCNC(=O)c1ccccc1NC(=O)c1ccc(N2C(=O)[C@H]3CC=CC[C@H]3C2=O)cc1)c1ccc(-c2c3nc(c(-c4c(F)c(F)c(F)c(F)c4F)c4ccc([nH]4)c(-c4c(F)c(F)c(F)c(F)c4F)c4nc(c(-c5c(F)c(F)c(F)c(F)c5F)c5ccc2[nH]5)C=C4)C=C3)cc1
REMARK SMILES IDX 6 1 5 2 4 3 3 4 1 5 2 6 37 8 38 9 99 10 39 11 98 12 40 13
REMARK SMILES IDX 41 14 42 15 92 16 43 17 97 18 91 19 93 20 44 21 96 22 90 23
REMARK SMILES IDX 89 24 45 26 77 27 57 28 76 29 58 30 61 31 75 32 94 33 59 34
REMARK SMILES IDX 60 35 74 37 95 38 62 39 46 40 47 41 55 42 48 43 49 44 53 45
REMARK SMILES IDX 56 46 50 47 51 48 54 49 52 50 78 51 79 52 87 53 80 54 81 55
REMARK SMILES IDX 85 56 88 57 82 58 83 59 86 60 84 61 63 62 64 63 72 64 65 65
REMARK SMILES IDX 66 66 70 67 73 68 67 69 68 70 71 71 69 72 7 73 8 74 9 75
REMARK SMILES IDX 10 77 11 78 12 79 16 80 13 81 15 82 14 83 17 84 18 85 19 87
REMARK SMILES IDX 20 88 21 89 36 90 22 91 35 92 23 93 24 94 25 95 33 96 26 97
REMARK SMILES IDX 27 98 32 99 34 100 28 101 31 102 29 103 30 104
REMARK H PARENT 3 7 93 25 61 36 8 76 17 86
REMARK Flexibility Score: inf
ROOT
ATOM      1  C   UNL A   1      34.076  34.830  29.061  1.00  0.00     0.023 C 
ENDROOT
BRANCH   1   2
ATOM      2  C   UNL A   1      33.472  33.644  28.311  1.00  0.00     0.023 C 
BRANCH   2   3
ATOM      3  C   UNL A   1      34.444  32.525  27.962  1.00  0.00     0.116 C 
BRANCH   3   4
ATOM      4  N   UNL A   1      33.795  31.234  27.793  1.00  0.00    -0.352 N 
ATOM      5  O   UNL A   1      33.662  28.996  27.515  1.00  0.00    -0.269 OA
ATOM      6  C   UNL A   1      34.343  29.973  27.815  1.00  0.00     0.251 C 
ATOM      7  H   UNL A   1      32.822  31.268  27.643  1.00  0.00     0.163 HD
BRANCH   6   8
ATOM      8  C   UNL A   1      35.768  29.796  28.169  1.00  0.00     0.039 A 
ATOM      9  C   UNL A   1      36.770  30.071  27.239  1.00  0.00     0.014 A 
ATOM     10  C   UNL A   1      36.106  29.343  29.448  1.00  0.00     0.014 A 
ATOM     11  C   UNL A   1      38.088  29.735  27.525  1.00  0.00     0.010 A 
ATOM     12  C   UNL A   1      37.446  29.101  29.771  1.00  0.00     0.010 A 
ATOM     13  C   UNL A   1      38.445  29.261  28.799  1.00  0.00    -0.014 A 
BRANCH  13  14
ATOM     14  C   UNL A   1      39.881  29.016  29.093  1.00  0.00     0.031 A 
ATOM     15  C   UNL A   1      40.591  27.792  28.586  1.00  0.00     0.074 A 
ATOM     16  C   UNL A   1      40.558  29.954  29.782  1.00  0.00     0.049 A 
ATOM     17  N   UNL A   1      41.855  27.467  28.704  1.00  0.00    -0.248 NA
ATOM     18  C   UNL A   1      39.785  26.800  27.858  1.00  0.00     0.031 C 
ATOM     19  C   UNL A   1      39.967  31.173  30.343  1.00  0.00     0.029 A 
ATOM     20  N   UNL A   1      41.888  30.055  30.102  1.00  0.00    -0.354 N 
ATOM     21  C   UNL A   1      41.994  26.234  28.080  1.00  0.00     0.074 A 
ATOM     22  C   UNL A   1      40.680  25.854  27.604  1.00  0.00     0.031 C 
ATOM     23  C   UNL A   1      40.936  31.925  30.883  1.00  0.00     0.029 A 
ATOM     24  C   UNL A   1      42.205  31.216  30.762  1.00  0.00     0.049 A 
ATOM     25  H   UNL A   1      42.550  29.361  29.879  1.00  0.00     0.167 HD
ATOM     26  C   UNL A   1      43.118  25.496  27.910  1.00  0.00     0.037 A 
ATOM     27  C   UNL A   1      43.385  31.661  31.230  1.00  0.00     0.037 A 
ATOM     28  C   UNL A   1      44.426  25.887  28.372  1.00  0.00     0.049 A 
ATOM     29  C   UNL A   1      44.611  30.819  31.025  1.00  0.00     0.074 A 
ATOM     30  C   UNL A   1      45.628  25.214  28.234  1.00  0.00     0.029 A 
ATOM     31  N   UNL A   1      44.705  27.059  29.061  1.00  0.00    -0.354 N 
ATOM     32  N   UNL A   1      44.729  29.666  30.414  1.00  0.00    -0.248 NA
ATOM     33  C   UNL A   1      45.867  31.338  31.580  1.00  0.00     0.031 C 
ATOM     34  C   UNL A   1      46.628  25.960  28.870  1.00  0.00     0.029 A 
ATOM     35  C   UNL A   1      46.056  27.119  29.367  1.00  0.00     0.049 A 
ATOM     36  H   UNL A   1      44.040  27.746  29.298  1.00  0.00     0.167 HD
ATOM     37  C   UNL A   1      46.069  29.323  30.505  1.00  0.00     0.074 A 
ATOM     38  C   UNL A   1      46.731  30.408  31.200  1.00  0.00     0.031 C 
ATOM     39  C   UNL A   1      46.694  28.204  30.067  1.00  0.00     0.037 A 
BRANCH  26  40
ATOM     40  C   UNL A   1      42.995  24.181  27.196  1.00  0.00     0.064 A 
ATOM     41  C   UNL A   1      43.312  24.053  25.836  1.00  0.00     0.173 A 
ATOM     42  C   UNL A   1      42.631  23.021  27.897  1.00  0.00     0.173 A 
ATOM     43  F   UNL A   1      43.655  25.133  25.118  1.00  0.00    -0.203 F 
ATOM     44  C   UNL A   1      43.260  22.813  25.202  1.00  0.00     0.198 A 
ATOM     45  C   UNL A   1      42.603  21.780  27.266  1.00  0.00     0.198 A 
ATOM     46  F   UNL A   1      42.324  23.087  29.202  1.00  0.00    -0.203 F 
ATOM     47  F   UNL A   1      43.543  22.718  23.895  1.00  0.00    -0.200 F 
ATOM     48  C   UNL A   1      42.915  21.677  25.919  1.00  0.00     0.200 A 
ATOM     49  F   UNL A   1      42.282  20.681  27.963  1.00  0.00    -0.200 F 
ATOM     50  F   UNL A   1      42.882  20.484  25.311  1.00  0.00    -0.200 F 
ENDBRANCH  26  40
BRANCH  27  51
ATOM     51  C   UNL A   1      43.455  32.961  31.944  1.00  0.00     0.064 A 
ATOM     52  C   UNL A   1      43.405  34.174  31.247  1.00  0.00     0.173 A 
ATOM     53  C   UNL A   1      43.572  33.013  33.341  1.00  0.00     0.173 A 
ATOM     54  F   UNL A   1      43.314  34.175  29.909  1.00  0.00    -0.203 F 
ATOM     55  C   UNL A   1      43.488  35.393  31.919  1.00  0.00     0.198 A 
ATOM     56  C   UNL A   1      43.621  34.231  34.014  1.00  0.00     0.198 A 
ATOM     57  F   UNL A   1      43.619  31.878  34.054  1.00  0.00    -0.203 F 
ATOM     58  F   UNL A   1      43.486  36.539  31.225  1.00  0.00    -0.200 F 
ATOM     59  C   UNL A   1      43.589  35.419  33.301  1.00  0.00     0.200 A 
ATOM     60  F   UNL A   1      43.702  34.252  35.351  1.00  0.00    -0.200 F 
ATOM     61  F   UNL A   1      43.663  36.591  33.947  1.00  0.00    -0.200 F 
ENDBRANCH  27  51
BRANCH  39  62
ATOM     62  C   UNL A   1      48.168  28.110  30.326  1.00  0.00     0.064 A 
ATOM     63  C   UNL A   1      49.104  28.641  29.427  1.00  0.00     0.173 A 
ATOM     64  C   UNL A   1      48.650  27.483  31.485  1.00  0.00     0.173 A 
ATOM     65  F   UNL A   1      48.690  29.234  28.295  1.00  0.00    -0.203 F 
ATOM     66  C   UNL A   1      50.470  28.519  29.661  1.00  0.00     0.198 A 
ATOM     67  C   UNL A   1      50.017  27.386  31.729  1.00  0.00     0.198 A 
ATOM     68  F   UNL A   1      47.795  26.963  32.378  1.00  0.00    -0.203 F 
ATOM     69  F   UNL A   1      51.346  28.983  28.758  1.00  0.00    -0.200 F 
ATOM     70  C   UNL A   1      50.925  27.895  30.812  1.00  0.00     0.200 A 
ATOM     71  F   UNL A   1      50.456  26.792  32.846  1.00  0.00    -0.200 F 
ATOM     72  F   UNL A   1      52.242  27.773  31.034  1.00  0.00    -0.200 F 
ENDBRANCH  39  62
ENDBRANCH  13  14
ENDBRANCH   6   8
ENDBRANCH   3   4
ENDBRANCH   2   3
ENDBRANCH   1   2
BRANCH   1  73
ATOM     73  C   UNL A   1      34.025  34.733  30.583  1.00  0.00     0.116 C 
BRANCH  73  74
ATOM     74  N   UNL A   1      34.342  33.400  31.070  1.00  0.00    -0.352 N 
ATOM     75  C   UNL A   1      35.559  32.791  31.227  1.00  0.00     0.253 C 
ATOM     76  H   UNL A   1      33.564  32.851  31.325  1.00  0.00     0.163 HD
ATOM     77  O   UNL A   1      35.610  31.602  31.529  1.00  0.00    -0.269 OA
BRANCH  75  78
ATOM     78  C   UNL A   1      36.814  33.549  31.045  1.00  0.00     0.063 A 
ATOM     79  C   UNL A   1      37.182  33.804  29.715  1.00  0.00     0.016 A 
ATOM     80  C   UNL A   1      37.633  33.952  32.123  1.00  0.00     0.054 A 
ATOM     81  C   UNL A   1      38.368  34.473  29.437  1.00  0.00     0.001 A 
ATOM     82  C   UNL A   1      38.853  34.555  31.810  1.00  0.00     0.027 A 
ATOM     83  C   UNL A   1      39.208  34.836  30.484  1.00  0.00     0.002 A 
BRANCH  80  84
ATOM     84  N   UNL A   1      37.189  33.715  33.446  1.00  0.00    -0.321 N 
ATOM     85  C   UNL A   1      37.511  32.799  34.419  1.00  0.00     0.255 C 
ATOM     86  H   UNL A   1      36.494  34.350  33.734  1.00  0.00     0.170 HD
ATOM     87  O   UNL A   1      36.945  32.851  35.510  1.00  0.00    -0.269 OA
BRANCH  85  88
ATOM     88  C   UNL A   1      38.520  31.753  34.210  1.00  0.00     0.040 A 
ATOM     89  C   UNL A   1      39.826  32.045  34.585  1.00  0.00     0.016 A 
ATOM     90  C   UNL A   1      38.201  30.497  33.694  1.00  0.00     0.016 A 
ATOM     91  C   UNL A   1      40.786  31.033  34.579  1.00  0.00     0.027 A 
ATOM     92  C   UNL A   1      39.174  29.484  33.696  1.00  0.00     0.027 A 
ATOM     93  C   UNL A   1      40.469  29.718  34.197  1.00  0.00     0.052 A 
BRANCH  93  94
ATOM     94  N   UNL A   1      41.407  28.656  34.384  1.00  0.00    -0.250 N 
ATOM     95  C   UNL A   1      42.008  27.978  33.345  1.00  0.00     0.238 C 
ATOM     96  C   UNL A   1      41.882  28.233  35.602  1.00  0.00     0.238 C 
ATOM     97  O   UNL A   1      41.849  28.133  32.139  1.00  0.00    -0.274 OA
ATOM     98  C   UNL A   1      42.985  26.967  33.888  1.00  0.00     0.096 C 
ATOM     99  C   UNL A   1      42.937  27.171  35.399  1.00  0.00     0.096 C 
ATOM    100  O   UNL A   1      41.523  28.581  36.721  1.00  0.00    -0.274 OA
ATOM    101  C   UNL A   1      44.352  27.152  33.222  1.00  0.00     0.041 C 
ATOM    102  C   UNL A   1      44.247  27.596  36.072  1.00  0.00     0.041 C 
ATOM    103  C   UNL A   1      45.180  28.219  33.870  1.00  0.00    -0.030 C 
ATOM    104  C   UNL A   1      45.128  28.428  35.191  1.00  0.00    -0.030 C 
ENDBRANCH  93  94
ENDBRANCH  85  88
ENDBRANCH  80  84
ENDBRANCH  75  78
ENDBRANCH  73  74
ENDBRANCH   1  73
TORSDOF 14
ENDMDL
MODEL 2
REMARK VINA RESULT:     -10.5      0.558      6.875
REMARK SMILES O=C(NCCCCNC(=O)c1ccccc1NC(=O)c1ccc(N2C(=O)[C@H]3CC=CC[C@H]3C2=O)cc1)c1ccc(-c2c3nc(c(-c4c(F)c(F)c(F)c(F)c4F)c4ccc([nH]4)c(-c4c(F)c(F)c(F)c(F)c4F)c4nc(c(-c5c(F)c(F)c(F)c(F)c5F)c5ccc2[nH]5)C=C4)C=C3)cc1
REMARK SMILES IDX 6 1 5 2 4 3 3 4 1 5 2 6 37 8 38 9 99 10 39 11 98 12 40 13
REMARK SMILES IDX 41 14 42 15 92 16 43 17 97 18 91 19 93 20 44 21 96 22 90 23
REMARK SMILES IDX 89 24 45 26 77 27 57 28 76 29 58 30 61 31 75 32 94 33 59 34
REMARK SMILES IDX 60 35 74 37 95 38 62 39 46 40 47 41 55 42 48 43 49 44 53 45
REMARK SMILES IDX 56 46 50 47 51 48 54 49 52 50 78 51 79 52 87 53 80 54 81 55
REMARK SMILES IDX 85 56 88 57 82 58 83 59 86 60 84 61 63 62 64 63 72 64 65 65
REMARK SMILES IDX 66 66 70 67 73 68 67 69 68 70 71 71 69 72 7 73 8 74 9 75
REMARK SMILES IDX 10 77 11 78 12 79 16 80 13 81 15 82 14 83 17 84 18 85 19 87
REMARK SMILES IDX 20 88 21 89 36 90 22 91 35 92 23 93 24 94 25 95 33 96 26 97
REMARK SMILES IDX 27 98 32 99 34 100 28 101 31 102 29 103 30 104
REMARK H PARENT 3 7 93 25 61 36 8 76 17 86
REMARK Flexibility Score: inf
ROOT
ATOM      1  C   UNL A   1      34.206  34.736  29.219  1.00  0.00     0.023 C 
ENDROOT
BRANCH   1   2
ATOM      2  C   UNL A   1      33.587  33.619  28.381  1.00  0.00     0.023 C 
BRANCH   2   3
ATOM      3  C   UNL A   1      34.535  32.497  27.979  1.00  0.00     0.116 C 
BRANCH   3   4
ATOM      4  N   UNL A   1      33.879  31.205  27.868  1.00  0.00    -0.352 N 
ATOM      5  O   UNL A   1      33.733  28.962  27.637  1.00  0.00    -0.269 OA
ATOM      6  C   UNL A   1      34.427  29.944  27.884  1.00  0.00     0.251 C 
ATOM      7  H   UNL A   1      32.899  31.236  27.768  1.00  0.00     0.163 HD
BRANCH   6   8
ATOM      8  C   UNL A   1      35.869  29.772  28.167  1.00  0.00     0.039 A 
ATOM      9  C   UNL A   1      36.823  30.046  27.186  1.00  0.00     0.014 A 
ATOM     10  C   UNL A   1      36.273  29.327  29.430  1.00  0.00     0.014 A 
ATOM     11  C   UNL A   1      38.154  29.715  27.407  1.00  0.00     0.010 A 
ATOM     12  C   UNL A   1      37.628  29.090  29.685  1.00  0.00     0.010 A 
ATOM     13  C   UNL A   1      38.576  29.248  28.664  1.00  0.00    -0.014 A 
BRANCH  13  14
ATOM     14  C   UNL A   1      40.026  29.008  28.887  1.00  0.00     0.031 A 
ATOM     15  C   UNL A   1      40.878  29.984  29.647  1.00  0.00     0.074 A 
ATOM     16  C   UNL A   1      40.555  27.852  28.440  1.00  0.00     0.049 A 
ATOM     17  N   UNL A   1      42.142  29.888  29.979  1.00  0.00    -0.248 NA
ATOM     18  C   UNL A   1      40.239  31.234  30.088  1.00  0.00     0.031 C 
ATOM     19  C   UNL A   1      39.827  26.838  27.671  1.00  0.00     0.029 A 
ATOM     20  N   UNL A   1      41.808  27.316  28.591  1.00  0.00    -0.354 N 
ATOM     21  C   UNL A   1      42.453  31.062  30.654  1.00  0.00     0.074 A 
ATOM     22  C   UNL A   1      41.252  31.870  30.664  1.00  0.00     0.031 C 
ATOM     23  C   UNL A   1      40.625  25.781  27.470  1.00  0.00     0.029 A 
ATOM     24  C   UNL A   1      41.936  26.065  28.041  1.00  0.00     0.049 A 
ATOM     25  H   UNL A   1      42.543  27.784  29.050  1.00  0.00     0.167 HD
ATOM     26  C   UNL A   1      43.629  31.422  31.222  1.00  0.00     0.037 A 
ATOM     27  C   UNL A   1      42.996  25.237  27.991  1.00  0.00     0.037 A 
ATOM     28  C   UNL A   1      44.818  30.606  31.222  1.00  0.00     0.049 A 
ATOM     29  C   UNL A   1      44.284  25.667  28.630  1.00  0.00     0.074 A 
ATOM     30  C   UNL A   1      46.053  30.878  31.786  1.00  0.00     0.029 A 
ATOM     31  N   UNL A   1      44.918  29.354  30.632  1.00  0.00    -0.354 N 
ATOM     32  N   UNL A   1      44.554  26.771  29.283  1.00  0.00    -0.248 NA
ATOM     33  C   UNL A   1      45.416  24.738  28.522  1.00  0.00     0.031 C 
ATOM     34  C   UNL A   1      46.911  29.809  31.505  1.00  0.00     0.029 A 
ATOM     35  C   UNL A   1      46.198  28.850  30.804  1.00  0.00     0.049 A 
ATOM     36  H   UNL A   1      44.187  28.893  30.159  1.00  0.00     0.167 HD
ATOM     37  C   UNL A   1      45.883  26.669  29.667  1.00  0.00     0.074 A 
ATOM     38  C   UNL A   1      46.353  25.378  29.205  1.00  0.00     0.031 C 
ATOM     39  C   UNL A   1      46.650  27.568  30.329  1.00  0.00     0.037 A 
BRANCH  26  40
ATOM     40  C   UNL A   1      43.704  32.762  31.894  1.00  0.00     0.064 A 
ATOM     41  C   UNL A   1      43.860  33.945  31.158  1.00  0.00     0.173 A 
ATOM     42  C   UNL A   1      43.538  32.871  33.284  1.00  0.00     0.173 A 
ATOM     43  F   UNL A   1      44.032  33.895  29.829  1.00  0.00    -0.203 F 
ATOM     44  C   UNL A   1      43.858  35.188  31.789  1.00  0.00     0.198 A 
ATOM     45  C   UNL A   1      43.513  34.116  33.908  1.00  0.00     0.198 A 
ATOM     46  F   UNL A   1      43.377  31.771  34.035  1.00  0.00    -0.203 F 
ATOM     47  F   UNL A   1      44.034  36.303  31.068  1.00  0.00    -0.200 F 
ATOM     48  C   UNL A   1      43.675  35.273  33.161  1.00  0.00     0.200 A 
ATOM     49  F   UNL A   1      43.324  34.197  35.233  1.00  0.00    -0.200 F 
ATOM     50  F   UNL A   1      43.657  36.470  33.763  1.00  0.00    -0.200 F 
ENDBRANCH  26  40
BRANCH  27  51
ATOM     51  C   UNL A   1      42.879  23.927  27.301  1.00  0.00     0.064 A 
ATOM     52  C   UNL A   1      43.261  23.777  25.962  1.00  0.00     0.173 A 
ATOM     53  C   UNL A   1      42.383  22.799  27.971  1.00  0.00     0.173 A 
ATOM     54  F   UNL A   1      43.722  24.832  25.274  1.00  0.00    -0.203 F 
ATOM     55  C   UNL A   1      43.134  22.550  25.312  1.00  0.00     0.198 A 
ATOM     56  C   UNL A   1      42.288  21.566  27.331  1.00  0.00     0.198 A 
ATOM     57  F   UNL A   1      42.009  22.891  29.255  1.00  0.00    -0.203 F 
ATOM     58  F   UNL A   1      43.462  22.443  24.018  1.00  0.00    -0.200 F 
ATOM     59  C   UNL A   1      42.655  21.445  26.000  1.00  0.00     0.200 A 
ATOM     60  F   UNL A   1      41.840  20.498  28.003  1.00  0.00    -0.200 F 
ATOM     61  F   UNL A   1      42.538  20.265  25.376  1.00  0.00    -0.200 F 
ENDBRANCH  27  51
BRANCH  39  62
ATOM     62  C   UNL A   1      48.073  27.175  30.593  1.00  0.00     0.064 A 
ATOM     63  C   UNL A   1      49.104  27.529  29.711  1.00  0.00     0.173 A 
ATOM     64  C   UNL A   1      48.408  26.437  31.738  1.00  0.00     0.173 A 
ATOM     65  F   UNL A   1      48.828  28.219  28.593  1.00  0.00    -0.203 F 
ATOM     66  C   UNL A   1      50.415  27.129  29.948  1.00  0.00     0.198 A 
ATOM     67  C   UNL A   1      49.726  26.062  31.985  1.00  0.00     0.198 A 
ATOM     68  F   UNL A   1      47.458  26.078  32.614  1.00  0.00    -0.203 F 
ATOM     69  F   UNL A   1      51.375  27.429  29.061  1.00  0.00    -0.200 F 
ATOM     70  C   UNL A   1      50.726  26.401  31.085  1.00  0.00     0.200 A 
ATOM     71  F   UNL A   1      50.027  25.367  33.090  1.00  0.00    -0.200 F 
ATOM     72  F   UNL A   1      51.989  26.012  31.310  1.00  0.00    -0.200 F 
ENDBRANCH  39  62
ENDBRANCH  13  14
ENDBRANCH   6   8
ENDBRANCH   3   4
ENDBRANCH   2   3
ENDBRANCH   1   2
BRANCH   1  73
ATOM     73  C   UNL A   1      34.073  34.568  30.729  1.00  0.00     0.116 C 
BRANCH  73  74
ATOM     74  N   UNL A   1      34.409  33.225  31.176  1.00  0.00    -0.352 N 
ATOM     75  C   UNL A   1      35.634  32.624  31.299  1.00  0.00     0.253 C 
ATOM     76  H   UNL A   1      33.641  32.662  31.426  1.00  0.00     0.163 HD
ATOM     77  O   UNL A   1      35.701  31.428  31.566  1.00  0.00    -0.269 OA
BRANCH  75  78
ATOM     78  C   UNL A   1      36.879  33.399  31.119  1.00  0.00     0.063 A 
ATOM     79  C   UNL A   1      37.240  33.670  29.790  1.00  0.00     0.016 A 
ATOM     80  C   UNL A   1      37.697  33.802  32.197  1.00  0.00     0.054 A 
ATOM     81  C   UNL A   1      38.416  34.356  29.514  1.00  0.00     0.001 A 
ATOM     82  C   UNL A   1      38.909  34.423  31.886  1.00  0.00     0.027 A 
ATOM     83  C   UNL A   1      39.256  34.720  30.561  1.00  0.00     0.002 A 
BRANCH  80  84
ATOM     84  N   UNL A   1      37.260  33.549  33.520  1.00  0.00    -0.321 N 
ATOM     85  C   UNL A   1      37.588  32.620  34.480  1.00  0.00     0.255 C 
ATOM     86  H   UNL A   1      36.566  34.179  33.820  1.00  0.00     0.170 HD
ATOM     87  O   UNL A   1      37.028  32.658  35.574  1.00  0.00    -0.269 OA
BRANCH  85  88
ATOM     88  C   UNL A   1      38.597  31.578  34.252  1.00  0.00     0.040 A 
ATOM     89  C   UNL A   1      39.851  31.772  34.818  1.00  0.00     0.016 A 
ATOM     90  C   UNL A   1      38.322  30.415  33.534  1.00  0.00     0.016 A 
ATOM     91  C   UNL A   1      40.787  30.738  34.789  1.00  0.00     0.027 A 
ATOM     92  C   UNL A   1      39.270  29.378  33.513  1.00  0.00     0.027 A 
ATOM     93  C   UNL A   1      40.496  29.498  34.195  1.00  0.00     0.052 A 
BRANCH  93  94
ATOM     94  N   UNL A   1      41.385  28.388  34.345  1.00  0.00    -0.250 N 
ATOM     95  C   UNL A   1      42.128  27.862  33.311  1.00  0.00     0.238 C 
ATOM     96  C   UNL A   1      41.668  27.765  35.537  1.00  0.00     0.238 C 
ATOM     97  O   UNL A   1      42.154  28.208  32.135  1.00  0.00    -0.274 OA
ATOM     98  C   UNL A   1      43.003  26.746  33.824  1.00  0.00     0.096 C 
ATOM     99  C   UNL A   1      42.731  26.713  35.324  1.00  0.00     0.096 C 
ATOM    100  O   UNL A   1      41.148  27.947  36.632  1.00  0.00    -0.274 OA
ATOM    101  C   UNL A   1      44.457  26.986  33.403  1.00  0.00     0.041 C 
ATOM    102  C   UNL A   1      43.929  26.984  36.241  1.00  0.00     0.041 C 
ATOM    103  C   UNL A   1      45.189  27.911  34.327  1.00  0.00    -0.030 C 
ATOM    104  C   UNL A   1      44.941  27.913  35.642  1.00  0.00    -0.030 C 
ENDBRANCH  93  94
ENDBRANCH  85  88
ENDBRANCH  80  84
ENDBRANCH  75  78
ENDBRANCH  73  74
ENDBRANCH   1  73
TORSDOF 14
ENDMDL
MODEL 3
REMARK VINA RESULT:     -10.3      5.126     11.131
REMARK SMILES O=C(NCCCCNC(=O)c1ccccc1NC(=O)c1ccc(N2C(=O)[C@H]3CC=CC[C@H]3C2=O)cc1)c1ccc(-c2c3nc(c(-c4c(F)c(F)c(F)c(F)c4F)c4ccc([nH]4)c(-c4c(F)c(F)c(F)c(F)c4F)c4nc(c(-c5c(F)c(F)c(F)c(F)c5F)c5ccc2[nH]5)C=C4)C=C3)cc1
REMARK SMILES IDX 6 1 5 2 4 3 3 4 1 5 2 6 37 8 38 9 99 10 39 11 98 12 40 13
REMARK SMILES IDX 41 14 42 15 92 16 43 17 97 18 91 19 93 20 44 21 96 22 90 23
REMARK SMILES IDX 89 24 45 26 77 27 57 28 76 29 58 30 61 31 75 32 94 33 59 34
REMARK SMILES IDX 60 35 74 37 95 38 62 39 46 40 47 41 55 42 48 43 49 44 53 45
REMARK SMILES IDX 56 46 50 47 51 48 54 49 52 50 78 51 79 52 87 53 80 54 81 55
REMARK SMILES IDX 85 56 88 57 82 58 83 59 86 60 84 61 63 62 64 63 72 64 65 65
REMARK SMILES IDX 66 66 70 67 73 68 67 69 68 70 71 71 69 72 7 73 8 74 9 75
REMARK SMILES IDX 10 77 11 78 12 79 16 80 13 81 15 82 14 83 17 84 18 85 19 87
REMARK SMILES IDX 20 88 21 89 36 90 22 91 35 92 23 93 24 94 25 95 33 96 26 97
REMARK SMILES IDX 27 98 32 99 34 100 28 101 31 102 29 103 30 104
REMARK H PARENT 3 7 93 25 61 36 8 76 17 86
REMARK Flexibility Score: inf
ROOT
ATOM      1  C   UNL A   1      31.431  30.939  25.844  1.00  0.00     0.023 C 
ENDROOT
BRANCH   1   2
ATOM      2  C   UNL A   1      31.292  32.089  26.839  1.00  0.00     0.023 C 
BRANCH   2   3
ATOM      3  C   UNL A   1      32.581  32.829  27.172  1.00  0.00     0.116 C 
BRANCH   3   4
ATOM      4  N   UNL A   1      32.359  34.198  27.610  1.00  0.00    -0.352 N 
ATOM      5  O   UNL A   1      32.593  36.023  28.921  1.00  0.00    -0.269 OA
ATOM      6  C   UNL A   1      33.008  34.917  28.587  1.00  0.00     0.251 C 
ATOM      7  H   UNL A   1      31.640  34.680  27.140  1.00  0.00     0.163 HD
BRANCH   6   8
ATOM      8  C   UNL A   1      34.191  34.339  29.261  1.00  0.00     0.039 A 
ATOM      9  C   UNL A   1      35.477  34.606  28.791  1.00  0.00     0.014 A 
ATOM     10  C   UNL A   1      34.011  33.516  30.377  1.00  0.00     0.014 A 
ATOM     11  C   UNL A   1      36.562  33.920  29.324  1.00  0.00     0.010 A 
ATOM     12  C   UNL A   1      35.117  32.904  30.978  1.00  0.00     0.010 A 
ATOM     13  C   UNL A   1      36.398  33.074  30.433  1.00  0.00    -0.014 A 
BRANCH  13  14
ATOM     14  C   UNL A   1      37.603  32.444  31.036  1.00  0.00     0.031 A 
ATOM     15  C   UNL A   1      38.071  32.803  32.418  1.00  0.00     0.074 A 
ATOM     16  C   UNL A   1      38.240  31.489  30.332  1.00  0.00     0.049 A 
ATOM     17  N   UNL A   1      39.065  32.297  33.107  1.00  0.00    -0.248 NA
ATOM     18  C   UNL A   1      37.339  33.868  33.121  1.00  0.00     0.031 C 
ATOM     19  C   UNL A   1      37.888  31.073  28.971  1.00  0.00     0.029 A 
ATOM     20  N   UNL A   1      39.290  30.672  30.665  1.00  0.00    -0.354 N 
ATOM     21  C   UNL A   1      39.086  32.986  34.313  1.00  0.00     0.074 A 
ATOM     22  C   UNL A   1      38.022  33.966  34.255  1.00  0.00     0.031 C 
ATOM     23  C   UNL A   1      38.664  30.043  28.610  1.00  0.00     0.029 A 
ATOM     24  C   UNL A   1      39.608  29.765  29.686  1.00  0.00     0.049 A 
ATOM     25  H   UNL A   1      39.767  30.731  31.524  1.00  0.00     0.167 HD
ATOM     26  C   UNL A   1      39.912  32.807  35.372  1.00  0.00     0.037 A 
ATOM     27  C   UNL A   1      40.562  28.816  29.649  1.00  0.00     0.037 A 
ATOM     28  C   UNL A   1      40.960  31.819  35.430  1.00  0.00     0.049 A 
ATOM     29  C   UNL A   1      41.460  28.643  30.840  1.00  0.00     0.074 A 
ATOM     30  C   UNL A   1      41.839  31.550  36.466  1.00  0.00     0.029 A 
ATOM     31  N   UNL A   1      41.271  30.934  34.407  1.00  0.00    -0.354 N 
ATOM     32  N   UNL A   1      41.453  29.289  31.980  1.00  0.00    -0.248 NA
ATOM     33  C   UNL A   1      42.501  27.614  30.736  1.00  0.00     0.031 C 
ATOM     34  C   UNL A   1      42.704  30.528  36.057  1.00  0.00     0.029 A 
ATOM     35  C   UNL A   1      42.337  30.130  34.783  1.00  0.00     0.049 A 
ATOM     36  H   UNL A   1      40.803  30.885  33.542  1.00  0.00     0.167 HD
ATOM     37  C   UNL A   1      42.482  28.743  32.732  1.00  0.00     0.074 A 
ATOM     38  C   UNL A   1      43.069  27.688  31.931  1.00  0.00     0.031 C 
ATOM     39  C   UNL A   1      42.912  29.092  33.968  1.00  0.00     0.037 A 
BRANCH  26  40
ATOM     40  C   UNL A   1      39.726  33.697  36.567  1.00  0.00     0.064 A 
ATOM     41  C   UNL A   1      40.351  34.949  36.653  1.00  0.00     0.173 A 
ATOM     42  C   UNL A   1      38.851  33.327  37.600  1.00  0.00     0.173 A 
ATOM     43  F   UNL A   1      41.203  35.345  35.696  1.00  0.00    -0.203 F 
ATOM     44  C   UNL A   1      40.116  35.794  37.735  1.00  0.00     0.198 A 
ATOM     45  C   UNL A   1      38.600  34.184  38.669  1.00  0.00     0.198 A 
ATOM     46  F   UNL A   1      38.222  32.142  37.564  1.00  0.00    -0.203 F 
ATOM     47  F   UNL A   1      40.743  36.976  37.809  1.00  0.00    -0.200 F 
ATOM     48  C   UNL A   1      39.233  35.416  38.737  1.00  0.00     0.200 A 
ATOM     49  F   UNL A   1      37.738  33.822  39.630  1.00  0.00    -0.200 F 
ATOM     50  F   UNL A   1      38.996  36.238  39.768  1.00  0.00    -0.200 F 
ENDBRANCH  26  40
BRANCH  27  51
ATOM     51  C   UNL A   1      40.718  27.970  28.439  1.00  0.00     0.064 A 
ATOM     52  C   UNL A   1      41.479  28.402  27.346  1.00  0.00     0.173 A 
ATOM     53  C   UNL A   1      40.108  26.710  28.356  1.00  0.00     0.173 A 
ATOM     54  F   UNL A   1      42.064  29.608  27.371  1.00  0.00    -0.203 F 
ATOM     55  C   UNL A   1      41.608  27.612  26.204  1.00  0.00     0.198 A 
ATOM     56  C   UNL A   1      40.266  25.907  27.229  1.00  0.00     0.198 A 
ATOM     57  F   UNL A   1      39.374  26.249  29.379  1.00  0.00    -0.203 F 
ATOM     58  F   UNL A   1      42.302  28.068  25.153  1.00  0.00    -0.200 F 
ATOM     59  C   UNL A   1      41.009  26.363  26.151  1.00  0.00     0.200 A 
ATOM     60  F   UNL A   1      39.698  24.694  27.188  1.00  0.00    -0.200 F 
ATOM     61  F   UNL A   1      41.138  25.602  25.055  1.00  0.00    -0.200 F 
ENDBRANCH  27  51
BRANCH  39  62
ATOM     62  C   UNL A   1      44.071  28.317  34.522  1.00  0.00     0.064 A 
ATOM     63  C   UNL A   1      45.394  28.738  34.322  1.00  0.00     0.173 A 
ATOM     64  C   UNL A   1      43.856  27.142  35.258  1.00  0.00     0.173 A 
ATOM     65  F   UNL A   1      45.648  29.846  33.609  1.00  0.00    -0.203 F 
ATOM     66  C   UNL A   1      46.462  27.993  34.811  1.00  0.00     0.198 A 
ATOM     67  C   UNL A   1      44.927  26.414  35.768  1.00  0.00     0.198 A 
ATOM     68  F   UNL A   1      42.609  26.701  35.479  1.00  0.00    -0.203 F 
ATOM     69  F   UNL A   1      47.720  28.384  34.559  1.00  0.00    -0.200 F 
ATOM     70  C   UNL A   1      46.229  26.835  35.536  1.00  0.00     0.200 A 
ATOM     71  F   UNL A   1      44.700  25.300  36.477  1.00  0.00    -0.200 F 
ATOM     72  F   UNL A   1      47.259  26.115  36.002  1.00  0.00    -0.200 F 
ENDBRANCH  39  62
ENDBRANCH  13  14
ENDBRANCH   6   8
ENDBRANCH   3   4
ENDBRANCH   2   3
ENDBRANCH   1   2
BRANCH   1  73
ATOM     73  C   UNL A   1      32.510  29.914  26.178  1.00  0.00     0.116 C 
BRANCH  73  74
ATOM     74  N   UNL A   1      31.968  28.705  26.779  1.00  0.00    -0.352 N 
ATOM     75  C   UNL A   1      31.427  27.597  26.183  1.00  0.00     0.253 C 
ATOM     76  H   UNL A   1      31.993  28.680  27.764  1.00  0.00     0.163 HD
ATOM     77  O   UNL A   1      30.898  26.732  26.875  1.00  0.00    -0.269 OA
BRANCH  75  78
ATOM     78  C   UNL A   1      31.478  27.425  24.717  1.00  0.00     0.063 A 
ATOM     79  C   UNL A   1      30.315  27.790  24.021  1.00  0.00     0.016 A 
ATOM     80  C   UNL A   1      32.593  26.879  24.044  1.00  0.00     0.054 A 
ATOM     81  C   UNL A   1      30.247  27.627  22.643  1.00  0.00     0.001 A 
ATOM     82  C   UNL A   1      32.467  26.656  22.671  1.00  0.00     0.027 A 
ATOM     83  C   UNL A   1      31.318  27.048  21.972  1.00  0.00     0.002 A 
BRANCH  80  84
ATOM     84  N   UNL A   1      33.760  26.576  24.787  1.00  0.00    -0.321 N 
ATOM     85  C   UNL A   1      34.360  25.410  25.202  1.00  0.00     0.255 C 
ATOM     86  H   UNL A   1      34.252  27.380  25.069  1.00  0.00     0.170 HD
ATOM     87  O   UNL A   1      35.408  25.465  25.844  1.00  0.00    -0.269 OA
BRANCH  85  88
ATOM     88  C   UNL A   1      33.800  24.088  24.899  1.00  0.00     0.040 A 
ATOM     89  C   UNL A   1      34.582  23.224  24.140  1.00  0.00     0.016 A 
ATOM     90  C   UNL A   1      32.554  23.676  25.372  1.00  0.00     0.016 A 
ATOM     91  C   UNL A   1      34.181  21.898  23.976  1.00  0.00     0.027 A 
ATOM     92  C   UNL A   1      32.162  22.338  25.205  1.00  0.00     0.027 A 
ATOM     93  C   UNL A   1      32.998  21.408  24.557  1.00  0.00     0.052 A 
BRANCH  93  94
ATOM     94  N   UNL A   1      32.703  20.009  24.547  1.00  0.00    -0.250 N 
ATOM     95  C   UNL A   1      32.325  19.319  23.416  1.00  0.00     0.238 C 
ATOM     96  C   UNL A   1      32.834  19.172  25.629  1.00  0.00     0.238 C 
ATOM     97  O   UNL A   1      32.159  19.747  22.279  1.00  0.00    -0.274 OA
ATOM     98  C   UNL A   1      32.153  17.856  23.741  1.00  0.00     0.096 C 
ATOM     99  C   UNL A   1      32.541  17.750  25.213  1.00  0.00     0.096 C 
ATOM    100  O   UNL A   1      33.097  19.464  26.790  1.00  0.00    -0.274 OA
ATOM    101  C   UNL A   1      32.966  17.004  22.762  1.00  0.00     0.041 C 
ATOM    102  C   UNL A   1      33.738  16.850  25.539  1.00  0.00     0.041 C 
ATOM    103  C   UNL A   1      34.404  16.867  23.159  1.00  0.00    -0.030 C 
ATOM    104  C   UNL A   1      34.762  16.800  24.446  1.00  0.00    -0.030 C 
ENDBRANCH  93  94
ENDBRANCH  85  88
ENDBRANCH  80  84
ENDBRANCH  75  78
ENDBRANCH  73  74
ENDBRANCH   1  73
TORSDOF 14
ENDMDL
