MODEL 1
REMARK VINA RESULT:     -13.2      0.000      0.000
REMARK SMILES COCc1cc(N2CCCC[C@H]2C(=O)NCCCCNC(=O)c2ccc(-c3c4nc(c(-c5c(F)c(F)c(F)c(F)c5F)c5ccc([nH]5)c(-c5c(F)c(F)c(F)c(F)c5F)c5nc(c(-c6c(F)c(F)c(F)c(F)c6F)c6ccc3[nH]6)C=C5)C=C4)cc2)nc(-c2ccc(Cl)cc2)n1
REMARK SMILES IDX 17 1 16 2 15 3 13 4 14 5 12 7 7 8 8 9 9 10 11 11 10 12 6 13
REMARK SMILES IDX 4 14 5 15 95 16 87 17 86 18 3 19 2 20 1 21 88 22 89 23 94 24
REMARK SMILES IDX 90 25 93 26 91 27 92 28 18 29 19 30 20 31 21 32 22 34 23 35
REMARK SMILES IDX 24 36 85 37 25 38 84 39 26 40 27 41 28 42 78 43 29 44 83 45
REMARK SMILES IDX 77 46 79 47 30 48 82 49 76 50 75 51 31 53 63 54 43 55 62 56
REMARK SMILES IDX 44 57 47 58 61 59 80 60 45 61 46 62 60 64 81 65 48 66 32 67
REMARK SMILES IDX 33 68 41 69 34 70 35 71 39 72 42 73 36 74 37 75 40 76 38 77
REMARK SMILES IDX 64 78 65 79 73 80 66 81 67 82 71 83 74 84 68 85 69 86 72 87
REMARK SMILES IDX 70 88 49 89 50 90 58 91 51 92 52 93 56 94 59 95 53 96 54 97
REMARK SMILES IDX 57 98 55 99
REMARK H PARENT 15 6 20 33 79 52 47 63
REMARK Flexibility Score: inf
ROOT
ATOM      1  C   UNL A   1      31.910  28.177  27.296  1.00  0.00     0.023 C 
ENDROOT
BRANCH   1   2
ATOM      2  C   UNL A   1      31.446  27.266  26.163  1.00  0.00     0.116 C 
BRANCH   2   3
ATOM      3  N   UNL A   1      31.087  25.953  26.645  1.00  0.00    -0.354 N 
ATOM      4  C   UNL A   1      31.689  24.740  26.614  1.00  0.00     0.242 C 
ATOM      5  O   UNL A   1      31.064  23.861  27.233  1.00  0.00    -0.273 OA
ATOM      6  H   UNL A   1      30.212  25.936  27.094  1.00  0.00     0.163 HD
BRANCH   4   7
ATOM      7  C   UNL A   1      33.074  24.399  25.973  1.00  0.00     0.173 C 
ATOM      8  N   UNL A   1      32.834  23.516  24.811  1.00  0.00    -0.344 N 
ATOM      9  C   UNL A   1      32.371  24.114  23.568  1.00  0.00     0.119 C 
ATOM     10  C   UNL A   1      33.323  25.211  23.109  1.00  0.00     0.022 C 
ATOM     11  C   UNL A   1      34.073  25.462  25.499  1.00  0.00     0.035 C 
ATOM     12  C   UNL A   1      33.615  26.192  24.240  1.00  0.00     0.004 C 
BRANCH   8  13
ATOM     13  C   UNL A   1      33.443  22.280  24.772  1.00  0.00     0.133 A 
ATOM     14  C   UNL A   1      33.306  19.938  24.467  1.00  0.00     0.072 A 
ATOM     15  C   UNL A   1      32.666  21.150  24.609  1.00  0.00     0.073 A 
ATOM     16  N   UNL A   1      34.647  19.836  24.574  1.00  0.00    -0.230 NA
ATOM     17  C   UNL A   1      35.322  20.978  24.801  1.00  0.00     0.161 A 
ATOM     18  N   UNL A   1      34.775  22.203  24.883  1.00  0.00    -0.211 NA
BRANCH  14  19
ATOM     19  C   UNL A   1      32.516  18.664  24.255  1.00  0.00     0.216 C 
BRANCH  19  20
ATOM     20  O   UNL A   1      32.158  17.975  25.457  1.00  0.00    -0.378 OA
ATOM     21  C   UNL A   1      32.845  16.749  25.661  1.00  0.00     0.195 C 
ENDBRANCH  19  20
ENDBRANCH  14  19
BRANCH  17  22
ATOM     22  C   UNL A   1      36.748  20.856  25.118  1.00  0.00     0.019 A 
ATOM     23  C   UNL A   1      37.428  19.635  24.977  1.00  0.00     0.013 A 
ATOM     24  C   UNL A   1      37.465  21.960  25.621  1.00  0.00     0.013 A 
ATOM     25  C   UNL A   1      38.777  19.518  25.330  1.00  0.00     0.021 A 
ATOM     26  C   UNL A   1      38.807  21.842  25.991  1.00  0.00     0.021 A 
ATOM     27  C   UNL A   1      39.457  20.620  25.843  1.00  0.00     0.041 A 
ATOM     28  Cl  UNL A   1      41.107  20.468  26.308  1.00  0.00    -0.084 Cl
ENDBRANCH  17  22
ENDBRANCH   8  13
ENDBRANCH   4   7
ENDBRANCH   2   3
ENDBRANCH   1   2
BRANCH   1  29
ATOM     29  C   UNL A   1      31.601  29.658  27.093  1.00  0.00     0.023 C 
BRANCH  29  30
ATOM     30  C   UNL A   1      32.745  30.486  26.529  1.00  0.00     0.116 C 
BRANCH  30  31
ATOM     31  N   UNL A   1      32.647  31.905  26.839  1.00  0.00    -0.352 N 
ATOM     32  C   UNL A   1      33.517  32.682  27.568  1.00  0.00     0.251 C 
ATOM     33  H   UNL A   1      31.855  32.368  26.482  1.00  0.00     0.163 HD
ATOM     34  O   UNL A   1      33.260  33.848  27.823  1.00  0.00    -0.269 OA
BRANCH  32  35
ATOM     35  C   UNL A   1      34.756  32.059  28.073  1.00  0.00     0.039 A 
ATOM     36  C   UNL A   1      35.890  32.854  28.249  1.00  0.00     0.014 A 
ATOM     37  C   UNL A   1      34.759  30.714  28.452  1.00  0.00     0.014 A 
ATOM     38  C   UNL A   1      37.010  32.315  28.882  1.00  0.00     0.010 A 
ATOM     39  C   UNL A   1      35.841  30.206  29.155  1.00  0.00     0.010 A 
ATOM     40  C   UNL A   1      36.977  31.001  29.376  1.00  0.00    -0.014 A 
BRANCH  40  41
ATOM     41  C   UNL A   1      38.126  30.416  30.109  1.00  0.00     0.031 A 
ATOM     42  C   UNL A   1      38.367  30.813  31.538  1.00  0.00     0.074 A 
ATOM     43  C   UNL A   1      38.990  29.604  29.470  1.00  0.00     0.049 A 
ATOM     44  N   UNL A   1      39.379  30.532  32.317  1.00  0.00    -0.248 NA
ATOM     45  C   UNL A   1      37.349  31.674  32.161  1.00  0.00     0.031 C 
ATOM     46  C   UNL A   1      38.885  29.181  28.073  1.00  0.00     0.029 A 
ATOM     47  N   UNL A   1      40.138  28.998  29.914  1.00  0.00    -0.354 N 
ATOM     48  C   UNL A   1      39.129  31.198  33.509  1.00  0.00     0.074 A 
ATOM     49  C   UNL A   1      37.903  31.944  33.333  1.00  0.00     0.031 C 
ATOM     50  C   UNL A   1      39.911  28.366  27.781  1.00  0.00     0.029 A 
ATOM     51  C   UNL A   1      40.767  28.240  28.956  1.00  0.00     0.049 A 
ATOM     52  H   UNL A   1      40.479  29.098  30.832  1.00  0.00     0.167 HD
ATOM     53  C   UNL A   1      39.845  31.169  34.658  1.00  0.00     0.037 A 
ATOM     54  C   UNL A   1      41.910  27.531  29.023  1.00  0.00     0.037 A 
ATOM     55  C   UNL A   1      41.041  30.394  34.841  1.00  0.00     0.049 A 
ATOM     56  C   UNL A   1      42.682  27.509  30.316  1.00  0.00     0.074 A 
ATOM     57  C   UNL A   1      41.820  30.261  35.977  1.00  0.00     0.029 A 
ATOM     58  N   UNL A   1      41.625  29.607  33.860  1.00  0.00    -0.354 N 
ATOM     59  N   UNL A   1      42.414  28.108  31.450  1.00  0.00    -0.248 NA
ATOM     60  C   UNL A   1      43.914  26.706  30.338  1.00  0.00     0.031 C 
ATOM     61  C   UNL A   1      42.889  29.412  35.675  1.00  0.00     0.029 A 
ATOM     62  C   UNL A   1      42.756  28.988  34.363  1.00  0.00     0.049 A 
ATOM     63  H   UNL A   1      41.285  29.503  32.942  1.00  0.00     0.167 HD
ATOM     64  C   UNL A   1      43.419  27.729  32.329  1.00  0.00     0.074 A 
ATOM     65  C   UNL A   1      44.300  26.841  31.599  1.00  0.00     0.031 C 
ATOM     66  C   UNL A   1      43.599  28.084  33.624  1.00  0.00     0.037 A 
BRANCH  53  67
ATOM     67  C   UNL A   1      39.336  31.986  35.808  1.00  0.00     0.064 A 
ATOM     68  C   UNL A   1      38.422  31.459  36.732  1.00  0.00     0.173 A 
ATOM     69  C   UNL A   1      39.782  33.301  36.003  1.00  0.00     0.173 A 
ATOM     70  F   UNL A   1      37.952  30.211  36.579  1.00  0.00    -0.203 F 
ATOM     71  C   UNL A   1      37.949  32.227  37.792  1.00  0.00     0.198 A 
ATOM     72  C   UNL A   1      39.330  34.057  37.081  1.00  0.00     0.198 A 
ATOM     73  F   UNL A   1      40.658  33.853  35.149  1.00  0.00    -0.203 F 
ATOM     74  F   UNL A   1      37.036  31.719  38.631  1.00  0.00    -0.200 F 
ATOM     75  C   UNL A   1      38.409  33.524  37.970  1.00  0.00     0.200 A 
ATOM     76  F   UNL A   1      39.782  35.307  37.257  1.00  0.00    -0.200 F 
ATOM     77  F   UNL A   1      37.957  34.262  38.992  1.00  0.00    -0.200 F 
ENDBRANCH  53  67
BRANCH  54  78
ATOM     78  C   UNL A   1      42.379  26.753  27.848  1.00  0.00     0.064 A 
ATOM     79  C   UNL A   1      43.268  27.320  26.925  1.00  0.00     0.173 A 
ATOM     80  C   UNL A   1      41.940  25.443  27.611  1.00  0.00     0.173 A 
ATOM     81  F   UNL A   1      43.701  28.578  27.097  1.00  0.00    -0.203 F 
ATOM     82  C   UNL A   1      43.681  26.616  25.795  1.00  0.00     0.198 A 
ATOM     83  C   UNL A   1      42.374  24.730  26.495  1.00  0.00     0.198 A 
ATOM     84  F   UNL A   1      41.093  24.852  28.467  1.00  0.00    -0.203 F 
ATOM     85  F   UNL A   1      44.493  27.201  24.903  1.00  0.00    -0.200 F 
ATOM     86  C   UNL A   1      43.236  25.320  25.582  1.00  0.00     0.200 A 
ATOM     87  F   UNL A   1      41.952  23.473  26.298  1.00  0.00    -0.200 F 
ATOM     88  F   UNL A   1      43.631  24.645  24.495  1.00  0.00    -0.200 F 
ENDBRANCH  54  78
BRANCH  66  89
ATOM     89  C   UNL A   1      44.756  27.470  34.351  1.00  0.00     0.064 A 
ATOM     90  C   UNL A   1      46.009  28.096  34.404  1.00  0.00     0.173 A 
ATOM     91  C   UNL A   1      44.591  26.263  35.048  1.00  0.00     0.173 A 
ATOM     92  F   UNL A   1      46.218  29.244  33.741  1.00  0.00    -0.203 F 
ATOM     93  C   UNL A   1      47.062  27.527  35.115  1.00  0.00     0.198 A 
ATOM     94  C   UNL A   1      45.638  25.710  35.779  1.00  0.00     0.198 A 
ATOM     95  F   UNL A   1      43.409  25.629  35.032  1.00  0.00    -0.203 F 
ATOM     96  F   UNL A   1      48.262  28.123  35.121  1.00  0.00    -0.200 F 
ATOM     97  C   UNL A   1      46.874  26.340  35.807  1.00  0.00     0.200 A 
ATOM     98  F   UNL A   1      45.452  24.569  36.457  1.00  0.00    -0.200 F 
ATOM     99  F   UNL A   1      47.886  25.799  36.498  1.00  0.00    -0.200 F 
ENDBRANCH  66  89
ENDBRANCH  40  41
ENDBRANCH  32  35
ENDBRANCH  30  31
ENDBRANCH  29  30
ENDBRANCH   1  29
TORSDOF 15
ENDMDL
MODEL 2
REMARK VINA RESULT:     -13.2      2.376      3.929
REMARK SMILES COCc1cc(N2CCCC[C@H]2C(=O)NCCCCNC(=O)c2ccc(-c3c4nc(c(-c5c(F)c(F)c(F)c(F)c5F)c5ccc([nH]5)c(-c5c(F)c(F)c(F)c(F)c5F)c5nc(c(-c6c(F)c(F)c(F)c(F)c6F)c6ccc3[nH]6)C=C5)C=C4)cc2)nc(-c2ccc(Cl)cc2)n1
REMARK SMILES IDX 17 1 16 2 15 3 13 4 14 5 12 7 7 8 8 9 9 10 11 11 10 12 6 13
REMARK SMILES IDX 4 14 5 15 95 16 87 17 86 18 3 19 2 20 1 21 88 22 89 23 94 24
REMARK SMILES IDX 90 25 93 26 91 27 92 28 18 29 19 30 20 31 21 32 22 34 23 35
REMARK SMILES IDX 24 36 85 37 25 38 84 39 26 40 27 41 28 42 78 43 29 44 83 45
REMARK SMILES IDX 77 46 79 47 30 48 82 49 76 50 75 51 31 53 63 54 43 55 62 56
REMARK SMILES IDX 44 57 47 58 61 59 80 60 45 61 46 62 60 64 81 65 48 66 32 67
REMARK SMILES IDX 33 68 41 69 34 70 35 71 39 72 42 73 36 74 37 75 40 76 38 77
REMARK SMILES IDX 64 78 65 79 73 80 66 81 67 82 71 83 74 84 68 85 69 86 72 87
REMARK SMILES IDX 70 88 49 89 50 90 58 91 51 92 52 93 56 94 59 95 53 96 54 97
REMARK SMILES IDX 57 98 55 99
REMARK H PARENT 15 6 20 33 79 52 47 63
REMARK Flexibility Score: inf
ROOT
ATOM      1  C   UNL A   1      32.120  28.233  27.369  1.00  0.00     0.023 C 
ENDROOT
BRANCH   1   2
ATOM      2  C   UNL A   1      31.177  27.465  26.446  1.00  0.00     0.116 C 
BRANCH   2   3
ATOM      3  N   UNL A   1      31.018  26.093  26.865  1.00  0.00    -0.354 N 
ATOM      4  C   UNL A   1      31.596  24.923  26.502  1.00  0.00     0.242 C 
ATOM      5  O   UNL A   1      31.223  23.953  27.185  1.00  0.00    -0.273 OA
ATOM      6  H   UNL A   1      30.340  25.983  27.570  1.00  0.00     0.163 HD
BRANCH   4   7
ATOM      7  C   UNL A   1      32.696  24.722  25.409  1.00  0.00     0.173 C 
ATOM      8  N   UNL A   1      32.453  23.422  24.748  1.00  0.00    -0.344 N 
ATOM      9  C   UNL A   1      31.400  23.338  23.747  1.00  0.00     0.119 C 
ATOM     10  C   UNL A   1      31.619  24.367  22.645  1.00  0.00     0.022 C 
ATOM     11  C   UNL A   1      32.964  25.728  24.282  1.00  0.00     0.035 C 
ATOM     12  C   UNL A   1      31.857  25.756  23.232  1.00  0.00     0.004 C 
BRANCH   8  13
ATOM     13  C   UNL A   1      33.453  22.473  24.748  1.00  0.00     0.133 A 
ATOM     14  C   UNL A   1      35.750  21.919  24.640  1.00  0.00     0.072 A 
ATOM     15  C   UNL A   1      34.758  22.868  24.530  1.00  0.00     0.073 A 
ATOM     16  N   UNL A   1      35.457  20.620  24.863  1.00  0.00    -0.230 NA
ATOM     17  C   UNL A   1      34.153  20.312  24.996  1.00  0.00     0.161 A 
ATOM     18  N   UNL A   1      33.138  21.191  24.969  1.00  0.00    -0.211 NA
BRANCH  14  19
ATOM     19  C   UNL A   1      37.204  22.290  24.445  1.00  0.00     0.216 C 
BRANCH  19  20
ATOM     20  O   UNL A   1      37.541  23.621  24.849  1.00  0.00    -0.378 OA
ATOM     21  C   UNL A   1      38.165  23.711  26.122  1.00  0.00     0.195 C 
ENDBRANCH  19  20
ENDBRANCH  14  19
BRANCH  17  22
ATOM     22  C   UNL A   1      33.809  18.887  25.037  1.00  0.00     0.019 A 
ATOM     23  C   UNL A   1      32.631  18.436  25.655  1.00  0.00     0.013 A 
ATOM     24  C   UNL A   1      34.683  17.926  24.493  1.00  0.00     0.013 A 
ATOM     25  C   UNL A   1      32.337  17.070  25.731  1.00  0.00     0.021 A 
ATOM     26  C   UNL A   1      34.402  16.560  24.583  1.00  0.00     0.021 A 
ATOM     27  C   UNL A   1      33.228  16.139  25.203  1.00  0.00     0.041 A 
ATOM     28  Cl  UNL A   1      32.884  14.457  25.325  1.00  0.00    -0.084 Cl
ENDBRANCH  17  22
ENDBRANCH   8  13
ENDBRANCH   4   7
ENDBRANCH   2   3
ENDBRANCH   1   2
BRANCH   1  29
ATOM     29  C   UNL A   1      33.590  28.189  26.962  1.00  0.00     0.023 C 
BRANCH  29  30
ATOM     30  C   UNL A   1      34.090  29.415  26.213  1.00  0.00     0.116 C 
BRANCH  30  31
ATOM     31  N   UNL A   1      33.909  30.660  26.945  1.00  0.00    -0.352 N 
ATOM     32  C   UNL A   1      34.686  31.179  27.955  1.00  0.00     0.251 C 
ATOM     33  H   UNL A   1      33.128  31.201  26.685  1.00  0.00     0.163 HD
ATOM     34  O   UNL A   1      34.361  32.199  28.541  1.00  0.00    -0.269 OA
BRANCH  32  35
ATOM     35  C   UNL A   1      35.907  30.446  28.344  1.00  0.00     0.039 A 
ATOM     36  C   UNL A   1      37.083  30.659  27.622  1.00  0.00     0.014 A 
ATOM     37  C   UNL A   1      35.899  29.623  29.473  1.00  0.00     0.014 A 
ATOM     38  C   UNL A   1      38.277  30.104  28.083  1.00  0.00     0.010 A 
ATOM     39  C   UNL A   1      37.100  29.143  29.975  1.00  0.00     0.010 A 
ATOM     40  C   UNL A   1      38.300  29.378  29.285  1.00  0.00    -0.014 A 
BRANCH  40  41
ATOM     41  C   UNL A   1      39.561  28.827  29.837  1.00  0.00     0.031 A 
ATOM     42  C   UNL A   1      40.228  29.526  30.987  1.00  0.00     0.074 A 
ATOM     43  C   UNL A   1      40.141  27.760  29.256  1.00  0.00     0.049 A 
ATOM     44  N   UNL A   1      41.395  29.298  31.532  1.00  0.00    -0.248 NA
ATOM     45  C   UNL A   1      39.500  30.660  31.579  1.00  0.00     0.031 C 
ATOM     46  C   UNL A   1      39.610  27.022  28.108  1.00  0.00     0.029 A 
ATOM     47  N   UNL A   1      41.317  27.116  29.547  1.00  0.00    -0.354 N 
ATOM     48  C   UNL A   1      41.547  30.270  32.510  1.00  0.00     0.074 A 
ATOM     49  C   UNL A   1      40.383  31.126  32.448  1.00  0.00     0.031 C 
ATOM     50  C   UNL A   1      40.445  26.014  27.808  1.00  0.00     0.029 A 
ATOM     51  C   UNL A   1      41.587  26.057  28.714  1.00  0.00     0.049 A 
ATOM     52  H   UNL A   1      41.913  27.389  30.283  1.00  0.00     0.167 HD
ATOM     53  C   UNL A   1      42.556  30.420  33.401  1.00  0.00     0.037 A 
ATOM     54  C   UNL A   1      42.643  25.222  28.688  1.00  0.00     0.037 A 
ATOM     55  C   UNL A   1      43.690  29.543  33.487  1.00  0.00     0.049 A 
ATOM     56  C   UNL A   1      43.747  25.406  29.695  1.00  0.00     0.074 A 
ATOM     57  C   UNL A   1      44.747  29.581  34.379  1.00  0.00     0.029 A 
ATOM     58  N   UNL A   1      43.908  28.456  32.652  1.00  0.00    -0.354 N 
ATOM     59  N   UNL A   1      43.861  26.302  30.644  1.00  0.00    -0.248 NA
ATOM     60  C   UNL A   1      44.868  24.456  29.630  1.00  0.00     0.031 C 
ATOM     61  C   UNL A   1      45.618  28.531  34.068  1.00  0.00     0.029 A 
ATOM     62  C   UNL A   1      45.084  27.818  33.007  1.00  0.00     0.049 A 
ATOM     63  H   UNL A   1      43.314  28.180  31.917  1.00  0.00     0.167 HD
ATOM     64  C   UNL A   1      45.041  26.006  31.310  1.00  0.00     0.074 A 
ATOM     65  C   UNL A   1      45.606  24.841  30.662  1.00  0.00     0.031 C 
ATOM     66  C   UNL A   1      45.609  26.642  32.364  1.00  0.00     0.037 A 
BRANCH  53  67
ATOM     67  C   UNL A   1      42.460  31.566  34.364  1.00  0.00     0.064 A 
ATOM     68  C   UNL A   1      43.029  32.815  34.073  1.00  0.00     0.173 A 
ATOM     69  C   UNL A   1      41.775  31.423  35.579  1.00  0.00     0.173 A 
ATOM     70  F   UNL A   1      43.709  32.997  32.931  1.00  0.00    -0.203 F 
ATOM     71  C   UNL A   1      42.941  33.871  34.976  1.00  0.00     0.198 A 
ATOM     72  C   UNL A   1      41.664  32.490  36.467  1.00  0.00     0.198 A 
ATOM     73  F   UNL A   1      41.211  30.251  35.905  1.00  0.00    -0.203 F 
ATOM     74  F   UNL A   1      43.538  35.038  34.699  1.00  0.00    -0.200 F 
ATOM     75  C   UNL A   1      42.253  33.710  36.170  1.00  0.00     0.200 A 
ATOM     76  F   UNL A   1      40.990  32.336  37.616  1.00  0.00    -0.200 F 
ATOM     77  F   UNL A   1      42.166  34.727  37.037  1.00  0.00    -0.200 F 
ENDBRANCH  53  67
BRANCH  54  78
ATOM     78  C   UNL A   1      42.697  24.113  27.700  1.00  0.00     0.064 A 
ATOM     79  C   UNL A   1      42.285  22.821  28.053  1.00  0.00     0.173 A 
ATOM     80  C   UNL A   1      43.174  24.313  26.397  1.00  0.00     0.173 A 
ATOM     81  F   UNL A   1      41.840  22.576  29.295  1.00  0.00    -0.203 F 
ATOM     82  C   UNL A   1      42.373  21.763  27.150  1.00  0.00     0.198 A 
ATOM     83  C   UNL A   1      43.237  23.260  25.485  1.00  0.00     0.198 A 
ATOM     84  F   UNL A   1      43.575  25.532  26.007  1.00  0.00    -0.203 F 
ATOM     85  F   UNL A   1      42.019  20.528  27.530  1.00  0.00    -0.200 F 
ATOM     86  C   UNL A   1      42.846  21.985  25.865  1.00  0.00     0.200 A 
ATOM     87  F   UNL A   1      43.683  23.480  24.241  1.00  0.00    -0.200 F 
ATOM     88  F   UNL A   1      42.932  20.968  24.997  1.00  0.00    -0.200 F 
ENDBRANCH  54  78
BRANCH  66  89
ATOM     89  C   UNL A   1      46.874  26.059  32.917  1.00  0.00     0.064 A 
ATOM     90  C   UNL A   1      46.856  25.045  33.884  1.00  0.00     0.173 A 
ATOM     91  C   UNL A   1      48.119  26.487  32.431  1.00  0.00     0.173 A 
ATOM     92  F   UNL A   1      45.690  24.614  34.389  1.00  0.00    -0.203 F 
ATOM     93  C   UNL A   1      48.042  24.491  34.360  1.00  0.00     0.198 A 
ATOM     94  C   UNL A   1      49.301  25.913  32.888  1.00  0.00     0.198 A 
ATOM     95  F   UNL A   1      48.187  27.450  31.500  1.00  0.00    -0.203 F 
ATOM     96  F   UNL A   1      48.004  23.550  35.312  1.00  0.00    -0.200 F 
ATOM     97  C   UNL A   1      49.262  24.920  33.856  1.00  0.00     0.200 A 
ATOM     98  F   UNL A   1      50.479  26.319  32.393  1.00  0.00    -0.200 F 
ATOM     99  F   UNL A   1      50.401  24.378  34.308  1.00  0.00    -0.200 F 
ENDBRANCH  66  89
ENDBRANCH  40  41
ENDBRANCH  32  35
ENDBRANCH  30  31
ENDBRANCH  29  30
ENDBRANCH   1  29
TORSDOF 15
ENDMDL
MODEL 3
REMARK VINA RESULT:     -13.2      1.406      2.565
REMARK SMILES COCc1cc(N2CCCC[C@H]2C(=O)NCCCCNC(=O)c2ccc(-c3c4nc(c(-c5c(F)c(F)c(F)c(F)c5F)c5ccc([nH]5)c(-c5c(F)c(F)c(F)c(F)c5F)c5nc(c(-c6c(F)c(F)c(F)c(F)c6F)c6ccc3[nH]6)C=C5)C=C4)cc2)nc(-c2ccc(Cl)cc2)n1
REMARK SMILES IDX 17 1 16 2 15 3 13 4 14 5 12 7 7 8 8 9 9 10 11 11 10 12 6 13
REMARK SMILES IDX 4 14 5 15 95 16 87 17 86 18 3 19 2 20 1 21 88 22 89 23 94 24
REMARK SMILES IDX 90 25 93 26 91 27 92 28 18 29 19 30 20 31 21 32 22 34 23 35
REMARK SMILES IDX 24 36 85 37 25 38 84 39 26 40 27 41 28 42 78 43 29 44 83 45
REMARK SMILES IDX 77 46 79 47 30 48 82 49 76 50 75 51 31 53 63 54 43 55 62 56
REMARK SMILES IDX 44 57 47 58 61 59 80 60 45 61 46 62 60 64 81 65 48 66 32 67
REMARK SMILES IDX 33 68 41 69 34 70 35 71 39 72 42 73 36 74 37 75 40 76 38 77
REMARK SMILES IDX 64 78 65 79 73 80 66 81 67 82 71 83 74 84 68 85 69 86 72 87
REMARK SMILES IDX 70 88 49 89 50 90 58 91 51 92 52 93 56 94 59 95 53 96 54 97
REMARK SMILES IDX 57 98 55 99
REMARK H PARENT 15 6 20 33 79 52 47 63
REMARK Flexibility Score: inf
ROOT
ATOM      1  C   UNL A   1      32.021  28.189  27.209  1.00  0.00     0.023 C 
ENDROOT
BRANCH   1   2
ATOM      2  C   UNL A   1      31.145  27.340  26.291  1.00  0.00     0.116 C 
BRANCH   2   3
ATOM      3  N   UNL A   1      31.042  25.978  26.758  1.00  0.00    -0.354 N 
ATOM      4  C   UNL A   1      31.712  24.834  26.484  1.00  0.00     0.242 C 
ATOM      5  O   UNL A   1      31.355  23.870  27.184  1.00  0.00    -0.273 OA
ATOM      6  H   UNL A   1      30.327  25.854  27.423  1.00  0.00     0.163 HD
BRANCH   4   7
ATOM      7  C   UNL A   1      32.893  24.660  25.473  1.00  0.00     0.173 C 
ATOM      8  N   UNL A   1      32.673  23.404  24.724  1.00  0.00    -0.344 N 
ATOM      9  C   UNL A   1      31.703  23.402  23.640  1.00  0.00     0.119 C 
ATOM     10  C   UNL A   1      32.035  24.482  22.617  1.00  0.00     0.022 C 
ATOM     11  C   UNL A   1      33.275  25.716  24.428  1.00  0.00     0.035 C 
ATOM     12  C   UNL A   1      32.257  25.830  23.296  1.00  0.00     0.004 C 
BRANCH   8  13
ATOM     13  C   UNL A   1      33.647  22.429  24.752  1.00  0.00     0.133 A 
ATOM     14  C   UNL A   1      35.930  21.813  24.719  1.00  0.00     0.072 A 
ATOM     15  C   UNL A   1      34.968  22.790  24.581  1.00  0.00     0.073 A 
ATOM     16  N   UNL A   1      35.595  20.522  24.923  1.00  0.00    -0.230 NA
ATOM     17  C   UNL A   1      34.280  20.248  25.009  1.00  0.00     0.161 A 
ATOM     18  N   UNL A   1      33.290  21.155  24.954  1.00  0.00    -0.211 NA
BRANCH  14  19
ATOM     19  C   UNL A   1      37.400  22.146  24.575  1.00  0.00     0.216 C 
BRANCH  19  20
ATOM     20  O   UNL A   1      38.287  21.236  25.234  1.00  0.00    -0.378 OA
ATOM     21  C   UNL A   1      39.235  21.854  26.092  1.00  0.00     0.195 C 
ENDBRANCH  19  20
ENDBRANCH  14  19
BRANCH  17  22
ATOM     22  C   UNL A   1      33.897  18.833  25.029  1.00  0.00     0.019 A 
ATOM     23  C   UNL A   1      32.699  18.407  25.627  1.00  0.00     0.013 A 
ATOM     24  C   UNL A   1      34.751  17.854  24.485  1.00  0.00     0.013 A 
ATOM     25  C   UNL A   1      32.368  17.048  25.683  1.00  0.00     0.021 A 
ATOM     26  C   UNL A   1      34.432  16.495  24.556  1.00  0.00     0.021 A 
ATOM     27  C   UNL A   1      33.239  16.100  25.155  1.00  0.00     0.041 A 
ATOM     28  Cl  UNL A   1      32.848  14.426  25.254  1.00  0.00    -0.084 Cl
ENDBRANCH  17  22
ENDBRANCH   8  13
ENDBRANCH   4   7
ENDBRANCH   2   3
ENDBRANCH   1   2
BRANCH   1  29
ATOM     29  C   UNL A   1      31.770  29.692  27.121  1.00  0.00     0.023 C 
BRANCH  29  30
ATOM     30  C   UNL A   1      32.926  30.508  26.565  1.00  0.00     0.116 C 
BRANCH  30  31
ATOM     31  N   UNL A   1      32.849  31.926  26.889  1.00  0.00    -0.352 N 
ATOM     32  C   UNL A   1      33.729  32.681  27.629  1.00  0.00     0.251 C 
ATOM     33  H   UNL A   1      32.066  32.405  26.533  1.00  0.00     0.163 HD
ATOM     34  O   UNL A   1      33.489  33.848  27.895  1.00  0.00    -0.269 OA
BRANCH  32  35
ATOM     35  C   UNL A   1      34.956  32.033  28.134  1.00  0.00     0.039 A 
ATOM     36  C   UNL A   1      36.129  32.784  28.222  1.00  0.00     0.014 A 
ATOM     37  C   UNL A   1      34.911  30.717  28.597  1.00  0.00     0.014 A 
ATOM     38  C   UNL A   1      37.246  32.234  28.852  1.00  0.00     0.010 A 
ATOM     39  C   UNL A   1      35.993  30.203  29.296  1.00  0.00     0.010 A 
ATOM     40  C   UNL A   1      37.171  30.956  29.430  1.00  0.00    -0.014 A 
BRANCH  40  41
ATOM     41  C   UNL A   1      38.317  30.365  30.161  1.00  0.00     0.031 A 
ATOM     42  C   UNL A   1      38.567  30.766  31.588  1.00  0.00     0.074 A 
ATOM     43  C   UNL A   1      39.172  29.542  29.524  1.00  0.00     0.049 A 
ATOM     44  N   UNL A   1      39.579  30.479  32.364  1.00  0.00    -0.248 NA
ATOM     45  C   UNL A   1      37.558  31.639  32.210  1.00  0.00     0.031 C 
ATOM     46  C   UNL A   1      39.058  29.113  28.128  1.00  0.00     0.029 A 
ATOM     47  N   UNL A   1      40.316  28.928  29.966  1.00  0.00    -0.354 N 
ATOM     48  C   UNL A   1      39.339  31.154  33.554  1.00  0.00     0.074 A 
ATOM     49  C   UNL A   1      38.118  31.909  33.379  1.00  0.00     0.031 C 
ATOM     50  C   UNL A   1      40.076  28.288  27.837  1.00  0.00     0.029 A 
ATOM     51  C   UNL A   1      40.935  28.160  29.009  1.00  0.00     0.049 A 
ATOM     52  H   UNL A   1      40.661  29.029  30.883  1.00  0.00     0.167 HD
ATOM     53  C   UNL A   1      40.058  31.123  34.700  1.00  0.00     0.037 A 
ATOM     54  C   UNL A   1      42.072  27.441  29.076  1.00  0.00     0.037 A 
ATOM     55  C   UNL A   1      41.248  30.339  34.884  1.00  0.00     0.049 A 
ATOM     56  C   UNL A   1      42.848  27.419  30.366  1.00  0.00     0.074 A 
ATOM     57  C   UNL A   1      42.030  30.205  36.017  1.00  0.00     0.029 A 
ATOM     58  N   UNL A   1      41.822  29.542  33.904  1.00  0.00    -0.354 N 
ATOM     59  N   UNL A   1      42.590  28.026  31.499  1.00  0.00    -0.248 NA
ATOM     60  C   UNL A   1      44.073  26.605  30.388  1.00  0.00     0.031 C 
ATOM     61  C   UNL A   1      43.091  29.345  35.716  1.00  0.00     0.029 A 
ATOM     62  C   UNL A   1      42.949  28.916  34.406  1.00  0.00     0.049 A 
ATOM     63  H   UNL A   1      41.478  29.438  32.987  1.00  0.00     0.167 HD
ATOM     64  C   UNL A   1      43.594  27.642  32.376  1.00  0.00     0.074 A 
ATOM     65  C   UNL A   1      44.465  26.743  31.647  1.00  0.00     0.031 C 
ATOM     66  C   UNL A   1      43.782  28.002  33.669  1.00  0.00     0.037 A 
BRANCH  53  67
ATOM     67  C   UNL A   1      39.561  31.951  35.848  1.00  0.00     0.064 A 
ATOM     68  C   UNL A   1      40.088  33.223  36.116  1.00  0.00     0.173 A 
ATOM     69  C   UNL A   1      38.532  31.479  36.676  1.00  0.00     0.173 A 
ATOM     70  F   UNL A   1      41.085  33.712  35.363  1.00  0.00    -0.203 F 
ATOM     71  C   UNL A   1      39.625  33.981  37.187  1.00  0.00     0.198 A 
ATOM     72  C   UNL A   1      38.051  32.252  37.730  1.00  0.00     0.198 A 
ATOM     73  F   UNL A   1      37.991  30.270  36.463  1.00  0.00    -0.203 F 
ATOM     74  F   UNL A   1      40.181  35.171  37.454  1.00  0.00    -0.200 F 
ATOM     75  C   UNL A   1      38.602  33.498  37.990  1.00  0.00     0.200 A 
ATOM     76  F   UNL A   1      37.055  31.788  38.499  1.00  0.00    -0.200 F 
ATOM     77  F   UNL A   1      38.154  34.229  39.019  1.00  0.00    -0.200 F 
ENDBRANCH  53  67
BRANCH  54  78
ATOM     78  C   UNL A   1      42.530  26.654  27.903  1.00  0.00     0.064 A 
ATOM     79  C   UNL A   1      43.408  27.214  26.965  1.00  0.00     0.173 A 
ATOM     80  C   UNL A   1      42.092  25.340  27.682  1.00  0.00     0.173 A 
ATOM     81  F   UNL A   1      43.839  28.475  27.121  1.00  0.00    -0.203 F 
ATOM     82  C   UNL A   1      43.810  26.501  25.837  1.00  0.00     0.198 A 
ATOM     83  C   UNL A   1      42.516  24.618  26.568  1.00  0.00     0.198 A 
ATOM     84  F   UNL A   1      41.256  24.756  28.553  1.00  0.00    -0.203 F 
ATOM     85  F   UNL A   1      44.610  27.080  24.931  1.00  0.00    -0.200 F 
ATOM     86  C   UNL A   1      43.366  25.202  25.641  1.00  0.00     0.200 A 
ATOM     87  F   UNL A   1      42.094  23.359  26.388  1.00  0.00    -0.200 F 
ATOM     88  F   UNL A   1      43.751  24.518  24.556  1.00  0.00    -0.200 F 
ENDBRANCH  54  78
BRANCH  66  89
ATOM     89  C   UNL A   1      44.937  27.380  34.394  1.00  0.00     0.064 A 
ATOM     90  C   UNL A   1      46.189  28.007  34.459  1.00  0.00     0.173 A 
ATOM     91  C   UNL A   1      44.769  26.167  35.079  1.00  0.00     0.173 A 
ATOM     92  F   UNL A   1      46.400  29.161  33.808  1.00  0.00    -0.203 F 
ATOM     93  C   UNL A   1      47.239  27.431  35.168  1.00  0.00     0.198 A 
ATOM     94  C   UNL A   1      45.813  25.607  35.809  1.00  0.00     0.198 A 
ATOM     95  F   UNL A   1      43.587  25.533  35.051  1.00  0.00    -0.203 F 
ATOM     96  F   UNL A   1      48.439  28.028  35.186  1.00  0.00    -0.200 F 
ATOM     97  C   UNL A   1      47.048  26.237  35.848  1.00  0.00     0.200 A 
ATOM     98  F   UNL A   1      45.625  24.460  36.475  1.00  0.00    -0.200 F 
ATOM     99  F   UNL A   1      48.058  25.690  36.538  1.00  0.00    -0.200 F 
ENDBRANCH  66  89
ENDBRANCH  40  41
ENDBRANCH  32  35
ENDBRANCH  30  31
ENDBRANCH  29  30
ENDBRANCH   1  29
TORSDOF 15
ENDMDL
