MODEL 1
REMARK VINA RESULT:     -13.7      0.000      0.000
REMARK SMILES Cc1ccccc1NC(=O)c1ccccc1NC(=O)CCC(=O)NCCCCNC(=O)c1ccc(-c2c3nc(c(-c4c(F)c(F)c(F)c(F)c4F)c4ccc([nH]4)c(-c4c(F)c(F)c(F)c(F)c4F)c4nc(c(-c5c(F)c(F)c(F)c(F)c5F)c5ccc2[nH]5)C=C4)C=C3)cc1
REMARK SMILES IDX 25 1 24 2 22 3 23 4 21 6 20 7 18 8 17 9 19 11 16 12 11 13
REMARK SMILES IDX 12 14 13 15 15 16 14 17 9 18 8 19 10 21 7 22 1 23 2 24 3 25
REMARK SMILES IDX 4 26 6 27 5 28 26 29 27 30 28 31 29 32 30 33 31 35 32 36
REMARK SMILES IDX 33 37 94 38 34 39 93 40 35 41 36 42 37 43 87 44 38 45 92 46
REMARK SMILES IDX 86 47 88 48 39 49 91 50 85 51 84 52 40 54 72 55 52 56 71 57
REMARK SMILES IDX 53 58 56 59 70 60 89 61 54 62 55 63 69 65 90 66 57 67 41 68
REMARK SMILES IDX 42 69 50 70 43 71 44 72 48 73 51 74 45 75 46 76 49 77 47 78
REMARK SMILES IDX 73 79 74 80 82 81 75 82 76 83 80 84 83 85 77 86 78 87 81 88
REMARK SMILES IDX 79 89 58 90 59 91 67 92 60 93 61 94 65 95 68 96 62 97 63 98
REMARK SMILES IDX 66 99 64 100
REMARK H PARENT 24 5 17 10 8 20 29 34 88 53 56 64
REMARK Flexibility Score: inf
ROOT
ATOM      1  C   UNL A   1      32.897  29.730  25.932  1.00  0.00     0.116 C 
ENDROOT
BRANCH   1   2
ATOM      2  N   UNL A   1      33.550  29.497  24.651  1.00  0.00    -0.356 N 
ATOM      3  C   UNL A   1      33.504  28.449  23.787  1.00  0.00     0.220 C 
ATOM      4  O   UNL A   1      34.069  28.561  22.697  1.00  0.00    -0.275 OA
ATOM      5  H   UNL A   1      34.133  30.234  24.357  1.00  0.00     0.163 HD
BRANCH   3   6
ATOM      6  C   UNL A   1      32.795  27.172  24.157  1.00  0.00     0.110 C 
BRANCH   6   7
ATOM      7  C   UNL A   1      33.750  25.983  24.141  1.00  0.00     0.110 C 
BRANCH   7   8
ATOM      8  C   UNL A   1      33.354  25.006  23.067  1.00  0.00     0.224 C 
ATOM      9  N   UNL A   1      33.776  23.722  22.956  1.00  0.00    -0.325 N 
ATOM     10  H   UNL A   1      33.290  23.259  22.235  1.00  0.00     0.169 HD
ATOM     11  O   UNL A   1      32.487  25.365  22.255  1.00  0.00    -0.275 OA
BRANCH   9  12
ATOM     12  C   UNL A   1      34.704  22.850  23.564  1.00  0.00     0.054 A 
ATOM     13  C   UNL A   1      34.271  21.848  24.480  1.00  0.00     0.063 A 
ATOM     14  C   UNL A   1      35.248  21.104  25.187  1.00  0.00     0.016 A 
ATOM     15  C   UNL A   1      36.610  21.290  24.981  1.00  0.00     0.001 A 
ATOM     16  C   UNL A   1      36.080  22.954  23.321  1.00  0.00     0.027 A 
ATOM     17  C   UNL A   1      37.023  22.201  24.029  1.00  0.00     0.002 A 
BRANCH  13  18
ATOM     18  C   UNL A   1      32.878  21.580  24.983  1.00  0.00     0.257 C 
ATOM     19  N   UNL A   1      32.169  20.402  24.881  1.00  0.00    -0.322 N 
ATOM     20  H   UNL A   1      31.202  20.525  25.011  1.00  0.00     0.170 HD
ATOM     21  O   UNL A   1      32.261  22.544  25.456  1.00  0.00    -0.269 OA
BRANCH  19  22
ATOM     22  C   UNL A   1      32.521  19.065  24.633  1.00  0.00     0.044 A 
ATOM     23  C   UNL A   1      32.153  19.400  22.099  1.00  0.00     0.046 C 
ATOM     24  C   UNL A   1      32.557  18.594  23.300  1.00  0.00    -0.027 A 
ATOM     25  C   UNL A   1      33.124  17.338  23.039  1.00  0.00     0.005 A 
ATOM     26  C   UNL A   1      33.567  16.528  24.077  1.00  0.00     0.000 A 
ATOM     27  C   UNL A   1      32.901  18.214  25.673  1.00  0.00     0.026 A 
ATOM     28  C   UNL A   1      33.426  16.953  25.393  1.00  0.00     0.002 A 
ENDBRANCH  19  22
ENDBRANCH  13  18
ENDBRANCH   9  12
ENDBRANCH   7   8
ENDBRANCH   6   7
ENDBRANCH   3   6
ENDBRANCH   1   2
BRANCH   1  29
ATOM     29  C   UNL A   1      33.829  29.853  27.148  1.00  0.00     0.023 C 
BRANCH  29  30
ATOM     30  C   UNL A   1      34.290  31.268  27.499  1.00  0.00     0.023 C 
BRANCH  30  31
ATOM     31  C   UNL A   1      34.625  31.579  28.952  1.00  0.00     0.116 C 
BRANCH  31  32
ATOM     32  N   UNL A   1      35.982  32.101  29.123  1.00  0.00    -0.352 N 
ATOM     33  C   UNL A   1      37.180  31.437  29.332  1.00  0.00     0.251 C 
ATOM     34  H   UNL A   1      36.056  33.082  29.083  1.00  0.00     0.163 HD
ATOM     35  O   UNL A   1      38.202  32.047  29.630  1.00  0.00    -0.269 OA
BRANCH  33  36
ATOM     36  C   UNL A   1      37.255  30.018  28.939  1.00  0.00     0.039 A 
ATOM     37  C   UNL A   1      37.403  29.166  30.042  1.00  0.00     0.014 A 
ATOM     38  C   UNL A   1      37.782  29.704  27.693  1.00  0.00     0.014 A 
ATOM     39  C   UNL A   1      38.408  28.218  30.005  1.00  0.00     0.010 A 
ATOM     40  C   UNL A   1      38.815  28.788  27.670  1.00  0.00     0.010 A 
ATOM     41  C   UNL A   1      39.208  28.164  28.868  1.00  0.00    -0.014 A 
BRANCH  41  42
ATOM     42  C   UNL A   1      40.595  27.718  28.942  1.00  0.00     0.031 A 
ATOM     43  C   UNL A   1      40.947  26.329  28.611  1.00  0.00     0.074 A 
ATOM     44  C   UNL A   1      41.572  28.602  29.264  1.00  0.00     0.049 A 
ATOM     45  N   UNL A   1      42.070  25.781  28.936  1.00  0.00    -0.248 NA
ATOM     46  C   UNL A   1      40.015  25.400  27.979  1.00  0.00     0.031 C 
ATOM     47  C   UNL A   1      43.009  28.450  29.050  1.00  0.00     0.029 A 
ATOM     48  N   UNL A   1      41.464  29.750  30.068  1.00  0.00    -0.354 N 
ATOM     49  C   UNL A   1      42.142  24.583  28.275  1.00  0.00     0.074 A 
ATOM     50  C   UNL A   1      40.792  24.320  27.849  1.00  0.00     0.031 C 
ATOM     51  C   UNL A   1      43.665  29.265  29.890  1.00  0.00     0.029 A 
ATOM     52  C   UNL A   1      42.680  29.866  30.769  1.00  0.00     0.049 A 
ATOM     53  H   UNL A   1      40.691  30.355  30.128  1.00  0.00     0.167 HD
ATOM     54  C   UNL A   1      43.374  24.064  28.021  1.00  0.00     0.037 A 
ATOM     55  C   UNL A   1      42.717  29.859  32.130  1.00  0.00     0.037 A 
ATOM     56  C   UNL A   1      44.385  24.663  28.905  1.00  0.00     0.049 A 
ATOM     57  C   UNL A   1      43.540  28.737  32.712  1.00  0.00     0.074 A 
ATOM     58  C   UNL A   1      45.469  25.503  28.712  1.00  0.00     0.029 A 
ATOM     59  N   UNL A   1      44.190  24.597  30.286  1.00  0.00    -0.354 N 
ATOM     60  N   UNL A   1      44.004  27.739  32.014  1.00  0.00    -0.248 NA
ATOM     61  C   UNL A   1      43.845  28.613  34.134  1.00  0.00     0.031 C 
ATOM     62  C   UNL A   1      45.864  26.008  29.984  1.00  0.00     0.029 A 
ATOM     63  C   UNL A   1      45.046  25.450  30.952  1.00  0.00     0.049 A 
ATOM     64  H   UNL A   1      43.528  24.016  30.727  1.00  0.00     0.167 HD
ATOM     65  C   UNL A   1      44.555  26.813  32.854  1.00  0.00     0.074 A 
ATOM     66  C   UNL A   1      44.485  27.432  34.165  1.00  0.00     0.031 C 
ATOM     67  C   UNL A   1      44.968  25.592  32.403  1.00  0.00     0.037 A 
BRANCH  54  68
ATOM     68  C   UNL A   1      43.704  23.190  26.819  1.00  0.00     0.064 A 
ATOM     69  C   UNL A   1      43.211  21.868  26.744  1.00  0.00     0.173 A 
ATOM     70  C   UNL A   1      44.609  23.523  25.783  1.00  0.00     0.173 A 
ATOM     71  F   UNL A   1      42.340  21.399  27.649  1.00  0.00    -0.203 F 
ATOM     72  C   UNL A   1      43.614  20.963  25.751  1.00  0.00     0.198 A 
ATOM     73  C   UNL A   1      44.974  22.635  24.767  1.00  0.00     0.198 A 
ATOM     74  F   UNL A   1      45.236  24.699  25.719  1.00  0.00    -0.203 F 
ATOM     75  F   UNL A   1      43.159  19.703  25.776  1.00  0.00    -0.200 F 
ATOM     76  C   UNL A   1      44.491  21.348  24.760  1.00  0.00     0.200 A 
ATOM     77  F   UNL A   1      45.830  23.037  23.816  1.00  0.00    -0.200 F 
ATOM     78  F   UNL A   1      44.883  20.485  23.813  1.00  0.00    -0.200 F 
ENDBRANCH  54  68
BRANCH  55  79
ATOM     79  C   UNL A   1      41.500  30.442  32.754  1.00  0.00     0.064 A 
ATOM     80  C   UNL A   1      41.365  31.843  32.774  1.00  0.00     0.173 A 
ATOM     81  C   UNL A   1      40.350  29.677  32.978  1.00  0.00     0.173 A 
ATOM     82  F   UNL A   1      42.433  32.621  32.538  1.00  0.00    -0.203 F 
ATOM     83  C   UNL A   1      40.119  32.450  32.922  1.00  0.00     0.198 A 
ATOM     84  C   UNL A   1      39.103  30.289  33.133  1.00  0.00     0.198 A 
ATOM     85  F   UNL A   1      40.407  28.338  32.935  1.00  0.00    -0.203 F 
ATOM     86  F   UNL A   1      40.012  33.784  32.838  1.00  0.00    -0.200 F 
ATOM     87  C   UNL A   1      38.987  31.671  33.080  1.00  0.00     0.200 A 
ATOM     88  F   UNL A   1      38.001  29.536  33.245  1.00  0.00    -0.200 F 
ATOM     89  F   UNL A   1      37.778  32.248  33.139  1.00  0.00    -0.200 F 
ENDBRANCH  55  79
BRANCH  67  90
ATOM     90  C   UNL A   1      45.364  24.433  33.283  1.00  0.00     0.064 A 
ATOM     91  C   UNL A   1      44.550  23.314  33.524  1.00  0.00     0.173 A 
ATOM     92  C   UNL A   1      46.674  24.360  33.810  1.00  0.00     0.173 A 
ATOM     93  F   UNL A   1      43.333  23.204  32.973  1.00  0.00    -0.203 F 
ATOM     94  C   UNL A   1      44.986  22.233  34.297  1.00  0.00     0.198 A 
ATOM     95  C   UNL A   1      47.126  23.254  34.531  1.00  0.00     0.198 A 
ATOM     96  F   UNL A   1      47.558  25.351  33.619  1.00  0.00    -0.203 F 
ATOM     97  F   UNL A   1      44.154  21.210  34.537  1.00  0.00    -0.200 F 
ATOM     98  C   UNL A   1      46.276  22.199  34.791  1.00  0.00     0.200 A 
ATOM     99  F   UNL A   1      48.397  23.212  34.958  1.00  0.00    -0.200 F 
ATOM    100  F   UNL A   1      46.705  21.143  35.494  1.00  0.00    -0.200 F 
ENDBRANCH  67  90
ENDBRANCH  41  42
ENDBRANCH  33  36
ENDBRANCH  31  32
ENDBRANCH  30  31
ENDBRANCH  29  30
ENDBRANCH   1  29
TORSDOF 16
ENDMDL
MODEL 2
REMARK VINA RESULT:     -13.3      3.687     10.499
REMARK SMILES Cc1ccccc1NC(=O)c1ccccc1NC(=O)CCC(=O)NCCCCNC(=O)c1ccc(-c2c3nc(c(-c4c(F)c(F)c(F)c(F)c4F)c4ccc([nH]4)c(-c4c(F)c(F)c(F)c(F)c4F)c4nc(c(-c5c(F)c(F)c(F)c(F)c5F)c5ccc2[nH]5)C=C4)C=C3)cc1
REMARK SMILES IDX 25 1 24 2 22 3 23 4 21 6 20 7 18 8 17 9 19 11 16 12 11 13
REMARK SMILES IDX 12 14 13 15 15 16 14 17 9 18 8 19 10 21 7 22 1 23 2 24 3 25
REMARK SMILES IDX 4 26 6 27 5 28 26 29 27 30 28 31 29 32 30 33 31 35 32 36
REMARK SMILES IDX 33 37 94 38 34 39 93 40 35 41 36 42 37 43 87 44 38 45 92 46
REMARK SMILES IDX 86 47 88 48 39 49 91 50 85 51 84 52 40 54 72 55 52 56 71 57
REMARK SMILES IDX 53 58 56 59 70 60 89 61 54 62 55 63 69 65 90 66 57 67 41 68
REMARK SMILES IDX 42 69 50 70 43 71 44 72 48 73 51 74 45 75 46 76 49 77 47 78
REMARK SMILES IDX 73 79 74 80 82 81 75 82 76 83 80 84 83 85 77 86 78 87 81 88
REMARK SMILES IDX 79 89 58 90 59 91 67 92 60 93 61 94 65 95 68 96 62 97 63 98
REMARK SMILES IDX 66 99 64 100
REMARK H PARENT 24 5 17 10 8 20 29 34 88 53 56 64
REMARK Flexibility Score: inf
ROOT
ATOM      1  C   UNL A   1      37.208  22.410  25.559  1.00  0.00     0.116 C 
ENDROOT
BRANCH   1   2
ATOM      2  N   UNL A   1      36.161  21.982  26.476  1.00  0.00    -0.356 N 
ATOM      3  C   UNL A   1      34.805  21.997  26.377  1.00  0.00     0.220 C 
ATOM      4  O   UNL A   1      34.145  21.455  27.267  1.00  0.00    -0.275 OA
ATOM      5  H   UNL A   1      36.497  21.615  27.326  1.00  0.00     0.163 HD
BRANCH   3   6
ATOM      6  C   UNL A   1      34.121  22.676  25.219  1.00  0.00     0.110 C 
BRANCH   6   7
ATOM      7  C   UNL A   1      33.730  24.108  25.567  1.00  0.00     0.110 C 
BRANCH   7   8
ATOM      8  C   UNL A   1      33.896  25.004  24.370  1.00  0.00     0.224 C 
ATOM      9  N   UNL A   1      33.602  26.326  24.312  1.00  0.00    -0.325 N 
ATOM     10  H   UNL A   1      33.903  26.710  23.456  1.00  0.00     0.169 HD
ATOM     11  O   UNL A   1      34.444  24.524  23.365  1.00  0.00    -0.275 OA
BRANCH   9  12
ATOM     12  C   UNL A   1      32.993  27.318  25.110  1.00  0.00     0.054 A 
ATOM     13  C   UNL A   1      32.508  28.525  24.530  1.00  0.00     0.063 A 
ATOM     14  C   UNL A   1      32.052  29.558  25.387  1.00  0.00     0.016 A 
ATOM     15  C   UNL A   1      32.022  29.411  26.769  1.00  0.00     0.001 A 
ATOM     16  C   UNL A   1      32.872  27.173  26.498  1.00  0.00     0.027 A 
ATOM     17  C   UNL A   1      32.412  28.206  27.321  1.00  0.00     0.002 A 
BRANCH  13  18
ATOM     18  C   UNL A   1      32.591  28.973  23.095  1.00  0.00     0.257 C 
ATOM     19  N   UNL A   1      31.543  29.136  22.213  1.00  0.00    -0.322 N 
ATOM     20  H   UNL A   1      31.834  29.154  21.273  1.00  0.00     0.170 HD
ATOM     21  O   UNL A   1      33.725  29.121  22.622  1.00  0.00    -0.269 OA
BRANCH  19  22
ATOM     22  C   UNL A   1      30.155  29.284  22.357  1.00  0.00     0.044 A 
ATOM     23  C   UNL A   1      29.937  26.828  23.126  1.00  0.00     0.046 C 
ATOM     24  C   UNL A   1      29.388  28.196  22.835  1.00  0.00    -0.027 A 
ATOM     25  C   UNL A   1      28.050  28.413  23.193  1.00  0.00     0.005 A 
ATOM     26  C   UNL A   1      27.455  29.654  23.004  1.00  0.00     0.000 A 
ATOM     27  C   UNL A   1      29.528  30.505  22.102  1.00  0.00     0.026 A 
ATOM     28  C   UNL A   1      28.185  30.689  22.430  1.00  0.00     0.002 A 
ENDBRANCH  19  22
ENDBRANCH  13  18
ENDBRANCH   9  12
ENDBRANCH   7   8
ENDBRANCH   6   7
ENDBRANCH   3   6
ENDBRANCH   1   2
BRANCH   1  29
ATOM     29  C   UNL A   1      38.422  21.475  25.442  1.00  0.00     0.023 C 
BRANCH  29  30
ATOM     30  C   UNL A   1      39.573  21.749  26.411  1.00  0.00     0.023 C 
BRANCH  30  31
ATOM     31  C   UNL A   1      40.696  22.673  25.956  1.00  0.00     0.116 C 
BRANCH  31  32
ATOM     32  N   UNL A   1      41.503  23.174  27.070  1.00  0.00    -0.352 N 
ATOM     33  C   UNL A   1      41.581  24.441  27.625  1.00  0.00     0.251 C 
ATOM     34  H   UNL A   1      42.086  22.502  27.493  1.00  0.00     0.163 HD
ATOM     35  O   UNL A   1      42.447  24.724  28.445  1.00  0.00    -0.269 OA
BRANCH  33  36
ATOM     36  C   UNL A   1      40.449  25.358  27.399  1.00  0.00     0.039 A 
ATOM     37  C   UNL A   1      40.804  26.460  26.609  1.00  0.00     0.014 A 
ATOM     38  C   UNL A   1      39.462  25.441  28.373  1.00  0.00     0.014 A 
ATOM     39  C   UNL A   1      40.470  27.722  27.060  1.00  0.00     0.010 A 
ATOM     40  C   UNL A   1      39.164  26.703  28.850  1.00  0.00     0.010 A 
ATOM     41  C   UNL A   1      39.793  27.822  28.272  1.00  0.00    -0.014 A 
BRANCH  41  42
ATOM     42  C   UNL A   1      39.946  28.992  29.129  1.00  0.00     0.031 A 
ATOM     43  C   UNL A   1      38.980  30.099  29.054  1.00  0.00     0.074 A 
ATOM     44  C   UNL A   1      40.952  29.037  30.038  1.00  0.00     0.049 A 
ATOM     45  N   UNL A   1      39.204  31.274  29.538  1.00  0.00    -0.248 NA
ATOM     46  C   UNL A   1      37.718  30.006  28.326  1.00  0.00     0.031 C 
ATOM     47  C   UNL A   1      41.063  29.924  31.193  1.00  0.00     0.029 A 
ATOM     48  N   UNL A   1      42.210  28.414  29.961  1.00  0.00    -0.354 N 
ATOM     49  C   UNL A   1      38.019  31.962  29.493  1.00  0.00     0.074 A 
ATOM     50  C   UNL A   1      37.195  31.208  28.586  1.00  0.00     0.031 C 
ATOM     51  C   UNL A   1      42.352  30.007  31.558  1.00  0.00     0.029 A 
ATOM     52  C   UNL A   1      43.131  29.290  30.568  1.00  0.00     0.049 A 
ATOM     53  H   UNL A   1      42.408  27.536  29.563  1.00  0.00     0.167 HD
ATOM     54  C   UNL A   1      37.836  32.981  30.376  1.00  0.00     0.037 A 
ATOM     55  C   UNL A   1      44.196  29.786  29.879  1.00  0.00     0.037 A 
ATOM     56  C   UNL A   1      39.125  33.447  30.910  1.00  0.00     0.049 A 
ATOM     57  C   UNL A   1      44.213  31.291  29.785  1.00  0.00     0.074 A 
ATOM     58  C   UNL A   1      39.732  33.410  32.154  1.00  0.00     0.029 A 
ATOM     59  N   UNL A   1      40.112  33.857  30.012  1.00  0.00    -0.354 N 
ATOM     60  N   UNL A   1      43.214  32.052  30.135  1.00  0.00    -0.248 NA
ATOM     61  C   UNL A   1      45.326  32.053  29.227  1.00  0.00     0.031 C 
ATOM     62  C   UNL A   1      41.112  33.714  31.978  1.00  0.00     0.029 A 
ATOM     63  C   UNL A   1      41.337  33.970  30.636  1.00  0.00     0.049 A 
ATOM     64  H   UNL A   1      39.954  34.041  29.057  1.00  0.00     0.167 HD
ATOM     65  C   UNL A   1      43.476  33.343  29.771  1.00  0.00     0.074 A 
ATOM     66  C   UNL A   1      44.834  33.303  29.260  1.00  0.00     0.031 C 
ATOM     67  C   UNL A   1      42.529  34.321  29.868  1.00  0.00     0.037 A 
BRANCH  54  68
ATOM     68  C   UNL A   1      36.482  33.399  30.934  1.00  0.00     0.064 A 
ATOM     69  C   UNL A   1      35.590  34.154  30.141  1.00  0.00     0.173 A 
ATOM     70  C   UNL A   1      36.054  33.225  32.271  1.00  0.00     0.173 A 
ATOM     71  F   UNL A   1      35.848  34.404  28.850  1.00  0.00    -0.203 F 
ATOM     72  C   UNL A   1      34.405  34.708  30.650  1.00  0.00     0.198 A 
ATOM     73  C   UNL A   1      34.851  33.739  32.766  1.00  0.00     0.198 A 
ATOM     74  F   UNL A   1      36.791  32.602  33.193  1.00  0.00    -0.203 F 
ATOM     75  F   UNL A   1      33.636  35.471  29.862  1.00  0.00    -0.200 F 
ATOM     76  C   UNL A   1      34.034  34.496  31.961  1.00  0.00     0.200 A 
ATOM     77  F   UNL A   1      34.516  33.516  34.045  1.00  0.00    -0.200 F 
ATOM     78  F   UNL A   1      32.908  35.029  32.453  1.00  0.00    -0.200 F 
ENDBRANCH  54  68
BRANCH  55  79
ATOM     79  C   UNL A   1      44.707  28.857  28.838  1.00  0.00     0.064 A 
ATOM     80  C   UNL A   1      45.518  27.780  29.243  1.00  0.00     0.173 A 
ATOM     81  C   UNL A   1      44.132  28.791  27.564  1.00  0.00     0.173 A 
ATOM     82  F   UNL A   1      46.072  27.783  30.466  1.00  0.00    -0.203 F 
ATOM     83  C   UNL A   1      45.673  26.647  28.446  1.00  0.00     0.198 A 
ATOM     84  C   UNL A   1      44.295  27.657  26.764  1.00  0.00     0.198 A 
ATOM     85  F   UNL A   1      43.321  29.768  27.135  1.00  0.00    -0.203 F 
ATOM     86  F   UNL A   1      46.372  25.599  28.904  1.00  0.00    -0.200 F 
ATOM     87  C   UNL A   1      45.044  26.579  27.216  1.00  0.00     0.200 A 
ATOM     88  F   UNL A   1      43.654  27.572  25.590  1.00  0.00    -0.200 F 
ATOM     89  F   UNL A   1      45.122  25.459  26.483  1.00  0.00    -0.200 F 
ENDBRANCH  55  79
BRANCH  67  90
ATOM     90  C   UNL A   1      42.649  35.704  29.278  1.00  0.00     0.064 A 
ATOM     91  C   UNL A   1      41.980  36.125  28.116  1.00  0.00     0.173 A 
ATOM     92  C   UNL A   1      43.358  36.712  29.972  1.00  0.00     0.173 A 
ATOM     93  F   UNL A   1      41.171  35.297  27.438  1.00  0.00    -0.203 F 
ATOM     94  C   UNL A   1      42.072  37.437  27.641  1.00  0.00     0.198 A 
ATOM     95  C   UNL A   1      43.400  38.033  29.528  1.00  0.00     0.198 A 
ATOM     96  F   UNL A   1      44.010  36.443  31.113  1.00  0.00    -0.203 F 
ATOM     97  F   UNL A   1      41.453  37.776  26.502  1.00  0.00    -0.200 F 
ATOM     98  C   UNL A   1      42.772  38.392  28.353  1.00  0.00     0.200 A 
ATOM     99  F   UNL A   1      44.038  38.961  30.257  1.00  0.00    -0.200 F 
ATOM    100  F   UNL A   1      42.823  39.658  27.919  1.00  0.00    -0.200 F 
ENDBRANCH  67  90
ENDBRANCH  41  42
ENDBRANCH  33  36
ENDBRANCH  31  32
ENDBRANCH  30  31
ENDBRANCH  29  30
ENDBRANCH   1  29
TORSDOF 16
ENDMDL
MODEL 3
REMARK VINA RESULT:     -13.1      3.877     10.463
REMARK SMILES Cc1ccccc1NC(=O)c1ccccc1NC(=O)CCC(=O)NCCCCNC(=O)c1ccc(-c2c3nc(c(-c4c(F)c(F)c(F)c(F)c4F)c4ccc([nH]4)c(-c4c(F)c(F)c(F)c(F)c4F)c4nc(c(-c5c(F)c(F)c(F)c(F)c5F)c5ccc2[nH]5)C=C4)C=C3)cc1
REMARK SMILES IDX 25 1 24 2 22 3 23 4 21 6 20 7 18 8 17 9 19 11 16 12 11 13
REMARK SMILES IDX 12 14 13 15 15 16 14 17 9 18 8 19 10 21 7 22 1 23 2 24 3 25
REMARK SMILES IDX 4 26 6 27 5 28 26 29 27 30 28 31 29 32 30 33 31 35 32 36
REMARK SMILES IDX 33 37 94 38 34 39 93 40 35 41 36 42 37 43 87 44 38 45 92 46
REMARK SMILES IDX 86 47 88 48 39 49 91 50 85 51 84 52 40 54 72 55 52 56 71 57
REMARK SMILES IDX 53 58 56 59 70 60 89 61 54 62 55 63 69 65 90 66 57 67 41 68
REMARK SMILES IDX 42 69 50 70 43 71 44 72 48 73 51 74 45 75 46 76 49 77 47 78
REMARK SMILES IDX 73 79 74 80 82 81 75 82 76 83 80 84 83 85 77 86 78 87 81 88
REMARK SMILES IDX 79 89 58 90 59 91 67 92 60 93 61 94 65 95 68 96 62 97 63 98
REMARK SMILES IDX 66 99 64 100
REMARK H PARENT 24 5 17 10 8 20 29 34 88 53 56 64
REMARK Flexibility Score: inf
ROOT
ATOM      1  C   UNL A   1      38.325  21.463  25.375  1.00  0.00     0.116 C 
ENDROOT
BRANCH   1   2
ATOM      2  N   UNL A   1      37.095  20.720  25.142  1.00  0.00    -0.356 N 
ATOM      3  C   UNL A   1      35.787  21.077  25.235  1.00  0.00     0.220 C 
ATOM      4  O   UNL A   1      34.930  20.274  24.860  1.00  0.00    -0.275 OA
ATOM      5  H   UNL A   1      37.237  19.785  24.868  1.00  0.00     0.163 HD
BRANCH   3   6
ATOM      6  C   UNL A   1      35.389  22.417  25.800  1.00  0.00     0.110 C 
BRANCH   6   7
ATOM      7  C   UNL A   1      35.859  23.558  24.905  1.00  0.00     0.110 C 
BRANCH   7   8
ATOM      8  C   UNL A   1      35.556  23.254  23.463  1.00  0.00     0.224 C 
ATOM      9  N   UNL A   1      34.351  23.379  22.853  1.00  0.00    -0.325 N 
ATOM     10  H   UNL A   1      34.437  23.226  21.884  1.00  0.00     0.169 HD
ATOM     11  O   UNL A   1      36.509  22.953  22.727  1.00  0.00    -0.275 OA
BRANCH   9  12
ATOM     12  C   UNL A   1      33.011  23.662  23.191  1.00  0.00     0.054 A 
ATOM     13  C   UNL A   1      32.343  24.793  22.640  1.00  0.00     0.063 A 
ATOM     14  C   UNL A   1      31.056  25.129  23.129  1.00  0.00     0.016 A 
ATOM     15  C   UNL A   1      30.410  24.366  24.094  1.00  0.00     0.001 A 
ATOM     16  C   UNL A   1      32.299  22.870  24.102  1.00  0.00     0.027 A 
ATOM     17  C   UNL A   1      31.027  23.222  24.563  1.00  0.00     0.002 A 
BRANCH  13  18
ATOM     18  C   UNL A   1      32.895  25.848  21.718  1.00  0.00     0.257 C 
ATOM     19  N   UNL A   1      32.925  27.209  21.936  1.00  0.00    -0.322 N 
ATOM     20  H   UNL A   1      33.059  27.726  21.110  1.00  0.00     0.170 HD
ATOM     21  O   UNL A   1      33.278  25.469  20.604  1.00  0.00    -0.269 OA
BRANCH  19  22
ATOM     22  C   UNL A   1      32.808  28.022  23.075  1.00  0.00     0.044 A 
ATOM     23  C   UNL A   1      30.421  28.719  22.376  1.00  0.00     0.046 C 
ATOM     24  C   UNL A   1      31.596  28.711  23.312  1.00  0.00    -0.027 A 
ATOM     25  C   UNL A   1      31.401  29.334  24.553  1.00  0.00     0.005 A 
ATOM     26  C   UNL A   1      32.410  29.350  25.508  1.00  0.00     0.000 A 
ATOM     27  C   UNL A   1      33.841  28.107  24.010  1.00  0.00     0.026 A 
ATOM     28  C   UNL A   1      33.638  28.764  25.224  1.00  0.00     0.002 A 
ENDBRANCH  19  22
ENDBRANCH  13  18
ENDBRANCH   9  12
ENDBRANCH   7   8
ENDBRANCH   6   7
ENDBRANCH   3   6
ENDBRANCH   1   2
BRANCH   1  29
ATOM     29  C   UNL A   1      39.557  20.625  25.751  1.00  0.00     0.023 C 
BRANCH  29  30
ATOM     30  C   UNL A   1      40.426  21.180  26.879  1.00  0.00     0.023 C 
BRANCH  30  31
ATOM     31  C   UNL A   1      40.118  22.574  27.411  1.00  0.00     0.116 C 
BRANCH  31  32
ATOM     32  N   UNL A   1      41.325  23.338  27.734  1.00  0.00    -0.352 N 
ATOM     33  C   UNL A   1      41.633  24.669  27.506  1.00  0.00     0.251 C 
ATOM     34  H   UNL A   1      42.031  22.822  28.185  1.00  0.00     0.163 HD
ATOM     35  O   UNL A   1      42.767  25.100  27.686  1.00  0.00    -0.269 OA
BRANCH  33  36
ATOM     36  C   UNL A   1      40.514  25.604  27.290  1.00  0.00     0.039 A 
ATOM     37  C   UNL A   1      40.875  26.693  26.485  1.00  0.00     0.014 A 
ATOM     38  C   UNL A   1      39.542  25.712  28.277  1.00  0.00     0.014 A 
ATOM     39  C   UNL A   1      40.570  27.965  26.931  1.00  0.00     0.010 A 
ATOM     40  C   UNL A   1      39.274  26.982  28.748  1.00  0.00     0.010 A 
ATOM     41  C   UNL A   1      39.913  28.085  28.152  1.00  0.00    -0.014 A 
BRANCH  41  42
ATOM     42  C   UNL A   1      40.099  29.260  28.997  1.00  0.00     0.031 A 
ATOM     43  C   UNL A   1      39.096  30.335  29.005  1.00  0.00     0.074 A 
ATOM     44  C   UNL A   1      41.175  29.337  29.819  1.00  0.00     0.049 A 
ATOM     45  N   UNL A   1      39.321  31.516  29.473  1.00  0.00    -0.248 NA
ATOM     46  C   UNL A   1      37.781  30.202  28.384  1.00  0.00     0.031 C 
ATOM     47  C   UNL A   1      41.353  30.226  30.964  1.00  0.00     0.029 A 
ATOM     48  N   UNL A   1      42.442  28.754  29.636  1.00  0.00    -0.354 N 
ATOM     49  C   UNL A   1      38.115  32.166  29.528  1.00  0.00     0.074 A 
ATOM     50  C   UNL A   1      37.243  31.387  28.690  1.00  0.00     0.031 C 
ATOM     51  C   UNL A   1      42.664  30.350  31.221  1.00  0.00     0.029 A 
ATOM     52  C   UNL A   1      43.382  29.659  30.167  1.00  0.00     0.049 A 
ATOM     53  H   UNL A   1      42.634  27.883  29.221  1.00  0.00     0.167 HD
ATOM     54  C   UNL A   1      37.974  33.179  30.427  1.00  0.00     0.037 A 
ATOM     55  C   UNL A   1      44.369  30.189  29.394  1.00  0.00     0.037 A 
ATOM     56  C   UNL A   1      39.287  33.686  30.853  1.00  0.00     0.049 A 
ATOM     57  C   UNL A   1      44.331  31.695  29.304  1.00  0.00     0.074 A 
ATOM     58  C   UNL A   1      39.995  33.667  32.042  1.00  0.00     0.029 A 
ATOM     59  N   UNL A   1      40.182  34.127  29.877  1.00  0.00    -0.354 N 
ATOM     60  N   UNL A   1      43.340  32.423  29.738  1.00  0.00    -0.248 NA
ATOM     61  C   UNL A   1      45.368  32.492  28.658  1.00  0.00     0.031 C 
ATOM     62  C   UNL A   1      41.346  34.016  31.753  1.00  0.00     0.029 A 
ATOM     63  C   UNL A   1      41.451  34.280  30.398  1.00  0.00     0.049 A 
ATOM     64  H   UNL A   1      39.940  34.307  28.940  1.00  0.00     0.167 HD
ATOM     65  C   UNL A   1      43.530  33.722  29.357  1.00  0.00     0.074 A 
ATOM     66  C   UNL A   1      44.842  33.726  28.735  1.00  0.00     0.031 C 
ATOM     67  C   UNL A   1      42.563  34.669  29.535  1.00  0.00     0.037 A 
BRANCH  54  68
ATOM     68  C   UNL A   1      36.658  33.552  31.096  1.00  0.00     0.064 A 
ATOM     69  C   UNL A   1      35.642  34.198  30.355  1.00  0.00     0.173 A 
ATOM     70  C   UNL A   1      36.379  33.446  32.479  1.00  0.00     0.173 A 
ATOM     71  F   UNL A   1      35.752  34.374  29.031  1.00  0.00    -0.203 F 
ATOM     72  C   UNL A   1      34.481  34.714  30.950  1.00  0.00     0.198 A 
ATOM     73  C   UNL A   1      35.200  33.920  33.064  1.00  0.00     0.198 A 
ATOM     74  F   UNL A   1      37.244  32.932  33.355  1.00  0.00    -0.203 F 
ATOM     75  F   UNL A   1      33.588  35.375  30.201  1.00  0.00    -0.200 F 
ATOM     76  C   UNL A   1      34.259  34.571  32.303  1.00  0.00     0.200 A 
ATOM     77  F   UNL A   1      35.011  33.766  34.382  1.00  0.00    -0.200 F 
ATOM     78  F   UNL A   1      33.155  35.068  32.876  1.00  0.00    -0.200 F 
ENDBRANCH  54  68
BRANCH  55  79
ATOM     79  C   UNL A   1      44.822  29.278  28.312  1.00  0.00     0.064 A 
ATOM     80  C   UNL A   1      45.735  28.257  28.635  1.00  0.00     0.173 A 
ATOM     81  C   UNL A   1      44.119  29.160  27.107  1.00  0.00     0.173 A 
ATOM     82  F   UNL A   1      46.415  28.310  29.792  1.00  0.00    -0.203 F 
ATOM     83  C   UNL A   1      45.873  27.124  27.835  1.00  0.00     0.198 A 
ATOM     84  C   UNL A   1      44.264  28.026  26.303  1.00  0.00     0.198 A 
ATOM     85  F   UNL A   1      43.209  30.081  26.760  1.00  0.00    -0.203 F 
ATOM     86  F   UNL A   1      46.679  26.126  28.223  1.00  0.00    -0.200 F 
ATOM     87  C   UNL A   1      45.120  27.000  26.680  1.00  0.00     0.200 A 
ATOM     88  F   UNL A   1      43.507  27.886  25.206  1.00  0.00    -0.200 F 
ATOM     89  F   UNL A   1      45.188  25.877  25.952  1.00  0.00    -0.200 F 
ENDBRANCH  55  79
BRANCH  67  90
ATOM     90  C   UNL A   1      42.590  36.055  28.941  1.00  0.00     0.064 A 
ATOM     91  C   UNL A   1      41.900  36.424  27.774  1.00  0.00     0.173 A 
ATOM     92  C   UNL A   1      43.222  37.112  29.636  1.00  0.00     0.173 A 
ATOM     93  F   UNL A   1      41.156  35.541  27.094  1.00  0.00    -0.203 F 
ATOM     94  C   UNL A   1      41.903  37.739  27.296  1.00  0.00     0.198 A 
ATOM     95  C   UNL A   1      43.174  38.432  29.188  1.00  0.00     0.198 A 
ATOM     96  F   UNL A   1      43.883  36.893  30.782  1.00  0.00    -0.203 F 
ATOM     97  F   UNL A   1      41.269  38.030  26.152  1.00  0.00    -0.200 F 
ATOM     98  C   UNL A   1      42.530  38.743  28.009  1.00  0.00     0.200 A 
ATOM     99  F   UNL A   1      43.740  39.404  29.918  1.00  0.00    -0.200 F 
ATOM    100  F   UNL A   1      42.494  40.008  27.571  1.00  0.00    -0.200 F 
ENDBRANCH  67  90
ENDBRANCH  41  42
ENDBRANCH  33  36
ENDBRANCH  31  32
ENDBRANCH  30  31
ENDBRANCH  29  30
ENDBRANCH   1  29
TORSDOF 16
ENDMDL
