MODEL 1
REMARK VINA RESULT:      -9.6      0.000      0.000
REMARK SMILES COc1ccc([C@@H]2[C@H](C(=O)c3ccc4c(c3)CCCC4)[C@H](C(=O)NCCCCNC(=O)c3ccc(-c4c5nc(c(-c6c(F)c(F)c(F)c(F)c6F)c6ccc([nH]6)c(-c6c(F)c(F)c(F)c(F)c6F)c6nc(c(-c7c(F)c(F)c(F)c(F)c7F)c7ccc4[nH]7)C=C6)C=C5)cc3)SC3=NC(=O)S[C@H]32)cc1
REMARK SMILES IDX 26 1 25 2 24 3 22 4 23 5 21 7 7 8 8 9 101 10 96 11 100 12
REMARK SMILES IDX 95 13 97 14 98 15 99 16 6 17 3 18 4 19 103 20 5 21 102 22
REMARK SMILES IDX 2 23 1 24 9 25 10 26 11 27 12 28 16 29 13 30 15 31 14 32
REMARK SMILES IDX 17 33 20 34 18 35 19 36 27 37 28 38 29 39 30 40 31 42 32 43
REMARK SMILES IDX 33 44 94 45 34 46 93 47 35 48 36 49 37 50 87 51 38 52 92 53
REMARK SMILES IDX 86 54 88 55 39 56 91 57 85 58 84 59 40 61 72 62 52 63 71 64
REMARK SMILES IDX 53 65 56 66 70 67 89 68 54 69 55 70 69 72 90 73 57 74 41 75
REMARK SMILES IDX 42 76 50 77 43 78 44 79 48 80 51 81 45 82 46 83 49 84 47 85
REMARK SMILES IDX 73 86 74 87 82 88 75 89 76 90 80 91 83 92 77 93 78 94 81 95
REMARK SMILES IDX 79 96 58 97 59 98 67 99 60 100 61 101 65 102 68 103 62 104
REMARK SMILES IDX 63 105 66 106 64 107
REMARK H PARENT 24 6 29 41 88 60 56 71
REMARK Flexibility Score: inf
ROOT
ATOM      1  C   UNL A   1      35.498  32.776  32.936  1.00  0.00     0.023 C 
ENDROOT
BRANCH   1   2
ATOM      2  C   UNL A   1      36.842  32.059  32.755  1.00  0.00     0.116 C 
BRANCH   2   3
ATOM      3  N   UNL A   1      36.803  30.613  32.951  1.00  0.00    -0.355 N 
ATOM      4  C   UNL A   1      37.762  29.693  33.256  1.00  0.00     0.234 C 
ATOM      5  O   UNL A   1      37.365  28.558  33.550  1.00  0.00    -0.274 OA
ATOM      6  H   UNL A   1      35.905  30.225  32.842  1.00  0.00     0.163 HD
BRANCH   4   7
ATOM      7  C   UNL A   1      39.275  29.969  33.205  1.00  0.00     0.153 C 
ATOM      8  C   UNL A   1      41.434  30.831  34.473  1.00  0.00     0.052 C 
ATOM      9  C   UNL A   1      39.864  30.987  34.232  1.00  0.00     0.093 C 
ATOM     10  C   UNL A   1      41.899  29.358  34.628  1.00  0.00     0.121 C 
ATOM     11  C   UNL A   1      41.649  28.550  33.394  1.00  0.00     0.093 C 
ATOM     12  S   UNL A   1      43.720  29.165  34.811  1.00  0.00    -0.052 SA
ATOM     13  S   UNL A   1      40.039  28.352  32.833  1.00  0.00    -0.095 SA
ATOM     14  N   UNL A   1      42.596  27.908  32.798  1.00  0.00    -0.200 NA
ATOM     15  C   UNL A   1      43.792  28.078  33.433  1.00  0.00     0.306 C 
ATOM     16  O   UNL A   1      44.836  27.534  33.112  1.00  0.00    -0.259 OA
BRANCH   8  17
ATOM     17  C   UNL A   1      41.976  31.696  35.633  1.00  0.00    -0.042 A 
ATOM     18  C   UNL A   1      43.087  33.227  37.751  1.00  0.00     0.118 A 
ATOM     19  C   UNL A   1      42.745  33.821  36.531  1.00  0.00     0.047 A 
ATOM     20  C   UNL A   1      42.860  31.872  37.920  1.00  0.00     0.047 A 
ATOM     21  C   UNL A   1      42.188  33.070  35.481  1.00  0.00     0.008 A 
ATOM     22  C   UNL A   1      42.344  31.121  36.866  1.00  0.00     0.008 A 
BRANCH  18  23
ATOM     23  O   UNL A   1      43.633  34.050  38.697  1.00  0.00    -0.497 OA
ATOM     24  C   UNL A   1      44.649  33.468  39.515  1.00  0.00     0.278 C 
ENDBRANCH  18  23
ENDBRANCH   8  17
BRANCH   9  25
ATOM     25  C   UNL A   1      39.137  30.995  35.559  1.00  0.00     0.168 C 
ATOM     26  O   UNL A   1      38.828  29.905  36.045  1.00  0.00    -0.294 OA
BRANCH  25  27
ATOM     27  C   UNL A   1      38.713  32.232  36.314  1.00  0.00     0.018 A 
ATOM     28  C   UNL A   1      38.695  33.430  35.580  1.00  0.00     0.012 A 
ATOM     29  C   UNL A   1      38.712  32.308  37.710  1.00  0.00     0.015 A 
ATOM     30  C   UNL A   1      38.810  34.668  36.221  1.00  0.00     0.005 A 
ATOM     31  C   UNL A   1      38.975  33.533  38.347  1.00  0.00    -0.044 A 
ATOM     32  C   UNL A   1      39.023  34.717  37.598  1.00  0.00    -0.045 A 
ATOM     33  C   UNL A   1      39.290  33.617  39.824  1.00  0.00     0.036 C 
ATOM     34  C   UNL A   1      39.364  35.999  38.314  1.00  0.00     0.036 C 
ATOM     35  C   UNL A   1      40.484  34.546  40.112  1.00  0.00     0.005 C 
ATOM     36  C   UNL A   1      40.589  35.781  39.203  1.00  0.00     0.005 C 
ENDBRANCH  25  27
ENDBRANCH   9  25
ENDBRANCH   4   7
ENDBRANCH   2   3
ENDBRANCH   1   2
BRANCH   1  37
ATOM     37  C   UNL A   1      34.528  32.675  31.779  1.00  0.00     0.023 C 
BRANCH  37  38
ATOM     38  C   UNL A   1      35.235  32.759  30.449  1.00  0.00     0.116 C 
BRANCH  38  39
ATOM     39  N   UNL A   1      34.616  31.869  29.473  1.00  0.00    -0.352 N 
ATOM     40  C   UNL A   1      35.179  30.939  28.635  1.00  0.00     0.251 C 
ATOM     41  H   UNL A   1      33.637  31.950  29.402  1.00  0.00     0.163 HD
ATOM     42  O   UNL A   1      34.534  30.498  27.688  1.00  0.00    -0.269 OA
BRANCH  40  43
ATOM     43  C   UNL A   1      36.564  30.475  28.862  1.00  0.00     0.039 A 
ATOM     44  C   UNL A   1      36.794  29.344  29.648  1.00  0.00     0.014 A 
ATOM     45  C   UNL A   1      37.642  31.171  28.320  1.00  0.00     0.014 A 
ATOM     46  C   UNL A   1      38.102  28.889  29.838  1.00  0.00     0.010 A 
ATOM     47  C   UNL A   1      38.917  30.634  28.376  1.00  0.00     0.010 A 
ATOM     48  C   UNL A   1      39.170  29.512  29.173  1.00  0.00    -0.014 A 
BRANCH  48  49
ATOM     49  C   UNL A   1      40.576  29.069  29.342  1.00  0.00     0.031 A 
ATOM     50  C   UNL A   1      41.576  30.004  29.973  1.00  0.00     0.074 A 
ATOM     51  C   UNL A   1      40.970  27.878  28.853  1.00  0.00     0.049 A 
ATOM     52  N   UNL A   1      42.873  29.878  30.089  1.00  0.00    -0.248 NA
ATOM     53  C   UNL A   1      41.054  31.279  30.498  1.00  0.00     0.031 C 
ATOM     54  C   UNL A   1      40.107  26.915  28.166  1.00  0.00     0.029 A 
ATOM     55  N   UNL A   1      42.204  27.281  28.848  1.00  0.00    -0.354 N 
ATOM     56  C   UNL A   1      43.316  31.066  30.658  1.00  0.00     0.074 A 
ATOM     57  C   UNL A   1      42.167  31.927  30.799  1.00  0.00     0.031 C 
ATOM     58  C   UNL A   1      40.832  25.833  27.837  1.00  0.00     0.029 A 
ATOM     59  C   UNL A   1      42.216  26.047  28.247  1.00  0.00     0.049 A 
ATOM     60  H   UNL A   1      43.006  27.697  29.239  1.00  0.00     0.167 HD
ATOM     61  C   UNL A   1      44.566  31.394  31.061  1.00  0.00     0.037 A 
ATOM     62  C   UNL A   1      43.233  25.189  28.046  1.00  0.00     0.037 A 
ATOM     63  C   UNL A   1      45.691  30.504  30.980  1.00  0.00     0.049 A 
ATOM     64  C   UNL A   1      44.608  25.562  28.533  1.00  0.00     0.074 A 
ATOM     65  C   UNL A   1      46.979  30.695  31.444  1.00  0.00     0.029 A 
ATOM     66  N   UNL A   1      45.654  29.243  30.402  1.00  0.00    -0.354 N 
ATOM     67  N   UNL A   1      45.002  26.658  29.135  1.00  0.00    -0.248 NA
ATOM     68  C   UNL A   1      45.677  24.579  28.315  1.00  0.00     0.031 C 
ATOM     69  C   UNL A   1      47.734  29.567  31.109  1.00  0.00     0.029 A 
ATOM     70  C   UNL A   1      46.904  28.654  30.477  1.00  0.00     0.049 A 
ATOM     71  H   UNL A   1      44.857  28.830  29.997  1.00  0.00     0.167 HD
ATOM     72  C   UNL A   1      46.356  26.489  29.389  1.00  0.00     0.074 A 
ATOM     73  C   UNL A   1      46.712  25.176  28.890  1.00  0.00     0.031 C 
ATOM     74  C   UNL A   1      47.230  27.342  29.978  1.00  0.00     0.037 A 
BRANCH  61  75
ATOM     75  C   UNL A   1      44.776  32.765  31.638  1.00  0.00     0.064 A 
ATOM     76  C   UNL A   1      44.801  33.913  30.830  1.00  0.00     0.173 A 
ATOM     77  C   UNL A   1      44.931  32.937  33.023  1.00  0.00     0.173 A 
ATOM     78  F   UNL A   1      44.671  33.804  29.499  1.00  0.00    -0.203 F 
ATOM     79  C   UNL A   1      45.007  35.175  31.380  1.00  0.00     0.198 A 
ATOM     80  C   UNL A   1      45.104  34.204  33.574  1.00  0.00     0.198 A 
ATOM     81  F   UNL A   1      44.913  31.876  33.842  1.00  0.00    -0.203 F 
ATOM     82  F   UNL A   1      45.085  36.248  30.582  1.00  0.00    -0.200 F 
ATOM     83  C   UNL A   1      45.151  35.320  32.752  1.00  0.00     0.200 A 
ATOM     84  F   UNL A   1      45.230  34.345  34.900  1.00  0.00    -0.200 F 
ATOM     85  F   UNL A   1      45.343  36.537  33.280  1.00  0.00    -0.200 F 
ENDBRANCH  61  75
BRANCH  62  86
ATOM     86  C   UNL A   1      42.983  23.885  27.378  1.00  0.00     0.064 A 
ATOM     87  C   UNL A   1      43.234  23.719  26.009  1.00  0.00     0.173 A 
ATOM     88  C   UNL A   1      42.502  22.778  28.092  1.00  0.00     0.173 A 
ATOM     89  F   UNL A   1      43.681  24.752  25.281  1.00  0.00    -0.203 F 
ATOM     90  C   UNL A   1      42.993  22.502  25.376  1.00  0.00     0.198 A 
ATOM     91  C   UNL A   1      42.288  21.553  27.463  1.00  0.00     0.198 A 
ATOM     92  F   UNL A   1      42.256  22.881  29.407  1.00  0.00    -0.203 F 
ATOM     93  F   UNL A   1      43.203  22.383  24.057  1.00  0.00    -0.200 F 
ATOM     94  C   UNL A   1      42.527  21.418  26.103  1.00  0.00     0.200 A 
ATOM     95  F   UNL A   1      41.855  20.504  28.174  1.00  0.00    -0.200 F 
ATOM     96  F   UNL A   1      42.302  20.246  25.495  1.00  0.00    -0.200 F 
ENDBRANCH  62  86
BRANCH  74  97
ATOM     97  C   UNL A   1      48.645  26.876  30.136  1.00  0.00     0.064 A 
ATOM     98  C   UNL A   1      49.635  27.210  29.200  1.00  0.00     0.173 A 
ATOM     99  C   UNL A   1      49.027  26.135  31.263  1.00  0.00     0.173 A 
ATOM    100  F   UNL A   1      49.315  27.906  28.098  1.00  0.00    -0.203 F 
ATOM    101  C   UNL A   1      50.954  26.802  29.379  1.00  0.00     0.198 A 
ATOM    102  C   UNL A   1      50.352  25.754  31.454  1.00  0.00     0.198 A 
ATOM    103  F   UNL A   1      48.118  25.797  32.190  1.00  0.00    -0.203 F 
ATOM    104  F   UNL A   1      51.875  27.097  28.452  1.00  0.00    -0.200 F 
ATOM    105  C   UNL A   1      51.312  26.082  30.509  1.00  0.00     0.200 A 
ATOM    106  F   UNL A   1      50.700  25.072  32.554  1.00  0.00    -0.200 F 
ATOM    107  F   UNL A   1      52.584  25.701  30.685  1.00  0.00    -0.200 F 
ENDBRANCH  74  97
ENDBRANCH  48  49
ENDBRANCH  40  43
ENDBRANCH  38  39
ENDBRANCH  37  38
ENDBRANCH   1  37
TORSDOF 15
ENDMDL
MODEL 2
REMARK VINA RESULT:      -9.5      5.650     10.850
REMARK SMILES COc1ccc([C@@H]2[C@H](C(=O)c3ccc4c(c3)CCCC4)[C@H](C(=O)NCCCCNC(=O)c3ccc(-c4c5nc(c(-c6c(F)c(F)c(F)c(F)c6F)c6ccc([nH]6)c(-c6c(F)c(F)c(F)c(F)c6F)c6nc(c(-c7c(F)c(F)c(F)c(F)c7F)c7ccc4[nH]7)C=C6)C=C5)cc3)SC3=NC(=O)S[C@H]32)cc1
REMARK SMILES IDX 26 1 25 2 24 3 22 4 23 5 21 7 7 8 8 9 101 10 96 11 100 12
REMARK SMILES IDX 95 13 97 14 98 15 99 16 6 17 3 18 4 19 103 20 5 21 102 22
REMARK SMILES IDX 2 23 1 24 9 25 10 26 11 27 12 28 16 29 13 30 15 31 14 32
REMARK SMILES IDX 17 33 20 34 18 35 19 36 27 37 28 38 29 39 30 40 31 42 32 43
REMARK SMILES IDX 33 44 94 45 34 46 93 47 35 48 36 49 37 50 87 51 38 52 92 53
REMARK SMILES IDX 86 54 88 55 39 56 91 57 85 58 84 59 40 61 72 62 52 63 71 64
REMARK SMILES IDX 53 65 56 66 70 67 89 68 54 69 55 70 69 72 90 73 57 74 41 75
REMARK SMILES IDX 42 76 50 77 43 78 44 79 48 80 51 81 45 82 46 83 49 84 47 85
REMARK SMILES IDX 73 86 74 87 82 88 75 89 76 90 80 91 83 92 77 93 78 94 81 95
REMARK SMILES IDX 79 96 58 97 59 98 67 99 60 100 61 101 65 102 68 103 62 104
REMARK SMILES IDX 63 105 66 106 64 107
REMARK H PARENT 24 6 29 41 88 60 56 71
REMARK Flexibility Score: inf
ROOT
ATOM      1  C   UNL A   1      33.463  28.952  23.713  1.00  0.00     0.023 C 
ENDROOT
BRANCH   1   2
ATOM      2  C   UNL A   1      33.824  27.461  23.691  1.00  0.00     0.116 C 
BRANCH   2   3
ATOM      3  N   UNL A   1      33.869  26.855  22.364  1.00  0.00    -0.355 N 
ATOM      4  C   UNL A   1      33.087  25.926  21.743  1.00  0.00     0.234 C 
ATOM      5  O   UNL A   1      33.278  25.768  20.530  1.00  0.00    -0.274 OA
ATOM      6  H   UNL A   1      34.611  27.181  21.807  1.00  0.00     0.163 HD
BRANCH   4   7
ATOM      7  C   UNL A   1      32.045  25.051  22.460  1.00  0.00     0.153 C 
ATOM      8  C   UNL A   1      31.544  22.847  23.839  1.00  0.00     0.052 C 
ATOM      9  C   UNL A   1      32.383  23.542  22.672  1.00  0.00     0.093 C 
ATOM     10  C   UNL A   1      31.430  23.708  25.124  1.00  0.00     0.121 C 
ATOM     11  C   UNL A   1      30.703  24.993  24.886  1.00  0.00     0.093 C 
ATOM     12  S   UNL A   1      30.386  22.953  26.439  1.00  0.00    -0.052 SA
ATOM     13  S   UNL A   1      31.344  26.123  23.764  1.00  0.00    -0.095 SA
ATOM     14  N   UNL A   1      29.666  25.326  25.576  1.00  0.00    -0.200 NA
ATOM     15  C   UNL A   1      29.353  24.372  26.501  1.00  0.00     0.306 C 
ATOM     16  O   UNL A   1      28.455  24.464  27.322  1.00  0.00    -0.259 OA
BRANCH   8  17
ATOM     17  C   UNL A   1      32.022  21.418  24.182  1.00  0.00    -0.042 A 
ATOM     18  C   UNL A   1      33.008  18.815  24.744  1.00  0.00     0.118 A 
ATOM     19  C   UNL A   1      32.903  19.782  25.751  1.00  0.00     0.047 A 
ATOM     20  C   UNL A   1      32.606  19.142  23.461  1.00  0.00     0.047 A 
ATOM     21  C   UNL A   1      32.408  21.069  25.480  1.00  0.00     0.008 A 
ATOM     22  C   UNL A   1      32.153  20.429  23.185  1.00  0.00     0.008 A 
BRANCH  18  23
ATOM     23  O   UNL A   1      33.513  17.600  25.118  1.00  0.00    -0.497 OA
ATOM     24  C   UNL A   1      33.594  16.617  24.085  1.00  0.00     0.278 C 
ENDBRANCH  18  23
ENDBRANCH   8  17
BRANCH   9  25
ATOM     25  C   UNL A   1      33.859  23.277  22.869  1.00  0.00     0.168 C 
ATOM     26  O   UNL A   1      34.530  23.018  21.867  1.00  0.00    -0.294 OA
BRANCH  25  27
ATOM     27  C   UNL A   1      34.571  23.253  24.201  1.00  0.00     0.018 A 
ATOM     28  C   UNL A   1      34.770  24.498  24.819  1.00  0.00     0.012 A 
ATOM     29  C   UNL A   1      35.334  22.165  24.636  1.00  0.00     0.015 A 
ATOM     30  C   UNL A   1      35.797  24.682  25.751  1.00  0.00     0.005 A 
ATOM     31  C   UNL A   1      36.455  22.377  25.457  1.00  0.00    -0.044 A 
ATOM     32  C   UNL A   1      36.686  23.642  26.017  1.00  0.00    -0.045 A 
ATOM     33  C   UNL A   1      37.485  21.296  25.702  1.00  0.00     0.036 C 
ATOM     34  C   UNL A   1      37.931  23.837  26.843  1.00  0.00     0.036 C 
ATOM     35  C   UNL A   1      38.925  21.828  25.589  1.00  0.00     0.005 C 
ATOM     36  C   UNL A   1      39.138  23.262  26.099  1.00  0.00     0.005 C 
ENDBRANCH  25  27
ENDBRANCH   9  25
ENDBRANCH   4   7
ENDBRANCH   2   3
ENDBRANCH   1   2
BRANCH   1  37
ATOM     37  C   UNL A   1      32.452  29.378  24.755  1.00  0.00     0.023 C 
BRANCH  37  38
ATOM     38  C   UNL A   1      33.113  29.715  26.069  1.00  0.00     0.116 C 
BRANCH  38  39
ATOM     39  N   UNL A   1      32.967  31.133  26.378  1.00  0.00    -0.352 N 
ATOM     40  C   UNL A   1      33.583  31.902  27.334  1.00  0.00     0.251 C 
ATOM     41  H   UNL A   1      32.324  31.616  25.810  1.00  0.00     0.163 HD
ATOM     42  O   UNL A   1      33.120  33.002  27.626  1.00  0.00    -0.269 OA
BRANCH  40  43
ATOM     43  C   UNL A   1      34.794  31.407  28.021  1.00  0.00     0.039 A 
ATOM     44  C   UNL A   1      35.902  32.246  28.161  1.00  0.00     0.014 A 
ATOM     45  C   UNL A   1      34.849  30.102  28.508  1.00  0.00     0.014 A 
ATOM     46  C   UNL A   1      37.036  31.786  28.836  1.00  0.00     0.010 A 
ATOM     47  C   UNL A   1      35.904  29.703  29.310  1.00  0.00     0.010 A 
ATOM     48  C   UNL A   1      37.031  30.523  29.447  1.00  0.00    -0.014 A 
BRANCH  48  49
ATOM     49  C   UNL A   1      38.208  29.988  30.175  1.00  0.00     0.031 A 
ATOM     50  C   UNL A   1      38.461  30.425  31.595  1.00  0.00     0.074 A 
ATOM     51  C   UNL A   1      39.087  29.191  29.539  1.00  0.00     0.049 A 
ATOM     52  N   UNL A   1      39.495  30.195  32.363  1.00  0.00    -0.248 NA
ATOM     53  C   UNL A   1      37.437  31.282  32.219  1.00  0.00     0.031 C 
ATOM     54  C   UNL A   1      38.982  28.752  28.147  1.00  0.00     0.029 A 
ATOM     55  N   UNL A   1      40.252  28.619  29.981  1.00  0.00    -0.354 N 
ATOM     56  C   UNL A   1      39.260  30.909  33.532  1.00  0.00     0.074 A 
ATOM     57  C   UNL A   1      38.026  31.634  33.350  1.00  0.00     0.031 C 
ATOM     58  C   UNL A   1      40.022  27.951  27.860  1.00  0.00     0.029 A 
ATOM     59  C   UNL A   1      40.888  27.861  29.030  1.00  0.00     0.049 A 
ATOM     60  H   UNL A   1      40.600  28.742  30.894  1.00  0.00     0.167 HD
ATOM     61  C   UNL A   1      39.990  30.927  34.672  1.00  0.00     0.037 A 
ATOM     62  C   UNL A   1      42.044  27.175  29.097  1.00  0.00     0.037 A 
ATOM     63  C   UNL A   1      41.181  30.147  34.870  1.00  0.00     0.049 A 
ATOM     64  C   UNL A   1      42.822  27.183  30.385  1.00  0.00     0.074 A 
ATOM     65  C   UNL A   1      41.946  30.014  36.013  1.00  0.00     0.029 A 
ATOM     66  N   UNL A   1      41.772  29.356  33.895  1.00  0.00    -0.354 N 
ATOM     67  N   UNL A   1      42.553  27.802  31.510  1.00  0.00    -0.248 NA
ATOM     68  C   UNL A   1      44.062  26.396  30.416  1.00  0.00     0.031 C 
ATOM     69  C   UNL A   1      43.027  29.176  35.718  1.00  0.00     0.029 A 
ATOM     70  C   UNL A   1      42.907  28.749  34.404  1.00  0.00     0.049 A 
ATOM     71  H   UNL A   1      41.434  29.243  32.976  1.00  0.00     0.167 HD
ATOM     72  C   UNL A   1      43.574  27.463  32.387  1.00  0.00     0.074 A 
ATOM     73  C   UNL A   1      44.458  26.568  31.669  1.00  0.00     0.031 C 
ATOM     74  C   UNL A   1      43.767  27.857  33.669  1.00  0.00     0.037 A 
BRANCH  61  75
ATOM     75  C   UNL A   1      39.514  31.804  35.794  1.00  0.00     0.064 A 
ATOM     76  C   UNL A   1      40.038  33.090  36.001  1.00  0.00     0.173 A 
ATOM     77  C   UNL A   1      38.501  31.364  36.660  1.00  0.00     0.173 A 
ATOM     78  F   UNL A   1      41.017  33.556  35.211  1.00  0.00    -0.203 F 
ATOM     79  C   UNL A   1      39.592  33.887  37.052  1.00  0.00     0.198 A 
ATOM     80  C   UNL A   1      38.034  32.176  37.690  1.00  0.00     0.198 A 
ATOM     81  F   UNL A   1      37.963  30.145  36.506  1.00  0.00    -0.203 F 
ATOM     82  F   UNL A   1      40.149  35.087  37.265  1.00  0.00    -0.200 F 
ATOM     83  C   UNL A   1      38.585  33.432  37.891  1.00  0.00     0.200 A 
ATOM     84  F   UNL A   1      37.052  31.741  38.492  1.00  0.00    -0.200 F 
ATOM     85  F   UNL A   1      38.153  34.203  38.899  1.00  0.00    -0.200 F 
ENDBRANCH  61  75
BRANCH  62  86
ATOM     86  C   UNL A   1      42.518  26.402  27.919  1.00  0.00     0.064 A 
ATOM     87  C   UNL A   1      43.347  26.995  26.957  1.00  0.00     0.173 A 
ATOM     88  C   UNL A   1      42.164  25.058  27.736  1.00  0.00     0.173 A 
ATOM     89  F   UNL A   1      43.700  28.283  27.080  1.00  0.00    -0.203 F 
ATOM     90  C   UNL A   1      43.787  26.279  25.846  1.00  0.00     0.198 A 
ATOM     91  C   UNL A   1      42.628  24.334  26.639  1.00  0.00     0.198 A 
ATOM     92  F   UNL A   1      41.382  24.440  28.633  1.00  0.00    -0.203 F 
ATOM     93  F   UNL A   1      44.544  26.883  24.920  1.00  0.00    -0.200 F 
ATOM     94  C   UNL A   1      43.433  24.947  25.691  1.00  0.00     0.200 A 
ATOM     95  F   UNL A   1      42.298  23.043  26.503  1.00  0.00    -0.200 F 
ATOM     96  F   UNL A   1      43.862  24.258  24.626  1.00  0.00    -0.200 F 
ENDBRANCH  62  86
BRANCH  74  97
ATOM     97  C   UNL A   1      44.964  27.308  34.385  1.00  0.00     0.064 A 
ATOM     98  C   UNL A   1      44.906  26.091  35.080  1.00  0.00     0.173 A 
ATOM     99  C   UNL A   1      46.194  27.978  34.329  1.00  0.00     0.173 A 
ATOM    100  F   UNL A   1      43.748  25.421  35.173  1.00  0.00    -0.203 F 
ATOM    101  C   UNL A   1      46.035  25.574  35.710  1.00  0.00     0.198 A 
ATOM    102  C   UNL A   1      47.327  27.444  34.935  1.00  0.00     0.198 A 
ATOM    103  F   UNL A   1      46.301  29.142  33.671  1.00  0.00    -0.203 F 
ATOM    104  F   UNL A   1      45.948  24.431  36.403  1.00  0.00    -0.200 F 
ATOM    105  C   UNL A   1      47.246  26.246  35.629  1.00  0.00     0.200 A 
ATOM    106  F   UNL A   1      48.500  28.086  34.843  1.00  0.00    -0.200 F 
ATOM    107  F   UNL A   1      48.334  25.742  36.225  1.00  0.00    -0.200 F 
ENDBRANCH  74  97
ENDBRANCH  48  49
ENDBRANCH  40  43
ENDBRANCH  38  39
ENDBRANCH  37  38
ENDBRANCH   1  37
TORSDOF 15
ENDMDL
MODEL 3
REMARK VINA RESULT:      -9.4      3.300      7.799
REMARK SMILES COc1ccc([C@@H]2[C@H](C(=O)c3ccc4c(c3)CCCC4)[C@H](C(=O)NCCCCNC(=O)c3ccc(-c4c5nc(c(-c6c(F)c(F)c(F)c(F)c6F)c6ccc([nH]6)c(-c6c(F)c(F)c(F)c(F)c6F)c6nc(c(-c7c(F)c(F)c(F)c(F)c7F)c7ccc4[nH]7)C=C6)C=C5)cc3)SC3=NC(=O)S[C@H]32)cc1
REMARK SMILES IDX 26 1 25 2 24 3 22 4 23 5 21 7 7 8 8 9 101 10 96 11 100 12
REMARK SMILES IDX 95 13 97 14 98 15 99 16 6 17 3 18 4 19 103 20 5 21 102 22
REMARK SMILES IDX 2 23 1 24 9 25 10 26 11 27 12 28 16 29 13 30 15 31 14 32
REMARK SMILES IDX 17 33 20 34 18 35 19 36 27 37 28 38 29 39 30 40 31 42 32 43
REMARK SMILES IDX 33 44 94 45 34 46 93 47 35 48 36 49 37 50 87 51 38 52 92 53
REMARK SMILES IDX 86 54 88 55 39 56 91 57 85 58 84 59 40 61 72 62 52 63 71 64
REMARK SMILES IDX 53 65 56 66 70 67 89 68 54 69 55 70 69 72 90 73 57 74 41 75
REMARK SMILES IDX 42 76 50 77 43 78 44 79 48 80 51 81 45 82 46 83 49 84 47 85
REMARK SMILES IDX 73 86 74 87 82 88 75 89 76 90 80 91 83 92 77 93 78 94 81 95
REMARK SMILES IDX 79 96 58 97 59 98 67 99 60 100 61 101 65 102 68 103 62 104
REMARK SMILES IDX 63 105 66 106 64 107
REMARK H PARENT 24 6 29 41 88 60 56 71
REMARK Flexibility Score: inf
ROOT
ATOM      1  C   UNL A   1      39.815  35.885  35.732  1.00  0.00     0.023 C 
ENDROOT
BRANCH   1   2
ATOM      2  C   UNL A   1      39.131  34.636  35.162  1.00  0.00     0.116 C 
BRANCH   2   3
ATOM      3  N   UNL A   1      37.747  34.442  35.582  1.00  0.00    -0.355 N 
ATOM      4  C   UNL A   1      36.590  34.230  34.893  1.00  0.00     0.234 C 
ATOM      5  O   UNL A   1      35.601  33.905  35.562  1.00  0.00    -0.274 OA
ATOM      6  H   UNL A   1      37.624  34.470  36.558  1.00  0.00     0.163 HD
BRANCH   4   7
ATOM      7  C   UNL A   1      36.440  34.418  33.373  1.00  0.00     0.153 C 
ATOM      8  C   UNL A   1      36.421  33.300  30.973  1.00  0.00     0.052 C 
ATOM      9  C   UNL A   1      37.048  33.323  32.440  1.00  0.00     0.093 C 
ATOM     10  C   UNL A   1      34.875  33.433  30.952  1.00  0.00     0.121 C 
ATOM     11  C   UNL A   1      34.408  34.738  31.513  1.00  0.00     0.093 C 
ATOM     12  S   UNL A   1      34.154  33.501  29.260  1.00  0.00    -0.052 SA
ATOM     13  S   UNL A   1      34.772  35.126  33.146  1.00  0.00    -0.095 SA
ATOM     14  N   UNL A   1      33.650  35.536  30.841  1.00  0.00    -0.200 NA
ATOM     15  C   UNL A   1      33.362  35.030  29.606  1.00  0.00     0.306 C 
ATOM     16  O   UNL A   1      32.618  35.555  28.794  1.00  0.00    -0.259 OA
BRANCH   8  17
ATOM     17  C   UNL A   1      36.874  32.093  30.121  1.00  0.00    -0.042 A 
ATOM     18  C   UNL A   1      37.624  29.914  28.461  1.00  0.00     0.118 A 
ATOM     19  C   UNL A   1      38.522  30.950  28.744  1.00  0.00     0.047 A 
ATOM     20  C   UNL A   1      36.358  29.956  29.019  1.00  0.00     0.047 A 
ATOM     21  C   UNL A   1      38.158  32.027  29.572  1.00  0.00     0.008 A 
ATOM     22  C   UNL A   1      35.986  31.043  29.806  1.00  0.00     0.008 A 
BRANCH  18  23
ATOM     23  O   UNL A   1      38.081  28.923  27.636  1.00  0.00    -0.497 OA
ATOM     24  C   UNL A   1      39.326  29.181  26.986  1.00  0.00     0.278 C 
ENDBRANCH  18  23
ENDBRANCH   8  17
BRANCH   9  25
ATOM     25  C   UNL A   1      37.013  31.934  33.039  1.00  0.00     0.168 C 
ATOM     26  O   UNL A   1      35.965  31.573  33.579  1.00  0.00    -0.294 OA
BRANCH  25  27
ATOM     27  C   UNL A   1      38.175  30.970  33.073  1.00  0.00     0.018 A 
ATOM     28  C   UNL A   1      39.456  31.541  32.997  1.00  0.00     0.012 A 
ATOM     29  C   UNL A   1      38.039  29.605  32.803  1.00  0.00     0.015 A 
ATOM     30  C   UNL A   1      40.548  30.800  32.533  1.00  0.00     0.005 A 
ATOM     31  C   UNL A   1      39.094  28.899  32.200  1.00  0.00    -0.044 A 
ATOM     32  C   UNL A   1      40.354  29.500  32.066  1.00  0.00    -0.045 A 
ATOM     33  C   UNL A   1      38.901  27.521  31.609  1.00  0.00     0.036 C 
ATOM     34  C   UNL A   1      41.439  28.727  31.361  1.00  0.00     0.036 C 
ATOM     35  C   UNL A   1      39.568  27.381  30.228  1.00  0.00     0.005 C 
ATOM     36  C   UNL A   1      40.892  28.143  30.057  1.00  0.00     0.005 C 
ENDBRANCH  25  27
ENDBRANCH   9  25
ENDBRANCH   4   7
ENDBRANCH   2   3
ENDBRANCH   1   2
BRANCH   1  37
ATOM     37  C   UNL A   1      39.860  35.990  37.241  1.00  0.00     0.023 C 
BRANCH  37  38
ATOM     38  C   UNL A   1      41.211  36.451  37.729  1.00  0.00     0.116 C 
BRANCH  38  39
ATOM     39  N   UNL A   1      41.607  35.725  38.930  1.00  0.00    -0.352 N 
ATOM     40  C   UNL A   1      42.011  34.422  39.089  1.00  0.00     0.251 C 
ATOM     41  H   UNL A   1      41.581  36.254  39.760  1.00  0.00     0.163 HD
ATOM     42  O   UNL A   1      42.025  33.919  40.209  1.00  0.00    -0.269 OA
BRANCH  40  43
ATOM     43  C   UNL A   1      42.417  33.620  37.917  1.00  0.00     0.039 A 
ATOM     44  C   UNL A   1      41.467  32.848  37.244  1.00  0.00     0.014 A 
ATOM     45  C   UNL A   1      43.744  33.607  37.492  1.00  0.00     0.014 A 
ATOM     46  C   UNL A   1      41.845  32.113  36.118  1.00  0.00     0.010 A 
ATOM     47  C   UNL A   1      44.084  33.009  36.290  1.00  0.00     0.010 A 
ATOM     48  C   UNL A   1      43.151  32.217  35.612  1.00  0.00    -0.014 A 
BRANCH  48  49
ATOM     49  C   UNL A   1      43.603  31.457  34.420  1.00  0.00     0.031 A 
ATOM     50  C   UNL A   1      43.719  32.163  33.094  1.00  0.00     0.074 A 
ATOM     51  C   UNL A   1      43.820  30.132  34.510  1.00  0.00     0.049 A 
ATOM     52  N   UNL A   1      43.958  31.667  31.906  1.00  0.00    -0.248 NA
ATOM     53  C   UNL A   1      43.483  33.618  33.091  1.00  0.00     0.031 C 
ATOM     54  C   UNL A   1      43.678  29.329  35.725  1.00  0.00     0.029 A 
ATOM     55  N   UNL A   1      44.194  29.224  33.553  1.00  0.00    -0.354 N 
ATOM     56  C   UNL A   1      43.858  32.736  31.025  1.00  0.00     0.074 A 
ATOM     57  C   UNL A   1      43.471  33.892  31.797  1.00  0.00     0.031 C 
ATOM     58  C   UNL A   1      43.995  28.054  35.448  1.00  0.00     0.029 A 
ATOM     59  C   UNL A   1      44.315  27.942  34.029  1.00  0.00     0.049 A 
ATOM     60  H   UNL A   1      44.360  29.468  32.614  1.00  0.00     0.167 HD
ATOM     61  C   UNL A   1      44.106  32.759  29.695  1.00  0.00     0.037 A 
ATOM     62  C   UNL A   1      44.642  26.805  33.387  1.00  0.00     0.037 A 
ATOM     63  C   UNL A   1      44.560  31.620  28.947  1.00  0.00     0.049 A 
ATOM     64  C   UNL A   1      44.946  26.862  31.914  1.00  0.00     0.074 A 
ATOM     65  C   UNL A   1      44.932  31.551  27.617  1.00  0.00     0.029 A 
ATOM     66  N   UNL A   1      44.711  30.345  29.474  1.00  0.00    -0.354 N 
ATOM     67  N   UNL A   1      44.920  27.893  31.104  1.00  0.00    -0.248 NA
ATOM     68  C   UNL A   1      45.326  25.600  31.267  1.00  0.00     0.031 C 
ATOM     69  C   UNL A   1      45.269  30.225  27.328  1.00  0.00     0.029 A 
ATOM     70  C   UNL A   1      45.151  29.477  28.489  1.00  0.00     0.049 A 
ATOM     71  H   UNL A   1      44.532  30.094  30.409  1.00  0.00     0.167 HD
ATOM     72  C   UNL A   1      45.302  27.411  29.860  1.00  0.00     0.074 A 
ATOM     73  C   UNL A   1      45.571  25.997  30.026  1.00  0.00     0.031 C 
ATOM     74  C   UNL A   1      45.417  28.074  28.683  1.00  0.00     0.037 A 
BRANCH  61  75
ATOM     75  C   UNL A   1      43.907  34.060  28.970  1.00  0.00     0.064 A 
ATOM     76  C   UNL A   1      44.992  34.837  28.533  1.00  0.00     0.173 A 
ATOM     77  C   UNL A   1      42.614  34.525  28.685  1.00  0.00     0.173 A 
ATOM     78  F   UNL A   1      46.250  34.446  28.791  1.00  0.00    -0.203 F 
ATOM     79  C   UNL A   1      44.790  36.045  27.871  1.00  0.00     0.198 A 
ATOM     80  C   UNL A   1      42.415  35.717  27.993  1.00  0.00     0.198 A 
ATOM     81  F   UNL A   1      41.541  33.821  29.076  1.00  0.00    -0.203 F 
ATOM     82  F   UNL A   1      45.841  36.797  27.517  1.00  0.00    -0.200 F 
ATOM     83  C   UNL A   1      43.502  36.480  27.595  1.00  0.00     0.200 A 
ATOM     84  F   UNL A   1      41.172  36.130  27.716  1.00  0.00    -0.200 F 
ATOM     85  F   UNL A   1      43.310  37.641  26.952  1.00  0.00    -0.200 F 
ENDBRANCH  61  75
BRANCH  62  86
ATOM     86  C   UNL A   1      44.728  25.527  34.139  1.00  0.00     0.064 A 
ATOM     87  C   UNL A   1      43.571  24.802  34.459  1.00  0.00     0.173 A 
ATOM     88  C   UNL A   1      45.962  24.997  34.544  1.00  0.00     0.173 A 
ATOM     89  F   UNL A   1      42.368  25.275  34.107  1.00  0.00    -0.203 F 
ATOM     90  C   UNL A   1      43.644  23.607  35.172  1.00  0.00     0.198 A 
ATOM     91  C   UNL A   1      46.035  23.788  35.233  1.00  0.00     0.198 A 
ATOM     92  F   UNL A   1      47.100  25.646  34.255  1.00  0.00    -0.203 F 
ATOM     93  F   UNL A   1      42.519  22.957  35.500  1.00  0.00    -0.200 F 
ATOM     94  C   UNL A   1      44.876  23.097  35.553  1.00  0.00     0.200 A 
ATOM     95  F   UNL A   1      47.228  23.290  35.583  1.00  0.00    -0.200 F 
ATOM     96  F   UNL A   1      44.945  21.946  36.232  1.00  0.00    -0.200 F 
ENDBRANCH  62  86
BRANCH  74  97
ATOM     97  C   UNL A   1      45.873  27.288  27.491  1.00  0.00     0.064 A 
ATOM     98  C   UNL A   1      47.234  27.082  27.227  1.00  0.00     0.173 A 
ATOM     99  C   UNL A   1      44.936  26.689  26.636  1.00  0.00     0.173 A 
ATOM    100  F   UNL A   1      48.166  27.648  28.009  1.00  0.00    -0.203 F 
ATOM    101  C   UNL A   1      47.643  26.319  26.137  1.00  0.00     0.198 A 
ATOM    102  C   UNL A   1      45.348  25.901  25.565  1.00  0.00     0.198 A 
ATOM    103  F   UNL A   1      43.622  26.850  26.851  1.00  0.00    -0.203 F 
ATOM    104  F   UNL A   1      48.949  26.169  25.879  1.00  0.00    -0.200 F 
ATOM    105  C   UNL A   1      46.700  25.722  25.313  1.00  0.00     0.200 A 
ATOM    106  F   UNL A   1      44.436  25.313  24.778  1.00  0.00    -0.200 F 
ATOM    107  F   UNL A   1      47.095  24.978  24.271  1.00  0.00    -0.200 F 
ENDBRANCH  74  97
ENDBRANCH  48  49
ENDBRANCH  40  43
ENDBRANCH  38  39
ENDBRANCH  37  38
ENDBRANCH   1  37
TORSDOF 15
ENDMDL
