MODEL 1
REMARK VINA RESULT:     -13.7      0.000      0.000
REMARK SMILES Cc1ccc(Nc2c(C)cccc2Cl)c(CC(=O)NCCCCNC(=O)c2ccc(-c3c4nc(c(-c5c(F)c(F)c(F)c(F)c5F)c5ccc([nH]5)c(-c5c(F)c(F)c(F)c(F)c5F)c5nc(c(-c6c(F)c(F)c(F)c(F)c6F)c6ccc3[nH]6)C=C5)C=C4)cc2)c1
REMARK SMILES IDX 21 1 20 2 19 3 17 4 18 5 16 7 15 8 1 9 2 10 3 11 90 12 4 13
REMARK SMILES IDX 5 14 6 15 7 17 8 18 13 19 9 20 10 21 12 22 14 23 11 24 22 25
REMARK SMILES IDX 23 26 24 27 25 28 26 30 27 31 28 32 89 33 29 34 88 35 30 36
REMARK SMILES IDX 31 37 32 38 82 39 33 40 87 41 81 42 83 43 34 44 86 45 80 46
REMARK SMILES IDX 79 47 35 49 67 50 47 51 66 52 48 53 51 54 65 55 84 56 49 57
REMARK SMILES IDX 50 58 64 60 85 61 52 62 36 63 37 64 45 65 38 66 39 67 43 68
REMARK SMILES IDX 46 69 40 70 41 71 44 72 42 73 68 74 69 75 77 76 70 77 71 78
REMARK SMILES IDX 75 79 78 80 72 81 73 82 76 83 74 84 53 85 54 86 62 87 55 88
REMARK SMILES IDX 56 89 60 90 63 91 57 92 58 93 61 94 59 95
REMARK H PARENT 19 6 6 16 24 29 83 48 51 59
REMARK Flexibility Score: inf
ROOT
ATOM      1  C   UNL A   1      32.010  29.743  26.303  1.00  0.00     0.023 C 
ENDROOT
BRANCH   1   2
ATOM      2  C   UNL A   1      32.775  28.446  25.995  1.00  0.00     0.116 C 
BRANCH   2   3
ATOM      3  N   UNL A   1      32.098  27.245  26.452  1.00  0.00    -0.356 N 
ATOM      4  C   UNL A   1      32.475  25.937  26.363  1.00  0.00     0.224 C 
ATOM      5  O   UNL A   1      31.681  25.076  26.749  1.00  0.00    -0.275 OA
ATOM      6  H   UNL A   1      31.232  27.399  26.894  1.00  0.00     0.163 HD
BRANCH   4   7
ATOM      7  C   UNL A   1      33.825  25.537  25.796  1.00  0.00     0.137 C 
BRANCH   7   8
ATOM      8  C   UNL A   1      33.738  24.874  24.440  1.00  0.00    -0.015 A 
ATOM      9  C   UNL A   1      32.466  25.928  20.992  1.00  0.00     0.044 C 
ATOM     10  C   UNL A   1      33.037  25.103  22.106  1.00  0.00    -0.051 A 
ATOM     11  C   UNL A   1      33.270  23.741  21.923  1.00  0.00     0.005 A 
ATOM     12  C   UNL A   1      33.304  25.667  23.355  1.00  0.00     0.009 A 
ATOM     13  C   UNL A   1      33.758  22.960  22.974  1.00  0.00     0.026 A 
ATOM     14  C   UNL A   1      33.998  23.499  24.248  1.00  0.00     0.042 A 
BRANCH  14  15
ATOM     15  N   UNL A   1      34.524  22.700  25.289  1.00  0.00    -0.354 N 
ATOM     16  H   UNL A   1      34.039  22.747  26.144  1.00  0.00     0.167 HD
BRANCH  15  17
ATOM     17  C   UNL A   1      35.651  21.842  25.275  1.00  0.00     0.060 A 
ATOM     18  C   UNL A   1      36.966  22.327  25.450  1.00  0.00    -0.026 A 
ATOM     19  C   UNL A   1      35.474  20.466  25.001  1.00  0.00     0.064 A 
ATOM     20  C   UNL A   1      37.265  23.758  25.808  1.00  0.00     0.046 C 
ATOM     21  C   UNL A   1      38.055  21.450  25.290  1.00  0.00     0.005 A 
ATOM     22  C   UNL A   1      36.565  19.605  24.870  1.00  0.00     0.023 A 
ATOM     23  Cl  UNL A   1      33.890  19.798  24.781  1.00  0.00    -0.082 Cl
ATOM     24  C   UNL A   1      37.858  20.101  25.001  1.00  0.00     0.002 A 
ENDBRANCH  15  17
ENDBRANCH  14  15
ENDBRANCH   7   8
ENDBRANCH   4   7
ENDBRANCH   2   3
ENDBRANCH   1   2
BRANCH   1  25
ATOM     25  C   UNL A   1      32.763  30.784  27.133  1.00  0.00     0.023 C 
BRANCH  25  26
ATOM     26  C   UNL A   1      34.125  30.315  27.616  1.00  0.00     0.116 C 
BRANCH  26  27
ATOM     27  N   UNL A   1      34.825  31.261  28.478  1.00  0.00    -0.352 N 
ATOM     28  C   UNL A   1      35.985  31.078  29.219  1.00  0.00     0.251 C 
ATOM     29  H   UNL A   1      34.417  32.154  28.546  1.00  0.00     0.163 HD
ATOM     30  O   UNL A   1      36.394  31.959  29.956  1.00  0.00    -0.269 OA
BRANCH  28  31
ATOM     31  C   UNL A   1      36.803  29.860  28.990  1.00  0.00     0.039 A 
ATOM     32  C   UNL A   1      37.009  29.004  30.078  1.00  0.00     0.014 A 
ATOM     33  C   UNL A   1      37.546  29.704  27.825  1.00  0.00     0.014 A 
ATOM     34  C   UNL A   1      38.143  28.198  30.101  1.00  0.00     0.010 A 
ATOM     35  C   UNL A   1      38.727  28.991  27.888  1.00  0.00     0.010 A 
ATOM     36  C   UNL A   1      39.064  28.314  29.063  1.00  0.00    -0.014 A 
BRANCH  36  37
ATOM     37  C   UNL A   1      40.454  27.893  29.176  1.00  0.00     0.031 A 
ATOM     38  C   UNL A   1      40.870  26.552  28.727  1.00  0.00     0.074 A 
ATOM     39  C   UNL A   1      41.381  28.791  29.585  1.00  0.00     0.049 A 
ATOM     40  N   UNL A   1      42.032  26.049  28.968  1.00  0.00    -0.248 NA
ATOM     41  C   UNL A   1      39.981  25.627  28.026  1.00  0.00     0.031 C 
ATOM     42  C   UNL A   1      42.836  28.701  29.461  1.00  0.00     0.029 A 
ATOM     43  N   UNL A   1      41.179  29.895  30.435  1.00  0.00    -0.354 N 
ATOM     44  C   UNL A   1      42.151  24.905  28.224  1.00  0.00     0.074 A 
ATOM     45  C   UNL A   1      40.815  24.612  27.772  1.00  0.00     0.031 C 
ATOM     46  C   UNL A   1      43.397  29.453  30.421  1.00  0.00     0.029 A 
ATOM     47  C   UNL A   1      42.322  29.921  31.274  1.00  0.00     0.049 A 
ATOM     48  H   UNL A   1      40.413  30.513  30.444  1.00  0.00     0.167 HD
ATOM     49  C   UNL A   1      43.399  24.419  27.979  1.00  0.00     0.037 A 
ATOM     50  C   UNL A   1      42.209  29.656  32.609  1.00  0.00     0.037 A 
ATOM     51  C   UNL A   1      44.377  24.986  28.911  1.00  0.00     0.049 A 
ATOM     52  C   UNL A   1      42.984  28.442  33.088  1.00  0.00     0.074 A 
ATOM     53  C   UNL A   1      45.442  25.864  28.830  1.00  0.00     0.029 A 
ATOM     54  N   UNL A   1      44.150  24.791  30.264  1.00  0.00    -0.354 N 
ATOM     55  N   UNL A   1      43.669  27.645  32.315  1.00  0.00    -0.248 NA
ATOM     56  C   UNL A   1      42.955  27.977  34.476  1.00  0.00     0.031 C 
ATOM     57  C   UNL A   1      45.805  26.238  30.164  1.00  0.00     0.029 A 
ATOM     58  C   UNL A   1      44.985  25.558  31.048  1.00  0.00     0.049 A 
ATOM     59  H   UNL A   1      43.472  24.175  30.625  1.00  0.00     0.167 HD
ATOM     60  C   UNL A   1      44.111  26.573  33.043  1.00  0.00     0.074 A 
ATOM     61  C   UNL A   1      43.637  26.823  34.391  1.00  0.00     0.031 C 
ATOM     62  C   UNL A   1      44.794  25.529  32.489  1.00  0.00     0.037 A 
BRANCH  49  63
ATOM     63  C   UNL A   1      43.760  23.504  26.832  1.00  0.00     0.064 A 
ATOM     64  C   UNL A   1      43.304  22.168  26.817  1.00  0.00     0.173 A 
ATOM     65  C   UNL A   1      44.653  23.833  25.787  1.00  0.00     0.173 A 
ATOM     66  F   UNL A   1      42.473  21.709  27.764  1.00  0.00    -0.203 F 
ATOM     67  C   UNL A   1      43.707  21.250  25.841  1.00  0.00     0.198 A 
ATOM     68  C   UNL A   1      45.006  22.931  24.780  1.00  0.00     0.198 A 
ATOM     69  F   UNL A   1      45.278  25.012  25.726  1.00  0.00    -0.203 F 
ATOM     70  F   UNL A   1      43.291  19.977  25.912  1.00  0.00    -0.200 F 
ATOM     71  C   UNL A   1      44.546  21.634  24.814  1.00  0.00     0.200 A 
ATOM     72  F   UNL A   1      45.829  23.327  23.796  1.00  0.00    -0.200 F 
ATOM     73  F   UNL A   1      44.929  20.757  23.878  1.00  0.00    -0.200 F 
ENDBRANCH  49  63
BRANCH  50  74
ATOM     74  C   UNL A   1      40.914  30.122  33.177  1.00  0.00     0.064 A 
ATOM     75  C   UNL A   1      40.705  31.510  33.318  1.00  0.00     0.173 A 
ATOM     76  C   UNL A   1      39.790  29.292  33.227  1.00  0.00     0.173 A 
ATOM     77  F   UNL A   1      41.749  32.353  33.276  1.00  0.00    -0.203 F 
ATOM     78  C   UNL A   1      39.421  32.047  33.374  1.00  0.00     0.198 A 
ATOM     79  C   UNL A   1      38.506  29.835  33.310  1.00  0.00     0.198 A 
ATOM     80  F   UNL A   1      39.915  27.966  33.075  1.00  0.00    -0.203 F 
ATOM     81  F   UNL A   1      39.254  33.377  33.378  1.00  0.00    -0.200 F 
ATOM     82  C   UNL A   1      38.321  31.209  33.344  1.00  0.00     0.200 A 
ATOM     83  F   UNL A   1      37.440  29.024  33.250  1.00  0.00    -0.200 F 
ATOM     84  F   UNL A   1      37.085  31.723  33.302  1.00  0.00    -0.200 F 
ENDBRANCH  50  74
BRANCH  62  85
ATOM     85  C   UNL A   1      45.295  24.360  33.293  1.00  0.00     0.064 A 
ATOM     86  C   UNL A   1      44.480  23.258  33.598  1.00  0.00     0.173 A 
ATOM     87  C   UNL A   1      46.583  24.357  33.867  1.00  0.00     0.173 A 
ATOM     88  F   UNL A   1      43.216  23.196  33.154  1.00  0.00    -0.203 F 
ATOM     89  C   UNL A   1      44.943  22.198  34.380  1.00  0.00     0.198 A 
ATOM     90  C   UNL A   1      47.023  23.323  34.692  1.00  0.00     0.198 A 
ATOM     91  F   UNL A   1      47.462  25.339  33.622  1.00  0.00    -0.203 F 
ATOM     92  F   UNL A   1      44.153  21.137  34.596  1.00  0.00    -0.200 F 
ATOM     93  C   UNL A   1      46.209  22.235  34.936  1.00  0.00     0.200 A 
ATOM     94  F   UNL A   1      48.246  23.383  35.239  1.00  0.00    -0.200 F 
ATOM     95  F   UNL A   1      46.645  21.225  35.700  1.00  0.00    -0.200 F 
ENDBRANCH  62  85
ENDBRANCH  36  37
ENDBRANCH  28  31
ENDBRANCH  26  27
ENDBRANCH  25  26
ENDBRANCH   1  25
TORSDOF 14
ENDMDL
MODEL 2
REMARK VINA RESULT:     -13.4      3.912     10.324
REMARK SMILES Cc1ccc(Nc2c(C)cccc2Cl)c(CC(=O)NCCCCNC(=O)c2ccc(-c3c4nc(c(-c5c(F)c(F)c(F)c(F)c5F)c5ccc([nH]5)c(-c5c(F)c(F)c(F)c(F)c5F)c5nc(c(-c6c(F)c(F)c(F)c(F)c6F)c6ccc3[nH]6)C=C5)C=C4)cc2)c1
REMARK SMILES IDX 21 1 20 2 19 3 17 4 18 5 16 7 15 8 1 9 2 10 3 11 90 12 4 13
REMARK SMILES IDX 5 14 6 15 7 17 8 18 13 19 9 20 10 21 12 22 14 23 11 24 22 25
REMARK SMILES IDX 23 26 24 27 25 28 26 30 27 31 28 32 89 33 29 34 88 35 30 36
REMARK SMILES IDX 31 37 32 38 82 39 33 40 87 41 81 42 83 43 34 44 86 45 80 46
REMARK SMILES IDX 79 47 35 49 67 50 47 51 66 52 48 53 51 54 65 55 84 56 49 57
REMARK SMILES IDX 50 58 64 60 85 61 52 62 36 63 37 64 45 65 38 66 39 67 43 68
REMARK SMILES IDX 46 69 40 70 41 71 44 72 42 73 68 74 69 75 77 76 70 77 71 78
REMARK SMILES IDX 75 79 78 80 72 81 73 82 76 83 74 84 53 85 54 86 62 87 55 88
REMARK SMILES IDX 56 89 60 90 63 91 57 92 58 93 61 94 59 95
REMARK H PARENT 19 6 6 16 24 29 83 48 51 59
REMARK Flexibility Score: inf
ROOT
ATOM      1  C   UNL A   1      36.961  21.545  24.251  1.00  0.00     0.023 C 
ENDROOT
BRANCH   1   2
ATOM      2  C   UNL A   1      35.655  22.273  24.607  1.00  0.00     0.116 C 
BRANCH   2   3
ATOM      3  N   UNL A   1      35.110  23.063  23.516  1.00  0.00    -0.356 N 
ATOM      4  C   UNL A   1      34.499  24.282  23.535  1.00  0.00     0.224 C 
ATOM      5  O   UNL A   1      34.034  24.716  22.479  1.00  0.00    -0.275 OA
ATOM      6  H   UNL A   1      35.194  22.654  22.625  1.00  0.00     0.163 HD
BRANCH   4   7
ATOM      7  C   UNL A   1      34.376  25.088  24.816  1.00  0.00     0.137 C 
BRANCH   7   8
ATOM      8  C   UNL A   1      32.965  25.160  25.351  1.00  0.00    -0.015 A 
ATOM      9  C   UNL A   1      30.382  22.594  26.519  1.00  0.00     0.044 C 
ATOM     10  C   UNL A   1      31.028  23.897  26.156  1.00  0.00    -0.051 A 
ATOM     11  C   UNL A   1      30.275  25.069  26.125  1.00  0.00     0.005 A 
ATOM     12  C   UNL A   1      32.377  23.957  25.800  1.00  0.00     0.009 A 
ATOM     13  C   UNL A   1      30.864  26.277  25.742  1.00  0.00     0.026 A 
ATOM     14  C   UNL A   1      32.209  26.353  25.345  1.00  0.00     0.042 A 
BRANCH  14  15
ATOM     15  N   UNL A   1      32.795  27.590  24.993  1.00  0.00    -0.354 N 
ATOM     16  H   UNL A   1      33.515  27.542  24.323  1.00  0.00     0.167 HD
BRANCH  15  17
ATOM     17  C   UNL A   1      32.493  28.891  25.469  1.00  0.00     0.060 A 
ATOM     18  C   UNL A   1      33.173  29.464  26.566  1.00  0.00    -0.026 A 
ATOM     19  C   UNL A   1      31.429  29.615  24.886  1.00  0.00     0.064 A 
ATOM     20  C   UNL A   1      34.361  28.810  27.221  1.00  0.00     0.046 C 
ATOM     21  C   UNL A   1      32.739  30.699  27.082  1.00  0.00     0.005 A 
ATOM     22  C   UNL A   1      31.027  30.852  25.395  1.00  0.00     0.023 A 
ATOM     23  Cl  UNL A   1      30.553  28.978  23.533  1.00  0.00    -0.082 Cl
ATOM     24  C   UNL A   1      31.675  31.388  26.502  1.00  0.00     0.002 A 
ENDBRANCH  15  17
ENDBRANCH  14  15
ENDBRANCH   7   8
ENDBRANCH   4   7
ENDBRANCH   2   3
ENDBRANCH   1   2
BRANCH   1  25
ATOM     25  C   UNL A   1      38.002  21.451  25.368  1.00  0.00     0.023 C 
BRANCH  25  26
ATOM     26  C   UNL A   1      38.545  22.798  25.814  1.00  0.00     0.116 C 
BRANCH  26  27
ATOM     27  N   UNL A   1      39.939  22.782  26.242  1.00  0.00    -0.352 N 
ATOM     28  C   UNL A   1      40.734  23.834  26.678  1.00  0.00     0.251 C 
ATOM     29  H   UNL A   1      40.379  21.902  26.218  1.00  0.00     0.163 HD
ATOM     30  O   UNL A   1      41.914  23.656  26.926  1.00  0.00    -0.269 OA
BRANCH  28  31
ATOM     31  C   UNL A   1      40.097  25.140  26.986  1.00  0.00     0.039 A 
ATOM     32  C   UNL A   1      40.525  26.256  26.257  1.00  0.00     0.014 A 
ATOM     33  C   UNL A   1      39.303  25.303  28.116  1.00  0.00     0.014 A 
ATOM     34  C   UNL A   1      40.403  27.521  26.823  1.00  0.00     0.010 A 
ATOM     35  C   UNL A   1      39.279  26.539  28.730  1.00  0.00     0.010 A 
ATOM     36  C   UNL A   1      39.910  27.627  28.121  1.00  0.00    -0.014 A 
BRANCH  36  37
ATOM     37  C   UNL A   1      40.144  28.784  28.975  1.00  0.00     0.031 A 
ATOM     38  C   UNL A   1      39.158  29.877  29.043  1.00  0.00     0.074 A 
ATOM     39  C   UNL A   1      41.220  28.786  29.797  1.00  0.00     0.049 A 
ATOM     40  N   UNL A   1      39.385  31.005  29.624  1.00  0.00    -0.248 NA
ATOM     41  C   UNL A   1      37.849  29.820  28.395  1.00  0.00     0.031 C 
ATOM     42  C   UNL A   1      41.473  29.656  30.945  1.00  0.00     0.029 A 
ATOM     43  N   UNL A   1      42.447  28.126  29.593  1.00  0.00    -0.354 N 
ATOM     44  C   UNL A   1      38.196  31.682  29.693  1.00  0.00     0.074 A 
ATOM     45  C   UNL A   1      37.313  30.977  28.800  1.00  0.00     0.031 C 
ATOM     46  C   UNL A   1      42.798  29.737  31.142  1.00  0.00     0.029 A 
ATOM     47  C   UNL A   1      43.432  29.045  30.036  1.00  0.00     0.049 A 
ATOM     48  H   UNL A   1      42.589  27.223  29.226  1.00  0.00     0.167 HD
ATOM     49  C   UNL A   1      38.075  32.688  30.602  1.00  0.00     0.037 A 
ATOM     50  C   UNL A   1      44.298  29.615  29.148  1.00  0.00     0.037 A 
ATOM     51  C   UNL A   1      39.390  33.138  31.067  1.00  0.00     0.049 A 
ATOM     52  C   UNL A   1      44.208  31.127  29.048  1.00  0.00     0.074 A 
ATOM     53  C   UNL A   1      40.110  33.075  32.246  1.00  0.00     0.029 A 
ATOM     54  N   UNL A   1      40.278  33.597  30.107  1.00  0.00    -0.354 N 
ATOM     55  N   UNL A   1      43.345  31.865  29.693  1.00  0.00    -0.248 NA
ATOM     56  C   UNL A   1      45.026  31.913  28.123  1.00  0.00     0.031 C 
ATOM     57  C   UNL A   1      41.462  33.445  31.956  1.00  0.00     0.029 A 
ATOM     58  C   UNL A   1      41.549  33.767  30.613  1.00  0.00     0.049 A 
ATOM     59  H   UNL A   1      40.031  33.782  29.172  1.00  0.00     0.167 HD
ATOM     60  C   UNL A   1      43.437  33.159  29.257  1.00  0.00     0.074 A 
ATOM     61  C   UNL A   1      44.503  33.141  28.271  1.00  0.00     0.031 C 
ATOM     62  C   UNL A   1      42.609  34.152  29.694  1.00  0.00     0.037 A 
BRANCH  49  63
ATOM     63  C   UNL A   1      36.766  33.202  31.153  1.00  0.00     0.064 A 
ATOM     64  C   UNL A   1      35.904  33.968  30.339  1.00  0.00     0.173 A 
ATOM     65  C   UNL A   1      36.357  33.091  32.502  1.00  0.00     0.173 A 
ATOM     66  F   UNL A   1      36.180  34.179  29.044  1.00  0.00    -0.203 F 
ATOM     67  C   UNL A   1      34.739  34.566  30.835  1.00  0.00     0.198 A 
ATOM     68  C   UNL A   1      35.164  33.639  32.979  1.00  0.00     0.198 A 
ATOM     69  F   UNL A   1      37.120  32.512  33.434  1.00  0.00    -0.203 F 
ATOM     70  F   UNL A   1      33.992  35.335  30.030  1.00  0.00    -0.200 F 
ATOM     71  C   UNL A   1      34.361  34.389  32.150  1.00  0.00     0.200 A 
ATOM     72  F   UNL A   1      34.821  33.458  34.264  1.00  0.00    -0.200 F 
ATOM     73  F   UNL A   1      33.245  34.957  32.624  1.00  0.00    -0.200 F 
ENDBRANCH  49  63
BRANCH  50  74
ATOM     74  C   UNL A   1      44.648  28.704  28.024  1.00  0.00     0.064 A 
ATOM     75  C   UNL A   1      45.472  27.592  28.295  1.00  0.00     0.173 A 
ATOM     76  C   UNL A   1      43.918  28.690  26.832  1.00  0.00     0.173 A 
ATOM     77  F   UNL A   1      46.195  27.551  29.426  1.00  0.00    -0.203 F 
ATOM     78  C   UNL A   1      45.463  26.466  27.475  1.00  0.00     0.198 A 
ATOM     79  C   UNL A   1      43.932  27.569  25.999  1.00  0.00     0.198 A 
ATOM     80  F   UNL A   1      43.095  29.703  26.525  1.00  0.00    -0.203 F 
ATOM     81  F   UNL A   1      46.159  25.377  27.829  1.00  0.00    -0.200 F 
ATOM     82  C   UNL A   1      44.672  26.446  26.341  1.00  0.00     0.200 A 
ATOM     83  F   UNL A   1      43.142  27.539  24.916  1.00  0.00    -0.200 F 
ATOM     84  F   UNL A   1      44.585  25.333  25.600  1.00  0.00    -0.200 F 
ENDBRANCH  50  74
BRANCH  62  85
ATOM     85  C   UNL A   1      42.722  35.577  29.229  1.00  0.00     0.064 A 
ATOM     86  C   UNL A   1      43.341  36.570  30.005  1.00  0.00     0.173 A 
ATOM     87  C   UNL A   1      42.122  36.013  28.029  1.00  0.00     0.173 A 
ATOM     88  F   UNL A   1      43.886  36.272  31.194  1.00  0.00    -0.203 F 
ATOM     89  C   UNL A   1      43.404  37.900  29.582  1.00  0.00     0.198 A 
ATOM     90  C   UNL A   1      42.139  37.350  27.636  1.00  0.00     0.198 A 
ATOM     91  F   UNL A   1      41.530  35.152  27.190  1.00  0.00    -0.203 F 
ATOM     92  F   UNL A   1      44.058  38.804  30.325  1.00  0.00    -0.200 F 
ATOM     93  C   UNL A   1      42.794  38.292  28.404  1.00  0.00     0.200 A 
ATOM     94  F   UNL A   1      41.526  37.718  26.501  1.00  0.00    -0.200 F 
ATOM     95  F   UNL A   1      42.839  39.571  28.009  1.00  0.00    -0.200 F 
ENDBRANCH  62  85
ENDBRANCH  36  37
ENDBRANCH  28  31
ENDBRANCH  26  27
ENDBRANCH  25  26
ENDBRANCH   1  25
TORSDOF 14
ENDMDL
MODEL 3
REMARK VINA RESULT:     -13.2      4.021     10.167
REMARK SMILES Cc1ccc(Nc2c(C)cccc2Cl)c(CC(=O)NCCCCNC(=O)c2ccc(-c3c4nc(c(-c5c(F)c(F)c(F)c(F)c5F)c5ccc([nH]5)c(-c5c(F)c(F)c(F)c(F)c5F)c5nc(c(-c6c(F)c(F)c(F)c(F)c6F)c6ccc3[nH]6)C=C5)C=C4)cc2)c1
REMARK SMILES IDX 21 1 20 2 19 3 17 4 18 5 16 7 15 8 1 9 2 10 3 11 90 12 4 13
REMARK SMILES IDX 5 14 6 15 7 17 8 18 13 19 9 20 10 21 12 22 14 23 11 24 22 25
REMARK SMILES IDX 23 26 24 27 25 28 26 30 27 31 28 32 89 33 29 34 88 35 30 36
REMARK SMILES IDX 31 37 32 38 82 39 33 40 87 41 81 42 83 43 34 44 86 45 80 46
REMARK SMILES IDX 79 47 35 49 67 50 47 51 66 52 48 53 51 54 65 55 84 56 49 57
REMARK SMILES IDX 50 58 64 60 85 61 52 62 36 63 37 64 45 65 38 66 39 67 43 68
REMARK SMILES IDX 46 69 40 70 41 71 44 72 42 73 68 74 69 75 77 76 70 77 71 78
REMARK SMILES IDX 75 79 78 80 72 81 73 82 76 83 74 84 53 85 54 86 62 87 55 88
REMARK SMILES IDX 56 89 60 90 63 91 57 92 58 93 61 94 59 95
REMARK H PARENT 19 6 6 16 24 29 83 48 51 59
REMARK Flexibility Score: inf
ROOT
ATOM      1  C   UNL A   1      37.373  21.824  24.226  1.00  0.00     0.023 C 
ENDROOT
BRANCH   1   2
ATOM      2  C   UNL A   1      35.915  22.311  24.238  1.00  0.00     0.116 C 
BRANCH   2   3
ATOM      3  N   UNL A   1      34.993  21.380  24.865  1.00  0.00    -0.356 N 
ATOM      4  C   UNL A   1      34.204  21.533  25.968  1.00  0.00     0.224 C 
ATOM      5  O   UNL A   1      33.564  20.557  26.365  1.00  0.00    -0.275 OA
ATOM      6  H   UNL A   1      34.927  20.501  24.427  1.00  0.00     0.163 HD
BRANCH   4   7
ATOM      7  C   UNL A   1      34.117  22.858  26.703  1.00  0.00     0.137 C 
BRANCH   7   8
ATOM      8  C   UNL A   1      32.771  23.533  26.576  1.00  0.00    -0.015 A 
ATOM      9  C   UNL A   1      29.162  22.535  27.350  1.00  0.00     0.044 C 
ATOM     10  C   UNL A   1      30.352  23.321  26.888  1.00  0.00    -0.051 A 
ATOM     11  C   UNL A   1      30.177  24.515  26.192  1.00  0.00     0.005 A 
ATOM     12  C   UNL A   1      31.650  22.855  27.104  1.00  0.00     0.009 A 
ATOM     13  C   UNL A   1      31.283  25.226  25.719  1.00  0.00     0.026 A 
ATOM     14  C   UNL A   1      32.596  24.757  25.893  1.00  0.00     0.042 A 
BRANCH  14  15
ATOM     15  N   UNL A   1      33.703  25.507  25.437  1.00  0.00    -0.354 N 
ATOM     16  H   UNL A   1      34.565  25.288  25.859  1.00  0.00     0.167 HD
BRANCH  15  17
ATOM     17  C   UNL A   1      33.748  26.532  24.459  1.00  0.00     0.060 A 
ATOM     18  C   UNL A   1      33.820  27.898  24.807  1.00  0.00    -0.026 A 
ATOM     19  C   UNL A   1      33.638  26.192  23.091  1.00  0.00     0.064 A 
ATOM     20  C   UNL A   1      34.003  28.370  26.225  1.00  0.00     0.046 C 
ATOM     21  C   UNL A   1      33.722  28.876  23.799  1.00  0.00     0.005 A 
ATOM     22  C   UNL A   1      33.568  27.175  22.101  1.00  0.00     0.023 A 
ATOM     23  Cl  UNL A   1      33.551  24.535  22.588  1.00  0.00    -0.082 Cl
ATOM     24  C   UNL A   1      33.596  28.518  22.458  1.00  0.00     0.002 A 
ENDBRANCH  15  17
ENDBRANCH  14  15
ENDBRANCH   7   8
ENDBRANCH   4   7
ENDBRANCH   2   3
ENDBRANCH   1   2
BRANCH   1  25
ATOM     25  C   UNL A   1      38.065  21.749  25.588  1.00  0.00     0.023 C 
BRANCH  25  26
ATOM     26  C   UNL A   1      38.563  23.091  26.097  1.00  0.00     0.116 C 
BRANCH  26  27
ATOM     27  N   UNL A   1      39.972  23.115  26.476  1.00  0.00    -0.352 N 
ATOM     28  C   UNL A   1      40.755  24.191  26.871  1.00  0.00     0.251 C 
ATOM     29  H   UNL A   1      40.432  22.246  26.446  1.00  0.00     0.163 HD
ATOM     30  O   UNL A   1      41.947  24.046  27.079  1.00  0.00    -0.269 OA
BRANCH  28  31
ATOM     31  C   UNL A   1      40.097  25.485  27.185  1.00  0.00     0.039 A 
ATOM     32  C   UNL A   1      40.465  26.600  26.423  1.00  0.00     0.014 A 
ATOM     33  C   UNL A   1      39.346  25.645  28.344  1.00  0.00     0.014 A 
ATOM     34  C   UNL A   1      40.333  27.871  26.975  1.00  0.00     0.010 A 
ATOM     35  C   UNL A   1      39.313  26.890  28.941  1.00  0.00     0.010 A 
ATOM     36  C   UNL A   1      39.891  27.984  28.290  1.00  0.00    -0.014 A 
BRANCH  36  37
ATOM     37  C   UNL A   1      40.128  29.160  29.116  1.00  0.00     0.031 A 
ATOM     38  C   UNL A   1      39.133  30.246  29.180  1.00  0.00     0.074 A 
ATOM     39  C   UNL A   1      41.218  29.188  29.920  1.00  0.00     0.049 A 
ATOM     40  N   UNL A   1      39.359  31.387  29.734  1.00  0.00    -0.248 NA
ATOM     41  C   UNL A   1      37.815  30.165  28.554  1.00  0.00     0.031 C 
ATOM     42  C   UNL A   1      41.481  30.083  31.046  1.00  0.00     0.029 A 
ATOM     43  N   UNL A   1      42.446  28.534  29.710  1.00  0.00    -0.354 N 
ATOM     44  C   UNL A   1      38.166  32.055  29.809  1.00  0.00     0.074 A 
ATOM     45  C   UNL A   1      37.274  31.325  28.945  1.00  0.00     0.031 C 
ATOM     46  C   UNL A   1      42.808  30.179  31.220  1.00  0.00     0.029 A 
ATOM     47  C   UNL A   1      43.431  29.471  30.118  1.00  0.00     0.049 A 
ATOM     48  H   UNL A   1      42.591  27.626  29.358  1.00  0.00     0.167 HD
ATOM     49  C   UNL A   1      38.052  33.078  30.700  1.00  0.00     0.037 A 
ATOM     50  C   UNL A   1      44.277  30.031  29.204  1.00  0.00     0.037 A 
ATOM     51  C   UNL A   1      39.370  33.549  31.134  1.00  0.00     0.049 A 
ATOM     52  C   UNL A   1      44.171  31.539  29.075  1.00  0.00     0.074 A 
ATOM     53  C   UNL A   1      40.109  33.515  32.302  1.00  0.00     0.029 A 
ATOM     54  N   UNL A   1      40.238  33.996  30.150  1.00  0.00    -0.354 N 
ATOM     55  N   UNL A   1      43.313  32.282  29.719  1.00  0.00    -0.248 NA
ATOM     56  C   UNL A   1      44.967  32.313  28.121  1.00  0.00     0.031 C 
ATOM     57  C   UNL A   1      41.453  33.892  31.981  1.00  0.00     0.029 A 
ATOM     58  C   UNL A   1      41.515  34.187  30.631  1.00  0.00     0.049 A 
ATOM     59  H   UNL A   1      39.973  34.160  29.215  1.00  0.00     0.167 HD
ATOM     60  C   UNL A   1      43.386  33.568  29.256  1.00  0.00     0.074 A 
ATOM     61  C   UNL A   1      44.435  33.539  28.253  1.00  0.00     0.031 C 
ATOM     62  C   UNL A   1      42.556  34.562  29.687  1.00  0.00     0.037 A 
BRANCH  49  63
ATOM     63  C   UNL A   1      36.747  33.592  31.263  1.00  0.00     0.064 A 
ATOM     64  C   UNL A   1      36.417  33.362  32.616  1.00  0.00     0.173 A 
ATOM     65  C   UNL A   1      35.723  34.201  30.502  1.00  0.00     0.173 A 
ATOM     66  F   UNL A   1      37.283  32.768  33.449  1.00  0.00    -0.203 F 
ATOM     67  C   UNL A   1      35.173  33.713  33.154  1.00  0.00     0.198 A 
ATOM     68  C   UNL A   1      34.505  34.603  31.056  1.00  0.00     0.198 A 
ATOM     69  F   UNL A   1      35.819  34.371  29.181  1.00  0.00    -0.203 F 
ATOM     70  F   UNL A   1      34.892  33.413  34.430  1.00  0.00    -0.200 F 
ATOM     71  C   UNL A   1      34.223  34.346  32.379  1.00  0.00     0.200 A 
ATOM     72  F   UNL A   1      33.594  35.212  30.281  1.00  0.00    -0.200 F 
ATOM     73  F   UNL A   1      33.034  34.685  32.895  1.00  0.00    -0.200 F 
ENDBRANCH  49  63
BRANCH  50  74
ATOM     74  C   UNL A   1      44.616  29.099  28.093  1.00  0.00     0.064 A 
ATOM     75  C   UNL A   1      45.467  28.009  28.369  1.00  0.00     0.173 A 
ATOM     76  C   UNL A   1      43.858  29.045  26.919  1.00  0.00     0.173 A 
ATOM     77  F   UNL A   1      46.217  28.007  29.482  1.00  0.00    -0.203 F 
ATOM     78  C   UNL A   1      45.459  26.865  27.574  1.00  0.00     0.198 A 
ATOM     79  C   UNL A   1      43.873  27.906  26.112  1.00  0.00     0.198 A 
ATOM     80  F   UNL A   1      43.010  30.036  26.609  1.00  0.00    -0.203 F 
ATOM     81  F   UNL A   1      46.183  25.796  27.936  1.00  0.00    -0.200 F 
ATOM     82  C   UNL A   1      44.640  26.805  26.461  1.00  0.00     0.200 A 
ATOM     83  F   UNL A   1      43.058  27.837  25.050  1.00  0.00    -0.200 F 
ATOM     84  F   UNL A   1      44.557  25.673  25.748  1.00  0.00    -0.200 F 
ENDBRANCH  50  74
BRANCH  62  85
ATOM     85  C   UNL A   1      42.649  35.979  29.191  1.00  0.00     0.064 A 
ATOM     86  C   UNL A   1      41.997  36.407  28.024  1.00  0.00     0.173 A 
ATOM     87  C   UNL A   1      43.480  36.929  29.822  1.00  0.00     0.173 A 
ATOM     88  F   UNL A   1      41.235  35.562  27.314  1.00  0.00    -0.203 F 
ATOM     89  C   UNL A   1      42.125  37.715  27.550  1.00  0.00     0.198 A 
ATOM     90  C   UNL A   1      43.648  38.217  29.316  1.00  0.00     0.198 A 
ATOM     91  F   UNL A   1      44.128  36.646  30.960  1.00  0.00    -0.203 F 
ATOM     92  F   UNL A   1      41.436  38.100  26.466  1.00  0.00    -0.200 F 
ATOM     93  C   UNL A   1      42.958  38.616  28.189  1.00  0.00     0.200 A 
ATOM     94  F   UNL A   1      44.474  39.072  29.935  1.00  0.00    -0.200 F 
ATOM     95  F   UNL A   1      43.093  39.864  27.723  1.00  0.00    -0.200 F 
ENDBRANCH  62  85
ENDBRANCH  36  37
ENDBRANCH  28  31
ENDBRANCH  26  27
ENDBRANCH  25  26
ENDBRANCH   1  25
TORSDOF 14
ENDMDL
