MODEL 1
REMARK VINA RESULT:     -12.3      0.000      0.000
REMARK SMILES O=C(COc1ccccc1/C=N/NC(=O)C1CC1)NCCCCNC(=O)c1ccc(-c2c3nc(c(-c4c(F)c(F)c(F)c(F)c4F)c4ccc([nH]4)c(-c4c(F)c(F)c(F)c(F)c4F)c4nc(c(-c5c(F)c(F)c(F)c(F)c5F)c5ccc2[nH]5)C=C4)C=C3)cc1
REMARK SMILES IDX 20 1 19 2 1 3 2 4 3 6 4 7 5 8 6 9 10 10 7 11 9 12 8 13 11 14
REMARK SMILES IDX 12 15 13 16 14 17 15 19 16 20 17 21 18 22 21 23 22 24 23 25
REMARK SMILES IDX 24 26 25 27 26 29 27 30 28 31 89 32 29 33 88 34 30 35 31 36
REMARK SMILES IDX 32 37 82 38 33 39 87 40 81 41 83 42 34 43 86 44 80 45 79 46
REMARK SMILES IDX 35 48 67 49 47 50 66 51 48 52 51 53 65 54 84 55 49 56 50 57
REMARK SMILES IDX 64 59 85 60 52 61 36 62 37 63 45 64 38 65 39 66 43 67 46 68
REMARK SMILES IDX 40 69 41 70 44 71 42 72 68 73 69 74 77 75 70 76 71 77 75 78
REMARK SMILES IDX 78 79 72 80 73 81 76 82 74 83 53 84 54 85 62 86 55 87 56 88
REMARK SMILES IDX 60 89 63 90 57 91 58 92 61 93 59 94
REMARK H PARENT 19 5 13 18 24 28 83 47 51 58
REMARK Flexibility Score: inf
ROOT
ATOM      1  C   UNL A   1      33.247  29.859  27.383  1.00  0.00     0.116 C 
ENDROOT
BRANCH   1   2
ATOM      2  N   UNL A   1      33.207  28.415  27.416  1.00  0.00    -0.353 N 
ATOM      3  O   UNL A   1      31.055  27.937  28.111  1.00  0.00    -0.271 OA
ATOM      4  C   UNL A   1      31.993  27.743  27.347  1.00  0.00     0.257 C 
ATOM      5  H   UNL A   1      34.047  27.905  27.487  1.00  0.00     0.163 HD
BRANCH   4   6
ATOM      6  C   UNL A   1      31.944  26.720  26.210  1.00  0.00     0.329 C 
BRANCH   6   7
ATOM      7  O   UNL A   1      32.293  27.437  25.016  1.00  0.00    -0.483 OA
BRANCH   7   8
ATOM      8  C   UNL A   1      32.281  26.680  23.881  1.00  0.00     0.128 A 
ATOM      9  C   UNL A   1      33.469  26.030  23.531  1.00  0.00     0.047 A 
ATOM     10  C   UNL A   1      31.244  26.769  22.946  1.00  0.00     0.037 A 
ATOM     11  C   UNL A   1      33.630  25.500  22.248  1.00  0.00     0.004 A 
ATOM     12  C   UNL A   1      31.425  26.268  21.650  1.00  0.00     0.013 A 
ATOM     13  C   UNL A   1      32.617  25.639  21.302  1.00  0.00     0.001 A 
BRANCH  10  14
ATOM     14  C   UNL A   1      29.927  27.385  23.174  1.00  0.00     0.145 C 
ATOM     15  N   UNL A   1      29.509  28.439  22.542  1.00  0.00    -0.181 NA
BRANCH  15  16
ATOM     16  N   UNL A   1      28.377  28.987  23.099  1.00  0.00    -0.247 N 
ATOM     17  C   UNL A   1      28.020  30.318  23.027  1.00  0.00     0.243 C 
ATOM     18  H   UNL A   1      27.775  28.382  23.586  1.00  0.00     0.193 HD
ATOM     19  O   UNL A   1      27.034  30.735  23.631  1.00  0.00    -0.273 OA
BRANCH  17  20
ATOM     20  C   UNL A   1      28.804  31.206  22.139  1.00  0.00     0.080 C 
ATOM     21  C   UNL A   1      28.213  31.757  20.861  1.00  0.00     0.014 C 
ATOM     22  C   UNL A   1      28.501  32.675  22.014  1.00  0.00     0.014 C 
ENDBRANCH  17  20
ENDBRANCH  15  16
ENDBRANCH  10  14
ENDBRANCH   7   8
ENDBRANCH   6   7
ENDBRANCH   4   6
ENDBRANCH   1   2
BRANCH   1  23
ATOM     23  C   UNL A   1      32.274  30.563  26.454  1.00  0.00     0.023 C 
BRANCH  23  24
ATOM     24  C   UNL A   1      31.779  31.910  26.955  1.00  0.00     0.023 C 
BRANCH  24  25
ATOM     25  C   UNL A   1      32.861  32.851  27.456  1.00  0.00     0.116 C 
BRANCH  25  26
ATOM     26  N   UNL A   1      32.410  34.211  27.718  1.00  0.00    -0.352 N 
ATOM     27  C   UNL A   1      32.955  35.100  28.624  1.00  0.00     0.251 C 
ATOM     28  H   UNL A   1      31.639  34.529  27.196  1.00  0.00     0.163 HD
ATOM     29  O   UNL A   1      32.473  36.202  28.821  1.00  0.00    -0.269 OA
BRANCH  27  30
ATOM     30  C   UNL A   1      34.131  34.644  29.398  1.00  0.00     0.039 A 
ATOM     31  C   UNL A   1      33.931  34.057  30.649  1.00  0.00     0.014 A 
ATOM     32  C   UNL A   1      35.394  34.651  28.801  1.00  0.00     0.014 A 
ATOM     33  C   UNL A   1      34.991  33.397  31.269  1.00  0.00     0.010 A 
ATOM     34  C   UNL A   1      36.424  33.924  29.382  1.00  0.00     0.010 A 
ATOM     35  C   UNL A   1      36.232  33.283  30.618  1.00  0.00    -0.014 A 
BRANCH  35  36
ATOM     36  C   UNL A   1      37.347  32.501  31.208  1.00  0.00     0.031 A 
ATOM     37  C   UNL A   1      37.853  32.847  32.578  1.00  0.00     0.074 A 
ATOM     38  C   UNL A   1      37.956  31.543  30.482  1.00  0.00     0.049 A 
ATOM     39  N   UNL A   1      38.874  32.358  33.234  1.00  0.00    -0.248 NA
ATOM     40  C   UNL A   1      37.138  33.916  33.293  1.00  0.00     0.031 C 
ATOM     41  C   UNL A   1      37.602  31.159  29.114  1.00  0.00     0.029 A 
ATOM     42  N   UNL A   1      39.016  30.724  30.791  1.00  0.00    -0.354 N 
ATOM     43  C   UNL A   1      38.935  33.072  34.423  1.00  0.00     0.074 A 
ATOM     44  C   UNL A   1      37.887  34.068  34.373  1.00  0.00     0.031 C 
ATOM     45  C   UNL A   1      38.413  30.166  28.712  1.00  0.00     0.029 A 
ATOM     46  C   UNL A   1      39.363  29.864  29.779  1.00  0.00     0.049 A 
ATOM     47  H   UNL A   1      39.482  30.752  31.658  1.00  0.00     0.167 HD
ATOM     48  C   UNL A   1      39.769  32.895  35.475  1.00  0.00     0.037 A 
ATOM     49  C   UNL A   1      40.340  28.939  29.719  1.00  0.00     0.037 A 
ATOM     50  C   UNL A   1      40.782  31.877  35.538  1.00  0.00     0.049 A 
ATOM     51  C   UNL A   1      41.232  28.737  30.914  1.00  0.00     0.074 A 
ATOM     52  C   UNL A   1      41.637  31.572  36.582  1.00  0.00     0.029 A 
ATOM     53  N   UNL A   1      41.070  30.990  34.511  1.00  0.00    -0.354 N 
ATOM     54  N   UNL A   1      41.236  29.374  32.060  1.00  0.00    -0.248 NA
ATOM     55  C   UNL A   1      42.250  27.681  30.812  1.00  0.00     0.031 C 
ATOM     56  C   UNL A   1      42.465  30.521  36.175  1.00  0.00     0.029 A 
ATOM     57  C   UNL A   1      42.097  30.143  34.893  1.00  0.00     0.049 A 
ATOM     58  H   UNL A   1      40.613  30.966  33.640  1.00  0.00     0.167 HD
ATOM     59  C   UNL A   1      42.234  28.783  32.823  1.00  0.00     0.074 A 
ATOM     60  C   UNL A   1      42.806  27.725  32.015  1.00  0.00     0.031 C 
ATOM     61  C   UNL A   1      42.643  29.089  34.078  1.00  0.00     0.037 A 
BRANCH  48  62
ATOM     62  C   UNL A   1      39.603  33.815  36.646  1.00  0.00     0.064 A 
ATOM     63  C   UNL A   1      38.825  33.454  37.758  1.00  0.00     0.173 A 
ATOM     64  C   UNL A   1      40.240  35.065  36.670  1.00  0.00     0.173 A 
ATOM     65  F   UNL A   1      38.182  32.277  37.778  1.00  0.00    -0.203 F 
ATOM     66  C   UNL A   1      38.664  34.325  38.832  1.00  0.00     0.198 A 
ATOM     67  C   UNL A   1      40.100  35.919  37.760  1.00  0.00     0.198 A 
ATOM     68  F   UNL A   1      40.997  35.458  35.634  1.00  0.00    -0.203 F 
ATOM     69  F   UNL A   1      37.869  33.981  39.856  1.00  0.00    -0.200 F 
ATOM     70  C   UNL A   1      39.305  35.553  38.836  1.00  0.00     0.200 A 
ATOM     71  F   UNL A   1      40.728  37.103  37.765  1.00  0.00    -0.200 F 
ATOM     72  F   UNL A   1      39.150  36.389  39.872  1.00  0.00    -0.200 F 
ENDBRANCH  48  62
BRANCH  49  73
ATOM     73  C   UNL A   1      40.503  28.106  28.499  1.00  0.00     0.064 A 
ATOM     74  C   UNL A   1      39.884  26.851  28.399  1.00  0.00     0.173 A 
ATOM     75  C   UNL A   1      41.280  28.538  27.416  1.00  0.00     0.173 A 
ATOM     76  F   UNL A   1      39.148  26.385  29.419  1.00  0.00    -0.203 F 
ATOM     77  C   UNL A   1      40.053  26.054  27.269  1.00  0.00     0.198 A 
ATOM     78  C   UNL A   1      41.428  27.751  26.276  1.00  0.00     0.198 A 
ATOM     79  F   UNL A   1      41.889  29.732  27.461  1.00  0.00    -0.203 F 
ATOM     80  F   UNL A   1      39.486  24.840  27.218  1.00  0.00    -0.200 F 
ATOM     81  C   UNL A   1      40.820  26.506  26.206  1.00  0.00     0.200 A 
ATOM     82  F   UNL A   1      42.162  28.195  25.246  1.00  0.00    -0.200 F 
ATOM     83  F   UNL A   1      40.981  25.739  25.120  1.00  0.00    -0.200 F 
ENDBRANCH  49  73
BRANCH  61  84
ATOM     84  C   UNL A   1      43.736  28.250  34.668  1.00  0.00     0.064 A 
ATOM     85  C   UNL A   1      43.462  27.041  35.322  1.00  0.00     0.173 A 
ATOM     86  C   UNL A   1      45.078  28.636  34.533  1.00  0.00     0.173 A 
ATOM     87  F   UNL A   1      42.193  26.637  35.488  1.00  0.00    -0.203 F 
ATOM     88  C   UNL A   1      44.490  26.259  35.839  1.00  0.00     0.198 A 
ATOM     89  C   UNL A   1      46.106  27.839  35.027  1.00  0.00     0.198 A 
ATOM     90  F   UNL A   1      45.392  29.782  33.909  1.00  0.00    -0.203 F 
ATOM     91  F   UNL A   1      44.203  25.126  36.495  1.00  0.00    -0.200 F 
ATOM     92  C   UNL A   1      45.811  26.653  35.684  1.00  0.00     0.200 A 
ATOM     93  F   UNL A   1      47.382  28.217  34.866  1.00  0.00    -0.200 F 
ATOM     94  F   UNL A   1      46.801  25.894  36.174  1.00  0.00    -0.200 F 
ENDBRANCH  61  84
ENDBRANCH  35  36
ENDBRANCH  27  30
ENDBRANCH  25  26
ENDBRANCH  24  25
ENDBRANCH  23  24
ENDBRANCH   1  23
TORSDOF 16
ENDMDL
MODEL 2
REMARK VINA RESULT:     -12.3      5.192      9.422
REMARK SMILES O=C(COc1ccccc1/C=N/NC(=O)C1CC1)NCCCCNC(=O)c1ccc(-c2c3nc(c(-c4c(F)c(F)c(F)c(F)c4F)c4ccc([nH]4)c(-c4c(F)c(F)c(F)c(F)c4F)c4nc(c(-c5c(F)c(F)c(F)c(F)c5F)c5ccc2[nH]5)C=C4)C=C3)cc1
REMARK SMILES IDX 20 1 19 2 1 3 2 4 3 6 4 7 5 8 6 9 10 10 7 11 9 12 8 13 11 14
REMARK SMILES IDX 12 15 13 16 14 17 15 19 16 20 17 21 18 22 21 23 22 24 23 25
REMARK SMILES IDX 24 26 25 27 26 29 27 30 28 31 89 32 29 33 88 34 30 35 31 36
REMARK SMILES IDX 32 37 82 38 33 39 87 40 81 41 83 42 34 43 86 44 80 45 79 46
REMARK SMILES IDX 35 48 67 49 47 50 66 51 48 52 51 53 65 54 84 55 49 56 50 57
REMARK SMILES IDX 64 59 85 60 52 61 36 62 37 63 45 64 38 65 39 66 43 67 46 68
REMARK SMILES IDX 40 69 41 70 44 71 42 72 68 73 69 74 77 75 70 76 71 77 75 78
REMARK SMILES IDX 78 79 72 80 73 81 76 82 74 83 53 84 54 85 62 86 55 87 56 88
REMARK SMILES IDX 60 89 63 90 57 91 58 92 61 93 59 94
REMARK H PARENT 19 5 13 18 24 28 83 47 51 58
REMARK Flexibility Score: inf
ROOT
ATOM      1  C   UNL A   1      35.993  23.010  25.275  1.00  0.00     0.116 C 
ENDROOT
BRANCH   1   2
ATOM      2  N   UNL A   1      35.526  24.296  24.813  1.00  0.00    -0.353 N 
ATOM      3  O   UNL A   1      34.578  23.835  22.757  1.00  0.00    -0.271 OA
ATOM      4  C   UNL A   1      34.525  24.379  23.853  1.00  0.00     0.257 C 
ATOM      5  H   UNL A   1      35.920  25.120  25.183  1.00  0.00     0.163 HD
BRANCH   4   6
ATOM      6  C   UNL A   1      33.336  25.230  24.306  1.00  0.00     0.329 C 
BRANCH   6   7
ATOM      7  O   UNL A   1      33.641  26.577  23.914  1.00  0.00    -0.483 OA
BRANCH   7   8
ATOM      8  C   UNL A   1      33.297  27.522  24.835  1.00  0.00     0.128 A 
ATOM      9  C   UNL A   1      33.914  27.452  26.088  1.00  0.00     0.047 A 
ATOM     10  C   UNL A   1      32.179  28.345  24.664  1.00  0.00     0.037 A 
ATOM     11  C   UNL A   1      33.400  28.174  27.168  1.00  0.00     0.004 A 
ATOM     12  C   UNL A   1      31.646  29.039  25.758  1.00  0.00     0.013 A 
ATOM     13  C   UNL A   1      32.254  28.950  27.008  1.00  0.00     0.001 A 
BRANCH  10  14
ATOM     14  C   UNL A   1      31.445  28.554  23.405  1.00  0.00     0.145 C 
ATOM     15  N   UNL A   1      31.539  29.634  22.691  1.00  0.00    -0.181 NA
BRANCH  15  16
ATOM     16  N   UNL A   1      30.577  29.717  21.713  1.00  0.00    -0.247 N 
ATOM     17  C   UNL A   1      29.296  30.198  21.895  1.00  0.00     0.243 C 
ATOM     18  H   UNL A   1      30.821  29.410  20.811  1.00  0.00     0.193 HD
ATOM     19  O   UNL A   1      28.474  30.153  20.982  1.00  0.00    -0.273 OA
BRANCH  17  20
ATOM     20  C   UNL A   1      28.968  30.842  23.187  1.00  0.00     0.080 C 
ATOM     21  C   UNL A   1      28.679  32.324  23.272  1.00  0.00     0.014 C 
ATOM     22  C   UNL A   1      27.580  31.328  23.504  1.00  0.00     0.014 C 
ENDBRANCH  17  20
ENDBRANCH  15  16
ENDBRANCH  10  14
ENDBRANCH   7   8
ENDBRANCH   6   7
ENDBRANCH   4   6
ENDBRANCH   1   2
BRANCH   1  23
ATOM     23  C   UNL A   1      37.230  22.436  24.607  1.00  0.00     0.023 C 
BRANCH  23  24
ATOM     24  C   UNL A   1      37.681  21.090  25.153  1.00  0.00     0.023 C 
BRANCH  24  25
ATOM     25  C   UNL A   1      39.036  21.094  25.841  1.00  0.00     0.116 C 
BRANCH  25  26
ATOM     26  N   UNL A   1      39.757  19.830  25.769  1.00  0.00    -0.352 N 
ATOM     27  C   UNL A   1      41.097  19.629  26.042  1.00  0.00     0.251 C 
ATOM     28  H   UNL A   1      39.238  19.040  25.498  1.00  0.00     0.163 HD
ATOM     29  O   UNL A   1      41.632  18.544  25.897  1.00  0.00    -0.269 OA
BRANCH  27  30
ATOM     30  C   UNL A   1      41.884  20.805  26.474  1.00  0.00     0.039 A 
ATOM     31  C   UNL A   1      42.367  21.688  25.507  1.00  0.00     0.014 A 
ATOM     32  C   UNL A   1      41.988  21.102  27.836  1.00  0.00     0.014 A 
ATOM     33  C   UNL A   1      42.882  22.921  25.907  1.00  0.00     0.010 A 
ATOM     34  C   UNL A   1      42.425  22.361  28.224  1.00  0.00     0.010 A 
ATOM     35  C   UNL A   1      42.869  23.287  27.264  1.00  0.00    -0.014 A 
BRANCH  35  36
ATOM     36  C   UNL A   1      43.318  24.630  27.708  1.00  0.00     0.031 A 
ATOM     37  C   UNL A   1      42.297  25.678  28.049  1.00  0.00     0.074 A 
ATOM     38  C   UNL A   1      44.630  24.933  27.722  1.00  0.00     0.049 A 
ATOM     39  N   UNL A   1      42.472  26.936  28.362  1.00  0.00    -0.248 NA
ATOM     40  C   UNL A   1      40.886  25.264  27.994  1.00  0.00     0.031 C 
ATOM     41  C   UNL A   1      45.715  24.024  27.348  1.00  0.00     0.029 A 
ATOM     42  N   UNL A   1      45.276  26.100  28.052  1.00  0.00    -0.354 N 
ATOM     43  C   UNL A   1      41.199  27.466  28.518  1.00  0.00     0.074 A 
ATOM     44  C   UNL A   1      40.259  26.410  28.207  1.00  0.00     0.031 C 
ATOM     45  C   UNL A   1      46.891  24.659  27.491  1.00  0.00     0.029 A 
ATOM     46  C   UNL A   1      46.642  26.027  27.937  1.00  0.00     0.049 A 
ATOM     47  H   UNL A   1      44.802  26.912  28.345  1.00  0.00     0.167 HD
ATOM     48  C   UNL A   1      40.842  28.711  28.914  1.00  0.00     0.037 A 
ATOM     49  C   UNL A   1      47.586  26.961  28.164  1.00  0.00     0.037 A 
ATOM     50  C   UNL A   1      41.778  29.745  29.262  1.00  0.00     0.049 A 
ATOM     51  C   UNL A   1      47.167  28.327  28.636  1.00  0.00     0.074 A 
ATOM     52  C   UNL A   1      41.522  31.019  29.735  1.00  0.00     0.029 A 
ATOM     53  N   UNL A   1      43.158  29.616  29.182  1.00  0.00    -0.354 N 
ATOM     54  N   UNL A   1      45.961  28.796  28.844  1.00  0.00    -0.248 NA
ATOM     55  C   UNL A   1      48.241  29.291  28.914  1.00  0.00     0.031 C 
ATOM     56  C   UNL A   1      42.745  31.673  29.911  1.00  0.00     0.029 A 
ATOM     57  C   UNL A   1      43.765  30.793  29.587  1.00  0.00     0.049 A 
ATOM     58  H   UNL A   1      43.633  28.809  28.880  1.00  0.00     0.167 HD
ATOM     59  C   UNL A   1      46.129  30.096  29.301  1.00  0.00     0.074 A 
ATOM     60  C   UNL A   1      47.557  30.338  29.353  1.00  0.00     0.031 C 
ATOM     61  C   UNL A   1      45.188  31.008  29.643  1.00  0.00     0.037 A 
BRANCH  48  62
ATOM     62  C   UNL A   1      39.376  29.010  29.005  1.00  0.00     0.064 A 
ATOM     63  C   UNL A   1      38.685  28.922  30.223  1.00  0.00     0.173 A 
ATOM     64  C   UNL A   1      38.655  29.404  27.868  1.00  0.00     0.173 A 
ATOM     65  F   UNL A   1      39.325  28.534  31.336  1.00  0.00    -0.203 F 
ATOM     66  C   UNL A   1      37.319  29.186  30.293  1.00  0.00     0.198 A 
ATOM     67  C   UNL A   1      37.296  29.696  27.948  1.00  0.00     0.198 A 
ATOM     68  F   UNL A   1      39.268  29.506  26.679  1.00  0.00    -0.203 F 
ATOM     69  F   UNL A   1      36.669  29.040  31.456  1.00  0.00    -0.200 F 
ATOM     70  C   UNL A   1      36.628  29.578  29.158  1.00  0.00     0.200 A 
ATOM     71  F   UNL A   1      36.631  30.083  26.851  1.00  0.00    -0.200 F 
ATOM     72  F   UNL A   1      35.313  29.832  29.226  1.00  0.00    -0.200 F 
ENDBRANCH  48  62
BRANCH  49  73
ATOM     73  C   UNL A   1      49.023  26.626  27.983  1.00  0.00     0.064 A 
ATOM     74  C   UNL A   1      49.592  26.574  26.703  1.00  0.00     0.173 A 
ATOM     75  C   UNL A   1      49.852  26.345  29.078  1.00  0.00     0.173 A 
ATOM     76  F   UNL A   1      48.832  26.812  25.623  1.00  0.00    -0.203 F 
ATOM     77  C   UNL A   1      50.932  26.235  26.524  1.00  0.00     0.198 A 
ATOM     78  C   UNL A   1      51.198  26.032  28.900  1.00  0.00     0.198 A 
ATOM     79  F   UNL A   1      49.356  26.386  30.323  1.00  0.00    -0.203 F 
ATOM     80  F   UNL A   1      51.439  26.150  25.286  1.00  0.00    -0.200 F 
ATOM     81  C   UNL A   1      51.735  25.970  27.622  1.00  0.00     0.200 A 
ATOM     82  F   UNL A   1      51.974  25.785  29.964  1.00  0.00    -0.200 F 
ATOM     83  F   UNL A   1      53.023  25.645  27.449  1.00  0.00    -0.200 F 
ENDBRANCH  49  73
BRANCH  61  84
ATOM     84  C   UNL A   1      45.669  32.340  30.136  1.00  0.00     0.064 A 
ATOM     85  C   UNL A   1      45.849  33.424  29.265  1.00  0.00     0.173 A 
ATOM     86  C   UNL A   1      45.904  32.546  31.504  1.00  0.00     0.173 A 
ATOM     87  F   UNL A   1      45.650  33.271  27.948  1.00  0.00    -0.203 F 
ATOM     88  C   UNL A   1      46.268  34.662  29.743  1.00  0.00     0.198 A 
ATOM     89  C   UNL A   1      46.298  33.793  31.982  1.00  0.00     0.198 A 
ATOM     90  F   UNL A   1      45.740  31.542  32.378  1.00  0.00    -0.203 F 
ATOM     91  F   UNL A   1      46.472  35.674  28.889  1.00  0.00    -0.200 F 
ATOM     92  C   UNL A   1      46.484  34.848  31.101  1.00  0.00     0.200 A 
ATOM     93  F   UNL A   1      46.495  33.974  33.295  1.00  0.00    -0.200 F 
ATOM     94  F   UNL A   1      46.879  36.043  31.561  1.00  0.00    -0.200 F 
ENDBRANCH  61  84
ENDBRANCH  35  36
ENDBRANCH  27  30
ENDBRANCH  25  26
ENDBRANCH  24  25
ENDBRANCH  23  24
ENDBRANCH   1  23
TORSDOF 16
ENDMDL
MODEL 3
REMARK VINA RESULT:     -12.1      7.014     12.361
REMARK SMILES O=C(COc1ccccc1/C=N/NC(=O)C1CC1)NCCCCNC(=O)c1ccc(-c2c3nc(c(-c4c(F)c(F)c(F)c(F)c4F)c4ccc([nH]4)c(-c4c(F)c(F)c(F)c(F)c4F)c4nc(c(-c5c(F)c(F)c(F)c(F)c5F)c5ccc2[nH]5)C=C4)C=C3)cc1
REMARK SMILES IDX 20 1 19 2 1 3 2 4 3 6 4 7 5 8 6 9 10 10 7 11 9 12 8 13 11 14
REMARK SMILES IDX 12 15 13 16 14 17 15 19 16 20 17 21 18 22 21 23 22 24 23 25
REMARK SMILES IDX 24 26 25 27 26 29 27 30 28 31 89 32 29 33 88 34 30 35 31 36
REMARK SMILES IDX 32 37 82 38 33 39 87 40 81 41 83 42 34 43 86 44 80 45 79 46
REMARK SMILES IDX 35 48 67 49 47 50 66 51 48 52 51 53 65 54 84 55 49 56 50 57
REMARK SMILES IDX 64 59 85 60 52 61 36 62 37 63 45 64 38 65 39 66 43 67 46 68
REMARK SMILES IDX 40 69 41 70 44 71 42 72 68 73 69 74 77 75 70 76 71 77 75 78
REMARK SMILES IDX 78 79 72 80 73 81 76 82 74 83 53 84 54 85 62 86 55 87 56 88
REMARK SMILES IDX 60 89 63 90 57 91 58 92 61 93 59 94
REMARK H PARENT 19 5 13 18 24 28 83 47 51 58
REMARK Flexibility Score: inf
ROOT
ATOM      1  C   UNL A   1      40.011  22.279  26.811  1.00  0.00     0.116 C 
ENDROOT
BRANCH   1   2
ATOM      2  N   UNL A   1      39.095  22.819  25.833  1.00  0.00    -0.353 N 
ATOM      3  O   UNL A   1      37.752  21.020  25.281  1.00  0.00    -0.271 OA
ATOM      4  C   UNL A   1      37.875  22.199  25.594  1.00  0.00     0.257 C 
ATOM      5  H   UNL A   1      39.338  23.632  25.333  1.00  0.00     0.163 HD
BRANCH   4   6
ATOM      6  C   UNL A   1      36.684  23.147  25.757  1.00  0.00     0.329 C 
BRANCH   6   7
ATOM      7  O   UNL A   1      35.585  22.523  25.078  1.00  0.00    -0.483 OA
BRANCH   7   8
ATOM      8  C   UNL A   1      34.356  22.958  25.480  1.00  0.00     0.128 A 
ATOM      9  C   UNL A   1      34.123  24.337  25.450  1.00  0.00     0.047 A 
ATOM     10  C   UNL A   1      33.466  22.125  26.166  1.00  0.00     0.037 A 
ATOM     11  C   UNL A   1      33.027  24.881  26.124  1.00  0.00     0.004 A 
ATOM     12  C   UNL A   1      32.389  22.679  26.870  1.00  0.00     0.013 A 
ATOM     13  C   UNL A   1      32.173  24.055  26.852  1.00  0.00     0.001 A 
BRANCH  10  14
ATOM     14  C   UNL A   1      33.553  20.659  26.258  1.00  0.00     0.145 C 
ATOM     15  N   UNL A   1      32.700  19.854  25.702  1.00  0.00    -0.181 NA
BRANCH  15  16
ATOM     16  N   UNL A   1      32.824  18.555  26.136  1.00  0.00    -0.247 N 
ATOM     17  C   UNL A   1      33.245  17.493  25.361  1.00  0.00     0.243 C 
ATOM     18  H   UNL A   1      32.596  18.368  27.075  1.00  0.00     0.193 HD
ATOM     19  O   UNL A   1      33.241  16.349  25.810  1.00  0.00    -0.273 OA
BRANCH  17  20
ATOM     20  C   UNL A   1      33.778  17.782  24.010  1.00  0.00     0.080 C 
ATOM     21  C   UNL A   1      34.027  16.674  23.013  1.00  0.00     0.014 C 
ATOM     22  C   UNL A   1      32.924  17.664  22.777  1.00  0.00     0.014 C 
ENDBRANCH  17  20
ENDBRANCH  15  16
ENDBRANCH  10  14
ENDBRANCH   7   8
ENDBRANCH   6   7
ENDBRANCH   4   6
ENDBRANCH   1   2
BRANCH   1  23
ATOM     23  C   UNL A   1      41.363  21.801  26.312  1.00  0.00     0.023 C 
BRANCH  23  24
ATOM     24  C   UNL A   1      41.463  20.300  26.089  1.00  0.00     0.023 C 
BRANCH  24  25
ATOM     25  C   UNL A   1      42.817  19.688  26.410  1.00  0.00     0.116 C 
BRANCH  25  26
ATOM     26  N   UNL A   1      43.443  18.984  25.299  1.00  0.00    -0.352 N 
ATOM     27  C   UNL A   1      44.389  19.491  24.430  1.00  0.00     0.251 C 
ATOM     28  H   UNL A   1      43.164  18.051  25.154  1.00  0.00     0.163 HD
ATOM     29  O   UNL A   1      44.816  18.846  23.488  1.00  0.00    -0.269 OA
BRANCH  27  30
ATOM     30  C   UNL A   1      44.836  20.883  24.653  1.00  0.00     0.039 A 
ATOM     31  C   UNL A   1      44.309  21.899  23.852  1.00  0.00     0.014 A 
ATOM     32  C   UNL A   1      45.640  21.182  25.756  1.00  0.00     0.014 A 
ATOM     33  C   UNL A   1      44.520  23.230  24.213  1.00  0.00     0.010 A 
ATOM     34  C   UNL A   1      45.779  22.504  26.157  1.00  0.00     0.010 A 
ATOM     35  C   UNL A   1      45.215  23.541  25.395  1.00  0.00    -0.014 A 
BRANCH  35  36
ATOM     36  C   UNL A   1      45.368  24.943  25.856  1.00  0.00     0.031 A 
ATOM     37  C   UNL A   1      46.714  25.605  25.786  1.00  0.00     0.074 A 
ATOM     38  C   UNL A   1      44.325  25.587  26.415  1.00  0.00     0.049 A 
ATOM     39  N   UNL A   1      47.085  26.781  26.223  1.00  0.00    -0.248 NA
ATOM     40  C   UNL A   1      47.801  24.823  25.174  1.00  0.00     0.031 C 
ATOM     41  C   UNL A   1      42.984  25.029  26.603  1.00  0.00     0.029 A 
ATOM     42  N   UNL A   1      44.233  26.853  26.942  1.00  0.00    -0.354 N 
ATOM     43  C   UNL A   1      48.445  26.869  25.960  1.00  0.00     0.074 A 
ATOM     44  C   UNL A   1      48.848  25.605  25.381  1.00  0.00     0.031 C 
ATOM     45  C   UNL A   1      42.199  25.954  27.181  1.00  0.00     0.029 A 
ATOM     46  C   UNL A   1      42.987  27.158  27.432  1.00  0.00     0.049 A 
ATOM     47  H   UNL A   1      44.990  27.482  26.965  1.00  0.00     0.167 HD
ATOM     48  C   UNL A   1      49.279  27.918  26.156  1.00  0.00     0.037 A 
ATOM     49  C   UNL A   1      42.534  28.282  28.019  1.00  0.00     0.037 A 
ATOM     50  C   UNL A   1      48.867  29.185  26.694  1.00  0.00     0.049 A 
ATOM     51  C   UNL A   1      43.471  29.446  28.195  1.00  0.00     0.074 A 
ATOM     52  C   UNL A   1      49.618  30.333  26.874  1.00  0.00     0.029 A 
ATOM     53  N   UNL A   1      47.582  29.474  27.132  1.00  0.00    -0.354 N 
ATOM     54  N   UNL A   1      44.740  29.541  27.880  1.00  0.00    -0.248 NA
ATOM     55  C   UNL A   1      42.910  30.664  28.797  1.00  0.00     0.031 C 
ATOM     56  C   UNL A   1      48.796  31.307  27.450  1.00  0.00     0.029 A 
ATOM     57  C   UNL A   1      47.523  30.779  27.591  1.00  0.00     0.049 A 
ATOM     58  H   UNL A   1      46.826  28.844  27.119  1.00  0.00     0.167 HD
ATOM     59  C   UNL A   1      45.124  30.831  28.221  1.00  0.00     0.074 A 
ATOM     60  C   UNL A   1      43.948  31.488  28.755  1.00  0.00     0.031 C 
ATOM     61  C   UNL A   1      46.340  31.417  28.106  1.00  0.00     0.037 A 
BRANCH  48  62
ATOM     62  C   UNL A   1      50.715  27.735  25.768  1.00  0.00     0.064 A 
ATOM     63  C   UNL A   1      51.694  27.399  26.716  1.00  0.00     0.173 A 
ATOM     64  C   UNL A   1      51.119  27.882  24.433  1.00  0.00     0.173 A 
ATOM     65  F   UNL A   1      51.363  27.263  28.009  1.00  0.00    -0.203 F 
ATOM     66  C   UNL A   1      53.028  27.249  26.347  1.00  0.00     0.198 A 
ATOM     67  C   UNL A   1      52.449  27.702  24.063  1.00  0.00     0.198 A 
ATOM     68  F   UNL A   1      50.224  28.201  23.486  1.00  0.00    -0.203 F 
ATOM     69  F   UNL A   1      53.954  26.985  27.280  1.00  0.00    -0.200 F 
ATOM     70  C   UNL A   1      53.404  27.395  25.021  1.00  0.00     0.200 A 
ATOM     71  F   UNL A   1      52.809  27.835  22.779  1.00  0.00    -0.200 F 
ATOM     72  F   UNL A   1      54.688  27.250  24.667  1.00  0.00    -0.200 F 
ENDBRANCH  48  62
BRANCH  49  73
ATOM     73  C   UNL A   1      41.115  28.376  28.452  1.00  0.00     0.064 A 
ATOM     74  C   UNL A   1      40.136  28.895  27.592  1.00  0.00     0.173 A 
ATOM     75  C   UNL A   1      40.709  27.958  29.726  1.00  0.00     0.173 A 
ATOM     76  F   UNL A   1      40.481  29.328  26.370  1.00  0.00    -0.203 F 
ATOM     77  C   UNL A   1      38.808  29.010  27.999  1.00  0.00     0.198 A 
ATOM     78  C   UNL A   1      39.377  28.050  30.124  1.00  0.00     0.198 A 
ATOM     79  F   UNL A   1      41.606  27.451  30.584  1.00  0.00    -0.203 F 
ATOM     80  F   UNL A   1      37.902  29.551  27.174  1.00  0.00    -0.200 F 
ATOM     81  C   UNL A   1      38.428  28.583  29.262  1.00  0.00     0.200 A 
ATOM     82  F   UNL A   1      39.010  27.627  31.341  1.00  0.00    -0.200 F 
ATOM     83  F   UNL A   1      37.152  28.693  29.653  1.00  0.00    -0.200 F 
ENDBRANCH  49  73
BRANCH  61  84
ATOM     84  C   UNL A   1      46.454  32.851  28.533  1.00  0.00     0.064 A 
ATOM     85  C   UNL A   1      46.819  33.200  29.841  1.00  0.00     0.173 A 
ATOM     86  C   UNL A   1      46.244  33.884  27.609  1.00  0.00     0.173 A 
ATOM     87  F   UNL A   1      47.017  32.246  30.763  1.00  0.00    -0.203 F 
ATOM     88  C   UNL A   1      46.950  34.534  30.213  1.00  0.00     0.198 A 
ATOM     89  C   UNL A   1      46.401  35.217  27.977  1.00  0.00     0.198 A 
ATOM     90  F   UNL A   1      45.899  33.601  26.343  1.00  0.00    -0.203 F 
ATOM     91  F   UNL A   1      47.262  34.847  31.478  1.00  0.00    -0.200 F 
ATOM     92  C   UNL A   1      46.749  35.541  29.280  1.00  0.00     0.200 A 
ATOM     93  F   UNL A   1      46.218  36.188  27.072  1.00  0.00    -0.200 F 
ATOM     94  F   UNL A   1      46.884  36.825  29.639  1.00  0.00    -0.200 F 
ENDBRANCH  61  84
ENDBRANCH  35  36
ENDBRANCH  27  30
ENDBRANCH  25  26
ENDBRANCH  24  25
ENDBRANCH  23  24
ENDBRANCH   1  23
TORSDOF 16
ENDMDL
