MODEL 1
REMARK VINA RESULT:     -12.0      0.000      0.000
REMARK SMILES C[C@@H]1C[N@@H+](C[C@]2(C(=O)NCCCCNC(=O)c3ccc(-c4c5nc(c(-c6c(F)c(F)c(F)c(F)c6F)c6ccc([nH]6)c(-c6c(F)c(F)c(F)c(F)c6F)c6nc(c(-c7c(F)c(F)c(F)c(F)c7F)c7ccc4[nH]7)C=C6)C=C5)cc3)CCOC2)C[C@@H]1C
REMARK SMILES IDX 11 1 10 2 9 3 7 4 8 5 6 7 80 8 83 9 81 10 82 11 5 12 4 13
REMARK SMILES IDX 1 14 2 15 3 16 85 17 84 18 86 19 12 21 13 22 14 23 15 24
REMARK SMILES IDX 16 26 17 27 18 28 79 29 19 30 78 31 20 32 21 33 22 34 72 35
REMARK SMILES IDX 23 36 77 37 71 38 73 39 24 40 76 41 70 42 69 43 25 45 57 46
REMARK SMILES IDX 37 47 56 48 38 49 41 50 55 51 74 52 39 53 40 54 54 56 75 57
REMARK SMILES IDX 42 58 26 59 27 60 35 61 28 62 29 63 33 64 36 65 30 66 31 67
REMARK SMILES IDX 34 68 32 69 58 70 59 71 67 72 60 73 61 74 65 75 68 76 62 77
REMARK SMILES IDX 63 78 66 79 64 80 43 81 44 82 52 83 45 84 46 85 50 86 53 87
REMARK SMILES IDX 47 88 48 89 51 90 49 91
REMARK H PARENT 9 6 4 20 14 25 73 44 41 55
REMARK Flexibility Score: inf
ROOT
ATOM      1  C   UNL A   1      31.846  30.518  26.881  1.00  0.00     0.023 C 
ENDROOT
BRANCH   1   2
ATOM      2  C   UNL A   1      33.195  29.922  26.461  1.00  0.00     0.116 C 
BRANCH   2   3
ATOM      3  N   UNL A   1      33.344  29.914  25.021  1.00  0.00    -0.355 N 
ATOM      4  C   UNL A   1      33.065  28.984  24.072  1.00  0.00     0.234 C 
ATOM      5  O   UNL A   1      33.430  29.286  22.928  1.00  0.00    -0.274 OA
ATOM      6  H   UNL A   1      33.723  30.747  24.658  1.00  0.00     0.163 HD
BRANCH   4   7
ATOM      7  C   UNL A   1      32.240  27.698  24.305  1.00  0.00     0.123 C 
ATOM      8  C   UNL A   1      32.578  26.748  23.145  1.00  0.00     0.054 C 
ATOM      9  C   UNL A   1      32.648  26.847  25.491  1.00  0.00     0.183 C 
ATOM     10  C   UNL A   1      32.654  25.354  23.731  1.00  0.00     0.161 C 
ATOM     11  O   UNL A   1      32.524  25.468  25.141  1.00  0.00    -0.380 OA
BRANCH   7  12
ATOM     12  C   UNL A   1      30.753  28.178  24.324  1.00  0.00     0.281 C 
BRANCH  12  13
ATOM     13  N   UNL A   1      30.181  29.143  23.395  1.00  0.00    -0.333 N 
ATOM     14  C   UNL A   1      27.663  31.870  23.541  1.00  0.00     0.014 C 
ATOM     15  C   UNL A   1      28.249  30.467  23.527  1.00  0.00     0.049 C 
ATOM     16  C   UNL A   1      29.728  30.431  23.884  1.00  0.00     0.265 C 
ATOM     17  C   UNL A   1      28.170  29.681  22.209  1.00  0.00     0.049 C 
ATOM     18  C   UNL A   1      29.361  28.708  22.279  1.00  0.00     0.265 C 
ATOM     19  C   UNL A   1      28.227  30.538  20.948  1.00  0.00     0.014 C 
ATOM     20  H   UNL A   1      31.110  29.284  22.999  1.00  0.00     0.348 HD
ENDBRANCH  12  13
ENDBRANCH   7  12
ENDBRANCH   4   7
ENDBRANCH   2   3
ENDBRANCH   1   2
BRANCH   1  21
ATOM     21  C   UNL A   1      31.723  32.030  26.726  1.00  0.00     0.023 C 
BRANCH  21  22
ATOM     22  C   UNL A   1      32.864  32.829  27.326  1.00  0.00     0.116 C 
BRANCH  22  23
ATOM     23  N   UNL A   1      32.509  34.202  27.658  1.00  0.00    -0.352 N 
ATOM     24  C   UNL A   1      33.057  34.994  28.641  1.00  0.00     0.251 C 
ATOM     25  H   UNL A   1      31.793  34.610  27.118  1.00  0.00     0.163 HD
ATOM     26  O   UNL A   1      32.628  36.117  28.871  1.00  0.00    -0.269 OA
BRANCH  24  27
ATOM     27  C   UNL A   1      34.151  34.426  29.450  1.00  0.00     0.039 A 
ATOM     28  C   UNL A   1      33.834  33.660  30.573  1.00  0.00     0.014 A 
ATOM     29  C   UNL A   1      35.471  34.552  29.013  1.00  0.00     0.014 A 
ATOM     30  C   UNL A   1      34.842  32.942  31.216  1.00  0.00     0.010 A 
ATOM     31  C   UNL A   1      36.457  33.781  29.609  1.00  0.00     0.010 A 
ATOM     32  C   UNL A   1      36.151  32.963  30.710  1.00  0.00    -0.014 A 
BRANCH  32  33
ATOM     33  C   UNL A   1      37.241  32.159  31.309  1.00  0.00     0.031 A 
ATOM     34  C   UNL A   1      37.738  32.516  32.679  1.00  0.00     0.074 A 
ATOM     35  C   UNL A   1      37.856  31.204  30.585  1.00  0.00     0.049 A 
ATOM     36  N   UNL A   1      38.810  32.108  33.306  1.00  0.00    -0.248 NA
ATOM     37  C   UNL A   1      36.940  33.501  33.426  1.00  0.00     0.031 C 
ATOM     38  C   UNL A   1      37.483  30.792  29.231  1.00  0.00     0.029 A 
ATOM     39  N   UNL A   1      38.947  30.426  30.882  1.00  0.00    -0.354 N 
ATOM     40  C   UNL A   1      38.837  32.818  34.497  1.00  0.00     0.074 A 
ATOM     41  C   UNL A   1      37.695  33.704  34.493  1.00  0.00     0.031 C 
ATOM     42  C   UNL A   1      38.326  29.831  28.818  1.00  0.00     0.029 A 
ATOM     43  C   UNL A   1      39.323  29.592  29.858  1.00  0.00     0.049 A 
ATOM     44  H   UNL A   1      39.414  30.463  31.748  1.00  0.00     0.167 HD
ATOM     45  C   UNL A   1      39.733  32.729  35.508  1.00  0.00     0.037 A 
ATOM     46  C   UNL A   1      40.367  28.746  29.765  1.00  0.00     0.037 A 
ATOM     47  C   UNL A   1      40.836  31.808  35.527  1.00  0.00     0.049 A 
ATOM     48  C   UNL A   1      41.326  28.637  30.920  1.00  0.00     0.074 A 
ATOM     49  C   UNL A   1      41.770  31.598  36.525  1.00  0.00     0.029 A 
ATOM     50  N   UNL A   1      41.141  30.929  34.498  1.00  0.00    -0.354 N 
ATOM     51  N   UNL A   1      41.330  29.292  32.055  1.00  0.00    -0.248 NA
ATOM     52  C   UNL A   1      42.426  27.672  30.781  1.00  0.00     0.031 C 
ATOM     53  C   UNL A   1      42.654  30.605  36.092  1.00  0.00     0.029 A 
ATOM     54  C   UNL A   1      42.250  30.174  34.839  1.00  0.00     0.049 A 
ATOM     55  H   UNL A   1      40.644  30.853  33.652  1.00  0.00     0.167 HD
ATOM     56  C   UNL A   1      42.406  28.798  32.778  1.00  0.00     0.074 A 
ATOM     57  C   UNL A   1      43.034  27.785  31.954  1.00  0.00     0.031 C 
ATOM     58  C   UNL A   1      42.835  29.148  34.014  1.00  0.00     0.037 A 
BRANCH  45  59
ATOM     59  C   UNL A   1      39.550  33.652  36.674  1.00  0.00     0.064 A 
ATOM     60  C   UNL A   1      38.798  33.278  37.797  1.00  0.00     0.173 A 
ATOM     61  C   UNL A   1      40.148  34.921  36.674  1.00  0.00     0.173 A 
ATOM     62  F   UNL A   1      38.192  32.083  37.834  1.00  0.00    -0.203 F 
ATOM     63  C   UNL A   1      38.626  34.152  38.865  1.00  0.00     0.198 A 
ATOM     64  C   UNL A   1      39.997  35.782  37.757  1.00  0.00     0.198 A 
ATOM     65  F   UNL A   1      40.879  35.326  35.625  1.00  0.00    -0.203 F 
ATOM     66  F   UNL A   1      37.859  33.794  39.905  1.00  0.00    -0.200 F 
ATOM     67  C   UNL A   1      39.230  35.401  38.848  1.00  0.00     0.200 A 
ATOM     68  F   UNL A   1      40.588  36.986  37.743  1.00  0.00    -0.200 F 
ATOM     69  F   UNL A   1      39.065  36.240  39.880  1.00  0.00    -0.200 F 
ENDBRANCH  45  59
BRANCH  46  70
ATOM     70  C   UNL A   1      40.548  27.920  28.545  1.00  0.00     0.064 A 
ATOM     71  C   UNL A   1      41.302  28.400  27.465  1.00  0.00     0.173 A 
ATOM     72  C   UNL A   1      39.980  26.644  28.430  1.00  0.00     0.173 A 
ATOM     73  F   UNL A   1      41.849  29.623  27.522  1.00  0.00    -0.203 F 
ATOM     74  C   UNL A   1      41.467  27.641  26.308  1.00  0.00     0.198 A 
ATOM     75  C   UNL A   1      40.163  25.877  27.281  1.00  0.00     0.198 A 
ATOM     76  F   UNL A   1      39.253  26.140  29.438  1.00  0.00    -0.203 F 
ATOM     77  F   UNL A   1      42.161  28.139  25.276  1.00  0.00    -0.200 F 
ATOM     78  C   UNL A   1      40.902  26.378  26.219  1.00  0.00     0.200 A 
ATOM     79  F   UNL A   1      39.624  24.652  27.203  1.00  0.00    -0.200 F 
ATOM     80  F   UNL A   1      41.062  25.647  25.108  1.00  0.00    -0.200 F 
ENDBRANCH  46  70
BRANCH  58  81
ATOM     81  C   UNL A   1      43.999  28.396  34.581  1.00  0.00     0.064 A 
ATOM     82  C   UNL A   1      45.311  28.873  34.461  1.00  0.00     0.173 A 
ATOM     83  C   UNL A   1      43.785  27.223  35.321  1.00  0.00     0.173 A 
ATOM     84  F   UNL A   1      45.562  29.983  33.751  1.00  0.00    -0.203 F 
ATOM     85  C   UNL A   1      46.371  28.196  35.055  1.00  0.00     0.198 A 
ATOM     86  C   UNL A   1      44.845  26.561  35.932  1.00  0.00     0.198 A 
ATOM     87  F   UNL A   1      42.544  26.734  35.467  1.00  0.00    -0.203 F 
ATOM     88  F   UNL A   1      47.622  28.655  34.909  1.00  0.00    -0.200 F 
ATOM     89  C   UNL A   1      46.137  27.047  35.797  1.00  0.00     0.200 A 
ATOM     90  F   UNL A   1      44.616  25.457  36.657  1.00  0.00    -0.200 F 
ATOM     91  F   UNL A   1      47.159  26.406  36.382  1.00  0.00    -0.200 F 
ENDBRANCH  58  81
ENDBRANCH  32  33
ENDBRANCH  24  27
ENDBRANCH  22  23
ENDBRANCH  21  22
ENDBRANCH   1  21
TORSDOF 13
ENDMDL
MODEL 2
REMARK VINA RESULT:     -11.9      2.419      8.498
REMARK SMILES C[C@@H]1C[N@@H+](C[C@]2(C(=O)NCCCCNC(=O)c3ccc(-c4c5nc(c(-c6c(F)c(F)c(F)c(F)c6F)c6ccc([nH]6)c(-c6c(F)c(F)c(F)c(F)c6F)c6nc(c(-c7c(F)c(F)c(F)c(F)c7F)c7ccc4[nH]7)C=C6)C=C5)cc3)CCOC2)C[C@@H]1C
REMARK SMILES IDX 11 1 10 2 9 3 7 4 8 5 6 7 80 8 83 9 81 10 82 11 5 12 4 13
REMARK SMILES IDX 1 14 2 15 3 16 85 17 84 18 86 19 12 21 13 22 14 23 15 24
REMARK SMILES IDX 16 26 17 27 18 28 79 29 19 30 78 31 20 32 21 33 22 34 72 35
REMARK SMILES IDX 23 36 77 37 71 38 73 39 24 40 76 41 70 42 69 43 25 45 57 46
REMARK SMILES IDX 37 47 56 48 38 49 41 50 55 51 74 52 39 53 40 54 54 56 75 57
REMARK SMILES IDX 42 58 26 59 27 60 35 61 28 62 29 63 33 64 36 65 30 66 31 67
REMARK SMILES IDX 34 68 32 69 58 70 59 71 67 72 60 73 61 74 65 75 68 76 62 77
REMARK SMILES IDX 63 78 66 79 64 80 43 81 44 82 52 83 45 84 46 85 50 86 53 87
REMARK SMILES IDX 47 88 48 89 51 90 49 91
REMARK H PARENT 9 6 4 20 14 25 73 44 41 55
REMARK Flexibility Score: inf
ROOT
ATOM      1  C   UNL A   1      31.362  27.586  26.275  1.00  0.00     0.023 C 
ENDROOT
BRANCH   1   2
ATOM      2  C   UNL A   1      30.709  26.423  25.520  1.00  0.00     0.116 C 
BRANCH   2   3
ATOM      3  N   UNL A   1      30.397  25.324  26.409  1.00  0.00    -0.355 N 
ATOM      4  C   UNL A   1      30.803  24.028  26.448  1.00  0.00     0.234 C 
ATOM      5  O   UNL A   1      30.236  23.334  27.303  1.00  0.00    -0.274 OA
ATOM      6  H   UNL A   1      29.765  25.562  27.125  1.00  0.00     0.163 HD
BRANCH   4   7
ATOM      7  C   UNL A   1      31.968  23.437  25.622  1.00  0.00     0.123 C 
ATOM      8  C   UNL A   1      31.837  21.909  25.718  1.00  0.00     0.054 C 
ATOM      9  C   UNL A   1      31.888  23.631  24.121  1.00  0.00     0.183 C 
ATOM     10  C   UNL A   1      32.191  21.355  24.354  1.00  0.00     0.161 C 
ATOM     11  O   UNL A   1      32.371  22.454  23.471  1.00  0.00    -0.380 OA
BRANCH   7  12
ATOM     12  C   UNL A   1      33.259  24.011  26.289  1.00  0.00     0.281 C 
BRANCH  12  13
ATOM     13  N   UNL A   1      34.611  23.543  26.017  1.00  0.00    -0.333 N 
ATOM     14  C   UNL A   1      36.705  22.932  23.011  1.00  0.00     0.014 C 
ATOM     15  C   UNL A   1      35.612  22.748  24.050  1.00  0.00     0.049 C 
ATOM     16  C   UNL A   1      35.311  24.014  24.838  1.00  0.00     0.265 C 
ATOM     17  C   UNL A   1      35.841  21.686  25.137  1.00  0.00     0.049 C 
ATOM     18  C   UNL A   1      35.007  22.183  26.331  1.00  0.00     0.265 C 
ATOM     19  C   UNL A   1      37.301  21.475  25.528  1.00  0.00     0.014 C 
ATOM     20  H   UNL A   1      34.942  24.102  26.804  1.00  0.00     0.348 HD
ENDBRANCH  12  13
ENDBRANCH   7  12
ENDBRANCH   4   7
ENDBRANCH   2   3
ENDBRANCH   1   2
BRANCH   1  21
ATOM     21  C   UNL A   1      32.872  27.714  26.099  1.00  0.00     0.023 C 
BRANCH  21  22
ATOM     22  C   UNL A   1      33.335  29.026  25.496  1.00  0.00     0.116 C 
BRANCH  22  23
ATOM     23  N   UNL A   1      32.687  30.198  26.068  1.00  0.00    -0.352 N 
ATOM     24  C   UNL A   1      33.192  31.050  27.024  1.00  0.00     0.251 C 
ATOM     25  H   UNL A   1      31.784  30.404  25.733  1.00  0.00     0.163 HD
ATOM     26  O   UNL A   1      32.523  31.969  27.478  1.00  0.00    -0.269 OA
BRANCH  24  27
ATOM     27  C   UNL A   1      34.553  30.790  27.526  1.00  0.00     0.039 A 
ATOM     28  C   UNL A   1      35.453  31.854  27.620  1.00  0.00     0.014 A 
ATOM     29  C   UNL A   1      34.879  29.526  28.020  1.00  0.00     0.014 A 
ATOM     30  C   UNL A   1      36.661  31.668  28.292  1.00  0.00     0.010 A 
ATOM     31  C   UNL A   1      36.046  29.364  28.749  1.00  0.00     0.010 A 
ATOM     32  C   UNL A   1      36.944  30.436  28.899  1.00  0.00    -0.014 A 
BRANCH  32  33
ATOM     33  C   UNL A   1      38.176  30.210  29.689  1.00  0.00     0.031 A 
ATOM     34  C   UNL A   1      39.228  29.287  29.147  1.00  0.00     0.074 A 
ATOM     35  C   UNL A   1      38.294  30.728  30.927  1.00  0.00     0.049 A 
ATOM     36  N   UNL A   1      40.269  28.770  29.746  1.00  0.00    -0.248 NA
ATOM     37  C   UNL A   1      39.057  28.852  27.751  1.00  0.00     0.031 C 
ATOM     38  C   UNL A   1      37.323  31.612  31.573  1.00  0.00     0.029 A 
ATOM     39  N   UNL A   1      39.273  30.561  31.873  1.00  0.00    -0.354 N 
ATOM     40  C   UNL A   1      40.848  27.919  28.817  1.00  0.00     0.074 A 
ATOM     41  C   UNL A   1      40.028  27.962  27.626  1.00  0.00     0.031 C 
ATOM     42  C   UNL A   1      37.759  31.916  32.807  1.00  0.00     0.029 A 
ATOM     43  C   UNL A   1      39.015  31.213  33.054  1.00  0.00     0.049 A 
ATOM     44  H   UNL A   1      40.084  30.024  31.719  1.00  0.00     0.167 HD
ATOM     45  C   UNL A   1      41.971  27.175  28.945  1.00  0.00     0.037 A 
ATOM     46  C   UNL A   1      39.707  31.224  34.209  1.00  0.00     0.037 A 
ATOM     47  C   UNL A   1      42.809  27.177  30.112  1.00  0.00     0.049 A 
ATOM     48  C   UNL A   1      40.974  30.419  34.312  1.00  0.00     0.074 A 
ATOM     49  C   UNL A   1      43.998  26.502  30.324  1.00  0.00     0.029 A 
ATOM     50  N   UNL A   1      42.549  27.908  31.263  1.00  0.00    -0.354 N 
ATOM     51  N   UNL A   1      41.531  29.637  33.420  1.00  0.00    -0.248 NA
ATOM     52  C   UNL A   1      41.710  30.497  35.583  1.00  0.00     0.031 C 
ATOM     53  C   UNL A   1      44.448  26.809  31.612  1.00  0.00     0.029 A 
ATOM     54  C   UNL A   1      43.557  27.701  32.189  1.00  0.00     0.049 A 
ATOM     55  H   UNL A   1      41.766  28.487  31.400  1.00  0.00     0.167 HD
ATOM     56  C   UNL A   1      42.695  29.158  34.004  1.00  0.00     0.074 A 
ATOM     57  C   UNL A   1      42.767  29.737  35.330  1.00  0.00     0.031 C 
ATOM     58  C   UNL A   1      43.622  28.316  33.489  1.00  0.00     0.037 A 
BRANCH  45  59
ATOM     59  C   UNL A   1      42.354  26.300  27.790  1.00  0.00     0.064 A 
ATOM     60  C   UNL A   1      41.797  25.024  27.618  1.00  0.00     0.173 A 
ATOM     61  C   UNL A   1      43.276  26.750  26.834  1.00  0.00     0.173 A 
ATOM     62  F   UNL A   1      40.924  24.544  28.516  1.00  0.00    -0.203 F 
ATOM     63  C   UNL A   1      42.171  24.219  26.548  1.00  0.00     0.198 A 
ATOM     64  C   UNL A   1      43.628  25.953  25.748  1.00  0.00     0.198 A 
ATOM     65  F   UNL A   1      43.836  27.963  26.951  1.00  0.00    -0.203 F 
ATOM     66  F   UNL A   1      41.666  22.982  26.432  1.00  0.00    -0.200 F 
ATOM     67  C   UNL A   1      43.082  24.685  25.611  1.00  0.00     0.200 A 
ATOM     68  F   UNL A   1      44.502  26.407  24.839  1.00  0.00    -0.200 F 
ATOM     69  F   UNL A   1      43.440  23.908  24.579  1.00  0.00    -0.200 F 
ENDBRANCH  45  59
BRANCH  46  70
ATOM     70  C   UNL A   1      39.230  32.041  35.353  1.00  0.00     0.064 A 
ATOM     71  C   UNL A   1      38.454  31.463  36.367  1.00  0.00     0.173 A 
ATOM     72  C   UNL A   1      39.535  33.405  35.460  1.00  0.00     0.173 A 
ATOM     73  F   UNL A   1      38.121  30.166  36.297  1.00  0.00    -0.203 F 
ATOM     74  C   UNL A   1      37.987  32.223  37.438  1.00  0.00     0.198 A 
ATOM     75  C   UNL A   1      39.086  34.159  36.543  1.00  0.00     0.198 A 
ATOM     76  F   UNL A   1      40.277  34.003  34.517  1.00  0.00    -0.203 F 
ATOM     77  F   UNL A   1      37.216  31.653  38.375  1.00  0.00    -0.200 F 
ATOM     78  C   UNL A   1      38.307  33.568  37.528  1.00  0.00     0.200 A 
ATOM     79  F   UNL A   1      39.406  35.458  36.632  1.00  0.00    -0.200 F 
ATOM     80  F   UNL A   1      37.860  34.298  38.559  1.00  0.00    -0.200 F 
ENDBRANCH  46  70
BRANCH  58  81
ATOM     81  C   UNL A   1      44.825  28.015  34.328  1.00  0.00     0.064 A 
ATOM     82  C   UNL A   1      45.966  28.828  34.295  1.00  0.00     0.173 A 
ATOM     83  C   UNL A   1      44.801  26.943  35.233  1.00  0.00     0.173 A 
ATOM     84  F   UNL A   1      46.036  29.857  33.436  1.00  0.00    -0.203 F 
ATOM     85  C   UNL A   1      47.046  28.573  35.134  1.00  0.00     0.198 A 
ATOM     86  C   UNL A   1      45.874  26.704  36.085  1.00  0.00     0.198 A 
ATOM     87  F   UNL A   1      43.727  26.142  35.302  1.00  0.00    -0.203 F 
ATOM     88  F   UNL A   1      48.138  29.348  35.071  1.00  0.00    -0.200 F 
ATOM     89  C   UNL A   1      46.996  27.517  36.034  1.00  0.00     0.200 A 
ATOM     90  F   UNL A   1      45.820  25.690  36.960  1.00  0.00    -0.200 F 
ATOM     91  F   UNL A   1      48.032  27.284  36.851  1.00  0.00    -0.200 F 
ENDBRANCH  58  81
ENDBRANCH  32  33
ENDBRANCH  24  27
ENDBRANCH  22  23
ENDBRANCH  21  22
ENDBRANCH   1  21
TORSDOF 13
ENDMDL
MODEL 3
REMARK VINA RESULT:     -11.9      6.207     10.497
REMARK SMILES C[C@@H]1C[N@@H+](C[C@]2(C(=O)NCCCCNC(=O)c3ccc(-c4c5nc(c(-c6c(F)c(F)c(F)c(F)c6F)c6ccc([nH]6)c(-c6c(F)c(F)c(F)c(F)c6F)c6nc(c(-c7c(F)c(F)c(F)c(F)c7F)c7ccc4[nH]7)C=C6)C=C5)cc3)CCOC2)C[C@@H]1C
REMARK SMILES IDX 11 1 10 2 9 3 7 4 8 5 6 7 80 8 83 9 81 10 82 11 5 12 4 13
REMARK SMILES IDX 1 14 2 15 3 16 85 17 84 18 86 19 12 21 13 22 14 23 15 24
REMARK SMILES IDX 16 26 17 27 18 28 79 29 19 30 78 31 20 32 21 33 22 34 72 35
REMARK SMILES IDX 23 36 77 37 71 38 73 39 24 40 76 41 70 42 69 43 25 45 57 46
REMARK SMILES IDX 37 47 56 48 38 49 41 50 55 51 74 52 39 53 40 54 54 56 75 57
REMARK SMILES IDX 42 58 26 59 27 60 35 61 28 62 29 63 33 64 36 65 30 66 31 67
REMARK SMILES IDX 34 68 32 69 58 70 59 71 67 72 60 73 61 74 65 75 68 76 62 77
REMARK SMILES IDX 63 78 66 79 64 80 43 81 44 82 52 83 45 84 46 85 50 86 53 87
REMARK SMILES IDX 47 88 48 89 51 90 49 91
REMARK H PARENT 9 6 4 20 14 25 73 44 41 55
REMARK Flexibility Score: inf
ROOT
ATOM      1  C   UNL A   1      37.324  22.035  24.644  1.00  0.00     0.023 C 
ENDROOT
BRANCH   1   2
ATOM      2  C   UNL A   1      36.816  22.951  25.763  1.00  0.00     0.116 C 
BRANCH   2   3
ATOM      3  N   UNL A   1      35.916  22.250  26.654  1.00  0.00    -0.355 N 
ATOM      4  C   UNL A   1      34.569  22.080  26.655  1.00  0.00     0.234 C 
ATOM      5  O   UNL A   1      34.121  21.498  27.652  1.00  0.00    -0.274 OA
ATOM      6  H   UNL A   1      36.370  21.809  27.408  1.00  0.00     0.163 HD
BRANCH   4   7
ATOM      7  C   UNL A   1      33.629  22.433  25.479  1.00  0.00     0.123 C 
ATOM      8  C   UNL A   1      32.235  22.655  26.089  1.00  0.00     0.054 C 
ATOM      9  C   UNL A   1      33.862  23.775  24.816  1.00  0.00     0.183 C 
ATOM     10  C   UNL A   1      31.616  23.820  25.345  1.00  0.00     0.161 C 
ATOM     11  O   UNL A   1      32.601  24.351  24.470  1.00  0.00    -0.380 OA
BRANCH   7  12
ATOM     12  C   UNL A   1      33.716  21.204  24.518  1.00  0.00     0.281 C 
BRANCH  12  13
ATOM     13  N   UNL A   1      33.674  19.812  24.946  1.00  0.00    -0.333 N 
ATOM     14  C   UNL A   1      34.419  16.499  23.440  1.00  0.00     0.014 C 
ATOM     15  C   UNL A   1      33.705  17.811  23.721  1.00  0.00     0.049 C 
ATOM     16  C   UNL A   1      34.600  18.855  24.372  1.00  0.00     0.265 C 
ATOM     17  C   UNL A   1      32.472  17.763  24.638  1.00  0.00     0.049 C 
ATOM     18  C   UNL A   1      32.413  19.168  25.264  1.00  0.00     0.265 C 
ATOM     19  C   UNL A   1      32.513  16.678  25.710  1.00  0.00     0.014 C 
ATOM     20  H   UNL A   1      34.059  20.096  25.847  1.00  0.00     0.348 HD
ENDBRANCH  12  13
ENDBRANCH   7  12
ENDBRANCH   4   7
ENDBRANCH   2   3
ENDBRANCH   1   2
BRANCH   1  21
ATOM     21  C   UNL A   1      37.907  20.703  25.105  1.00  0.00     0.023 C 
BRANCH  21  22
ATOM     22  C   UNL A   1      39.234  20.803  25.832  1.00  0.00     0.116 C 
BRANCH  22  23
ATOM     23  N   UNL A   1      39.999  19.564  25.833  1.00  0.00    -0.352 N 
ATOM     24  C   UNL A   1      41.343  19.411  26.079  1.00  0.00     0.251 C 
ATOM     25  H   UNL A   1      39.495  18.741  25.635  1.00  0.00     0.163 HD
ATOM     26  O   UNL A   1      41.891  18.319  25.986  1.00  0.00    -0.269 OA
BRANCH  24  27
ATOM     27  C   UNL A   1      42.123  20.617  26.410  1.00  0.00     0.039 A 
ATOM     28  C   UNL A   1      42.530  21.464  25.377  1.00  0.00     0.014 A 
ATOM     29  C   UNL A   1      42.329  20.962  27.747  1.00  0.00     0.014 A 
ATOM     30  C   UNL A   1      43.073  22.710  25.690  1.00  0.00     0.010 A 
ATOM     31  C   UNL A   1      42.803  22.228  28.054  1.00  0.00     0.010 A 
ATOM     32  C   UNL A   1      43.171  23.117  27.029  1.00  0.00    -0.014 A 
BRANCH  32  33
ATOM     33  C   UNL A   1      43.669  24.458  27.411  1.00  0.00     0.031 A 
ATOM     34  C   UNL A   1      42.696  25.471  27.938  1.00  0.00     0.074 A 
ATOM     35  C   UNL A   1      44.950  24.799  27.174  1.00  0.00     0.049 A 
ATOM     36  N   UNL A   1      42.853  26.756  28.124  1.00  0.00    -0.248 NA
ATOM     37  C   UNL A   1      41.347  24.976  28.256  1.00  0.00     0.031 C 
ATOM     38  C   UNL A   1      45.980  23.910  26.635  1.00  0.00     0.029 A 
ATOM     39  N   UNL A   1      45.596  26.000  27.332  1.00  0.00    -0.354 N 
ATOM     40  C   UNL A   1      41.615  27.227  28.537  1.00  0.00     0.074 A 
ATOM     41  C   UNL A   1      40.709  26.099  28.544  1.00  0.00     0.031 C 
ATOM     42  C   UNL A   1      47.130  24.593  26.514  1.00  0.00     0.029 A 
ATOM     43  C   UNL A   1      46.907  25.977  26.924  1.00  0.00     0.049 A 
ATOM     44  H   UNL A   1      45.160  26.801  27.703  1.00  0.00     0.167 HD
ATOM     45  C   UNL A   1      41.271  28.487  28.889  1.00  0.00     0.037 A 
ATOM     46  C   UNL A   1      47.818  26.968  26.872  1.00  0.00     0.037 A 
ATOM     47  C   UNL A   1      42.190  29.591  28.930  1.00  0.00     0.049 A 
ATOM     48  C   UNL A   1      47.419  28.352  27.306  1.00  0.00     0.074 A 
ATOM     49  C   UNL A   1      41.956  30.896  29.323  1.00  0.00     0.029 A 
ATOM     50  N   UNL A   1      43.529  29.510  28.575  1.00  0.00    -0.354 N 
ATOM     51  N   UNL A   1      46.254  28.785  27.721  1.00  0.00    -0.248 NA
ATOM     52  C   UNL A   1      48.462  29.389  27.264  1.00  0.00     0.031 C 
ATOM     53  C   UNL A   1      43.150  31.611  29.188  1.00  0.00     0.029 A 
ATOM     54  C   UNL A   1      44.134  30.743  28.743  1.00  0.00     0.049 A 
ATOM     55  H   UNL A   1      43.981  28.697  28.254  1.00  0.00     0.167 HD
ATOM     56  C   UNL A   1      46.429  30.128  28.022  1.00  0.00     0.074 A 
ATOM     57  C   UNL A   1      47.815  30.443  27.741  1.00  0.00     0.031 C 
ATOM     58  C   UNL A   1      45.524  31.021  28.489  1.00  0.00     0.037 A 
BRANCH  45  59
ATOM     59  C   UNL A   1      39.839  28.732  29.257  1.00  0.00     0.064 A 
ATOM     60  C   UNL A   1      39.363  28.494  30.555  1.00  0.00     0.173 A 
ATOM     61  C   UNL A   1      38.936  29.227  28.305  1.00  0.00     0.173 A 
ATOM     62  F   UNL A   1      40.185  28.004  31.494  1.00  0.00    -0.203 F 
ATOM     63  C   UNL A   1      38.028  28.714  30.878  1.00  0.00     0.198 A 
ATOM     64  C   UNL A   1      37.607  29.472  28.639  1.00  0.00     0.198 A 
ATOM     65  F   UNL A   1      39.341  29.473  27.050  1.00  0.00    -0.203 F 
ATOM     66  F   UNL A   1      37.583  28.429  32.110  1.00  0.00    -0.200 F 
ATOM     67  C   UNL A   1      37.152  29.208  29.922  1.00  0.00     0.200 A 
ATOM     68  F   UNL A   1      36.763  29.957  27.717  1.00  0.00    -0.200 F 
ATOM     69  F   UNL A   1      35.867  29.421  30.236  1.00  0.00    -0.200 F 
ENDBRANCH  45  59
BRANCH  46  70
ATOM     70  C   UNL A   1      49.200  26.683  26.411  1.00  0.00     0.064 A 
ATOM     71  C   UNL A   1      49.557  26.870  25.069  1.00  0.00     0.173 A 
ATOM     72  C   UNL A   1      50.188  26.224  27.293  1.00  0.00     0.173 A 
ATOM     73  F   UNL A   1      48.639  27.290  24.185  1.00  0.00    -0.203 F 
ATOM     74  C   UNL A   1      50.847  26.592  24.621  1.00  0.00     0.198 A 
ATOM     75  C   UNL A   1      51.484  25.967  26.848  1.00  0.00     0.198 A 
ATOM     76  F   UNL A   1      49.897  26.033  28.588  1.00  0.00    -0.203 F 
ATOM     77  F   UNL A   1      51.150  26.744  23.324  1.00  0.00    -0.200 F 
ATOM     78  C   UNL A   1      51.810  26.145  25.511  1.00  0.00     0.200 A 
ATOM     79  F   UNL A   1      52.416  25.545  27.714  1.00  0.00    -0.200 F 
ATOM     80  F   UNL A   1      53.051  25.880  25.081  1.00  0.00    -0.200 F 
ENDBRANCH  46  70
BRANCH  58  81
ATOM     81  C   UNL A   1      46.010  32.406  28.788  1.00  0.00     0.064 A 
ATOM     82  C   UNL A   1      46.552  32.740  30.036  1.00  0.00     0.173 A 
ATOM     83  C   UNL A   1      46.003  33.386  27.784  1.00  0.00     0.173 A 
ATOM     84  F   UNL A   1      46.568  31.838  31.029  1.00  0.00    -0.203 F 
ATOM     85  C   UNL A   1      47.063  34.013  30.272  1.00  0.00     0.198 A 
ATOM     86  C   UNL A   1      46.535  34.650  28.016  1.00  0.00     0.198 A 
ATOM     87  F   UNL A   1      45.499  33.107  26.572  1.00  0.00    -0.203 F 
ATOM     88  F   UNL A   1      47.556  34.321  31.479  1.00  0.00    -0.200 F 
ATOM     89  C   UNL A   1      47.062  34.963  29.261  1.00  0.00     0.200 A 
ATOM     90  F   UNL A   1      46.542  35.563  27.036  1.00  0.00    -0.200 F 
ATOM     91  F   UNL A   1      47.569  36.183  29.486  1.00  0.00    -0.200 F 
ENDBRANCH  58  81
ENDBRANCH  32  33
ENDBRANCH  24  27
ENDBRANCH  22  23
ENDBRANCH  21  22
ENDBRANCH   1  21
TORSDOF 13
ENDMDL
