MODEL 1
REMARK VINA RESULT:     -11.3      0.000      0.000
REMARK SMILES O=C(NCCCCNC(=O)[C@@H](O)c1cscc1Br)c1ccc(-c2c3nc(c(-c4c(F)c(F)c(F)c(F)c4F)c4ccc([nH]4)c(-c4c(F)c(F)c(F)c(F)c4F)c4nc(c(-c5c(F)c(F)c(F)c(F)c5F)c5ccc2[nH]5)C=C4)C=C3)cc1
REMARK SMILES IDX 5 1 4 2 3 3 1 4 2 5 19 7 20 8 81 9 21 10 80 11 22 12 23 13
REMARK SMILES IDX 24 14 74 15 25 16 79 17 73 18 75 19 26 20 78 21 72 22 71 23
REMARK SMILES IDX 27 25 59 26 39 27 58 28 40 29 43 30 57 31 76 32 41 33 42 34
REMARK SMILES IDX 56 36 77 37 44 38 28 39 29 40 37 41 30 42 31 43 35 44 38 45
REMARK SMILES IDX 32 46 33 47 36 48 34 49 60 50 61 51 69 52 62 53 63 54 67 55
REMARK SMILES IDX 70 56 64 57 65 58 68 59 66 60 45 61 46 62 54 63 47 64 48 65
REMARK SMILES IDX 52 66 55 67 49 68 50 69 53 70 51 71 6 72 7 73 8 74 9 75
REMARK SMILES IDX 10 77 11 78 12 79 13 81 14 82 17 83 15 84 16 85 18 86
REMARK H PARENT 3 6 75 24 43 35 8 76 12 80
REMARK Flexibility Score: inf
ROOT
ATOM      1  C   UNL A   1      31.553  31.944  26.787  1.00  0.00     0.023 C 
ENDROOT
BRANCH   1   2
ATOM      2  C   UNL A   1      32.743  32.790  27.222  1.00  0.00     0.116 C 
BRANCH   2   3
ATOM      3  N   UNL A   1      32.387  34.146  27.615  1.00  0.00    -0.352 N 
ATOM      4  O   UNL A   1      32.477  36.036  28.850  1.00  0.00    -0.269 OA
ATOM      5  C   UNL A   1      32.959  34.952  28.577  1.00  0.00     0.251 C 
ATOM      6  H   UNL A   1      31.631  34.544  27.125  1.00  0.00     0.163 HD
BRANCH   5   7
ATOM      7  C   UNL A   1      34.149  34.461  29.306  1.00  0.00     0.039 A 
ATOM      8  C   UNL A   1      35.426  34.626  28.768  1.00  0.00     0.014 A 
ATOM      9  C   UNL A   1      33.976  33.790  30.521  1.00  0.00     0.014 A 
ATOM     10  C   UNL A   1      36.503  33.971  29.349  1.00  0.00     0.010 A 
ATOM     11  C   UNL A   1      35.080  33.212  31.156  1.00  0.00     0.010 A 
ATOM     12  C   UNL A   1      36.345  33.260  30.552  1.00  0.00    -0.014 A 
BRANCH  12  13
ATOM     13  C   UNL A   1      37.536  32.618  31.164  1.00  0.00     0.031 A 
ATOM     14  C   UNL A   1      37.994  32.978  32.550  1.00  0.00     0.074 A 
ATOM     15  C   UNL A   1      38.163  31.646  30.474  1.00  0.00     0.049 A 
ATOM     16  N   UNL A   1      38.977  32.469  33.250  1.00  0.00    -0.248 NA
ATOM     17  C   UNL A   1      37.262  34.050  33.241  1.00  0.00     0.031 C 
ATOM     18  C   UNL A   1      37.815  31.224  29.115  1.00  0.00     0.029 A 
ATOM     19  N   UNL A   1      39.199  30.819  30.824  1.00  0.00    -0.354 N 
ATOM     20  C   UNL A   1      38.992  33.163  34.452  1.00  0.00     0.074 A 
ATOM     21  C   UNL A   1      37.936  34.150  34.380  1.00  0.00     0.031 C 
ATOM     22  C   UNL A   1      38.582  30.181  28.769  1.00  0.00     0.029 A 
ATOM     23  C   UNL A   1      39.514  29.900  29.855  1.00  0.00     0.049 A 
ATOM     24  H   UNL A   1      39.670  30.879  31.686  1.00  0.00     0.167 HD
ATOM     25  C   UNL A   1      39.807  32.984  35.521  1.00  0.00     0.037 A 
ATOM     26  C   UNL A   1      40.455  28.939  29.836  1.00  0.00     0.037 A 
ATOM     27  C   UNL A   1      40.849  31.992  35.592  1.00  0.00     0.049 A 
ATOM     28  C   UNL A   1      41.338  28.762  31.036  1.00  0.00     0.074 A 
ATOM     29  C   UNL A   1      41.726  31.732  36.631  1.00  0.00     0.029 A 
ATOM     30  N   UNL A   1      41.150  31.089  34.583  1.00  0.00    -0.354 N 
ATOM     31  N   UNL A   1      41.333  29.422  32.169  1.00  0.00    -0.248 NA
ATOM     32  C   UNL A   1      42.358  27.709  30.956  1.00  0.00     0.031 C 
ATOM     33  C   UNL A   1      42.578  30.693  36.239  1.00  0.00     0.029 A 
ATOM     34  C   UNL A   1      42.205  30.278  34.971  1.00  0.00     0.049 A 
ATOM     35  H   UNL A   1      40.683  31.032  33.717  1.00  0.00     0.167 HD
ATOM     36  C   UNL A   1      42.344  28.865  32.937  1.00  0.00     0.074 A 
ATOM     37  C   UNL A   1      42.919  27.790  32.153  1.00  0.00     0.031 C 
ATOM     38  C   UNL A   1      42.766  29.218  34.175  1.00  0.00     0.037 A 
BRANCH  25  39
ATOM     39  C   UNL A   1      39.611  33.885  36.706  1.00  0.00     0.064 A 
ATOM     40  C   UNL A   1      38.817  33.501  37.796  1.00  0.00     0.173 A 
ATOM     41  C   UNL A   1      40.276  35.119  36.781  1.00  0.00     0.173 A 
ATOM     42  F   UNL A   1      38.151  32.336  37.767  1.00  0.00    -0.203 F 
ATOM     43  C   UNL A   1      38.683  34.325  38.911  1.00  0.00     0.198 A 
ATOM     44  C   UNL A   1      40.159  35.929  37.909  1.00  0.00     0.198 A 
ATOM     45  F   UNL A   1      41.054  35.531  35.769  1.00  0.00    -0.203 F 
ATOM     46  F   UNL A   1      37.893  33.951  39.927  1.00  0.00    -0.200 F 
ATOM     47  C   UNL A   1      39.360  35.533  38.969  1.00  0.00     0.200 A 
ATOM     48  F   UNL A   1      40.823  37.092  37.968  1.00  0.00    -0.200 F 
ATOM     49  F   UNL A   1      39.239  36.319  40.048  1.00  0.00    -0.200 F 
ENDBRANCH  25  39
BRANCH  26  50
ATOM     50  C   UNL A   1      40.604  28.081  28.635  1.00  0.00     0.064 A 
ATOM     51  C   UNL A   1      39.938  26.852  28.535  1.00  0.00     0.173 A 
ATOM     52  C   UNL A   1      41.404  28.482  27.554  1.00  0.00     0.173 A 
ATOM     53  F   UNL A   1      39.176  26.419  29.550  1.00  0.00    -0.203 F 
ATOM     54  C   UNL A   1      40.077  26.051  27.404  1.00  0.00     0.198 A 
ATOM     55  C   UNL A   1      41.517  27.694  26.412  1.00  0.00     0.198 A 
ATOM     56  F   UNL A   1      42.056  29.653  27.600  1.00  0.00    -0.203 F 
ATOM     57  F   UNL A   1      39.460  24.863  27.348  1.00  0.00    -0.200 F 
ATOM     58  C   UNL A   1      40.860  26.476  26.341  1.00  0.00     0.200 A 
ATOM     59  F   UNL A   1      42.261  28.118  25.380  1.00  0.00    -0.200 F 
ATOM     60  F   UNL A   1      40.984  25.709  25.249  1.00  0.00    -0.200 F 
ENDBRANCH  26  50
BRANCH  38  61
ATOM     61  C   UNL A   1      43.899  28.425  34.753  1.00  0.00     0.064 A 
ATOM     62  C   UNL A   1      45.232  28.824  34.578  1.00  0.00     0.173 A 
ATOM     63  C   UNL A   1      43.649  27.262  35.494  1.00  0.00     0.173 A 
ATOM     64  F   UNL A   1      45.521  29.920  33.861  1.00  0.00    -0.203 F 
ATOM     65  C   UNL A   1      46.278  28.067  35.102  1.00  0.00     0.198 A 
ATOM     66  C   UNL A   1      44.695  26.522  36.038  1.00  0.00     0.198 A 
ATOM     67  F   UNL A   1      42.390  26.842  35.692  1.00  0.00    -0.203 F 
ATOM     68  F   UNL A   1      47.546  28.437  34.879  1.00  0.00    -0.200 F 
ATOM     69  C   UNL A   1      46.009  26.920  35.833  1.00  0.00     0.200 A 
ATOM     70  F   UNL A   1      44.434  25.417  36.750  1.00  0.00    -0.200 F 
ATOM     71  F   UNL A   1      47.016  26.192  36.332  1.00  0.00    -0.200 F 
ENDBRANCH  38  61
ENDBRANCH  12  13
ENDBRANCH   5   7
ENDBRANCH   2   3
ENDBRANCH   1   2
BRANCH   1  72
ATOM     72  C   UNL A   1      31.835  30.453  26.629  1.00  0.00     0.023 C 
BRANCH  72  73
ATOM     73  C   UNL A   1      31.457  29.870  25.272  1.00  0.00     0.116 C 
BRANCH  73  74
ATOM     74  N   UNL A   1      32.597  29.711  24.392  1.00  0.00    -0.354 N 
ATOM     75  C   UNL A   1      32.736  28.841  23.343  1.00  0.00     0.253 C 
ATOM     76  H   UNL A   1      33.365  30.300  24.569  1.00  0.00     0.163 HD
ATOM     77  O   UNL A   1      33.762  28.917  22.660  1.00  0.00    -0.272 OA
BRANCH  75  78
ATOM     78  C   UNL A   1      31.643  27.779  23.039  1.00  0.00     0.235 C 
BRANCH  78  79
ATOM     79  O   UNL A   1      30.978  28.080  21.817  1.00  0.00    -0.378 OA
ATOM     80  H   UNL A   1      30.071  27.737  21.848  1.00  0.00     0.212 HD
ENDBRANCH  78  79
BRANCH  78  81
ATOM     81  C   UNL A   1      32.209  26.373  23.130  1.00  0.00     0.015 A 
ATOM     82  C   UNL A   1      32.465  25.625  21.984  1.00  0.00     0.073 A 
ATOM     83  C   UNL A   1      32.572  25.595  24.284  1.00  0.00     0.035 A 
ATOM     84  S   UNL A   1      33.017  24.042  22.302  1.00  0.00    -0.151 S 
ATOM     85  C   UNL A   1      32.980  24.316  23.983  1.00  0.00     0.080 A 
ATOM     86  Br  UNL A   1      32.503  26.181  26.087  1.00  0.00    -0.050 Br
ENDBRANCH  78  81
ENDBRANCH  75  78
ENDBRANCH  73  74
ENDBRANCH  72  73
ENDBRANCH   1  72
TORSDOF 13
ENDMDL
MODEL 2
REMARK VINA RESULT:     -11.3      0.187      1.679
REMARK SMILES O=C(NCCCCNC(=O)[C@@H](O)c1cscc1Br)c1ccc(-c2c3nc(c(-c4c(F)c(F)c(F)c(F)c4F)c4ccc([nH]4)c(-c4c(F)c(F)c(F)c(F)c4F)c4nc(c(-c5c(F)c(F)c(F)c(F)c5F)c5ccc2[nH]5)C=C4)C=C3)cc1
REMARK SMILES IDX 5 1 4 2 3 3 1 4 2 5 19 7 20 8 81 9 21 10 80 11 22 12 23 13
REMARK SMILES IDX 24 14 74 15 25 16 79 17 73 18 75 19 26 20 78 21 72 22 71 23
REMARK SMILES IDX 27 25 59 26 39 27 58 28 40 29 43 30 57 31 76 32 41 33 42 34
REMARK SMILES IDX 56 36 77 37 44 38 28 39 29 40 37 41 30 42 31 43 35 44 38 45
REMARK SMILES IDX 32 46 33 47 36 48 34 49 60 50 61 51 69 52 62 53 63 54 67 55
REMARK SMILES IDX 70 56 64 57 65 58 68 59 66 60 45 61 46 62 54 63 47 64 48 65
REMARK SMILES IDX 52 66 55 67 49 68 50 69 53 70 51 71 6 72 7 73 8 74 9 75
REMARK SMILES IDX 10 77 11 78 12 79 13 81 14 82 17 83 15 84 16 85 18 86
REMARK H PARENT 3 6 75 24 43 35 8 76 12 80
REMARK Flexibility Score: inf
ROOT
ATOM      1  C   UNL A   1      31.549  31.850  26.817  1.00  0.00     0.023 C 
ENDROOT
BRANCH   1   2
ATOM      2  C   UNL A   1      32.749  32.695  27.226  1.00  0.00     0.116 C 
BRANCH   2   3
ATOM      3  N   UNL A   1      32.402  34.053  27.621  1.00  0.00    -0.352 N 
ATOM      4  O   UNL A   1      32.508  35.941  28.858  1.00  0.00    -0.269 OA
ATOM      5  C   UNL A   1      32.983  34.854  28.582  1.00  0.00     0.251 C 
ATOM      6  H   UNL A   1      31.646  34.456  27.135  1.00  0.00     0.163 HD
BRANCH   5   7
ATOM      7  C   UNL A   1      34.173  34.355  29.306  1.00  0.00     0.039 A 
ATOM      8  C   UNL A   1      35.456  34.625  28.827  1.00  0.00     0.014 A 
ATOM      9  C   UNL A   1      33.997  33.572  30.450  1.00  0.00     0.014 A 
ATOM     10  C   UNL A   1      36.546  33.972  29.386  1.00  0.00     0.010 A 
ATOM     11  C   UNL A   1      35.108  32.991  31.070  1.00  0.00     0.010 A 
ATOM     12  C   UNL A   1      36.387  33.150  30.516  1.00  0.00    -0.014 A 
BRANCH  12  13
ATOM     13  C   UNL A   1      37.588  32.511  31.110  1.00  0.00     0.031 A 
ATOM     14  C   UNL A   1      38.058  32.862  32.493  1.00  0.00     0.074 A 
ATOM     15  C   UNL A   1      38.215  31.550  30.404  1.00  0.00     0.049 A 
ATOM     16  N   UNL A   1      39.053  32.354  33.179  1.00  0.00    -0.248 NA
ATOM     17  C   UNL A   1      37.326  33.924  33.201  1.00  0.00     0.031 C 
ATOM     18  C   UNL A   1      37.855  31.137  29.046  1.00  0.00     0.029 A 
ATOM     19  N   UNL A   1      39.260  30.728  30.736  1.00  0.00    -0.354 N 
ATOM     20  C   UNL A   1      39.075  33.038  34.386  1.00  0.00     0.074 A 
ATOM     21  C   UNL A   1      38.011  34.018  34.335  1.00  0.00     0.031 C 
ATOM     22  C   UNL A   1      38.626  30.103  28.682  1.00  0.00     0.029 A 
ATOM     23  C   UNL A   1      39.571  29.819  29.756  1.00  0.00     0.049 A 
ATOM     24  H   UNL A   1      39.740  30.783  31.594  1.00  0.00     0.167 HD
ATOM     25  C   UNL A   1      39.902  32.856  35.445  1.00  0.00     0.037 A 
ATOM     26  C   UNL A   1      40.519  28.865  29.719  1.00  0.00     0.037 A 
ATOM     27  C   UNL A   1      40.952  31.870  35.497  1.00  0.00     0.049 A 
ATOM     28  C   UNL A   1      41.416  28.684  30.908  1.00  0.00     0.074 A 
ATOM     29  C   UNL A   1      41.843  31.607  36.524  1.00  0.00     0.029 A 
ATOM     30  N   UNL A   1      41.249  30.979  34.476  1.00  0.00    -0.354 N 
ATOM     31  N   UNL A   1      41.418  29.333  32.046  1.00  0.00    -0.248 NA
ATOM     32  C   UNL A   1      42.443  27.639  30.807  1.00  0.00     0.031 C 
ATOM     33  C   UNL A   1      42.697  30.578  36.114  1.00  0.00     0.029 A 
ATOM     34  C   UNL A   1      42.313  30.171  34.847  1.00  0.00     0.049 A 
ATOM     35  H   UNL A   1      40.774  30.926  33.616  1.00  0.00     0.167 HD
ATOM     36  C   UNL A   1      42.441  28.777  32.799  1.00  0.00     0.074 A 
ATOM     37  C   UNL A   1      43.015  27.714  32.000  1.00  0.00     0.031 C 
ATOM     38  C   UNL A   1      42.874  29.123  34.036  1.00  0.00     0.037 A 
BRANCH  25  39
ATOM     39  C   UNL A   1      39.713  33.745  36.640  1.00  0.00     0.064 A 
ATOM     40  C   UNL A   1      40.315  35.010  36.715  1.00  0.00     0.173 A 
ATOM     41  C   UNL A   1      38.872  33.355  37.693  1.00  0.00     0.173 A 
ATOM     42  F   UNL A   1      41.137  35.424  35.740  1.00  0.00    -0.203 F 
ATOM     43  C   UNL A   1      40.092  35.846  37.807  1.00  0.00     0.198 A 
ATOM     44  C   UNL A   1      38.633  34.204  38.772  1.00  0.00     0.198 A 
ATOM     45  F   UNL A   1      38.267  32.158  37.668  1.00  0.00    -0.203 F 
ATOM     46  F   UNL A   1      40.703  37.037  37.872  1.00  0.00    -0.200 F 
ATOM     47  C   UNL A   1      39.246  35.445  38.830  1.00  0.00     0.200 A 
ATOM     48  F   UNL A   1      37.806  33.819  39.755  1.00  0.00    -0.200 F 
ATOM     49  F   UNL A   1      39.024  36.255  39.874  1.00  0.00    -0.200 F 
ENDBRANCH  25  39
BRANCH  26  50
ATOM     50  C   UNL A   1      40.661  28.018  28.509  1.00  0.00     0.064 A 
ATOM     51  C   UNL A   1      41.451  28.427  27.426  1.00  0.00     0.173 A 
ATOM     52  C   UNL A   1      40.023  26.772  28.419  1.00  0.00     0.173 A 
ATOM     53  F   UNL A   1      42.066  29.618  27.458  1.00  0.00    -0.203 F 
ATOM     54  C   UNL A   1      41.585  27.627  26.294  1.00  0.00     0.198 A 
ATOM     55  C   UNL A   1      40.184  25.960  27.300  1.00  0.00     0.198 A 
ATOM     56  F   UNL A   1      39.263  26.333  29.433  1.00  0.00    -0.203 F 
ATOM     57  F   UNL A   1      42.315  28.058  25.255  1.00  0.00    -0.200 F 
ATOM     58  C   UNL A   1      40.958  26.392  26.235  1.00  0.00     0.200 A 
ATOM     59  F   UNL A   1      39.590  24.759  27.256  1.00  0.00    -0.200 F 
ATOM     60  F   UNL A   1      41.097  25.619  25.149  1.00  0.00    -0.200 F 
ENDBRANCH  26  50
BRANCH  38  61
ATOM     61  C   UNL A   1      44.018  28.332  34.595  1.00  0.00     0.064 A 
ATOM     62  C   UNL A   1      45.347  28.743  34.410  1.00  0.00     0.173 A 
ATOM     63  C   UNL A   1      43.784  27.161  35.328  1.00  0.00     0.173 A 
ATOM     64  F   UNL A   1      45.621  29.848  33.700  1.00  0.00    -0.203 F 
ATOM     65  C   UNL A   1      46.403  27.989  34.916  1.00  0.00     0.198 A 
ATOM     66  C   UNL A   1      44.842  26.424  35.853  1.00  0.00     0.198 A 
ATOM     67  F   UNL A   1      42.531  26.730  35.534  1.00  0.00    -0.203 F 
ATOM     68  F   UNL A   1      47.667  28.371  34.684  1.00  0.00    -0.200 F 
ATOM     69  C   UNL A   1      46.150  26.834  35.639  1.00  0.00     0.200 A 
ATOM     70  F   UNL A   1      44.596  25.311  36.558  1.00  0.00    -0.200 F 
ATOM     71  F   UNL A   1      47.167  26.108  36.121  1.00  0.00    -0.200 F 
ENDBRANCH  38  61
ENDBRANCH  12  13
ENDBRANCH   5   7
ENDBRANCH   2   3
ENDBRANCH   1   2
BRANCH   1  72
ATOM     72  C   UNL A   1      31.841  30.371  26.584  1.00  0.00     0.023 C 
BRANCH  72  73
ATOM     73  C   UNL A   1      31.426  29.842  25.216  1.00  0.00     0.116 C 
BRANCH  73  74
ATOM     74  N   UNL A   1      32.550  29.651  24.322  1.00  0.00    -0.354 N 
ATOM     75  C   UNL A   1      32.663  28.760  23.289  1.00  0.00     0.253 C 
ATOM     76  H   UNL A   1      33.329  30.233  24.478  1.00  0.00     0.163 HD
ATOM     77  O   UNL A   1      33.679  28.809  22.589  1.00  0.00    -0.272 OA
BRANCH  75  78
ATOM     78  C   UNL A   1      31.550  27.708  23.020  1.00  0.00     0.235 C 
BRANCH  78  79
ATOM     79  O   UNL A   1      30.912  27.961  21.773  1.00  0.00    -0.378 OA
ATOM     80  H   UNL A   1      29.975  27.716  21.834  1.00  0.00     0.212 HD
ENDBRANCH  78  79
BRANCH  78  81
ATOM     81  C   UNL A   1      32.083  26.296  23.192  1.00  0.00     0.015 A 
ATOM     82  C   UNL A   1      32.463  25.532  22.092  1.00  0.00     0.073 A 
ATOM     83  C   UNL A   1      32.297  25.528  24.389  1.00  0.00     0.035 A 
ATOM     84  S   UNL A   1      32.952  23.946  22.489  1.00  0.00    -0.151 S 
ATOM     85  C   UNL A   1      32.721  24.241  24.151  1.00  0.00     0.080 A 
ATOM     86  Br  UNL A   1      32.025  26.136  26.165  1.00  0.00    -0.050 Br
ENDBRANCH  78  81
ENDBRANCH  75  78
ENDBRANCH  73  74
ENDBRANCH  72  73
ENDBRANCH   1  72
TORSDOF 13
ENDMDL
MODEL 3
REMARK VINA RESULT:     -11.2      5.990     11.366
REMARK SMILES O=C(NCCCCNC(=O)[C@@H](O)c1cscc1Br)c1ccc(-c2c3nc(c(-c4c(F)c(F)c(F)c(F)c4F)c4ccc([nH]4)c(-c4c(F)c(F)c(F)c(F)c4F)c4nc(c(-c5c(F)c(F)c(F)c(F)c5F)c5ccc2[nH]5)C=C4)C=C3)cc1
REMARK SMILES IDX 5 1 4 2 3 3 1 4 2 5 19 7 20 8 81 9 21 10 80 11 22 12 23 13
REMARK SMILES IDX 24 14 74 15 25 16 79 17 73 18 75 19 26 20 78 21 72 22 71 23
REMARK SMILES IDX 27 25 59 26 39 27 58 28 40 29 43 30 57 31 76 32 41 33 42 34
REMARK SMILES IDX 56 36 77 37 44 38 28 39 29 40 37 41 30 42 31 43 35 44 38 45
REMARK SMILES IDX 32 46 33 47 36 48 34 49 60 50 61 51 69 52 62 53 63 54 67 55
REMARK SMILES IDX 70 56 64 57 65 58 68 59 66 60 45 61 46 62 54 63 47 64 48 65
REMARK SMILES IDX 52 66 55 67 49 68 50 69 53 70 51 71 6 72 7 73 8 74 9 75
REMARK SMILES IDX 10 77 11 78 12 79 13 81 14 82 17 83 15 84 16 85 18 86
REMARK H PARENT 3 6 75 24 43 35 8 76 12 80
REMARK Flexibility Score: inf
ROOT
ATOM      1  C   UNL A   1      37.992  19.947  24.969  1.00  0.00     0.023 C 
ENDROOT
BRANCH   1   2
ATOM      2  C   UNL A   1      39.213  20.254  25.827  1.00  0.00     0.116 C 
BRANCH   2   3
ATOM      3  N   UNL A   1      40.204  19.188  25.838  1.00  0.00    -0.352 N 
ATOM      4  O   UNL A   1      42.274  18.286  25.935  1.00  0.00    -0.269 OA
ATOM      5  C   UNL A   1      41.564  19.268  26.056  1.00  0.00     0.251 C 
ATOM      6  H   UNL A   1      39.856  18.284  25.664  1.00  0.00     0.163 HD
BRANCH   5   7
ATOM      7  C   UNL A   1      42.158  20.578  26.401  1.00  0.00     0.039 A 
ATOM      8  C   UNL A   1      42.289  20.965  27.735  1.00  0.00     0.014 A 
ATOM      9  C   UNL A   1      42.545  21.443  25.373  1.00  0.00     0.014 A 
ATOM     10  C   UNL A   1      42.640  22.275  28.036  1.00  0.00     0.010 A 
ATOM     11  C   UNL A   1      42.990  22.732  25.683  1.00  0.00     0.010 A 
ATOM     12  C   UNL A   1      42.998  23.173  27.015  1.00  0.00    -0.014 A 
BRANCH  12  13
ATOM     13  C   UNL A   1      43.414  24.549  27.388  1.00  0.00     0.031 A 
ATOM     14  C   UNL A   1      44.805  25.048  27.112  1.00  0.00     0.074 A 
ATOM     15  C   UNL A   1      42.492  25.373  27.920  1.00  0.00     0.049 A 
ATOM     16  N   UNL A   1      45.310  26.239  27.321  1.00  0.00    -0.248 NA
ATOM     17  C   UNL A   1      45.759  24.089  26.532  1.00  0.00     0.031 C 
ATOM     18  C   UNL A   1      41.115  24.992  28.245  1.00  0.00     0.029 A 
ATOM     19  N   UNL A   1      42.558  26.701  28.253  1.00  0.00    -0.354 N 
ATOM     20  C   UNL A   1      46.635  26.171  26.914  1.00  0.00     0.074 A 
ATOM     21  C   UNL A   1      46.869  24.814  26.468  1.00  0.00     0.031 C 
ATOM     22  C   UNL A   1      40.451  26.074  28.676  1.00  0.00     0.029 A 
ATOM     23  C   UNL A   1      41.368  27.207  28.713  1.00  0.00     0.049 A 
ATOM     24  H   UNL A   1      43.378  27.239  28.170  1.00  0.00     0.167 HD
ATOM     25  C   UNL A   1      47.567  27.156  26.905  1.00  0.00     0.037 A 
ATOM     26  C   UNL A   1      41.049  28.446  29.128  1.00  0.00     0.037 A 
ATOM     27  C   UNL A   1      47.325  28.509  27.338  1.00  0.00     0.049 A 
ATOM     28  C   UNL A   1      42.100  29.516  29.101  1.00  0.00     0.074 A 
ATOM     29  C   UNL A   1      48.204  29.578  27.366  1.00  0.00     0.029 A 
ATOM     30  N   UNL A   1      46.111  28.980  27.815  1.00  0.00    -0.354 N 
ATOM     31  N   UNL A   1      43.346  29.438  28.705  1.00  0.00    -0.248 NA
ATOM     32  C   UNL A   1      41.701  30.846  29.579  1.00  0.00     0.031 C 
ATOM     33  C   UNL A   1      47.530  30.688  27.888  1.00  0.00     0.029 A 
ATOM     34  C   UNL A   1      46.220  30.321  28.147  1.00  0.00     0.049 A 
ATOM     35  H   UNL A   1      45.291  28.441  27.904  1.00  0.00     0.167 HD
ATOM     36  C   UNL A   1      43.882  30.705  28.883  1.00  0.00     0.074 A 
ATOM     37  C   UNL A   1      42.813  31.541  29.391  1.00  0.00     0.031 C 
ATOM     38  C   UNL A   1      45.147  31.135  28.657  1.00  0.00     0.037 A 
BRANCH  25  39
ATOM     39  C   UNL A   1      48.943  26.810  26.414  1.00  0.00     0.064 A 
ATOM     40  C   UNL A   1      49.901  26.235  27.262  1.00  0.00     0.173 A 
ATOM     41  C   UNL A   1      49.287  26.997  25.067  1.00  0.00     0.173 A 
ATOM     42  F   UNL A   1      49.625  26.047  28.561  1.00  0.00    -0.203 F 
ATOM     43  C   UNL A   1      51.158  25.874  26.783  1.00  0.00     0.198 A 
ATOM     44  C   UNL A   1      50.537  26.612  24.586  1.00  0.00     0.198 A 
ATOM     45  F   UNL A   1      48.406  27.536  24.212  1.00  0.00    -0.203 F 
ATOM     46  F   UNL A   1      52.068  25.356  27.619  1.00  0.00    -0.200 F 
ATOM     47  C   UNL A   1      51.471  26.056  25.444  1.00  0.00     0.200 A 
ATOM     48  F   UNL A   1      50.835  26.778  23.289  1.00  0.00    -0.200 F 
ATOM     49  F   UNL A   1      52.677  25.696  24.983  1.00  0.00    -0.200 F 
ENDBRANCH  25  39
BRANCH  26  50
ATOM     50  C   UNL A   1      39.672  28.728  29.606  1.00  0.00     0.064 A 
ATOM     51  C   UNL A   1      39.314  28.528  30.946  1.00  0.00     0.173 A 
ATOM     52  C   UNL A   1      38.691  29.222  28.733  1.00  0.00     0.173 A 
ATOM     53  F   UNL A   1      40.214  28.041  31.814  1.00  0.00    -0.203 F 
ATOM     54  C   UNL A   1      38.022  28.798  31.391  1.00  0.00     0.198 A 
ATOM     55  C   UNL A   1      37.409  29.520  29.187  1.00  0.00     0.198 A 
ATOM     56  F   UNL A   1      38.987  29.437  27.443  1.00  0.00    -0.203 F 
ATOM     57  F   UNL A   1      37.694  28.562  32.669  1.00  0.00    -0.200 F 
ATOM     58  C   UNL A   1      37.073  29.301  30.514  1.00  0.00     0.200 A 
ATOM     59  F   UNL A   1      36.501  30.023  28.339  1.00  0.00    -0.200 F 
ATOM     60  F   UNL A   1      35.835  29.571  30.946  1.00  0.00    -0.200 F 
ENDBRANCH  26  50
BRANCH  38  61
ATOM     61  C   UNL A   1      45.432  32.576  28.952  1.00  0.00     0.064 A 
ATOM     62  C   UNL A   1      45.912  32.982  30.206  1.00  0.00     0.173 A 
ATOM     63  C   UNL A   1      45.232  33.557  27.972  1.00  0.00     0.173 A 
ATOM     64  F   UNL A   1      46.102  32.080  31.181  1.00  0.00    -0.203 F 
ATOM     65  C   UNL A   1      46.153  34.326  30.477  1.00  0.00     0.198 A 
ATOM     66  C   UNL A   1      45.498  34.898  28.238  1.00  0.00     0.198 A 
ATOM     67  F   UNL A   1      44.777  33.218  26.756  1.00  0.00    -0.203 F 
ATOM     68  F   UNL A   1      46.562  34.699  31.697  1.00  0.00    -0.200 F 
ATOM     69  C   UNL A   1      45.950  35.282  29.493  1.00  0.00     0.200 A 
ATOM     70  F   UNL A   1      45.308  35.820  27.284  1.00  0.00    -0.200 F 
ATOM     71  F   UNL A   1      46.178  36.575  29.756  1.00  0.00    -0.200 F 
ENDBRANCH  38  61
ENDBRANCH  12  13
ENDBRANCH   5   7
ENDBRANCH   2   3
ENDBRANCH   1   2
BRANCH   1  72
ATOM     72  C   UNL A   1      36.972  21.077  24.856  1.00  0.00     0.023 C 
BRANCH  72  73
ATOM     73  C   UNL A   1      35.524  20.660  25.085  1.00  0.00     0.116 C 
BRANCH  73  74
ATOM     74  N   UNL A   1      35.018  21.075  26.377  1.00  0.00    -0.354 N 
ATOM     75  C   UNL A   1      33.762  21.528  26.684  1.00  0.00     0.253 C 
ATOM     76  H   UNL A   1      35.654  21.026  27.127  1.00  0.00     0.163 HD
ATOM     77  O   UNL A   1      33.502  21.756  27.869  1.00  0.00    -0.272 OA
BRANCH  75  78
ATOM     78  C   UNL A   1      32.706  21.763  25.569  1.00  0.00     0.235 C 
BRANCH  78  79
ATOM     79  O   UNL A   1      31.708  20.748  25.601  1.00  0.00    -0.378 OA
ATOM     80  H   UNL A   1      30.853  21.142  25.836  1.00  0.00     0.212 HD
ENDBRANCH  78  79
BRANCH  78  81
ATOM     81  C   UNL A   1      32.175  23.185  25.612  1.00  0.00     0.015 A 
ATOM     82  C   UNL A   1      30.843  23.446  25.921  1.00  0.00     0.073 A 
ATOM     83  C   UNL A   1      32.852  24.432  25.381  1.00  0.00     0.035 A 
ATOM     84  S   UNL A   1      30.425  25.099  25.834  1.00  0.00    -0.151 S 
ATOM     85  C   UNL A   1      32.023  25.529  25.429  1.00  0.00     0.080 A 
ATOM     86  Br  UNL A   1      34.701  24.642  25.013  1.00  0.00    -0.050 Br
ENDBRANCH  78  81
ENDBRANCH  75  78
ENDBRANCH  73  74
ENDBRANCH  72  73
ENDBRANCH   1  72
TORSDOF 13
ENDMDL
