MODEL 1
REMARK VINA RESULT:     -12.3      0.000      0.000
REMARK SMILES CC(C)[NH2+][C@@]1(C(=O)NCCCCNC(=O)c2ccc(-c3c4nc(c(-c5c(F)c(F)c(F)c(F)c5F)c5ccc([nH]5)c(-c5c(F)c(F)c(F)c(F)c5F)c5nc(c(-c6c(F)c(F)c(F)c(F)c6F)c6ccc3[nH]6)C=C5)C=C4)cc2)CC[C@@H](Sc2ccncc2)C1
REMARK SMILES IDX 10 1 9 2 8 3 6 4 7 5 5 7 79 8 89 9 80 10 81 11 4 12 2 15
REMARK SMILES IDX 1 16 3 17 82 18 83 19 84 20 88 21 85 22 87 23 86 24 11 25
REMARK SMILES IDX 12 26 13 27 14 28 15 30 16 31 17 32 78 33 18 34 77 35 19 36
REMARK SMILES IDX 20 37 21 38 71 39 22 40 76 41 70 42 72 43 23 44 75 45 69 46
REMARK SMILES IDX 68 47 24 49 56 50 36 51 55 52 37 53 40 54 54 55 73 56 38 57
REMARK SMILES IDX 39 58 53 60 74 61 41 62 25 63 26 64 34 65 27 66 28 67 32 68
REMARK SMILES IDX 35 69 29 70 30 71 33 72 31 73 57 74 58 75 66 76 59 77 60 78
REMARK SMILES IDX 64 79 67 80 61 81 62 82 65 83 63 84 42 85 43 86 51 87 44 88
REMARK SMILES IDX 45 89 49 90 52 91 46 92 47 93 50 94 48 95
REMARK H PARENT 8 6 4 13 4 14 13 29 72 48 40 59
REMARK Flexibility Score: inf
ROOT
ATOM      1  C   UNL A   1      31.874  30.226  26.934  1.00  0.00     0.023 C 
ENDROOT
BRANCH   1   2
ATOM      2  C   UNL A   1      33.168  29.414  26.925  1.00  0.00     0.116 C 
BRANCH   2   3
ATOM      3  N   UNL A   1      33.738  29.359  25.600  1.00  0.00    -0.351 N 
ATOM      4  C   UNL A   1      33.439  28.627  24.495  1.00  0.00     0.281 C 
ATOM      5  O   UNL A   1      34.285  28.707  23.589  1.00  0.00    -0.268 OA
ATOM      6  H   UNL A   1      34.494  29.976  25.471  1.00  0.00     0.163 HD
BRANCH   4   7
ATOM      7  C   UNL A   1      32.162  27.689  24.335  1.00  0.00     0.176 C 
ATOM      8  C   UNL A   1      32.210  26.901  23.015  1.00  0.00     0.080 C 
ATOM      9  C   UNL A   1      30.879  28.551  24.303  1.00  0.00     0.094 C 
ATOM     10  C   UNL A   1      30.919  27.206  22.256  1.00  0.00     0.022 C 
ATOM     11  C   UNL A   1      30.322  28.463  22.880  1.00  0.00     0.058 C 
BRANCH   7  12
ATOM     12  N   UNL A   1      32.242  26.796  25.512  1.00  0.00    -0.332 N 
ATOM     13  H   UNL A   1      32.966  27.198  26.107  1.00  0.00     0.347 HD
ATOM     14  H   UNL A   1      31.261  26.776  25.792  1.00  0.00     0.347 HD
BRANCH  12  15
ATOM     15  C   UNL A   1      32.527  25.372  25.467  1.00  0.00     0.176 C 
ATOM     16  C   UNL A   1      34.028  25.217  25.751  1.00  0.00     0.075 C 
ATOM     17  C   UNL A   1      31.773  24.547  26.501  1.00  0.00     0.075 C 
ENDBRANCH  12  15
ENDBRANCH   7  12
BRANCH  11  18
ATOM     18  S   UNL A   1      28.502  28.735  22.751  1.00  0.00    -0.122 SA
BRANCH  18  19
ATOM     19  C   UNL A   1      28.367  30.451  22.297  1.00  0.00     0.011 A 
ATOM     20  C   UNL A   1      28.605  31.446  23.238  1.00  0.00     0.035 A 
ATOM     21  C   UNL A   1      28.041  30.818  20.993  1.00  0.00     0.035 A 
ATOM     22  C   UNL A   1      28.403  32.764  22.865  1.00  0.00     0.112 A 
ATOM     23  C   UNL A   1      27.872  32.163  20.713  1.00  0.00     0.112 A 
ATOM     24  N   UNL A   1      28.028  33.144  21.626  1.00  0.00    -0.265 NA
ENDBRANCH  18  19
ENDBRANCH  11  18
ENDBRANCH   4   7
ENDBRANCH   2   3
ENDBRANCH   1   2
BRANCH   1  25
ATOM     25  C   UNL A   1      32.045  31.685  26.515  1.00  0.00     0.023 C 
BRANCH  25  26
ATOM     26  C   UNL A   1      32.971  32.501  27.410  1.00  0.00     0.116 C 
BRANCH  26  27
ATOM     27  N   UNL A   1      32.528  33.871  27.626  1.00  0.00    -0.352 N 
ATOM     28  C   UNL A   1      33.039  34.794  28.511  1.00  0.00     0.251 C 
ATOM     29  H   UNL A   1      31.772  34.174  27.073  1.00  0.00     0.163 HD
ATOM     30  O   UNL A   1      32.526  35.893  28.645  1.00  0.00    -0.269 OA
BRANCH  28  31
ATOM     31  C   UNL A   1      34.196  34.399  29.337  1.00  0.00     0.039 A 
ATOM     32  C   UNL A   1      33.964  33.771  30.561  1.00  0.00     0.014 A 
ATOM     33  C   UNL A   1      35.495  34.560  28.849  1.00  0.00     0.014 A 
ATOM     34  C   UNL A   1      35.039  33.229  31.265  1.00  0.00     0.010 A 
ATOM     35  C   UNL A   1      36.553  33.954  29.511  1.00  0.00     0.010 A 
ATOM     36  C   UNL A   1      36.334  33.278  30.722  1.00  0.00    -0.014 A 
BRANCH  36  37
ATOM     37  C   UNL A   1      37.479  32.624  31.402  1.00  0.00     0.031 A 
ATOM     38  C   UNL A   1      38.178  31.471  30.743  1.00  0.00     0.074 A 
ATOM     39  C   UNL A   1      37.829  33.014  32.643  1.00  0.00     0.049 A 
ATOM     40  N   UNL A   1      39.137  30.711  31.205  1.00  0.00    -0.248 NA
ATOM     41  C   UNL A   1      37.714  31.102  29.396  1.00  0.00     0.031 C 
ATOM     42  C   UNL A   1      37.184  34.081  33.410  1.00  0.00     0.029 A 
ATOM     43  N   UNL A   1      38.809  32.548  33.483  1.00  0.00    -0.354 N 
ATOM     44  C   UNL A   1      39.374  29.764  30.218  1.00  0.00     0.074 A 
ATOM     45  C   UNL A   1      38.423  30.010  29.155  1.00  0.00     0.031 C 
ATOM     46  C   UNL A   1      37.800  34.203  34.597  1.00  0.00     0.029 A 
ATOM     47  C   UNL A   1      38.860  33.204  34.688  1.00  0.00     0.049 A 
ATOM     48  H   UNL A   1      39.418  31.812  33.243  1.00  0.00     0.167 HD
ATOM     49  C   UNL A   1      40.316  28.792  30.190  1.00  0.00     0.037 A 
ATOM     50  C   UNL A   1      39.670  33.015  35.746  1.00  0.00     0.037 A 
ATOM     51  C   UNL A   1      41.284  28.578  31.232  1.00  0.00     0.049 A 
ATOM     52  C   UNL A   1      40.724  31.944  35.680  1.00  0.00     0.074 A 
ATOM     53  C   UNL A   1      42.327  27.670  31.267  1.00  0.00     0.029 A 
ATOM     54  N   UNL A   1      41.328  29.287  32.422  1.00  0.00    -0.354 N 
ATOM     55  N   UNL A   1      40.988  31.101  34.711  1.00  0.00    -0.248 NA
ATOM     56  C   UNL A   1      41.599  31.802  36.853  1.00  0.00     0.031 C 
ATOM     57  C   UNL A   1      42.981  27.804  32.496  1.00  0.00     0.029 A 
ATOM     58  C   UNL A   1      42.373  28.825  33.208  1.00  0.00     0.049 A 
ATOM     59  H   UNL A   1      40.711  30.011  32.673  1.00  0.00     0.167 HD
ATOM     60  C   UNL A   1      42.072  30.350  35.143  1.00  0.00     0.074 A 
ATOM     61  C   UNL A   1      42.426  30.845  36.456  1.00  0.00     0.031 C 
ATOM     62  C   UNL A   1      42.716  29.340  34.508  1.00  0.00     0.037 A 
BRANCH  49  63
ATOM     63  C   UNL A   1      40.349  27.897  28.987  1.00  0.00     0.064 A 
ATOM     64  C   UNL A   1      41.104  28.222  27.850  1.00  0.00     0.173 A 
ATOM     65  C   UNL A   1      39.638  26.688  28.979  1.00  0.00     0.173 A 
ATOM     66  F   UNL A   1      41.790  29.374  27.802  1.00  0.00    -0.203 F 
ATOM     67  C   UNL A   1      41.122  27.385  26.738  1.00  0.00     0.198 A 
ATOM     68  C   UNL A   1      39.683  25.838  27.877  1.00  0.00     0.198 A 
ATOM     69  F   UNL A   1      38.903  26.328  30.041  1.00  0.00    -0.203 F 
ATOM     70  F   UNL A   1      41.809  27.742  25.644  1.00  0.00    -0.200 F 
ATOM     71  C   UNL A   1      40.417  26.191  26.754  1.00  0.00     0.200 A 
ATOM     72  F   UNL A   1      39.008  24.680  27.897  1.00  0.00    -0.200 F 
ATOM     73  F   UNL A   1      40.438  25.384  25.685  1.00  0.00    -0.200 F 
ENDBRANCH  49  63
BRANCH  50  74
ATOM     74  C   UNL A   1      39.543  33.885  36.944  1.00  0.00     0.064 A 
ATOM     75  C   UNL A   1      38.781  33.479  38.048  1.00  0.00     0.173 A 
ATOM     76  C   UNL A   1      40.173  35.136  37.010  1.00  0.00     0.173 A 
ATOM     77  F   UNL A   1      38.144  32.298  38.022  1.00  0.00    -0.203 F 
ATOM     78  C   UNL A   1      38.636  34.298  39.165  1.00  0.00     0.198 A 
ATOM     79  C   UNL A   1      40.047  35.945  38.139  1.00  0.00     0.198 A 
ATOM     80  F   UNL A   1      40.918  35.569  35.983  1.00  0.00    -0.203 F 
ATOM     81  F   UNL A   1      37.866  33.902  40.187  1.00  0.00    -0.200 F 
ATOM     82  C   UNL A   1      39.273  35.528  39.212  1.00  0.00     0.200 A 
ATOM     83  F   UNL A   1      40.675  37.128  38.186  1.00  0.00    -0.200 F 
ATOM     84  F   UNL A   1      39.135  36.316  40.287  1.00  0.00    -0.200 F 
ENDBRANCH  50  74
BRANCH  62  85
ATOM     85  C   UNL A   1      43.891  28.727  35.210  1.00  0.00     0.064 A 
ATOM     86  C   UNL A   1      43.742  27.631  36.072  1.00  0.00     0.173 A 
ATOM     87  C   UNL A   1      45.186  29.215  34.981  1.00  0.00     0.173 A 
ATOM     88  F   UNL A   1      42.521  27.140  36.334  1.00  0.00    -0.203 F 
ATOM     89  C   UNL A   1      44.847  27.060  36.697  1.00  0.00     0.198 A 
ATOM     90  C   UNL A   1      46.290  28.623  35.586  1.00  0.00     0.198 A 
ATOM     91  F   UNL A   1      45.381  30.259  34.160  1.00  0.00    -0.203 F 
ATOM     92  F   UNL A   1      44.677  26.039  37.549  1.00  0.00    -0.200 F 
ATOM     93  C   UNL A   1      46.119  27.551  36.448  1.00  0.00     0.200 A 
ATOM     94  F   UNL A   1      47.521  29.091  35.335  1.00  0.00    -0.200 F 
ATOM     95  F   UNL A   1      47.182  26.993  37.044  1.00  0.00    -0.200 F 
ENDBRANCH  62  85
ENDBRANCH  36  37
ENDBRANCH  28  31
ENDBRANCH  26  27
ENDBRANCH  25  26
ENDBRANCH   1  25
TORSDOF 15
ENDMDL
MODEL 2
REMARK VINA RESULT:     -12.2      1.158      7.433
REMARK SMILES CC(C)[NH2+][C@@]1(C(=O)NCCCCNC(=O)c2ccc(-c3c4nc(c(-c5c(F)c(F)c(F)c(F)c5F)c5ccc([nH]5)c(-c5c(F)c(F)c(F)c(F)c5F)c5nc(c(-c6c(F)c(F)c(F)c(F)c6F)c6ccc3[nH]6)C=C5)C=C4)cc2)CC[C@@H](Sc2ccncc2)C1
REMARK SMILES IDX 10 1 9 2 8 3 6 4 7 5 5 7 79 8 89 9 80 10 81 11 4 12 2 15
REMARK SMILES IDX 1 16 3 17 82 18 83 19 84 20 88 21 85 22 87 23 86 24 11 25
REMARK SMILES IDX 12 26 13 27 14 28 15 30 16 31 17 32 78 33 18 34 77 35 19 36
REMARK SMILES IDX 20 37 21 38 71 39 22 40 76 41 70 42 72 43 23 44 75 45 69 46
REMARK SMILES IDX 68 47 24 49 56 50 36 51 55 52 37 53 40 54 54 55 73 56 38 57
REMARK SMILES IDX 39 58 53 60 74 61 41 62 25 63 26 64 34 65 27 66 28 67 32 68
REMARK SMILES IDX 35 69 29 70 30 71 33 72 31 73 57 74 58 75 66 76 59 77 60 78
REMARK SMILES IDX 64 79 67 80 61 81 62 82 65 83 63 84 42 85 43 86 51 87 44 88
REMARK SMILES IDX 45 89 49 90 52 91 46 92 47 93 50 94 48 95
REMARK H PARENT 8 6 4 13 4 14 13 29 72 48 40 59
REMARK Flexibility Score: inf
ROOT
ATOM      1  C   UNL A   1      31.881  30.892  26.013  1.00  0.00     0.023 C 
ENDROOT
BRANCH   1   2
ATOM      2  C   UNL A   1      33.052  30.070  26.550  1.00  0.00     0.116 C 
BRANCH   2   3
ATOM      3  N   UNL A   1      32.610  29.135  27.558  1.00  0.00    -0.351 N 
ATOM      4  C   UNL A   1      32.121  27.870  27.494  1.00  0.00     0.281 C 
ATOM      5  O   UNL A   1      31.655  27.451  28.567  1.00  0.00    -0.268 OA
ATOM      6  H   UNL A   1      32.677  29.486  28.476  1.00  0.00     0.163 HD
BRANCH   4   7
ATOM      7  C   UNL A   1      32.073  26.970  26.180  1.00  0.00     0.176 C 
ATOM      8  C   UNL A   1      33.421  26.991  25.440  1.00  0.00     0.080 C 
ATOM      9  C   UNL A   1      31.010  27.525  25.203  1.00  0.00     0.094 C 
ATOM     10  C   UNL A   1      33.147  27.448  24.008  1.00  0.00     0.022 C 
ATOM     11  C   UNL A   1      31.769  28.101  24.005  1.00  0.00     0.058 C 
BRANCH   7  12
ATOM     12  N   UNL A   1      31.750  25.623  26.698  1.00  0.00    -0.332 N 
ATOM     13  H   UNL A   1      32.229  25.557  27.596  1.00  0.00     0.347 HD
ATOM     14  H   UNL A   1      30.733  25.641  26.628  1.00  0.00     0.347 HD
BRANCH  12  15
ATOM     15  C   UNL A   1      32.035  24.372  26.016  1.00  0.00     0.176 C 
ATOM     16  C   UNL A   1      32.148  23.295  27.105  1.00  0.00     0.075 C 
ATOM     17  C   UNL A   1      30.956  23.928  25.038  1.00  0.00     0.075 C 
ENDBRANCH  12  15
ENDBRANCH   7  12
BRANCH  11  18
ATOM     18  S   UNL A   1      30.807  28.127  22.431  1.00  0.00    -0.122 SA
BRANCH  18  19
ATOM     19  C   UNL A   1      29.407  29.158  22.814  1.00  0.00     0.011 A 
ATOM     20  C   UNL A   1      29.589  30.498  23.135  1.00  0.00     0.035 A 
ATOM     21  C   UNL A   1      28.113  28.642  22.780  1.00  0.00     0.035 A 
ATOM     22  C   UNL A   1      28.482  31.240  23.511  1.00  0.00     0.112 A 
ATOM     23  C   UNL A   1      27.068  29.464  23.162  1.00  0.00     0.112 A 
ATOM     24  N   UNL A   1      27.226  30.748  23.546  1.00  0.00    -0.265 NA
ENDBRANCH  18  19
ENDBRANCH  11  18
ENDBRANCH   4   7
ENDBRANCH   2   3
ENDBRANCH   1   2
BRANCH   1  25
ATOM     25  C   UNL A   1      31.503  32.090  26.881  1.00  0.00     0.023 C 
BRANCH  25  26
ATOM     26  C   UNL A   1      32.684  32.907  27.391  1.00  0.00     0.116 C 
BRANCH  26  27
ATOM     27  N   UNL A   1      32.357  34.292  27.696  1.00  0.00    -0.352 N 
ATOM     28  C   UNL A   1      32.972  35.124  28.605  1.00  0.00     0.251 C 
ATOM     29  H   UNL A   1      31.605  34.680  27.193  1.00  0.00     0.163 HD
ATOM     30  O   UNL A   1      32.551  36.250  28.817  1.00  0.00    -0.269 OA
BRANCH  28  31
ATOM     31  C   UNL A   1      34.128  34.599  29.357  1.00  0.00     0.039 A 
ATOM     32  C   UNL A   1      33.903  33.983  30.588  1.00  0.00     0.014 A 
ATOM     33  C   UNL A   1      35.405  34.630  28.794  1.00  0.00     0.014 A 
ATOM     34  C   UNL A   1      34.954  33.322  31.224  1.00  0.00     0.010 A 
ATOM     35  C   UNL A   1      36.430  33.907  29.388  1.00  0.00     0.010 A 
ATOM     36  C   UNL A   1      36.213  33.243  30.605  1.00  0.00    -0.014 A 
BRANCH  36  37
ATOM     37  C   UNL A   1      37.320  32.464  31.211  1.00  0.00     0.031 A 
ATOM     38  C   UNL A   1      37.811  32.811  32.586  1.00  0.00     0.074 A 
ATOM     39  C   UNL A   1      37.933  31.505  30.490  1.00  0.00     0.049 A 
ATOM     40  N   UNL A   1      38.819  32.313  33.256  1.00  0.00    -0.248 NA
ATOM     41  C   UNL A   1      37.094  33.886  33.290  1.00  0.00     0.031 C 
ATOM     42  C   UNL A   1      37.586  31.120  29.121  1.00  0.00     0.029 A 
ATOM     43  N   UNL A   1      38.988  30.686  30.807  1.00  0.00    -0.354 N 
ATOM     44  C   UNL A   1      38.868  33.027  34.445  1.00  0.00     0.074 A 
ATOM     45  C   UNL A   1      37.826  34.029  34.384  1.00  0.00     0.031 C 
ATOM     46  C   UNL A   1      38.396  30.125  28.725  1.00  0.00     0.029 A 
ATOM     47  C   UNL A   1      39.340  29.825  29.797  1.00  0.00     0.049 A 
ATOM     48  H   UNL A   1      39.449  30.715  31.677  1.00  0.00     0.167 HD
ATOM     49  C   UNL A   1      39.694  32.847  35.503  1.00  0.00     0.037 A 
ATOM     50  C   UNL A   1      40.316  28.899  29.745  1.00  0.00     0.037 A 
ATOM     51  C   UNL A   1      40.702  31.823  35.574  1.00  0.00     0.049 A 
ATOM     52  C   UNL A   1      41.204  28.704  30.943  1.00  0.00     0.074 A 
ATOM     53  C   UNL A   1      41.540  31.509  36.629  1.00  0.00     0.029 A 
ATOM     54  N   UNL A   1      41.005  30.945  34.545  1.00  0.00    -0.354 N 
ATOM     55  N   UNL A   1      41.196  29.335  32.092  1.00  0.00    -0.248 NA
ATOM     56  C   UNL A   1      42.235  27.660  30.840  1.00  0.00     0.031 C 
ATOM     57  C   UNL A   1      42.376  30.463  36.226  1.00  0.00     0.029 A 
ATOM     58  C   UNL A   1      42.030  30.097  34.935  1.00  0.00     0.049 A 
ATOM     59  H   UNL A   1      40.558  30.925  33.669  1.00  0.00     0.167 HD
ATOM     60  C   UNL A   1      42.195  28.750  32.857  1.00  0.00     0.074 A 
ATOM     61  C   UNL A   1      42.783  27.705  32.047  1.00  0.00     0.031 C 
ATOM     62  C   UNL A   1      42.591  29.053  34.118  1.00  0.00     0.037 A 
BRANCH  49  63
ATOM     63  C   UNL A   1      39.529  33.771  36.673  1.00  0.00     0.064 A 
ATOM     64  C   UNL A   1      38.756  33.414  37.788  1.00  0.00     0.173 A 
ATOM     65  C   UNL A   1      40.171  35.019  36.691  1.00  0.00     0.173 A 
ATOM     66  F   UNL A   1      38.110  32.239  37.813  1.00  0.00    -0.203 F 
ATOM     67  C   UNL A   1      38.606  34.284  38.864  1.00  0.00     0.198 A 
ATOM     68  C   UNL A   1      40.044  35.873  37.783  1.00  0.00     0.198 A 
ATOM     69  F   UNL A   1      40.924  35.407  35.652  1.00  0.00    -0.203 F 
ATOM     70  F   UNL A   1      37.821  33.942  39.895  1.00  0.00    -0.200 F 
ATOM     71  C   UNL A   1      39.256  35.509  38.864  1.00  0.00     0.200 A 
ATOM     72  F   UNL A   1      40.679  37.053  37.786  1.00  0.00    -0.200 F 
ATOM     73  F   UNL A   1      39.114  36.344  39.903  1.00  0.00    -0.200 F 
ENDBRANCH  49  63
BRANCH  50  74
ATOM     74  C   UNL A   1      40.482  28.061  28.530  1.00  0.00     0.064 A 
ATOM     75  C   UNL A   1      39.857  26.810  28.431  1.00  0.00     0.173 A 
ATOM     76  C   UNL A   1      41.267  28.486  27.449  1.00  0.00     0.173 A 
ATOM     77  F   UNL A   1      39.111  26.354  29.449  1.00  0.00    -0.203 F 
ATOM     78  C   UNL A   1      40.026  26.006  27.306  1.00  0.00     0.198 A 
ATOM     79  C   UNL A   1      41.416  27.691  26.313  1.00  0.00     0.198 A 
ATOM     80  F   UNL A   1      41.882  29.677  27.491  1.00  0.00    -0.203 F 
ATOM     81  F   UNL A   1      39.452  24.797  27.258  1.00  0.00    -0.200 F 
ATOM     82  C   UNL A   1      40.802  26.449  26.246  1.00  0.00     0.200 A 
ATOM     83  F   UNL A   1      42.156  28.128  25.285  1.00  0.00    -0.200 F 
ATOM     84  F   UNL A   1      40.964  25.677  25.163  1.00  0.00    -0.200 F 
ENDBRANCH  50  74
BRANCH  62  85
ATOM     85  C   UNL A   1      43.688  28.221  34.710  1.00  0.00     0.064 A 
ATOM     86  C   UNL A   1      43.419  27.018  35.379  1.00  0.00     0.173 A 
ATOM     87  C   UNL A   1      45.029  28.609  34.566  1.00  0.00     0.173 A 
ATOM     88  F   UNL A   1      42.152  26.613  35.555  1.00  0.00    -0.203 F 
ATOM     89  C   UNL A   1      44.452  26.245  35.902  1.00  0.00     0.198 A 
ATOM     90  C   UNL A   1      46.059  27.820  35.066  1.00  0.00     0.198 A 
ATOM     91  F   UNL A   1      45.338  29.749  33.929  1.00  0.00    -0.203 F 
ATOM     92  F   UNL A   1      44.169  25.121  36.574  1.00  0.00    -0.200 F 
ATOM     93  C   UNL A   1      45.770  26.642  35.739  1.00  0.00     0.200 A 
ATOM     94  F   UNL A   1      47.334  28.198  34.897  1.00  0.00    -0.200 F 
ATOM     95  F   UNL A   1      46.764  25.892  36.235  1.00  0.00    -0.200 F 
ENDBRANCH  62  85
ENDBRANCH  36  37
ENDBRANCH  28  31
ENDBRANCH  26  27
ENDBRANCH  25  26
ENDBRANCH   1  25
TORSDOF 15
ENDMDL
MODEL 3
REMARK VINA RESULT:     -12.2      6.293     11.876
REMARK SMILES CC(C)[NH2+][C@@]1(C(=O)NCCCCNC(=O)c2ccc(-c3c4nc(c(-c5c(F)c(F)c(F)c(F)c5F)c5ccc([nH]5)c(-c5c(F)c(F)c(F)c(F)c5F)c5nc(c(-c6c(F)c(F)c(F)c(F)c6F)c6ccc3[nH]6)C=C5)C=C4)cc2)CC[C@@H](Sc2ccncc2)C1
REMARK SMILES IDX 10 1 9 2 8 3 6 4 7 5 5 7 79 8 89 9 80 10 81 11 4 12 2 15
REMARK SMILES IDX 1 16 3 17 82 18 83 19 84 20 88 21 85 22 87 23 86 24 11 25
REMARK SMILES IDX 12 26 13 27 14 28 15 30 16 31 17 32 78 33 18 34 77 35 19 36
REMARK SMILES IDX 20 37 21 38 71 39 22 40 76 41 70 42 72 43 23 44 75 45 69 46
REMARK SMILES IDX 68 47 24 49 56 50 36 51 55 52 37 53 40 54 54 55 73 56 38 57
REMARK SMILES IDX 39 58 53 60 74 61 41 62 25 63 26 64 34 65 27 66 28 67 32 68
REMARK SMILES IDX 35 69 29 70 30 71 33 72 31 73 57 74 58 75 66 76 59 77 60 78
REMARK SMILES IDX 64 79 67 80 61 81 62 82 65 83 63 84 42 85 43 86 51 87 44 88
REMARK SMILES IDX 45 89 49 90 52 91 46 92 47 93 50 94 48 95
REMARK H PARENT 8 6 4 13 4 14 13 29 72 48 40 59
REMARK Flexibility Score: inf
ROOT
ATOM      1  C   UNL A   1      37.297  21.567  24.676  1.00  0.00     0.023 C 
ENDROOT
BRANCH   1   2
ATOM      2  C   UNL A   1      36.829  22.356  25.899  1.00  0.00     0.116 C 
BRANCH   2   3
ATOM      3  N   UNL A   1      36.214  23.602  25.507  1.00  0.00    -0.351 N 
ATOM      4  C   UNL A   1      34.924  23.972  25.299  1.00  0.00     0.281 C 
ATOM      5  O   UNL A   1      34.794  25.088  24.770  1.00  0.00    -0.268 OA
ATOM      6  H   UNL A   1      36.861  24.331  25.362  1.00  0.00     0.163 HD
BRANCH   4   7
ATOM      7  C   UNL A   1      33.649  23.077  25.634  1.00  0.00     0.176 C 
ATOM      8  C   UNL A   1      33.922  22.137  26.820  1.00  0.00     0.080 C 
ATOM      9  C   UNL A   1      33.300  22.186  24.420  1.00  0.00     0.094 C 
ATOM     10  C   UNL A   1      33.634  20.713  26.348  1.00  0.00     0.022 C 
ATOM     11  C   UNL A   1      33.617  20.745  24.824  1.00  0.00     0.058 C 
BRANCH   7  12
ATOM     12  N   UNL A   1      32.604  24.075  25.951  1.00  0.00    -0.332 N 
ATOM     13  H   UNL A   1      32.598  24.146  26.968  1.00  0.00     0.347 HD
ATOM     14  H   UNL A   1      32.904  24.848  25.357  1.00  0.00     0.347 HD
BRANCH  12  15
ATOM     15  C   UNL A   1      31.207  23.978  25.564  1.00  0.00     0.176 C 
ATOM     16  C   UNL A   1      30.499  23.184  26.671  1.00  0.00     0.075 C 
ATOM     17  C   UNL A   1      30.497  25.319  25.432  1.00  0.00     0.075 C 
ENDBRANCH  12  15
ENDBRANCH   7  12
BRANCH  11  18
ATOM     18  S   UNL A   1      32.639  19.464  23.924  1.00  0.00    -0.122 SA
BRANCH  18  19
ATOM     19  C   UNL A   1      33.286  17.929  24.550  1.00  0.00     0.011 A 
ATOM     20  C   UNL A   1      34.619  17.591  24.340  1.00  0.00     0.035 A 
ATOM     21  C   UNL A   1      32.474  17.056  25.271  1.00  0.00     0.035 A 
ATOM     22  C   UNL A   1      35.057  16.349  24.767  1.00  0.00     0.112 A 
ATOM     23  C   UNL A   1      33.005  15.840  25.667  1.00  0.00     0.112 A 
ATOM     24  N   UNL A   1      34.275  15.459  25.414  1.00  0.00    -0.265 NA
ENDBRANCH  18  19
ENDBRANCH  11  18
ENDBRANCH   4   7
ENDBRANCH   2   3
ENDBRANCH   1   2
BRANCH   1  25
ATOM     25  C   UNL A   1      38.046  20.279  25.010  1.00  0.00     0.023 C 
BRANCH  25  26
ATOM     26  C   UNL A   1      39.354  20.478  25.766  1.00  0.00     0.116 C 
BRANCH  26  27
ATOM     27  N   UNL A   1      40.190  19.288  25.826  1.00  0.00    -0.352 N 
ATOM     28  C   UNL A   1      41.537  19.215  26.102  1.00  0.00     0.251 C 
ATOM     29  H   UNL A   1      39.738  18.432  25.649  1.00  0.00     0.163 HD
ATOM     30  O   UNL A   1      42.137  18.153  26.050  1.00  0.00    -0.269 OA
BRANCH  28  31
ATOM     31  C   UNL A   1      42.252  20.468  26.411  1.00  0.00     0.039 A 
ATOM     32  C   UNL A   1      42.793  21.209  25.360  1.00  0.00     0.014 A 
ATOM     33  C   UNL A   1      42.293  20.948  27.722  1.00  0.00     0.014 A 
ATOM     34  C   UNL A   1      43.309  22.480  25.614  1.00  0.00     0.010 A 
ATOM     35  C   UNL A   1      42.735  22.242  27.960  1.00  0.00     0.010 A 
ATOM     36  C   UNL A   1      43.242  23.021  26.909  1.00  0.00    -0.014 A 
BRANCH  36  37
ATOM     37  C   UNL A   1      43.693  24.406  27.187  1.00  0.00     0.031 A 
ATOM     38  C   UNL A   1      42.715  25.419  27.708  1.00  0.00     0.074 A 
ATOM     39  C   UNL A   1      44.956  24.769  26.891  1.00  0.00     0.049 A 
ATOM     40  N   UNL A   1      42.885  26.696  27.931  1.00  0.00    -0.248 NA
ATOM     41  C   UNL A   1      41.351  24.936  27.983  1.00  0.00     0.031 C 
ATOM     42  C   UNL A   1      45.980  23.890  26.323  1.00  0.00     0.029 A 
ATOM     43  N   UNL A   1      45.590  25.979  27.017  1.00  0.00    -0.354 N 
ATOM     44  C   UNL A   1      41.650  27.172  28.350  1.00  0.00     0.074 A 
ATOM     45  C   UNL A   1      40.725  26.060  28.298  1.00  0.00     0.031 C 
ATOM     46  C   UNL A   1      47.119  24.584  26.172  1.00  0.00     0.029 A 
ATOM     47  C   UNL A   1      46.899  25.962  26.600  1.00  0.00     0.049 A 
ATOM     48  H   UNL A   1      45.149  26.785  27.372  1.00  0.00     0.167 HD
ATOM     49  C   UNL A   1      41.323  28.419  28.764  1.00  0.00     0.037 A 
ATOM     50  C   UNL A   1      47.814  26.949  26.566  1.00  0.00     0.037 A 
ATOM     51  C   UNL A   1      42.255  29.510  28.851  1.00  0.00     0.049 A 
ATOM     52  C   UNL A   1      47.430  28.319  27.054  1.00  0.00     0.074 A 
ATOM     53  C   UNL A   1      42.042  30.791  29.328  1.00  0.00     0.029 A 
ATOM     54  N   UNL A   1      43.582  29.445  28.455  1.00  0.00    -0.354 N 
ATOM     55  N   UNL A   1      46.279  28.741  27.517  1.00  0.00    -0.248 NA
ATOM     56  C   UNL A   1      48.478  29.351  27.021  1.00  0.00     0.031 C 
ATOM     57  C   UNL A   1      43.232  31.513  29.186  1.00  0.00     0.029 A 
ATOM     58  C   UNL A   1      44.198  30.669  28.661  1.00  0.00     0.049 A 
ATOM     59  H   UNL A   1      44.022  28.647  28.083  1.00  0.00     0.167 HD
ATOM     60  C   UNL A   1      46.469  30.073  27.856  1.00  0.00     0.074 A 
ATOM     61  C   UNL A   1      47.849  30.388  27.557  1.00  0.00     0.031 C 
ATOM     62  C   UNL A   1      45.577  30.958  28.369  1.00  0.00     0.037 A 
BRANCH  49  63
ATOM     63  C   UNL A   1      39.898  28.662  29.165  1.00  0.00     0.064 A 
ATOM     64  C   UNL A   1      39.451  28.420  30.473  1.00  0.00     0.173 A 
ATOM     65  C   UNL A   1      38.973  29.165  28.238  1.00  0.00     0.173 A 
ATOM     66  F   UNL A   1      40.293  27.924  31.392  1.00  0.00    -0.203 F 
ATOM     67  C   UNL A   1      38.125  28.644  30.830  1.00  0.00     0.198 A 
ATOM     68  C   UNL A   1      37.654  29.417  28.607  1.00  0.00     0.198 A 
ATOM     69  F   UNL A   1      39.348  29.416  26.975  1.00  0.00    -0.203 F 
ATOM     70  F   UNL A   1      37.710  28.357  32.072  1.00  0.00    -0.200 F 
ATOM     71  C   UNL A   1      37.229  29.149  29.900  1.00  0.00     0.200 A 
ATOM     72  F   UNL A   1      36.791  29.913  27.709  1.00  0.00    -0.200 F 
ATOM     73  F   UNL A   1      35.953  29.368  30.246  1.00  0.00    -0.200 F 
ENDBRANCH  49  63
BRANCH  50  74
ATOM     74  C   UNL A   1      49.192  26.669  26.088  1.00  0.00     0.064 A 
ATOM     75  C   UNL A   1      49.566  26.956  24.768  1.00  0.00     0.173 A 
ATOM     76  C   UNL A   1      50.159  26.105  26.933  1.00  0.00     0.173 A 
ATOM     77  F   UNL A   1      48.668  27.477  23.918  1.00  0.00    -0.203 F 
ATOM     78  C   UNL A   1      50.849  26.674  24.304  1.00  0.00     0.198 A 
ATOM     79  C   UNL A   1      51.450  25.847  26.475  1.00  0.00     0.198 A 
ATOM     80  F   UNL A   1      49.854  25.817  28.206  1.00  0.00    -0.203 F 
ATOM     81  F   UNL A   1      51.165  26.920  23.026  1.00  0.00    -0.200 F 
ATOM     82  C   UNL A   1      51.791  26.124  25.159  1.00  0.00     0.200 A 
ATOM     83  F   UNL A   1      52.363  25.327  27.307  1.00  0.00    -0.200 F 
ATOM     84  F   UNL A   1      53.026  25.854  24.713  1.00  0.00    -0.200 F 
ENDBRANCH  50  74
BRANCH  62  85
ATOM     85  C   UNL A   1      46.078  32.338  28.671  1.00  0.00     0.064 A 
ATOM     86  C   UNL A   1      46.656  32.656  29.908  1.00  0.00     0.173 A 
ATOM     87  C   UNL A   1      46.021  33.343  27.693  1.00  0.00     0.173 A 
ATOM     88  F   UNL A   1      46.719  31.733  30.880  1.00  0.00    -0.203 F 
ATOM     89  C   UNL A   1      47.138  33.937  30.163  1.00  0.00     0.198 A 
ATOM     90  C   UNL A   1      46.529  34.613  27.941  1.00  0.00     0.198 A 
ATOM     91  F   UNL A   1      45.482  33.085  26.491  1.00  0.00    -0.203 F 
ATOM     92  F   UNL A   1      47.648  34.230  31.367  1.00  0.00    -0.200 F 
ATOM     93  C   UNL A   1      47.081  34.911  29.178  1.00  0.00     0.200 A 
ATOM     94  F   UNL A   1      46.484  35.550  26.985  1.00  0.00    -0.200 F 
ATOM     95  F   UNL A   1      47.554  36.141  29.422  1.00  0.00    -0.200 F 
ENDBRANCH  62  85
ENDBRANCH  36  37
ENDBRANCH  28  31
ENDBRANCH  26  27
ENDBRANCH  25  26
ENDBRANCH   1  25
TORSDOF 15
ENDMDL
