MODEL 1
REMARK VINA RESULT:     -14.2      0.000      0.000
REMARK SMILES O=C(NCCCCNC(=O)[C@H]1[C@H]2CC[C@H](C2)[C@@H]1C(=O)N1CCN(c2cccc(Cl)c2)CC1)c1ccc(-c2c3nc(c(-c4c(F)c(F)c(F)c(F)c4F)c4ccc([nH]4)c(-c4c(F)c(F)c(F)c(F)c4F)c4nc(c(-c5c(F)c(F)c(F)c(F)c5F)c5ccc2[nH]5)C=C4)C=C3)cc1
REMARK SMILES IDX 5 1 4 2 3 3 1 4 2 5 33 7 34 8 95 9 35 10 94 11 36 12 37 13
REMARK SMILES IDX 38 14 88 15 39 16 93 17 87 18 89 19 40 20 92 21 86 22 85 23
REMARK SMILES IDX 41 25 73 26 53 27 72 28 54 29 57 30 71 31 90 32 55 33 56 34
REMARK SMILES IDX 70 36 91 37 58 38 42 39 43 40 51 41 44 42 45 43 49 44 52 45
REMARK SMILES IDX 46 46 47 47 50 48 48 49 74 50 75 51 83 52 76 53 77 54 81 55
REMARK SMILES IDX 84 56 78 57 79 58 82 59 80 60 59 61 60 62 68 63 61 64 62 65
REMARK SMILES IDX 66 66 69 67 63 68 64 69 67 70 65 71 6 72 7 73 8 74 9 75
REMARK SMILES IDX 10 77 11 78 12 79 17 80 13 81 16 82 15 83 14 84 18 85 19 86
REMARK SMILES IDX 20 87 21 88 32 89 22 90 31 91 23 92 24 93 25 94 30 95 26 96
REMARK SMILES IDX 28 97 27 98 29 99
REMARK H PARENT 3 6 89 24 57 35 8 76
REMARK Flexibility Score: inf
ROOT
ATOM      1  C   UNL A   1      31.341  32.355  26.524  1.00  0.00     0.023 C 
ENDROOT
BRANCH   1   2
ATOM      2  C   UNL A   1      32.545  32.926  27.262  1.00  0.00     0.116 C 
BRANCH   2   3
ATOM      3  N   UNL A   1      32.347  34.298  27.700  1.00  0.00    -0.352 N 
ATOM      4  O   UNL A   1      32.653  36.117  29.007  1.00  0.00    -0.269 OA
ATOM      5  C   UNL A   1      33.024  34.996  28.672  1.00  0.00     0.251 C 
ATOM      6  H   UNL A   1      31.633  34.794  27.238  1.00  0.00     0.163 HD
BRANCH   5   7
ATOM      7  C   UNL A   1      34.188  34.374  29.338  1.00  0.00     0.039 A 
ATOM      8  C   UNL A   1      35.484  34.604  28.871  1.00  0.00     0.014 A 
ATOM      9  C   UNL A   1      33.972  33.541  30.439  1.00  0.00     0.014 A 
ATOM     10  C   UNL A   1      36.550  33.900  29.421  1.00  0.00     0.010 A 
ATOM     11  C   UNL A   1      35.054  32.892  31.039  1.00  0.00     0.010 A 
ATOM     12  C   UNL A   1      36.348  33.044  30.516  1.00  0.00    -0.014 A 
BRANCH  12  13
ATOM     13  C   UNL A   1      37.510  32.359  31.133  1.00  0.00     0.031 A 
ATOM     14  C   UNL A   1      37.983  32.720  32.512  1.00  0.00     0.074 A 
ATOM     15  C   UNL A   1      38.131  31.388  30.437  1.00  0.00     0.049 A 
ATOM     16  N   UNL A   1      38.982  32.222  33.199  1.00  0.00    -0.248 NA
ATOM     17  C   UNL A   1      37.245  33.782  33.212  1.00  0.00     0.031 C 
ATOM     18  C   UNL A   1      37.767  30.961  29.084  1.00  0.00     0.029 A 
ATOM     19  N   UNL A   1      39.189  30.580  30.768  1.00  0.00    -0.354 N 
ATOM     20  C   UNL A   1      39.003  32.918  34.399  1.00  0.00     0.074 A 
ATOM     21  C   UNL A   1      37.933  33.892  34.341  1.00  0.00     0.031 C 
ATOM     22  C   UNL A   1      38.562  29.946  28.715  1.00  0.00     0.029 A 
ATOM     23  C   UNL A   1      39.527  29.690  29.780  1.00  0.00     0.049 A 
ATOM     24  H   UNL A   1      39.659  30.633  31.631  1.00  0.00     0.167 HD
ATOM     25  C   UNL A   1      39.837  32.752  35.455  1.00  0.00     0.037 A 
ATOM     26  C   UNL A   1      40.516  28.779  29.728  1.00  0.00     0.037 A 
ATOM     27  C   UNL A   1      40.891  31.771  35.513  1.00  0.00     0.049 A 
ATOM     28  C   UNL A   1      41.437  28.632  30.903  1.00  0.00     0.074 A 
ATOM     29  C   UNL A   1      41.762  31.500  36.554  1.00  0.00     0.029 A 
ATOM     30  N   UNL A   1      41.218  30.902  34.483  1.00  0.00    -0.354 N 
ATOM     31  N   UNL A   1      41.425  29.273  32.047  1.00  0.00    -0.248 NA
ATOM     32  C   UNL A   1      42.510  27.638  30.780  1.00  0.00     0.031 C 
ATOM     33  C   UNL A   1      42.645  30.497  36.138  1.00  0.00     0.029 A 
ATOM     34  C   UNL A   1      42.293  30.109  34.855  1.00  0.00     0.049 A 
ATOM     35  H   UNL A   1      40.755  30.853  33.615  1.00  0.00     0.167 HD
ATOM     36  C   UNL A   1      42.477  28.751  32.786  1.00  0.00     0.074 A 
ATOM     37  C   UNL A   1      43.092  27.726  31.969  1.00  0.00     0.031 C 
ATOM     38  C   UNL A   1      42.895  29.093  34.028  1.00  0.00     0.037 A 
BRANCH  25  39
ATOM     39  C   UNL A   1      39.658  33.664  36.636  1.00  0.00     0.064 A 
ATOM     40  C   UNL A   1      40.267  34.926  36.689  1.00  0.00     0.173 A 
ATOM     41  C   UNL A   1      38.827  33.290  37.702  1.00  0.00     0.173 A 
ATOM     42  F   UNL A   1      41.079  35.328  35.700  1.00  0.00    -0.203 F 
ATOM     43  C   UNL A   1      40.067  35.772  37.778  1.00  0.00     0.198 A 
ATOM     44  C   UNL A   1      38.609  34.149  38.777  1.00  0.00     0.198 A 
ATOM     45  F   UNL A   1      38.215  32.096  37.698  1.00  0.00    -0.203 F 
ATOM     46  F   UNL A   1      40.689  36.958  37.827  1.00  0.00    -0.200 F 
ATOM     47  C   UNL A   1      39.233  35.386  38.817  1.00  0.00     0.200 A 
ATOM     48  F   UNL A   1      37.793  33.779  39.774  1.00  0.00    -0.200 F 
ATOM     49  F   UNL A   1      39.035  36.205  39.860  1.00  0.00    -0.200 F 
ENDBRANCH  25  39
BRANCH  26  50
ATOM     50  C   UNL A   1      40.675  27.940  28.513  1.00  0.00     0.064 A 
ATOM     51  C   UNL A   1      40.047  26.693  28.411  1.00  0.00     0.173 A 
ATOM     52  C   UNL A   1      41.439  28.380  27.422  1.00  0.00     0.173 A 
ATOM     53  F   UNL A   1      39.321  26.223  29.436  1.00  0.00    -0.203 F 
ATOM     54  C   UNL A   1      40.186  25.911  27.267  1.00  0.00     0.198 A 
ATOM     55  C   UNL A   1      41.553  27.611  26.267  1.00  0.00     0.198 A 
ATOM     56  F   UNL A   1      42.056  29.571  27.470  1.00  0.00    -0.203 F 
ATOM     57  F   UNL A   1      39.602  24.706  27.207  1.00  0.00    -0.200 F 
ATOM     58  C   UNL A   1      40.931  26.375  26.192  1.00  0.00     0.200 A 
ATOM     59  F   UNL A   1      42.262  28.070  25.226  1.00  0.00    -0.200 F 
ATOM     60  F   UNL A   1      41.054  25.627  25.088  1.00  0.00    -0.200 F 
ENDBRANCH  26  50
BRANCH  38  61
ATOM     61  C   UNL A   1      44.061  28.334  34.587  1.00  0.00     0.064 A 
ATOM     62  C   UNL A   1      45.375  28.806  34.457  1.00  0.00     0.173 A 
ATOM     63  C   UNL A   1      43.858  27.132  35.283  1.00  0.00     0.173 A 
ATOM     64  F   UNL A   1      45.621  29.940  33.784  1.00  0.00    -0.203 F 
ATOM     65  C   UNL A   1      46.447  28.089  34.983  1.00  0.00     0.198 A 
ATOM     66  C   UNL A   1      44.930  26.433  35.830  1.00  0.00     0.198 A 
ATOM     67  F   UNL A   1      42.620  26.640  35.437  1.00  0.00    -0.203 F 
ATOM     68  F   UNL A   1      47.699  28.534  34.806  1.00  0.00    -0.200 F 
ATOM     69  C   UNL A   1      46.223  26.908  35.673  1.00  0.00     0.200 A 
ATOM     70  F   UNL A   1      44.711  25.296  36.506  1.00  0.00    -0.200 F 
ATOM     71  F   UNL A   1      47.257  26.221  36.181  1.00  0.00    -0.200 F 
ENDBRANCH  38  61
ENDBRANCH  12  13
ENDBRANCH   5   7
ENDBRANCH   2   3
ENDBRANCH   1   2
BRANCH   1  72
ATOM     72  C   UNL A   1      31.457  30.882  26.127  1.00  0.00     0.023 C 
BRANCH  72  73
ATOM     73  C   UNL A   1      32.758  30.211  26.559  1.00  0.00     0.116 C 
BRANCH  73  74
ATOM     74  N   UNL A   1      33.522  29.734  25.432  1.00  0.00    -0.356 N 
ATOM     75  C   UNL A   1      33.329  28.665  24.618  1.00  0.00     0.224 C 
ATOM     76  H   UNL A   1      34.317  30.274  25.217  1.00  0.00     0.163 HD
ATOM     77  O   UNL A   1      34.066  28.601  23.632  1.00  0.00    -0.275 OA
BRANCH  75  78
ATOM     78  C   UNL A   1      32.188  27.674  24.852  1.00  0.00     0.094 C 
ATOM     79  C   UNL A   1      30.899  28.113  24.089  1.00  0.00     0.002 C 
ATOM     80  C   UNL A   1      32.375  26.219  24.344  1.00  0.00     0.094 C 
ATOM     81  C   UNL A   1      31.094  28.143  22.554  1.00  0.00     0.005 C 
ATOM     82  C   UNL A   1      30.040  26.865  24.225  1.00  0.00     0.009 C 
ATOM     83  C   UNL A   1      31.074  25.961  23.545  1.00  0.00     0.002 C 
ATOM     84  C   UNL A   1      31.206  26.660  22.181  1.00  0.00     0.005 C 
BRANCH  80  85
ATOM     85  C   UNL A   1      32.656  25.183  25.447  1.00  0.00     0.226 C 
ATOM     86  O   UNL A   1      32.584  25.511  26.634  1.00  0.00    -0.275 OA
ATOM     87  N   UNL A   1      32.802  23.857  25.091  1.00  0.00    -0.339 N 
ATOM     88  C   UNL A   1      32.097  22.854  25.898  1.00  0.00     0.141 C 
ATOM     89  C   UNL A   1      34.085  23.348  24.591  1.00  0.00     0.141 C 
ATOM     90  C   UNL A   1      31.832  21.579  25.079  1.00  0.00     0.138 C 
ATOM     91  C   UNL A   1      33.915  22.046  23.785  1.00  0.00     0.138 C 
ATOM     92  N   UNL A   1      33.099  21.069  24.532  1.00  0.00    -0.368 N 
BRANCH  92  93
ATOM     93  C   UNL A   1      33.196  19.744  24.132  1.00  0.00     0.038 A 
ATOM     94  C   UNL A   1      32.389  19.285  23.081  1.00  0.00     0.026 A 
ATOM     95  C   UNL A   1      34.079  18.832  24.726  1.00  0.00     0.046 A 
ATOM     96  C   UNL A   1      32.459  17.966  22.626  1.00  0.00     0.004 A 
ATOM     97  C   UNL A   1      34.141  17.509  24.281  1.00  0.00     0.043 A 
ATOM     98  C   UNL A   1      33.338  17.073  23.231  1.00  0.00     0.020 A 
ATOM     99  Cl  UNL A   1      35.220  16.404  25.042  1.00  0.00    -0.084 Cl
ENDBRANCH  92  93
ENDBRANCH  80  85
ENDBRANCH  75  78
ENDBRANCH  73  74
ENDBRANCH  72  73
ENDBRANCH   1  72
TORSDOF 13
ENDMDL
MODEL 2
REMARK VINA RESULT:     -14.1      0.417      7.087
REMARK SMILES O=C(NCCCCNC(=O)[C@H]1[C@H]2CC[C@H](C2)[C@@H]1C(=O)N1CCN(c2cccc(Cl)c2)CC1)c1ccc(-c2c3nc(c(-c4c(F)c(F)c(F)c(F)c4F)c4ccc([nH]4)c(-c4c(F)c(F)c(F)c(F)c4F)c4nc(c(-c5c(F)c(F)c(F)c(F)c5F)c5ccc2[nH]5)C=C4)C=C3)cc1
REMARK SMILES IDX 5 1 4 2 3 3 1 4 2 5 33 7 34 8 95 9 35 10 94 11 36 12 37 13
REMARK SMILES IDX 38 14 88 15 39 16 93 17 87 18 89 19 40 20 92 21 86 22 85 23
REMARK SMILES IDX 41 25 73 26 53 27 72 28 54 29 57 30 71 31 90 32 55 33 56 34
REMARK SMILES IDX 70 36 91 37 58 38 42 39 43 40 51 41 44 42 45 43 49 44 52 45
REMARK SMILES IDX 46 46 47 47 50 48 48 49 74 50 75 51 83 52 76 53 77 54 81 55
REMARK SMILES IDX 84 56 78 57 79 58 82 59 80 60 59 61 60 62 68 63 61 64 62 65
REMARK SMILES IDX 66 66 69 67 63 68 64 69 67 70 65 71 6 72 7 73 8 74 9 75
REMARK SMILES IDX 10 77 11 78 12 79 17 80 13 81 16 82 15 83 14 84 18 85 19 86
REMARK SMILES IDX 20 87 21 88 32 89 22 90 31 91 23 92 24 93 25 94 30 95 26 96
REMARK SMILES IDX 28 97 27 98 29 99
REMARK H PARENT 3 6 89 24 57 35 8 76
REMARK Flexibility Score: inf
ROOT
ATOM      1  C   UNL A   1      31.403  32.381  26.518  1.00  0.00     0.023 C 
ENDROOT
BRANCH   1   2
ATOM      2  C   UNL A   1      32.577  32.968  27.290  1.00  0.00     0.116 C 
BRANCH   2   3
ATOM      3  N   UNL A   1      32.353  34.340  27.713  1.00  0.00    -0.352 N 
ATOM      4  O   UNL A   1      32.603  36.172  29.014  1.00  0.00    -0.269 OA
ATOM      5  C   UNL A   1      32.995  35.052  28.697  1.00  0.00     0.251 C 
ATOM      6  H   UNL A   1      31.646  34.825  27.228  1.00  0.00     0.163 HD
BRANCH   5   7
ATOM      7  C   UNL A   1      34.147  34.448  29.399  1.00  0.00     0.039 A 
ATOM      8  C   UNL A   1      35.444  34.599  28.903  1.00  0.00     0.014 A 
ATOM      9  C   UNL A   1      33.919  33.714  30.565  1.00  0.00     0.014 A 
ATOM     10  C   UNL A   1      36.494  33.907  29.496  1.00  0.00     0.010 A 
ATOM     11  C   UNL A   1      34.988  33.080  31.204  1.00  0.00     0.010 A 
ATOM     12  C   UNL A   1      36.279  33.148  30.658  1.00  0.00    -0.014 A 
BRANCH  12  13
ATOM     13  C   UNL A   1      37.428  32.477  31.316  1.00  0.00     0.031 A 
ATOM     14  C   UNL A   1      38.186  31.380  30.626  1.00  0.00     0.074 A 
ATOM     15  C   UNL A   1      37.793  32.883  32.547  1.00  0.00     0.049 A 
ATOM     16  N   UNL A   1      39.212  30.688  31.058  1.00  0.00    -0.248 NA
ATOM     17  C   UNL A   1      37.734  31.003  29.279  1.00  0.00     0.031 C 
ATOM     18  C   UNL A   1      37.122  33.931  33.319  1.00  0.00     0.029 A 
ATOM     19  N   UNL A   1      38.817  32.473  33.362  1.00  0.00    -0.354 N 
ATOM     20  C   UNL A   1      39.516  29.787  30.047  1.00  0.00     0.074 A 
ATOM     21  C   UNL A   1      38.552  30.000  28.989  1.00  0.00     0.031 C 
ATOM     22  C   UNL A   1      37.773  34.108  34.478  1.00  0.00     0.029 A 
ATOM     23  C   UNL A   1      38.870  33.148  34.555  1.00  0.00     0.049 A 
ATOM     24  H   UNL A   1      39.453  31.764  33.114  1.00  0.00     0.167 HD
ATOM     25  C   UNL A   1      40.515  28.871  30.007  1.00  0.00     0.037 A 
ATOM     26  C   UNL A   1      39.699  33.001  35.605  1.00  0.00     0.037 A 
ATOM     27  C   UNL A   1      41.481  28.674  31.058  1.00  0.00     0.049 A 
ATOM     28  C   UNL A   1      40.781  31.963  35.541  1.00  0.00     0.074 A 
ATOM     29  C   UNL A   1      42.553  27.799  31.093  1.00  0.00     0.029 A 
ATOM     30  N   UNL A   1      41.489  29.362  32.263  1.00  0.00    -0.354 N 
ATOM     31  N   UNL A   1      41.080  31.140  34.565  1.00  0.00    -0.248 NA
ATOM     32  C   UNL A   1      41.641  31.833  36.723  1.00  0.00     0.031 C 
ATOM     33  C   UNL A   1      43.183  27.926  32.336  1.00  0.00     0.029 A 
ATOM     34  C   UNL A   1      42.533  28.914  33.058  1.00  0.00     0.049 A 
ATOM     35  H   UNL A   1      40.848  30.066  32.516  1.00  0.00     0.167 HD
ATOM     36  C   UNL A   1      42.170  30.405  35.008  1.00  0.00     0.074 A 
ATOM     37  C   UNL A   1      42.492  30.895  36.332  1.00  0.00     0.031 C 
ATOM     38  C   UNL A   1      42.839  29.412  34.375  1.00  0.00     0.037 A 
BRANCH  25  39
ATOM     39  C   UNL A   1      40.608  27.994  28.792  1.00  0.00     0.064 A 
ATOM     40  C   UNL A   1      39.909  26.781  28.704  1.00  0.00     0.173 A 
ATOM     41  C   UNL A   1      41.366  28.396  27.681  1.00  0.00     0.173 A 
ATOM     42  F   UNL A   1      39.177  26.346  29.740  1.00  0.00    -0.203 F 
ATOM     43  C   UNL A   1      39.983  25.993  27.557  1.00  0.00     0.198 A 
ATOM     44  C   UNL A   1      41.417  27.618  26.527  1.00  0.00     0.198 A 
ATOM     45  F   UNL A   1      42.049  29.551  27.710  1.00  0.00    -0.203 F 
ATOM     46  F   UNL A   1      39.337  24.820  27.509  1.00  0.00    -0.200 F 
ATOM     47  C   UNL A   1      40.730  26.415  26.468  1.00  0.00     0.200 A 
ATOM     48  F   UNL A   1      42.130  28.034  25.471  1.00  0.00    -0.200 F 
ATOM     49  F   UNL A   1      40.793  25.659  25.362  1.00  0.00    -0.200 F 
ENDBRANCH  25  39
BRANCH  26  50
ATOM     50  C   UNL A   1      39.526  33.863  36.801  1.00  0.00     0.064 A 
ATOM     51  C   UNL A   1      38.778  33.428  37.901  1.00  0.00     0.173 A 
ATOM     52  C   UNL A   1      40.127  35.129  36.876  1.00  0.00     0.173 A 
ATOM     53  F   UNL A   1      38.170  32.233  37.867  1.00  0.00    -0.203 F 
ATOM     54  C   UNL A   1      38.627  34.231  39.029  1.00  0.00     0.198 A 
ATOM     55  C   UNL A   1      39.999  35.918  38.016  1.00  0.00     0.198 A 
ATOM     56  F   UNL A   1      40.859  35.587  35.850  1.00  0.00    -0.203 F 
ATOM     57  F   UNL A   1      37.877  33.805  40.056  1.00  0.00    -0.200 F 
ATOM     58  C   UNL A   1      39.245  35.471  39.089  1.00  0.00     0.200 A 
ATOM     59  F   UNL A   1      40.611  37.109  38.075  1.00  0.00    -0.200 F 
ATOM     60  F   UNL A   1      39.108  36.238  40.179  1.00  0.00    -0.200 F 
ENDBRANCH  26  50
BRANCH  38  61
ATOM     61  C   UNL A   1      44.004  28.806  35.100  1.00  0.00     0.064 A 
ATOM     62  C   UNL A   1      45.296  29.336  34.985  1.00  0.00     0.173 A 
ATOM     63  C   UNL A   1      43.819  27.696  35.938  1.00  0.00     0.173 A 
ATOM     64  F   UNL A   1      45.527  30.386  34.180  1.00  0.00    -0.203 F 
ATOM     65  C   UNL A   1      46.368  28.763  35.665  1.00  0.00     0.198 A 
ATOM     66  C   UNL A   1      44.887  27.143  36.638  1.00  0.00     0.198 A 
ATOM     67  F   UNL A   1      42.601  27.154  36.085  1.00  0.00    -0.203 F 
ATOM     68  F   UNL A   1      47.603  29.257  35.504  1.00  0.00    -0.200 F 
ATOM     69  C   UNL A   1      46.161  27.671  36.495  1.00  0.00     0.200 A 
ATOM     70  F   UNL A   1      44.684  26.094  37.448  1.00  0.00    -0.200 F 
ATOM     71  F   UNL A   1      47.194  27.123  37.151  1.00  0.00    -0.200 F 
ENDBRANCH  38  61
ENDBRANCH  12  13
ENDBRANCH   5   7
ENDBRANCH   2   3
ENDBRANCH   1   2
BRANCH   1  72
ATOM     72  C   UNL A   1      31.380  30.853  26.428  1.00  0.00     0.023 C 
BRANCH  72  73
ATOM     73  C   UNL A   1      32.738  30.187  26.627  1.00  0.00     0.116 C 
BRANCH  73  74
ATOM     74  N   UNL A   1      33.373  29.865  25.372  1.00  0.00    -0.356 N 
ATOM     75  C   UNL A   1      33.121  28.876  24.479  1.00  0.00     0.224 C 
ATOM     76  H   UNL A   1      34.113  30.464  25.121  1.00  0.00     0.163 HD
ATOM     77  O   UNL A   1      33.731  28.949  23.410  1.00  0.00    -0.275 OA
BRANCH  75  78
ATOM     78  C   UNL A   1      32.057  27.808  24.741  1.00  0.00     0.094 C 
ATOM     79  C   UNL A   1      30.722  28.156  24.012  1.00  0.00     0.002 C 
ATOM     80  C   UNL A   1      32.331  26.369  24.228  1.00  0.00     0.094 C 
ATOM     81  C   UNL A   1      30.875  28.197  22.473  1.00  0.00     0.005 C 
ATOM     82  C   UNL A   1      29.955  26.852  24.171  1.00  0.00     0.009 C 
ATOM     83  C   UNL A   1      31.031  26.020  23.463  1.00  0.00     0.002 C 
ATOM     84  C   UNL A   1      31.079  26.725  22.096  1.00  0.00     0.005 C 
BRANCH  80  85
ATOM     85  C   UNL A   1      32.712  25.356  25.323  1.00  0.00     0.226 C 
ATOM     86  O   UNL A   1      32.742  25.708  26.505  1.00  0.00    -0.275 OA
ATOM     87  N   UNL A   1      32.832  24.023  24.983  1.00  0.00    -0.339 N 
ATOM     88  C   UNL A   1      32.203  23.035  25.869  1.00  0.00     0.141 C 
ATOM     89  C   UNL A   1      34.069  23.508  24.384  1.00  0.00     0.141 C 
ATOM     90  C   UNL A   1      31.875  21.744  25.102  1.00  0.00     0.138 C 
ATOM     91  C   UNL A   1      33.835  22.190  23.622  1.00  0.00     0.138 C 
ATOM     92  N   UNL A   1      33.092  21.226  24.457  1.00  0.00    -0.368 N 
BRANCH  92  93
ATOM     93  C   UNL A   1      33.159  19.893  24.077  1.00  0.00     0.038 A 
ATOM     94  C   UNL A   1      32.317  19.428  23.055  1.00  0.00     0.026 A 
ATOM     95  C   UNL A   1      34.044  18.978  24.662  1.00  0.00     0.046 A 
ATOM     96  C   UNL A   1      32.356  18.101  22.622  1.00  0.00     0.004 A 
ATOM     97  C   UNL A   1      34.076  17.648  24.238  1.00  0.00     0.043 A 
ATOM     98  C   UNL A   1      33.239  17.206  23.217  1.00  0.00     0.020 A 
ATOM     99  Cl  UNL A   1      35.160  16.540  24.988  1.00  0.00    -0.084 Cl
ENDBRANCH  92  93
ENDBRANCH  80  85
ENDBRANCH  75  78
ENDBRANCH  73  74
ENDBRANCH  72  73
ENDBRANCH   1  72
TORSDOF 13
ENDMDL
MODEL 3
REMARK VINA RESULT:     -13.9      5.577     10.269
REMARK SMILES O=C(NCCCCNC(=O)[C@H]1[C@H]2CC[C@H](C2)[C@@H]1C(=O)N1CCN(c2cccc(Cl)c2)CC1)c1ccc(-c2c3nc(c(-c4c(F)c(F)c(F)c(F)c4F)c4ccc([nH]4)c(-c4c(F)c(F)c(F)c(F)c4F)c4nc(c(-c5c(F)c(F)c(F)c(F)c5F)c5ccc2[nH]5)C=C4)C=C3)cc1
REMARK SMILES IDX 5 1 4 2 3 3 1 4 2 5 33 7 34 8 95 9 35 10 94 11 36 12 37 13
REMARK SMILES IDX 38 14 88 15 39 16 93 17 87 18 89 19 40 20 92 21 86 22 85 23
REMARK SMILES IDX 41 25 73 26 53 27 72 28 54 29 57 30 71 31 90 32 55 33 56 34
REMARK SMILES IDX 70 36 91 37 58 38 42 39 43 40 51 41 44 42 45 43 49 44 52 45
REMARK SMILES IDX 46 46 47 47 50 48 48 49 74 50 75 51 83 52 76 53 77 54 81 55
REMARK SMILES IDX 84 56 78 57 79 58 82 59 80 60 59 61 60 62 68 63 61 64 62 65
REMARK SMILES IDX 66 66 69 67 63 68 64 69 67 70 65 71 6 72 7 73 8 74 9 75
REMARK SMILES IDX 10 77 11 78 12 79 17 80 13 81 16 82 15 83 14 84 18 85 19 86
REMARK SMILES IDX 20 87 21 88 32 89 22 90 31 91 23 92 24 93 25 94 30 95 26 96
REMARK SMILES IDX 28 97 27 98 29 99
REMARK H PARENT 3 6 89 24 57 35 8 76
REMARK Flexibility Score: inf
ROOT
ATOM      1  C   UNL A   1      38.250  19.241  25.012  1.00  0.00     0.023 C 
ENDROOT
BRANCH   1   2
ATOM      2  C   UNL A   1      39.461  19.800  25.748  1.00  0.00     0.116 C 
BRANCH   2   3
ATOM      3  N   UNL A   1      40.525  18.824  25.917  1.00  0.00    -0.352 N 
ATOM      4  O   UNL A   1      42.654  18.108  26.165  1.00  0.00    -0.269 OA
ATOM      5  C   UNL A   1      41.858  19.042  26.168  1.00  0.00     0.251 C 
ATOM      6  H   UNL A   1      40.254  17.880  25.843  1.00  0.00     0.163 HD
BRANCH   5   7
ATOM      7  C   UNL A   1      42.338  20.419  26.412  1.00  0.00     0.039 A 
ATOM      8  C   UNL A   1      42.383  20.940  27.707  1.00  0.00     0.014 A 
ATOM      9  C   UNL A   1      42.737  21.199  25.324  1.00  0.00     0.014 A 
ATOM     10  C   UNL A   1      42.702  22.280  27.900  1.00  0.00     0.010 A 
ATOM     11  C   UNL A   1      43.130  22.524  25.528  1.00  0.00     0.010 A 
ATOM     12  C   UNL A   1      43.087  23.084  26.814  1.00  0.00    -0.014 A 
BRANCH  12  13
ATOM     13  C   UNL A   1      43.493  24.491  27.054  1.00  0.00     0.031 A 
ATOM     14  C   UNL A   1      42.526  25.493  27.616  1.00  0.00     0.074 A 
ATOM     15  C   UNL A   1      44.758  24.854  26.772  1.00  0.00     0.049 A 
ATOM     16  N   UNL A   1      42.716  26.762  27.885  1.00  0.00    -0.248 NA
ATOM     17  C   UNL A   1      41.167  25.016  27.908  1.00  0.00     0.031 C 
ATOM     18  C   UNL A   1      45.782  23.968  26.212  1.00  0.00     0.029 A 
ATOM     19  N   UNL A   1      45.404  26.054  26.924  1.00  0.00    -0.354 N 
ATOM     20  C   UNL A   1      41.502  27.236  28.360  1.00  0.00     0.074 A 
ATOM     21  C   UNL A   1      40.572  26.127  28.321  1.00  0.00     0.031 C 
ATOM     22  C   UNL A   1      46.935  24.643  26.102  1.00  0.00     0.029 A 
ATOM     23  C   UNL A   1      46.718  26.022  26.529  1.00  0.00     0.049 A 
ATOM     24  H   UNL A   1      44.968  26.860  27.283  1.00  0.00     0.167 HD
ATOM     25  C   UNL A   1      41.196  28.482  28.797  1.00  0.00     0.037 A 
ATOM     26  C   UNL A   1      47.643  26.998  26.496  1.00  0.00     0.037 A 
ATOM     27  C   UNL A   1      42.131  29.578  28.847  1.00  0.00     0.049 A 
ATOM     28  C   UNL A   1      47.270  28.374  26.965  1.00  0.00     0.074 A 
ATOM     29  C   UNL A   1      41.927  30.867  29.310  1.00  0.00     0.029 A 
ATOM     30  N   UNL A   1      43.448  29.514  28.416  1.00  0.00    -0.354 N 
ATOM     31  N   UNL A   1      46.127  28.802  27.445  1.00  0.00    -0.248 NA
ATOM     32  C   UNL A   1      48.313  29.404  26.886  1.00  0.00     0.031 C 
ATOM     33  C   UNL A   1      43.107  31.594  29.118  1.00  0.00     0.029 A 
ATOM     34  C   UNL A   1      44.062  30.746  28.581  1.00  0.00     0.049 A 
ATOM     35  H   UNL A   1      43.884  28.711  28.049  1.00  0.00     0.167 HD
ATOM     36  C   UNL A   1      46.317  30.144  27.739  1.00  0.00     0.074 A 
ATOM     37  C   UNL A   1      47.692  30.454  27.403  1.00  0.00     0.031 C 
ATOM     38  C   UNL A   1      45.431  31.038  28.240  1.00  0.00     0.037 A 
BRANCH  25  39
ATOM     39  C   UNL A   1      39.785  28.740  29.241  1.00  0.00     0.064 A 
ATOM     40  C   UNL A   1      39.388  28.561  30.574  1.00  0.00     0.173 A 
ATOM     41  C   UNL A   1      38.831  29.222  28.331  1.00  0.00     0.173 A 
ATOM     42  F   UNL A   1      40.258  28.093  31.481  1.00  0.00    -0.203 F 
ATOM     43  C   UNL A   1      38.082  28.833  30.975  1.00  0.00     0.198 A 
ATOM     44  C   UNL A   1      37.533  29.518  28.741  1.00  0.00     0.198 A 
ATOM     45  F   UNL A   1      39.161  29.419  27.045  1.00  0.00    -0.203 F 
ATOM     46  F   UNL A   1      37.714  28.618  32.245  1.00  0.00    -0.200 F 
ATOM     47  C   UNL A   1      37.158  29.319  30.061  1.00  0.00     0.200 A 
ATOM     48  F   UNL A   1      36.646  29.999  27.859  1.00  0.00    -0.200 F 
ATOM     49  F   UNL A   1      35.904  29.588  30.451  1.00  0.00    -0.200 F 
ENDBRANCH  25  39
BRANCH  26  50
ATOM     50  C   UNL A   1      49.009  26.697  25.999  1.00  0.00     0.064 A 
ATOM     51  C   UNL A   1      49.370  26.967  24.674  1.00  0.00     0.173 A 
ATOM     52  C   UNL A   1      49.987  26.155  26.846  1.00  0.00     0.173 A 
ATOM     53  F   UNL A   1      48.463  27.469  23.822  1.00  0.00    -0.203 F 
ATOM     54  C   UNL A   1      50.655  26.697  24.210  1.00  0.00     0.198 A 
ATOM     55  C   UNL A   1      51.280  25.912  26.390  1.00  0.00     0.198 A 
ATOM     56  F   UNL A   1      49.692  25.883  28.126  1.00  0.00    -0.203 F 
ATOM     57  F   UNL A   1      50.965  26.934  22.927  1.00  0.00    -0.200 F 
ATOM     58  C   UNL A   1      51.611  26.178  25.070  1.00  0.00     0.200 A 
ATOM     59  F   UNL A   1      52.204  25.425  27.228  1.00  0.00    -0.200 F 
ATOM     60  F   UNL A   1      52.850  25.929  24.626  1.00  0.00    -0.200 F 
ENDBRANCH  26  50
BRANCH  38  61
ATOM     61  C   UNL A   1      45.931  32.433  28.476  1.00  0.00     0.064 A 
ATOM     62  C   UNL A   1      45.836  33.423  27.488  1.00  0.00     0.173 A 
ATOM     63  C   UNL A   1      46.488  32.788  29.714  1.00  0.00     0.173 A 
ATOM     64  F   UNL A   1      45.328  33.128  26.282  1.00  0.00    -0.203 F 
ATOM     65  C   UNL A   1      46.303  34.714  27.723  1.00  0.00     0.198 A 
ATOM     66  C   UNL A   1      46.929  34.085  29.954  1.00  0.00     0.198 A 
ATOM     67  F   UNL A   1      46.598  31.876  30.692  1.00  0.00    -0.203 F 
ATOM     68  F   UNL A   1      46.247  35.633  26.749  1.00  0.00    -0.200 F 
ATOM     69  C   UNL A   1      46.844  35.045  28.957  1.00  0.00     0.200 A 
ATOM     70  F   UNL A   1      47.441  34.406  31.150  1.00  0.00    -0.200 F 
ATOM     71  F   UNL A   1      47.290  36.289  29.182  1.00  0.00    -0.200 F 
ENDBRANCH  38  61
ENDBRANCH  12  13
ENDBRANCH   5   7
ENDBRANCH   2   3
ENDBRANCH   1   2
BRANCH   1  72
ATOM     72  C   UNL A   1      37.054  20.191  24.908  1.00  0.00     0.023 C 
BRANCH  72  73
ATOM     73  C   UNL A   1      37.393  21.661  25.132  1.00  0.00     0.116 C 
BRANCH  73  74
ATOM     74  N   UNL A   1      36.543  22.268  26.128  1.00  0.00    -0.356 N 
ATOM     75  C   UNL A   1      35.253  22.682  26.059  1.00  0.00     0.224 C 
ATOM     76  H   UNL A   1      36.970  22.404  27.005  1.00  0.00     0.163 HD
ATOM     77  O   UNL A   1      34.739  23.018  27.128  1.00  0.00    -0.275 OA
BRANCH  75  78
ATOM     78  C   UNL A   1      34.457  22.618  24.754  1.00  0.00     0.094 C 
ATOM     79  C   UNL A   1      33.792  21.219  24.572  1.00  0.00     0.002 C 
ATOM     80  C   UNL A   1      33.240  23.569  24.599  1.00  0.00     0.094 C 
ATOM     81  C   UNL A   1      32.764  20.896  25.681  1.00  0.00     0.005 C 
ATOM     82  C   UNL A   1      32.852  21.493  23.407  1.00  0.00     0.009 C 
ATOM     83  C   UNL A   1      32.110  22.614  24.144  1.00  0.00     0.002 C 
ATOM     84  C   UNL A   1      31.603  21.852  25.381  1.00  0.00     0.005 C 
BRANCH  80  85
ATOM     85  C   UNL A   1      33.473  24.767  23.660  1.00  0.00     0.226 C 
ATOM     86  O   UNL A   1      34.407  24.746  22.855  1.00  0.00    -0.275 OA
ATOM     87  N   UNL A   1      32.520  25.764  23.607  1.00  0.00    -0.339 N 
ATOM     88  C   UNL A   1      32.116  26.249  22.281  1.00  0.00     0.141 C 
ATOM     89  C   UNL A   1      32.496  26.837  24.609  1.00  0.00     0.141 C 
ATOM     90  C   UNL A   1      30.700  26.846  22.325  1.00  0.00     0.138 C 
ATOM     91  C   UNL A   1      31.115  27.515  24.694  1.00  0.00     0.138 C 
ATOM     92  N   UNL A   1      30.636  27.898  23.351  1.00  0.00    -0.368 N 
BRANCH  92  93
ATOM     93  C   UNL A   1      29.632  28.855  23.300  1.00  0.00     0.038 A 
ATOM     94  C   UNL A   1      28.302  28.443  23.130  1.00  0.00     0.026 A 
ATOM     95  C   UNL A   1      29.881  30.228  23.421  1.00  0.00     0.046 A 
ATOM     96  C   UNL A   1      27.250  29.362  23.089  1.00  0.00     0.004 A 
ATOM     97  C   UNL A   1      28.832  31.149  23.368  1.00  0.00     0.043 A 
ATOM     98  C   UNL A   1      27.518  30.722  23.207  1.00  0.00     0.020 A 
ATOM     99  Cl  UNL A   1      29.170  32.833  23.499  1.00  0.00    -0.084 Cl
ENDBRANCH  92  93
ENDBRANCH  80  85
ENDBRANCH  75  78
ENDBRANCH  73  74
ENDBRANCH  72  73
ENDBRANCH   1  72
TORSDOF 13
ENDMDL
