MODEL 1
REMARK VINA RESULT:     -12.7      0.000      0.000
REMARK SMILES CCc1ccc(N2C(=O)C[C@@H](SC[C@@H](NC(C)=O)C(=O)NCCCCNC(=O)c3ccc(-c4c5nc(c(-c6c(F)c(F)c(F)c(F)c6F)c6ccc([nH]6)c(-c6c(F)c(F)c(F)c(F)c6F)c6nc(c(-c7c(F)c(F)c(F)c(F)c7F)c7ccc4[nH]7)C=C6)C=C5)cc3)C2=O)cc1
REMARK SMILES IDX 22 1 21 2 19 3 20 4 14 6 13 7 12 8 11 9 7 10 8 11 92 12 9 13
REMARK SMILES IDX 10 14 93 15 6 16 3 17 4 18 95 19 5 20 94 21 2 22 1 23 15 24
REMARK SMILES IDX 16 25 17 27 18 28 23 29 24 30 25 31 26 32 27 33 28 35 29 36
REMARK SMILES IDX 30 37 91 38 31 39 90 40 32 41 33 42 34 43 84 44 35 45 89 46
REMARK SMILES IDX 83 47 85 48 36 49 88 50 82 51 81 52 37 54 69 55 49 56 68 57
REMARK SMILES IDX 50 58 53 59 67 60 86 61 51 62 52 63 66 65 87 66 54 67 38 68
REMARK SMILES IDX 39 69 47 70 40 71 41 72 45 73 48 74 42 75 43 76 46 77 44 78
REMARK SMILES IDX 70 79 71 80 79 81 72 82 73 83 77 84 80 85 74 86 75 87 78 88
REMARK SMILES IDX 76 89 55 90 56 91 64 92 57 93 58 94 62 95 65 96 59 97 60 98
REMARK SMILES IDX 63 99 61 100
REMARK H PARENT 21 5 15 26 26 34 85 53 53 64
REMARK Flexibility Score: inf
ROOT
ATOM      1  C   UNL A   1      36.037  21.863  24.472  1.00  0.00     0.116 C 
ENDROOT
BRANCH   1   2
ATOM      2  N   UNL A   1      35.597  21.937  25.848  1.00  0.00    -0.354 N 
ATOM      3  C   UNL A   1      34.510  21.377  26.449  1.00  0.00     0.243 C 
ATOM      4  O   UNL A   1      34.240  21.755  27.594  1.00  0.00    -0.273 OA
ATOM      5  H   UNL A   1      36.170  22.475  26.441  1.00  0.00     0.163 HD
BRANCH   3   6
ATOM      6  C   UNL A   1      33.531  20.474  25.671  1.00  0.00     0.181 C 
BRANCH   6   7
ATOM      7  C   UNL A   1      32.892  21.355  24.574  1.00  0.00     0.105 C 
BRANCH   7   8
ATOM      8  S   UNL A   1      31.524  22.430  25.172  1.00  0.00    -0.145 SA
BRANCH   8   9
ATOM      9  C   UNL A   1      32.082  24.152  24.895  1.00  0.00     0.146 C 
ATOM     10  N   UNL A   1      30.858  26.144  24.631  1.00  0.00    -0.250 N 
ATOM     11  C   UNL A   1      31.212  26.079  25.958  1.00  0.00     0.235 C 
ATOM     12  C   UNL A   1      31.272  25.009  23.956  1.00  0.00     0.247 C 
ATOM     13  O   UNL A   1      30.826  26.761  26.899  1.00  0.00    -0.274 OA
ATOM     14  C   UNL A   1      32.168  24.948  26.173  1.00  0.00     0.125 C 
ATOM     15  O   UNL A   1      31.076  24.695  22.788  1.00  0.00    -0.273 OA
BRANCH  10  16
ATOM     16  C   UNL A   1      30.169  27.254  24.035  1.00  0.00     0.052 A 
ATOM     17  C   UNL A   1      28.679  29.509  23.102  1.00  0.00    -0.048 A 
ATOM     18  C   UNL A   1      30.003  29.646  23.518  1.00  0.00     0.006 A 
ATOM     19  C   UNL A   1      28.127  28.229  23.076  1.00  0.00     0.006 A 
ATOM     20  C   UNL A   1      30.728  28.540  23.987  1.00  0.00     0.027 A 
ATOM     21  C   UNL A   1      28.862  27.122  23.533  1.00  0.00     0.027 A 
BRANCH  17  22
ATOM     22  C   UNL A   1      27.854  30.720  22.746  1.00  0.00     0.032 C 
ATOM     23  C   UNL A   1      28.637  31.799  22.026  1.00  0.00     0.009 C 
ENDBRANCH  17  22
ENDBRANCH  10  16
ENDBRANCH   8   9
ENDBRANCH   7   8
ENDBRANCH   6   7
BRANCH   6  24
ATOM     24  N   UNL A   1      34.103  19.245  25.109  1.00  0.00    -0.344 N 
ATOM     25  C   UNL A   1      33.332  18.162  24.745  1.00  0.00     0.217 C 
ATOM     26  H   UNL A   1      35.079  19.191  24.986  1.00  0.00     0.164 HD
ATOM     27  C   UNL A   1      34.101  17.097  24.012  1.00  0.00     0.114 C 
ATOM     28  O   UNL A   1      32.152  18.029  25.043  1.00  0.00    -0.275 OA
ENDBRANCH   6  24
ENDBRANCH   3   6
ENDBRANCH   1   2
BRANCH   1  29
ATOM     29  C   UNL A   1      37.520  21.513  24.409  1.00  0.00     0.023 C 
BRANCH  29  30
ATOM     30  C   UNL A   1      37.871  20.149  25.000  1.00  0.00     0.023 C 
BRANCH  30  31
ATOM     31  C   UNL A   1      38.975  20.185  26.047  1.00  0.00     0.116 C 
BRANCH  31  32
ATOM     32  N   UNL A   1      40.053  19.245  25.781  1.00  0.00    -0.352 N 
ATOM     33  C   UNL A   1      41.400  19.454  25.941  1.00  0.00     0.251 C 
ATOM     34  H   UNL A   1      39.786  18.357  25.447  1.00  0.00     0.163 HD
ATOM     35  O   UNL A   1      42.230  18.588  25.726  1.00  0.00    -0.269 OA
BRANCH  33  36
ATOM     36  C   UNL A   1      41.846  20.774  26.387  1.00  0.00     0.039 A 
ATOM     37  C   UNL A   1      42.179  20.963  27.730  1.00  0.00     0.014 A 
ATOM     38  C   UNL A   1      41.975  21.792  25.443  1.00  0.00     0.014 A 
ATOM     39  C   UNL A   1      42.693  22.192  28.130  1.00  0.00     0.010 A 
ATOM     40  C   UNL A   1      42.547  22.989  25.830  1.00  0.00     0.010 A 
ATOM     41  C   UNL A   1      42.898  23.198  27.175  1.00  0.00    -0.014 A 
BRANCH  41  42
ATOM     42  C   UNL A   1      43.445  24.519  27.538  1.00  0.00     0.031 A 
ATOM     43  C   UNL A   1      42.506  25.552  28.079  1.00  0.00     0.074 A 
ATOM     44  C   UNL A   1      44.722  24.808  27.241  1.00  0.00     0.049 A 
ATOM     45  N   UNL A   1      42.682  26.837  28.228  1.00  0.00    -0.248 NA
ATOM     46  C   UNL A   1      41.164  25.075  28.453  1.00  0.00     0.031 C 
ATOM     47  C   UNL A   1      45.694  23.867  26.681  1.00  0.00     0.029 A 
ATOM     48  N   UNL A   1      45.409  25.989  27.330  1.00  0.00    -0.354 N 
ATOM     49  C   UNL A   1      41.462  27.328  28.673  1.00  0.00     0.074 A 
ATOM     50  C   UNL A   1      40.544  26.212  28.728  1.00  0.00     0.031 C 
ATOM     51  C   UNL A   1      46.851  24.512  26.465  1.00  0.00     0.029 A 
ATOM     52  C   UNL A   1      46.684  25.916  26.825  1.00  0.00     0.049 A 
ATOM     53  H   UNL A   1      45.027  26.810  27.716  1.00  0.00     0.167 HD
ATOM     54  C   UNL A   1      41.148  28.600  29.012  1.00  0.00     0.037 A 
ATOM     55  C   UNL A   1      47.596  26.887  26.646  1.00  0.00     0.037 A 
ATOM     56  C   UNL A   1      42.094  29.683  28.964  1.00  0.00     0.049 A 
ATOM     57  C   UNL A   1      47.238  28.289  27.051  1.00  0.00     0.074 A 
ATOM     58  C   UNL A   1      41.919  31.005  29.330  1.00  0.00     0.029 A 
ATOM     59  N   UNL A   1      43.404  29.560  28.516  1.00  0.00    -0.354 N 
ATOM     60  N   UNL A   1      46.097  28.749  27.511  1.00  0.00    -0.248 NA
ATOM     61  C   UNL A   1      48.288  29.306  26.922  1.00  0.00     0.031 C 
ATOM     62  C   UNL A   1      43.112  31.689  29.067  1.00  0.00     0.029 A 
ATOM     63  C   UNL A   1      44.048  30.783  28.587  1.00  0.00     0.049 A 
ATOM     64  H   UNL A   1      43.815  28.723  28.196  1.00  0.00     0.167 HD
ATOM     65  C   UNL A   1      46.296  30.099  27.750  1.00  0.00     0.074 A 
ATOM     66  C   UNL A   1      47.673  30.383  27.392  1.00  0.00     0.031 C 
ATOM     67  C   UNL A   1      45.423  31.023  28.227  1.00  0.00     0.037 A 
BRANCH  54  68
ATOM     68  C   UNL A   1      39.734  28.872  29.438  1.00  0.00     0.064 A 
ATOM     69  C   UNL A   1      38.761  29.326  28.531  1.00  0.00     0.173 A 
ATOM     70  C   UNL A   1      39.348  28.701  30.775  1.00  0.00     0.173 A 
ATOM     71  F   UNL A   1      39.079  29.522  27.243  1.00  0.00    -0.203 F 
ATOM     72  C   UNL A   1      37.474  29.643  28.958  1.00  0.00     0.198 A 
ATOM     73  C   UNL A   1      38.049  28.986  31.191  1.00  0.00     0.198 A 
ATOM     74  F   UNL A   1      40.231  28.267  31.686  1.00  0.00    -0.203 F 
ATOM     75  F   UNL A   1      36.587  30.146  28.087  1.00  0.00    -0.200 F 
ATOM     76  C   UNL A   1      37.117  29.469  30.285  1.00  0.00     0.200 A 
ATOM     77  F   UNL A   1      37.702  28.805  32.473  1.00  0.00    -0.200 F 
ATOM     78  F   UNL A   1      35.879  29.781  30.694  1.00  0.00    -0.200 F 
ENDBRANCH  54  68
BRANCH  55  79
ATOM     79  C   UNL A   1      48.927  26.545  26.082  1.00  0.00     0.064 A 
ATOM     80  C   UNL A   1      49.226  26.815  24.740  1.00  0.00     0.173 A 
ATOM     81  C   UNL A   1      49.945  26.006  26.883  1.00  0.00     0.173 A 
ATOM     82  F   UNL A   1      48.282  27.319  23.933  1.00  0.00    -0.203 F 
ATOM     83  C   UNL A   1      50.492  26.554  24.219  1.00  0.00     0.198 A 
ATOM     84  C   UNL A   1      51.218  25.769  26.366  1.00  0.00     0.198 A 
ATOM     85  F   UNL A   1      49.714  25.743  28.178  1.00  0.00    -0.203 F 
ATOM     86  F   UNL A   1      50.746  26.802  22.926  1.00  0.00    -0.200 F 
ATOM     87  C   UNL A   1      51.489  26.040  25.034  1.00  0.00     0.200 A 
ATOM     88  F   UNL A   1      52.185  25.292  27.163  1.00  0.00    -0.200 F 
ATOM     89  F   UNL A   1      52.712  25.810  24.537  1.00  0.00    -0.200 F 
ENDBRANCH  55  79
BRANCH  67  90
ATOM     90  C   UNL A   1      45.948  32.413  28.425  1.00  0.00     0.064 A 
ATOM     91  C   UNL A   1      45.844  33.390  27.424  1.00  0.00     0.173 A 
ATOM     92  C   UNL A   1      46.513  32.784  29.655  1.00  0.00     0.173 A 
ATOM     93  F   UNL A   1      45.326  33.078  26.226  1.00  0.00    -0.203 F 
ATOM     94  C   UNL A   1      46.306  34.684  27.642  1.00  0.00     0.198 A 
ATOM     95  C   UNL A   1      46.946  34.086  29.878  1.00  0.00     0.198 A 
ATOM     96  F   UNL A   1      46.626  31.885  30.644  1.00  0.00    -0.203 F 
ATOM     97  F   UNL A   1      46.236  35.593  26.659  1.00  0.00    -0.200 F 
ATOM     98  C   UNL A   1      46.848  35.034  28.871  1.00  0.00     0.200 A 
ATOM     99  F   UNL A   1      47.457  34.425  31.070  1.00  0.00    -0.200 F 
ATOM    100  F   UNL A   1      47.281  36.284  29.082  1.00  0.00    -0.200 F 
ENDBRANCH  67  90
ENDBRANCH  41  42
ENDBRANCH  33  36
ENDBRANCH  31  32
ENDBRANCH  30  31
ENDBRANCH  29  30
ENDBRANCH   1  29
TORSDOF 17
ENDMDL
MODEL 2
REMARK VINA RESULT:     -12.7      5.400     10.357
REMARK SMILES CCc1ccc(N2C(=O)C[C@@H](SC[C@@H](NC(C)=O)C(=O)NCCCCNC(=O)c3ccc(-c4c5nc(c(-c6c(F)c(F)c(F)c(F)c6F)c6ccc([nH]6)c(-c6c(F)c(F)c(F)c(F)c6F)c6nc(c(-c7c(F)c(F)c(F)c(F)c7F)c7ccc4[nH]7)C=C6)C=C5)cc3)C2=O)cc1
REMARK SMILES IDX 22 1 21 2 19 3 20 4 14 6 13 7 12 8 11 9 7 10 8 11 92 12 9 13
REMARK SMILES IDX 10 14 93 15 6 16 3 17 4 18 95 19 5 20 94 21 2 22 1 23 15 24
REMARK SMILES IDX 16 25 17 27 18 28 23 29 24 30 25 31 26 32 27 33 28 35 29 36
REMARK SMILES IDX 30 37 91 38 31 39 90 40 32 41 33 42 34 43 84 44 35 45 89 46
REMARK SMILES IDX 83 47 85 48 36 49 88 50 82 51 81 52 37 54 69 55 49 56 68 57
REMARK SMILES IDX 50 58 53 59 67 60 86 61 51 62 52 63 66 65 87 66 54 67 38 68
REMARK SMILES IDX 39 69 47 70 40 71 41 72 45 73 48 74 42 75 43 76 46 77 44 78
REMARK SMILES IDX 70 79 71 80 79 81 72 82 73 83 77 84 80 85 74 86 75 87 78 88
REMARK SMILES IDX 76 89 55 90 56 91 64 92 57 93 58 94 62 95 65 96 59 97 60 98
REMARK SMILES IDX 63 99 61 100
REMARK H PARENT 21 5 15 26 26 34 85 53 53 64
REMARK Flexibility Score: inf
ROOT
ATOM      1  C   UNL A   1      33.794  30.191  26.948  1.00  0.00     0.116 C 
ENDROOT
BRANCH   1   2
ATOM      2  N   UNL A   1      32.858  29.354  27.666  1.00  0.00    -0.354 N 
ATOM      3  C   UNL A   1      32.100  28.313  27.224  1.00  0.00     0.243 C 
ATOM      4  O   UNL A   1      31.226  27.887  27.987  1.00  0.00    -0.273 OA
ATOM      5  H   UNL A   1      32.752  29.571  28.621  1.00  0.00     0.163 HD
BRANCH   3   6
ATOM      6  C   UNL A   1      32.174  27.819  25.764  1.00  0.00     0.181 C 
BRANCH   6   7
ATOM      7  C   UNL A   1      32.913  26.462  25.794  1.00  0.00     0.105 C 
BRANCH   7   8
ATOM      8  S   UNL A   1      33.690  25.990  24.195  1.00  0.00    -0.145 SA
BRANCH   8   9
ATOM      9  C   UNL A   1      32.666  24.629  23.522  1.00  0.00     0.146 C 
ATOM     10  N   UNL A   1      32.621  22.334  24.040  1.00  0.00    -0.250 N 
ATOM     11  C   UNL A   1      31.627  22.920  24.788  1.00  0.00     0.235 C 
ATOM     12  C   UNL A   1      33.325  23.288  23.326  1.00  0.00     0.247 C 
ATOM     13  O   UNL A   1      30.966  22.451  25.705  1.00  0.00    -0.274 OA
ATOM     14  C   UNL A   1      31.449  24.345  24.367  1.00  0.00     0.125 C 
ATOM     15  O   UNL A   1      34.309  23.141  22.611  1.00  0.00    -0.273 OA
BRANCH  10  16
ATOM     16  C   UNL A   1      32.873  20.921  24.001  1.00  0.00     0.052 A 
ATOM     17  C   UNL A   1      33.551  18.159  23.708  1.00  0.00    -0.048 A 
ATOM     18  C   UNL A   1      34.211  18.965  24.635  1.00  0.00     0.006 A 
ATOM     19  C   UNL A   1      32.496  18.716  22.985  1.00  0.00     0.006 A 
ATOM     20  C   UNL A   1      33.885  20.323  24.768  1.00  0.00     0.027 A 
ATOM     21  C   UNL A   1      32.164  20.073  23.132  1.00  0.00     0.027 A 
BRANCH  17  22
ATOM     22  C   UNL A   1      34.005  16.743  23.455  1.00  0.00     0.032 C 
ATOM     23  C   UNL A   1      34.114  15.906  24.714  1.00  0.00     0.009 C 
ENDBRANCH  17  22
ENDBRANCH  10  16
ENDBRANCH   8   9
ENDBRANCH   7   8
ENDBRANCH   6   7
BRANCH   6  24
ATOM     24  N   UNL A   1      30.893  27.720  25.056  1.00  0.00    -0.344 N 
ATOM     25  C   UNL A   1      30.669  28.317  23.834  1.00  0.00     0.217 C 
ATOM     26  H   UNL A   1      30.163  27.205  25.470  1.00  0.00     0.164 HD
ATOM     27  C   UNL A   1      29.361  27.921  23.204  1.00  0.00     0.114 C 
ATOM     28  O   UNL A   1      31.415  29.146  23.328  1.00  0.00    -0.275 OA
ENDBRANCH   6  24
ENDBRANCH   3   6
ENDBRANCH   1   2
BRANCH   1  29
ATOM     29  C   UNL A   1      34.143  31.425  27.773  1.00  0.00     0.023 C 
BRANCH  29  30
ATOM     30  C   UNL A   1      33.049  32.489  27.809  1.00  0.00     0.023 C 
BRANCH  30  31
ATOM     31  C   UNL A   1      33.531  33.896  27.486  1.00  0.00     0.116 C 
BRANCH  31  32
ATOM     32  N   UNL A   1      32.896  34.924  28.296  1.00  0.00    -0.352 N 
ATOM     33  C   UNL A   1      33.195  35.269  29.590  1.00  0.00     0.251 C 
ATOM     34  H   UNL A   1      32.167  35.430  27.867  1.00  0.00     0.163 HD
ATOM     35  O   UNL A   1      32.629  36.176  30.177  1.00  0.00    -0.269 OA
BRANCH  33  36
ATOM     36  C   UNL A   1      34.236  34.511  30.284  1.00  0.00     0.039 A 
ATOM     37  C   UNL A   1      33.872  33.634  31.308  1.00  0.00     0.014 A 
ATOM     38  C   UNL A   1      35.558  34.649  29.865  1.00  0.00     0.014 A 
ATOM     39  C   UNL A   1      34.852  32.845  31.900  1.00  0.00     0.010 A 
ATOM     40  C   UNL A   1      36.519  33.818  30.409  1.00  0.00     0.010 A 
ATOM     41  C   UNL A   1      36.172  32.922  31.435  1.00  0.00    -0.014 A 
BRANCH  41  42
ATOM     42  C   UNL A   1      37.255  32.107  32.019  1.00  0.00     0.031 A 
ATOM     43  C   UNL A   1      37.795  32.499  33.359  1.00  0.00     0.074 A 
ATOM     44  C   UNL A   1      37.821  31.137  31.283  1.00  0.00     0.049 A 
ATOM     45  N   UNL A   1      38.888  32.113  33.959  1.00  0.00    -0.248 NA
ATOM     46  C   UNL A   1      37.020  33.507  34.100  1.00  0.00     0.031 C 
ATOM     47  C   UNL A   1      37.374  30.714  29.955  1.00  0.00     0.029 A 
ATOM     48  N   UNL A   1      38.920  30.360  31.532  1.00  0.00    -0.354 N 
ATOM     49  C   UNL A   1      38.954  32.861  35.127  1.00  0.00     0.074 A 
ATOM     50  C   UNL A   1      37.815  33.752  35.130  1.00  0.00     0.031 C 
ATOM     51  C   UNL A   1      38.202  29.761  29.499  1.00  0.00     0.029 A 
ATOM     52  C   UNL A   1      39.259  29.544  30.481  1.00  0.00     0.049 A 
ATOM     53  H   UNL A   1      39.420  30.385  32.380  1.00  0.00     0.167 HD
ATOM     54  C   UNL A   1      39.883  32.796  36.109  1.00  0.00     0.037 A 
ATOM     55  C   UNL A   1      40.325  28.739  30.325  1.00  0.00     0.037 A 
ATOM     56  C   UNL A   1      40.994  31.882  36.082  1.00  0.00     0.049 A 
ATOM     57  C   UNL A   1      41.333  28.662  31.436  1.00  0.00     0.074 A 
ATOM     58  C   UNL A   1      41.973  31.679  37.035  1.00  0.00     0.029 A 
ATOM     59  N   UNL A   1      41.267  31.012  35.032  1.00  0.00    -0.354 N 
ATOM     60  N   UNL A   1      41.374  29.339  32.560  1.00  0.00    -0.248 NA
ATOM     61  C   UNL A   1      42.436  27.708  31.267  1.00  0.00     0.031 C 
ATOM     62  C   UNL A   1      42.862  30.714  36.544  1.00  0.00     0.029 A 
ATOM     63  C   UNL A   1      42.406  30.277  35.308  1.00  0.00     0.049 A 
ATOM     64  H   UNL A   1      40.728  30.931  34.211  1.00  0.00     0.167 HD
ATOM     65  C   UNL A   1      42.489  28.879  33.244  1.00  0.00     0.074 A 
ATOM     66  C   UNL A   1      43.091  27.857  32.410  1.00  0.00     0.031 C 
ATOM     67  C   UNL A   1      42.971  29.262  34.454  1.00  0.00     0.037 A 
BRANCH  54  68
ATOM     68  C   UNL A   1      39.736  33.747  37.262  1.00  0.00     0.064 A 
ATOM     69  C   UNL A   1      38.961  33.429  38.390  1.00  0.00     0.173 A 
ATOM     70  C   UNL A   1      40.356  35.005  37.230  1.00  0.00     0.173 A 
ATOM     71  F   UNL A   1      38.333  32.247  38.466  1.00  0.00    -0.203 F 
ATOM     72  C   UNL A   1      38.775  34.352  39.417  1.00  0.00     0.198 A 
ATOM     73  C   UNL A   1      40.196  35.912  38.276  1.00  0.00     0.198 A 
ATOM     74  F   UNL A   1      41.110  35.363  36.181  1.00  0.00    -0.203 F 
ATOM     75  F   UNL A   1      37.971  34.052  40.446  1.00  0.00    -0.200 F 
ATOM     76  C   UNL A   1      39.396  35.590  39.362  1.00  0.00     0.200 A 
ATOM     77  F   UNL A   1      40.807  37.104  38.227  1.00  0.00    -0.200 F 
ATOM     78  F   UNL A   1      39.211  36.478  40.348  1.00  0.00    -0.200 F 
ENDBRANCH  54  68
BRANCH  55  79
ATOM     79  C   UNL A   1      40.460  27.939  29.081  1.00  0.00     0.064 A 
ATOM     80  C   UNL A   1      39.745  26.745  28.917  1.00  0.00     0.173 A 
ATOM     81  C   UNL A   1      41.250  28.379  28.009  1.00  0.00     0.173 A 
ATOM     82  F   UNL A   1      38.986  26.277  29.918  1.00  0.00    -0.203 F 
ATOM     83  C   UNL A   1      39.818  26.020  27.729  1.00  0.00     0.198 A 
ATOM     84  C   UNL A   1      41.302  27.666  26.812  1.00  0.00     0.198 A 
ATOM     85  F   UNL A   1      41.943  29.523  28.110  1.00  0.00    -0.203 F 
ATOM     86  F   UNL A   1      39.140  24.870  27.606  1.00  0.00    -0.200 F 
ATOM     87  C   UNL A   1      40.589  26.486  26.674  1.00  0.00     0.200 A 
ATOM     88  F   UNL A   1      42.032  28.130  25.788  1.00  0.00    -0.200 F 
ATOM     89  F   UNL A   1      40.641  25.798  25.526  1.00  0.00    -0.200 F 
ENDBRANCH  55  79
BRANCH  67  90
ATOM     90  C   UNL A   1      44.184  28.542  34.959  1.00  0.00     0.064 A 
ATOM     91  C   UNL A   1      45.478  29.039  34.747  1.00  0.00     0.173 A 
ATOM     92  C   UNL A   1      44.042  27.366  35.713  1.00  0.00     0.173 A 
ATOM     93  F   UNL A   1      45.665  30.150  34.019  1.00  0.00    -0.203 F 
ATOM     94  C   UNL A   1      46.588  28.372  35.256  1.00  0.00     0.198 A 
ATOM     95  C   UNL A   1      45.152  26.720  36.245  1.00  0.00     0.198 A 
ATOM     96  F   UNL A   1      42.823  26.858  35.948  1.00  0.00    -0.203 F 
ATOM     97  F   UNL A   1      47.820  28.840  35.008  1.00  0.00    -0.200 F 
ATOM     98  C   UNL A   1      46.424  27.219  36.012  1.00  0.00     0.200 A 
ATOM     99  F   UNL A   1      44.991  25.615  36.985  1.00  0.00    -0.200 F 
ATOM    100  F   UNL A   1      47.495  26.586  36.510  1.00  0.00    -0.200 F 
ENDBRANCH  67  90
ENDBRANCH  41  42
ENDBRANCH  33  36
ENDBRANCH  31  32
ENDBRANCH  30  31
ENDBRANCH  29  30
ENDBRANCH   1  29
TORSDOF 17
ENDMDL
MODEL 3
REMARK VINA RESULT:     -12.6      5.370     11.351
REMARK SMILES CCc1ccc(N2C(=O)C[C@@H](SC[C@@H](NC(C)=O)C(=O)NCCCCNC(=O)c3ccc(-c4c5nc(c(-c6c(F)c(F)c(F)c(F)c6F)c6ccc([nH]6)c(-c6c(F)c(F)c(F)c(F)c6F)c6nc(c(-c7c(F)c(F)c(F)c(F)c7F)c7ccc4[nH]7)C=C6)C=C5)cc3)C2=O)cc1
REMARK SMILES IDX 22 1 21 2 19 3 20 4 14 6 13 7 12 8 11 9 7 10 8 11 92 12 9 13
REMARK SMILES IDX 10 14 93 15 6 16 3 17 4 18 95 19 5 20 94 21 2 22 1 23 15 24
REMARK SMILES IDX 16 25 17 27 18 28 23 29 24 30 25 31 26 32 27 33 28 35 29 36
REMARK SMILES IDX 30 37 91 38 31 39 90 40 32 41 33 42 34 43 84 44 35 45 89 46
REMARK SMILES IDX 83 47 85 48 36 49 88 50 82 51 81 52 37 54 69 55 49 56 68 57
REMARK SMILES IDX 50 58 53 59 67 60 86 61 51 62 52 63 66 65 87 66 54 67 38 68
REMARK SMILES IDX 39 69 47 70 40 71 41 72 45 73 48 74 42 75 43 76 46 77 44 78
REMARK SMILES IDX 70 79 71 80 79 81 72 82 73 83 77 84 80 85 74 86 75 87 78 88
REMARK SMILES IDX 76 89 55 90 56 91 64 92 57 93 58 94 62 95 65 96 59 97 60 98
REMARK SMILES IDX 63 99 61 100
REMARK H PARENT 21 5 15 26 26 34 85 53 53 64
REMARK Flexibility Score: inf
ROOT
ATOM      1  C   UNL A   1      34.566  29.450  27.378  1.00  0.00     0.116 C 
ENDROOT
BRANCH   1   2
ATOM      2  N   UNL A   1      33.355  28.817  27.854  1.00  0.00    -0.354 N 
ATOM      3  C   UNL A   1      32.422  28.093  27.175  1.00  0.00     0.243 C 
ATOM      4  O   UNL A   1      31.371  27.829  27.768  1.00  0.00    -0.273 OA
ATOM      5  H   UNL A   1      33.178  28.927  28.816  1.00  0.00     0.163 HD
BRANCH   3   6
ATOM      6  C   UNL A   1      32.569  27.794  25.668  1.00  0.00     0.181 C 
BRANCH   6   7
ATOM      7  C   UNL A   1      32.976  26.308  25.550  1.00  0.00     0.105 C 
BRANCH   7   8
ATOM      8  S   UNL A   1      33.513  25.805  23.864  1.00  0.00    -0.145 SA
BRANCH   8   9
ATOM      9  C   UNL A   1      32.427  24.408  23.389  1.00  0.00     0.146 C 
ATOM     10  N   UNL A   1      32.501  22.131  23.978  1.00  0.00    -0.250 N 
ATOM     11  C   UNL A   1      31.614  22.727  24.844  1.00  0.00     0.235 C 
ATOM     12  C   UNL A   1      33.076  23.071  23.140  1.00  0.00     0.247 C 
ATOM     13  O   UNL A   1      31.103  22.279  25.861  1.00  0.00    -0.274 OA
ATOM     14  C   UNL A   1      31.351  24.134  24.410  1.00  0.00     0.125 C 
ATOM     15  O   UNL A   1      33.949  22.914  22.294  1.00  0.00    -0.273 OA
BRANCH  10  16
ATOM     16  C   UNL A   1      32.771  20.721  23.946  1.00  0.00     0.052 A 
ATOM     17  C   UNL A   1      33.504  17.970  23.685  1.00  0.00    -0.048 A 
ATOM     18  C   UNL A   1      34.062  18.769  24.683  1.00  0.00     0.006 A 
ATOM     19  C   UNL A   1      32.519  18.526  22.870  1.00  0.00     0.006 A 
ATOM     20  C   UNL A   1      33.710  20.122  24.800  1.00  0.00     0.027 A 
ATOM     21  C   UNL A   1      32.159  19.878  23.002  1.00  0.00     0.027 A 
BRANCH  17  22
ATOM     22  C   UNL A   1      33.997  16.562  23.461  1.00  0.00     0.032 C 
ATOM     23  C   UNL A   1      34.505  15.888  24.719  1.00  0.00     0.009 C 
ENDBRANCH  17  22
ENDBRANCH  10  16
ENDBRANCH   8   9
ENDBRANCH   7   8
ENDBRANCH   6   7
BRANCH   6  24
ATOM     24  N   UNL A   1      31.398  28.100  24.839  1.00  0.00    -0.344 N 
ATOM     25  C   UNL A   1      31.005  29.390  24.550  1.00  0.00     0.217 C 
ATOM     26  H   UNL A   1      30.870  27.354  24.473  1.00  0.00     0.164 HD
ATOM     27  C   UNL A   1      29.904  29.466  23.527  1.00  0.00     0.114 C 
ATOM     28  O   UNL A   1      31.446  30.383  25.113  1.00  0.00    -0.275 OA
ENDBRANCH   6  24
ENDBRANCH   3   6
ENDBRANCH   1   2
BRANCH   1  29
ATOM     29  C   UNL A   1      34.682  30.862  27.940  1.00  0.00     0.023 C 
BRANCH  29  30
ATOM     30  C   UNL A   1      33.411  31.699  27.809  1.00  0.00     0.023 C 
BRANCH  30  31
ATOM     31  C   UNL A   1      33.634  33.094  27.245  1.00  0.00     0.116 C 
BRANCH  31  32
ATOM     32  N   UNL A   1      32.902  34.130  27.959  1.00  0.00    -0.352 N 
ATOM     33  C   UNL A   1      33.228  34.701  29.163  1.00  0.00     0.251 C 
ATOM     34  H   UNL A   1      32.078  34.457  27.529  1.00  0.00     0.163 HD
ATOM     35  O   UNL A   1      32.569  35.594  29.668  1.00  0.00    -0.269 OA
BRANCH  33  36
ATOM     36  C   UNL A   1      34.416  34.210  29.861  1.00  0.00     0.039 A 
ATOM     37  C   UNL A   1      34.259  33.366  30.963  1.00  0.00     0.014 A 
ATOM     38  C   UNL A   1      35.674  34.560  29.372  1.00  0.00     0.014 A 
ATOM     39  C   UNL A   1      35.390  32.826  31.565  1.00  0.00     0.010 A 
ATOM     40  C   UNL A   1      36.793  33.971  29.931  1.00  0.00     0.010 A 
ATOM     41  C   UNL A   1      36.656  33.111  31.034  1.00  0.00    -0.014 A 
BRANCH  41  42
ATOM     42  C   UNL A   1      37.892  32.564  31.625  1.00  0.00     0.031 A 
ATOM     43  C   UNL A   1      38.573  31.430  30.924  1.00  0.00     0.074 A 
ATOM     44  C   UNL A   1      38.289  32.990  32.836  1.00  0.00     0.049 A 
ATOM     45  N   UNL A   1      39.504  30.624  31.359  1.00  0.00    -0.248 NA
ATOM     46  C   UNL A   1      38.099  31.132  29.563  1.00  0.00     0.031 C 
ATOM     47  C   UNL A   1      37.660  34.068  33.600  1.00  0.00     0.029 A 
ATOM     48  N   UNL A   1      39.290  32.537  33.652  1.00  0.00    -0.354 N 
ATOM     49  C   UNL A   1      39.697  29.699  30.342  1.00  0.00     0.074 A 
ATOM     50  C   UNL A   1      38.758  30.018  29.288  1.00  0.00     0.031 C 
ATOM     51  C   UNL A   1      38.285  34.185  34.783  1.00  0.00     0.029 A 
ATOM     52  C   UNL A   1      39.321  33.162  34.874  1.00  0.00     0.049 A 
ATOM     53  H   UNL A   1      39.926  31.832  33.389  1.00  0.00     0.167 HD
ATOM     54  C   UNL A   1      40.588  28.682  30.296  1.00  0.00     0.037 A 
ATOM     55  C   UNL A   1      40.082  32.907  35.953  1.00  0.00     0.037 A 
ATOM     56  C   UNL A   1      41.522  28.406  31.356  1.00  0.00     0.049 A 
ATOM     57  C   UNL A   1      41.083  31.790  35.875  1.00  0.00     0.074 A 
ATOM     58  C   UNL A   1      42.510  27.442  31.412  1.00  0.00     0.029 A 
ATOM     59  N   UNL A   1      41.576  29.109  32.555  1.00  0.00    -0.354 N 
ATOM     60  N   UNL A   1      41.295  30.939  34.897  1.00  0.00    -0.248 NA
ATOM     61  C   UNL A   1      41.954  31.597  37.040  1.00  0.00     0.031 C 
ATOM     62  C   UNL A   1      43.136  27.536  32.661  1.00  0.00     0.029 A 
ATOM     63  C   UNL A   1      42.574  28.593  33.362  1.00  0.00     0.049 A 
ATOM     64  H   UNL A   1      40.989  29.864  32.793  1.00  0.00     0.167 HD
ATOM     65  C   UNL A   1      42.338  30.127  35.315  1.00  0.00     0.074 A 
ATOM     66  C   UNL A   1      42.721  30.595  36.634  1.00  0.00     0.031 C 
ATOM     67  C   UNL A   1      42.930  29.091  34.668  1.00  0.00     0.037 A 
BRANCH  54  68
ATOM     68  C   UNL A   1      40.569  27.801  29.080  1.00  0.00     0.064 A 
ATOM     69  C   UNL A   1      41.383  28.062  27.964  1.00  0.00     0.173 A 
ATOM     70  C   UNL A   1      39.709  26.696  29.015  1.00  0.00     0.173 A 
ATOM     71  F   UNL A   1      42.213  29.115  27.965  1.00  0.00    -0.203 F 
ATOM     72  C   UNL A   1      41.299  27.278  26.815  1.00  0.00     0.198 A 
ATOM     73  C   UNL A   1      39.654  25.893  27.877  1.00  0.00     0.198 A 
ATOM     74  F   UNL A   1      38.911  26.395  30.050  1.00  0.00    -0.203 F 
ATOM     75  F   UNL A   1      42.031  27.594  25.738  1.00  0.00    -0.200 F 
ATOM     76  C   UNL A   1      40.439  26.192  26.774  1.00  0.00     0.200 A 
ATOM     77  F   UNL A   1      38.830  24.836  27.843  1.00  0.00    -0.200 F 
ATOM     78  F   UNL A   1      40.356  25.444  25.666  1.00  0.00    -0.200 F 
ENDBRANCH  54  68
BRANCH  55  79
ATOM     79  C   UNL A   1      39.929  33.746  37.169  1.00  0.00     0.064 A 
ATOM     80  C   UNL A   1      39.004  33.402  38.164  1.00  0.00     0.173 A 
ATOM     81  C   UNL A   1      40.744  34.865  37.394  1.00  0.00     0.173 A 
ATOM     82  F   UNL A   1      38.194  32.348  37.988  1.00  0.00    -0.203 F 
ATOM     83  C   UNL A   1      38.897  34.148  39.336  1.00  0.00     0.198 A 
ATOM     84  C   UNL A   1      40.653  35.595  38.579  1.00  0.00     0.198 A 
ATOM     85  F   UNL A   1      41.656  35.228  36.480  1.00  0.00    -0.203 F 
ATOM     86  F   UNL A   1      37.989  33.809  40.263  1.00  0.00    -0.200 F 
ATOM     87  C   UNL A   1      39.728  35.238  39.547  1.00  0.00     0.200 A 
ATOM     88  F   UNL A   1      41.473  36.635  38.787  1.00  0.00    -0.200 F 
ATOM     89  F   UNL A   1      39.639  35.941  40.684  1.00  0.00    -0.200 F 
ENDBRANCH  55  79
BRANCH  67  90
ATOM     90  C   UNL A   1      44.079  28.425  35.363  1.00  0.00     0.064 A 
ATOM     91  C   UNL A   1      43.888  27.330  36.218  1.00  0.00     0.173 A 
ATOM     92  C   UNL A   1      45.393  28.858  35.125  1.00  0.00     0.173 A 
ATOM     93  F   UNL A   1      42.650  26.891  36.487  1.00  0.00    -0.203 F 
ATOM     94  C   UNL A   1      44.973  26.704  36.824  1.00  0.00     0.198 A 
ATOM     95  C   UNL A   1      46.475  28.211  35.711  1.00  0.00     0.198 A 
ATOM     96  F   UNL A   1      45.623  29.898  34.310  1.00  0.00    -0.203 F 
ATOM     97  F   UNL A   1      44.768  25.684  37.671  1.00  0.00    -0.200 F 
ATOM     98  C   UNL A   1      46.265  27.139  36.564  1.00  0.00     0.200 A 
ATOM     99  F   UNL A   1      47.722  28.624  35.447  1.00  0.00    -0.200 F 
ATOM    100  F   UNL A   1      47.308  26.527  37.141  1.00  0.00    -0.200 F 
ENDBRANCH  67  90
ENDBRANCH  41  42
ENDBRANCH  33  36
ENDBRANCH  31  32
ENDBRANCH  30  31
ENDBRANCH  29  30
ENDBRANCH   1  29
TORSDOF 17
ENDMDL
