MODEL 1
REMARK VINA RESULT:     -13.1      0.000      0.000
REMARK SMILES CCn1nc(-c2cccnc2)c2cc(C(=O)NCCCCNC(=O)c3ccc(-c4c5nc(c(-c6c(F)c(F)c(F)c(F)c6F)c6ccc([nH]6)c(-c6c(F)c(F)c(F)c(F)c6F)c6nc(c(-c7c(F)c(F)c(F)c(F)c7F)c7ccc4[nH]7)C=C6)C=C5)cc3)sc21
REMARK SMILES IDX 20 1 19 2 18 3 17 4 15 5 16 6 14 8 3 9 4 10 89 11 5 12 12 13
REMARK SMILES IDX 88 14 13 15 2 16 1 17 6 18 7 19 11 20 8 21 10 22 9 23 21 24
REMARK SMILES IDX 22 25 23 26 24 28 25 29 26 30 87 31 27 32 86 33 28 34 29 35
REMARK SMILES IDX 30 36 80 37 31 38 85 39 79 40 81 41 32 42 84 43 78 44 77 45
REMARK SMILES IDX 33 47 65 48 45 49 64 50 46 51 49 52 63 53 82 54 47 55 48 56
REMARK SMILES IDX 62 58 83 59 50 60 34 61 35 62 43 63 36 64 37 65 41 66 44 67
REMARK SMILES IDX 38 68 39 69 42 70 40 71 66 72 67 73 75 74 68 75 69 76 73 77
REMARK SMILES IDX 76 78 70 79 71 80 74 81 72 82 51 83 52 84 60 85 53 86 54 87
REMARK SMILES IDX 58 88 61 89 55 90 56 91 59 92 57 93
REMARK H PARENT 17 7 22 27 81 46 49 57
REMARK Flexibility Score: inf
ROOT
ATOM      1  C   UNL A   1      40.935  19.756  26.100  1.00  0.00     0.023 C 
ENDROOT
BRANCH   1   2
ATOM      2  C   UNL A   1      40.030  20.931  26.496  1.00  0.00     0.023 C 
BRANCH   2   3
ATOM      3  C   UNL A   1      38.708  21.023  25.721  1.00  0.00     0.116 C 
BRANCH   3   4
ATOM      4  N   UNL A   1      38.333  22.397  25.401  1.00  0.00    -0.351 N 
ATOM      5  C   UNL A   1      37.121  23.060  25.340  1.00  0.00     0.261 C 
ATOM      6  O   UNL A   1      37.205  24.283  25.176  1.00  0.00    -0.268 OA
ATOM      7  H   UNL A   1      39.104  22.971  25.184  1.00  0.00     0.163 HD
BRANCH   5   8
ATOM      8  C   UNL A   1      35.825  22.406  25.507  1.00  0.00     0.095 A 
ATOM      9  N   UNL A   1      32.160  21.715  25.537  1.00  0.00    -0.254 N 
ATOM     10  N   UNL A   1      31.942  20.413  25.199  1.00  0.00    -0.171 NA
ATOM     11  C   UNL A   1      33.475  21.962  25.688  1.00  0.00     0.122 A 
ATOM     12  C   UNL A   1      33.183  19.850  25.161  1.00  0.00     0.103 A 
ATOM     13  C   UNL A   1      34.137  20.857  25.358  1.00  0.00     0.040 A 
ATOM     14  S   UNL A   1      34.418  23.248  26.083  1.00  0.00    -0.110 S 
ATOM     15  C   UNL A   1      35.521  21.045  25.276  1.00  0.00     0.038 A 
BRANCH   9  16
ATOM     16  C   UNL A   1      31.143  22.740  25.435  1.00  0.00     0.142 C 
ATOM     17  C   UNL A   1      30.589  23.263  26.740  1.00  0.00     0.029 C 
ENDBRANCH   9  16
BRANCH  12  18
ATOM     18  C   UNL A   1      33.342  18.416  24.977  1.00  0.00     0.021 A 
ATOM     19  C   UNL A   1      34.071  17.886  23.910  1.00  0.00     0.013 A 
ATOM     20  C   UNL A   1      32.678  17.514  25.803  1.00  0.00     0.121 A 
ATOM     21  C   UNL A   1      34.110  16.505  23.715  1.00  0.00     0.021 A 
ATOM     22  N   UNL A   1      32.696  16.167  25.641  1.00  0.00    -0.264 NA
ATOM     23  C   UNL A   1      33.408  15.695  24.594  1.00  0.00     0.111 A 
ENDBRANCH  12  18
ENDBRANCH   5   8
ENDBRANCH   3   4
ENDBRANCH   2   3
ENDBRANCH   1   2
BRANCH   1  24
ATOM     24  C   UNL A   1      42.323  19.775  26.732  1.00  0.00     0.116 C 
BRANCH  24  25
ATOM     25  N   UNL A   1      43.402  19.499  25.780  1.00  0.00    -0.352 N 
ATOM     26  C   UNL A   1      44.046  20.411  24.968  1.00  0.00     0.251 C 
ATOM     27  H   UNL A   1      43.699  18.563  25.713  1.00  0.00     0.163 HD
ATOM     28  O   UNL A   1      44.624  20.065  23.940  1.00  0.00    -0.269 OA
BRANCH  26  29
ATOM     29  C   UNL A   1      44.047  21.820  25.379  1.00  0.00     0.039 A 
ATOM     30  C   UNL A   1      43.011  22.692  25.028  1.00  0.00     0.014 A 
ATOM     31  C   UNL A   1      45.093  22.231  26.203  1.00  0.00     0.014 A 
ATOM     32  C   UNL A   1      42.984  23.964  25.595  1.00  0.00     0.010 A 
ATOM     33  C   UNL A   1      44.996  23.434  26.855  1.00  0.00     0.010 A 
ATOM     34  C   UNL A   1      43.969  24.320  26.529  1.00  0.00    -0.014 A 
BRANCH  34  35
ATOM     35  C   UNL A   1      43.859  25.553  27.310  1.00  0.00     0.031 A 
ATOM     36  C   UNL A   1      44.854  26.609  26.948  1.00  0.00     0.074 A 
ATOM     37  C   UNL A   1      42.769  25.803  28.070  1.00  0.00     0.049 A 
ATOM     38  N   UNL A   1      45.708  27.202  27.717  1.00  0.00    -0.248 NA
ATOM     39  C   UNL A   1      44.995  26.977  25.526  1.00  0.00     0.031 C 
ATOM     40  C   UNL A   1      41.586  24.948  28.240  1.00  0.00     0.029 A 
ATOM     41  N   UNL A   1      42.412  26.931  28.747  1.00  0.00    -0.354 N 
ATOM     42  C   UNL A   1      46.356  28.151  26.923  1.00  0.00     0.074 A 
ATOM     43  C   UNL A   1      46.007  27.845  25.564  1.00  0.00     0.031 C 
ATOM     44  C   UNL A   1      40.563  25.675  28.737  1.00  0.00     0.029 A 
ATOM     45  C   UNL A   1      41.062  26.989  29.086  1.00  0.00     0.049 A 
ATOM     46  H   UNL A   1      43.052  27.643  28.976  1.00  0.00     0.167 HD
ATOM     47  C   UNL A   1      46.906  29.267  27.479  1.00  0.00     0.037 A 
ATOM     48  C   UNL A   1      40.391  28.052  29.592  1.00  0.00     0.037 A 
ATOM     49  C   UNL A   1      47.073  29.092  28.900  1.00  0.00     0.049 A 
ATOM     50  C   UNL A   1      41.401  28.979  30.148  1.00  0.00     0.074 A 
ATOM     51  C   UNL A   1      47.823  28.277  29.719  1.00  0.00     0.029 A 
ATOM     52  N   UNL A   1      46.087  29.629  29.687  1.00  0.00    -0.354 N 
ATOM     53  N   UNL A   1      42.146  28.705  31.183  1.00  0.00    -0.248 NA
ATOM     54  C   UNL A   1      41.881  30.057  29.300  1.00  0.00     0.031 C 
ATOM     55  C   UNL A   1      47.007  28.045  30.868  1.00  0.00     0.029 A 
ATOM     56  C   UNL A   1      45.827  28.777  30.723  1.00  0.00     0.049 A 
ATOM     57  H   UNL A   1      45.639  30.490  29.530  1.00  0.00     0.167 HD
ATOM     58  C   UNL A   1      43.380  29.252  30.876  1.00  0.00     0.074 A 
ATOM     59  C   UNL A   1      43.118  30.186  29.784  1.00  0.00     0.031 C 
ATOM     60  C   UNL A   1      44.525  28.669  31.341  1.00  0.00     0.037 A 
BRANCH  47  61
ATOM     61  C   UNL A   1      46.854  30.660  26.868  1.00  0.00     0.064 A 
ATOM     62  C   UNL A   1      48.023  31.457  26.903  1.00  0.00     0.173 A 
ATOM     63  C   UNL A   1      45.663  31.361  26.580  1.00  0.00     0.173 A 
ATOM     64  F   UNL A   1      49.218  30.906  27.162  1.00  0.00    -0.203 F 
ATOM     65  C   UNL A   1      47.977  32.850  26.787  1.00  0.00     0.198 A 
ATOM     66  C   UNL A   1      45.630  32.746  26.415  1.00  0.00     0.198 A 
ATOM     67  F   UNL A   1      44.466  30.766  26.555  1.00  0.00    -0.203 F 
ATOM     68  F   UNL A   1      49.091  33.570  26.979  1.00  0.00    -0.200 F 
ATOM     69  C   UNL A   1      46.778  33.495  26.558  1.00  0.00     0.200 A 
ATOM     70  F   UNL A   1      44.454  33.355  26.206  1.00  0.00    -0.200 F 
ATOM     71  F   UNL A   1      46.718  34.832  26.523  1.00  0.00    -0.200 F 
ENDBRANCH  47  61
BRANCH  48  72
ATOM     72  C   UNL A   1      38.978  28.450  29.382  1.00  0.00     0.064 A 
ATOM     73  C   UNL A   1      38.101  28.627  30.466  1.00  0.00     0.173 A 
ATOM     74  C   UNL A   1      38.538  28.939  28.137  1.00  0.00     0.173 A 
ATOM     75  F   UNL A   1      38.463  28.230  31.695  1.00  0.00    -0.203 F 
ATOM     76  C   UNL A   1      36.871  29.277  30.318  1.00  0.00     0.198 A 
ATOM     77  C   UNL A   1      37.307  29.582  27.989  1.00  0.00     0.198 A 
ATOM     78  F   UNL A   1      39.334  28.888  27.059  1.00  0.00    -0.203 F 
ATOM     79  F   UNL A   1      36.090  29.482  31.388  1.00  0.00    -0.200 F 
ATOM     80  C   UNL A   1      36.480  29.764  29.081  1.00  0.00     0.200 A 
ATOM     81  F   UNL A   1      36.958  30.082  26.795  1.00  0.00    -0.200 F 
ATOM     82  F   UNL A   1      35.332  30.442  28.951  1.00  0.00    -0.200 F 
ENDBRANCH  48  72
BRANCH  60  83
ATOM     83  C   UNL A   1      44.389  27.675  32.460  1.00  0.00     0.064 A 
ATOM     84  C   UNL A   1      44.256  26.287  32.282  1.00  0.00     0.173 A 
ATOM     85  C   UNL A   1      44.527  28.144  33.773  1.00  0.00     0.173 A 
ATOM     86  F   UNL A   1      44.210  25.749  31.059  1.00  0.00    -0.203 F 
ATOM     87  C   UNL A   1      44.219  25.418  33.371  1.00  0.00     0.198 A 
ATOM     88  C   UNL A   1      44.530  27.271  34.856  1.00  0.00     0.198 A 
ATOM     89  F   UNL A   1      44.709  29.454  34.000  1.00  0.00    -0.203 F 
ATOM     90  F   UNL A   1      44.076  24.099  33.174  1.00  0.00    -0.200 F 
ATOM     91  C   UNL A   1      44.366  25.911  34.657  1.00  0.00     0.200 A 
ATOM     92  F   UNL A   1      44.721  27.749  36.094  1.00  0.00    -0.200 F 
ATOM     93  F   UNL A   1      44.374  25.072  35.702  1.00  0.00    -0.200 F 
ENDBRANCH  60  83
ENDBRANCH  34  35
ENDBRANCH  26  29
ENDBRANCH  24  25
ENDBRANCH   1  24
TORSDOF 13
ENDMDL
MODEL 2
REMARK VINA RESULT:     -12.7      5.029     10.472
REMARK SMILES CCn1nc(-c2cccnc2)c2cc(C(=O)NCCCCNC(=O)c3ccc(-c4c5nc(c(-c6c(F)c(F)c(F)c(F)c6F)c6ccc([nH]6)c(-c6c(F)c(F)c(F)c(F)c6F)c6nc(c(-c7c(F)c(F)c(F)c(F)c7F)c7ccc4[nH]7)C=C6)C=C5)cc3)sc21
REMARK SMILES IDX 20 1 19 2 18 3 17 4 15 5 16 6 14 8 3 9 4 10 89 11 5 12 12 13
REMARK SMILES IDX 88 14 13 15 2 16 1 17 6 18 7 19 11 20 8 21 10 22 9 23 21 24
REMARK SMILES IDX 22 25 23 26 24 28 25 29 26 30 87 31 27 32 86 33 28 34 29 35
REMARK SMILES IDX 30 36 80 37 31 38 85 39 79 40 81 41 32 42 84 43 78 44 77 45
REMARK SMILES IDX 33 47 65 48 45 49 64 50 46 51 49 52 63 53 82 54 47 55 48 56
REMARK SMILES IDX 62 58 83 59 50 60 34 61 35 62 43 63 36 64 37 65 41 66 44 67
REMARK SMILES IDX 38 68 39 69 42 70 40 71 66 72 67 73 75 74 68 75 69 76 73 77
REMARK SMILES IDX 76 78 70 79 71 80 74 81 72 82 51 83 52 84 60 85 53 86 54 87
REMARK SMILES IDX 58 88 61 89 55 90 56 91 59 92 57 93
REMARK H PARENT 17 7 22 27 81 46 49 57
REMARK Flexibility Score: inf
ROOT
ATOM      1  C   UNL A   1      33.021  34.417  28.484  1.00  0.00     0.023 C 
ENDROOT
BRANCH   1   2
ATOM      2  C   UNL A   1      34.009  33.326  28.049  1.00  0.00     0.023 C 
BRANCH   2   3
ATOM      3  C   UNL A   1      33.372  31.971  27.707  1.00  0.00     0.116 C 
BRANCH   3   4
ATOM      4  N   UNL A   1      34.289  30.851  27.894  1.00  0.00    -0.351 N 
ATOM      5  C   UNL A   1      34.420  29.619  27.279  1.00  0.00     0.261 C 
ATOM      6  O   UNL A   1      35.425  28.979  27.608  1.00  0.00    -0.268 OA
ATOM      7  H   UNL A   1      34.952  31.005  28.606  1.00  0.00     0.163 HD
BRANCH   5   8
ATOM      8  C   UNL A   1      33.491  29.107  26.274  1.00  0.00     0.095 A 
ATOM      9  N   UNL A   1      31.081  26.947  24.422  1.00  0.00    -0.254 N 
ATOM     10  N   UNL A   1      30.141  27.729  23.819  1.00  0.00    -0.171 NA
ATOM     11  C   UNL A   1      32.055  27.696  24.970  1.00  0.00     0.122 A 
ATOM     12  C   UNL A   1      30.583  29.007  24.001  1.00  0.00     0.103 A 
ATOM     13  C   UNL A   1      31.719  28.974  24.819  1.00  0.00     0.040 A 
ATOM     14  S   UNL A   1      33.446  27.435  25.805  1.00  0.00    -0.110 S 
ATOM     15  C   UNL A   1      32.549  29.851  25.526  1.00  0.00     0.038 A 
BRANCH   9  16
ATOM     16  C   UNL A   1      30.880  25.539  24.696  1.00  0.00     0.142 C 
ATOM     17  C   UNL A   1      30.268  25.202  26.036  1.00  0.00     0.029 C 
ENDBRANCH   9  16
BRANCH  12  18
ATOM     18  C   UNL A   1      29.908  30.124  23.358  1.00  0.00     0.021 A 
ATOM     19  C   UNL A   1      29.432  31.215  24.087  1.00  0.00     0.013 A 
ATOM     20  C   UNL A   1      29.617  30.091  21.997  1.00  0.00     0.121 A 
ATOM     21  C   UNL A   1      28.700  32.213  23.442  1.00  0.00     0.021 A 
ATOM     22  N   UNL A   1      28.910  31.046  21.341  1.00  0.00    -0.264 NA
ATOM     23  C   UNL A   1      28.462  32.082  22.083  1.00  0.00     0.111 A 
ENDBRANCH  12  18
ENDBRANCH   5   8
ENDBRANCH   3   4
ENDBRANCH   2   3
ENDBRANCH   1   2
BRANCH   1  24
ATOM     24  C   UNL A   1      33.635  35.549  29.302  1.00  0.00     0.116 C 
BRANCH  24  25
ATOM     25  N   UNL A   1      32.946  35.794  30.571  1.00  0.00    -0.352 N 
ATOM     26  C   UNL A   1      33.074  35.067  31.738  1.00  0.00     0.251 C 
ATOM     27  H   UNL A   1      32.326  36.558  30.594  1.00  0.00     0.163 HD
ATOM     28  O   UNL A   1      32.197  35.069  32.600  1.00  0.00    -0.269 OA
BRANCH  26  29
ATOM     29  C   UNL A   1      34.310  34.302  31.943  1.00  0.00     0.039 A 
ATOM     30  C   UNL A   1      34.380  32.930  31.681  1.00  0.00     0.014 A 
ATOM     31  C   UNL A   1      35.435  35.024  32.338  1.00  0.00     0.014 A 
ATOM     32  C   UNL A   1      35.623  32.302  31.726  1.00  0.00     0.010 A 
ATOM     33  C   UNL A   1      36.669  34.432  32.259  1.00  0.00     0.010 A 
ATOM     34  C   UNL A   1      36.770  33.066  31.993  1.00  0.00    -0.014 A 
BRANCH  34  35
ATOM     35  C   UNL A   1      38.109  32.498  31.836  1.00  0.00     0.031 A 
ATOM     36  C   UNL A   1      38.862  32.319  33.116  1.00  0.00     0.074 A 
ATOM     37  C   UNL A   1      38.492  31.922  30.674  1.00  0.00     0.049 A 
ATOM     38  N   UNL A   1      40.023  32.790  33.434  1.00  0.00    -0.248 NA
ATOM     39  C   UNL A   1      38.192  31.616  34.227  1.00  0.00     0.031 C 
ATOM     40  C   UNL A   1      37.693  31.773  29.449  1.00  0.00     0.029 A 
ATOM     41  N   UNL A   1      39.621  31.221  30.373  1.00  0.00    -0.354 N 
ATOM     42  C   UNL A   1      40.315  32.286  34.703  1.00  0.00     0.074 A 
ATOM     43  C   UNL A   1      39.092  31.726  35.206  1.00  0.00     0.031 C 
ATOM     44  C   UNL A   1      38.244  30.828  28.657  1.00  0.00     0.029 A 
ATOM     45  C   UNL A   1      39.516  30.435  29.227  1.00  0.00     0.049 A 
ATOM     46  H   UNL A   1      40.440  31.265  30.918  1.00  0.00     0.167 HD
ATOM     47  C   UNL A   1      41.607  32.137  35.115  1.00  0.00     0.037 A 
ATOM     48  C   UNL A   1      40.399  29.505  28.790  1.00  0.00     0.037 A 
ATOM     49  C   UNL A   1      42.492  32.915  34.285  1.00  0.00     0.049 A 
ATOM     50  C   UNL A   1      41.687  29.779  29.463  1.00  0.00     0.074 A 
ATOM     51  C   UNL A   1      42.695  34.254  34.032  1.00  0.00     0.029 A 
ATOM     52  N   UNL A   1      43.117  32.231  33.275  1.00  0.00    -0.354 N 
ATOM     53  N   UNL A   1      42.405  30.846  29.250  1.00  0.00    -0.248 NA
ATOM     54  C   UNL A   1      41.985  29.059  30.690  1.00  0.00     0.031 C 
ATOM     55  C   UNL A   1      43.087  34.321  32.660  1.00  0.00     0.029 A 
ATOM     56  C   UNL A   1      43.162  33.020  32.160  1.00  0.00     0.049 A 
ATOM     57  H   UNL A   1      43.477  31.317  33.343  1.00  0.00     0.167 HD
ATOM     58  C   UNL A   1      42.914  31.175  30.495  1.00  0.00     0.074 A 
ATOM     59  C   UNL A   1      42.742  29.971  31.304  1.00  0.00     0.031 C 
ATOM     60  C   UNL A   1      43.146  32.483  30.819  1.00  0.00     0.037 A 
BRANCH  47  61
ATOM     61  C   UNL A   1      42.131  30.959  35.923  1.00  0.00     0.064 A 
ATOM     62  C   UNL A   1      43.065  31.212  36.955  1.00  0.00     0.173 A 
ATOM     63  C   UNL A   1      42.041  29.610  35.517  1.00  0.00     0.173 A 
ATOM     64  F   UNL A   1      43.239  32.453  37.430  1.00  0.00    -0.203 F 
ATOM     65  C   UNL A   1      43.920  30.219  37.444  1.00  0.00     0.198 A 
ATOM     66  C   UNL A   1      42.862  28.613  36.045  1.00  0.00     0.198 A 
ATOM     67  F   UNL A   1      41.242  29.209  34.523  1.00  0.00    -0.203 F 
ATOM     68  F   UNL A   1      44.888  30.544  38.311  1.00  0.00    -0.200 F 
ATOM     69  C   UNL A   1      43.828  28.922  36.977  1.00  0.00     0.200 A 
ATOM     70  F   UNL A   1      42.766  27.363  35.569  1.00  0.00    -0.200 F 
ATOM     71  F   UNL A   1      44.695  27.987  37.385  1.00  0.00    -0.200 F 
ENDBRANCH  47  61
BRANCH  48  72
ATOM     72  C   UNL A   1      40.137  28.243  28.056  1.00  0.00     0.064 A 
ATOM     73  C   UNL A   1      40.771  27.967  26.832  1.00  0.00     0.173 A 
ATOM     74  C   UNL A   1      39.482  27.162  28.677  1.00  0.00     0.173 A 
ATOM     75  F   UNL A   1      41.456  28.929  26.197  1.00  0.00    -0.203 F 
ATOM     76  C   UNL A   1      40.771  26.682  26.278  1.00  0.00     0.198 A 
ATOM     77  C   UNL A   1      39.477  25.882  28.120  1.00  0.00     0.198 A 
ATOM     78  F   UNL A   1      38.915  27.306  29.884  1.00  0.00    -0.203 F 
ATOM     79  F   UNL A   1      41.439  26.444  25.141  1.00  0.00    -0.200 F 
ATOM     80  C   UNL A   1      40.133  25.638  26.929  1.00  0.00     0.200 A 
ATOM     81  F   UNL A   1      38.889  24.873  28.780  1.00  0.00    -0.200 F 
ATOM     82  F   UNL A   1      40.186  24.395  26.432  1.00  0.00    -0.200 F 
ENDBRANCH  48  72
BRANCH  60  83
ATOM     83  C   UNL A   1      43.184  33.477  29.693  1.00  0.00     0.064 A 
ATOM     84  C   UNL A   1      42.103  34.290  29.310  1.00  0.00     0.173 A 
ATOM     85  C   UNL A   1      44.413  33.701  29.059  1.00  0.00     0.173 A 
ATOM     86  F   UNL A   1      40.920  34.203  29.928  1.00  0.00    -0.203 F 
ATOM     87  C   UNL A   1      42.240  35.250  28.309  1.00  0.00     0.198 A 
ATOM     88  C   UNL A   1      44.557  34.687  28.088  1.00  0.00     0.198 A 
ATOM     89  F   UNL A   1      45.493  32.990  29.420  1.00  0.00    -0.203 F 
ATOM     90  F   UNL A   1      41.188  36.003  27.951  1.00  0.00    -0.200 F 
ATOM     91  C   UNL A   1      43.469  35.454  27.705  1.00  0.00     0.200 A 
ATOM     92  F   UNL A   1      45.760  34.912  27.542  1.00  0.00    -0.200 F 
ATOM     93  F   UNL A   1      43.612  36.406  26.773  1.00  0.00    -0.200 F 
ENDBRANCH  60  83
ENDBRANCH  34  35
ENDBRANCH  26  29
ENDBRANCH  24  25
ENDBRANCH   1  24
TORSDOF 13
ENDMDL
MODEL 3
REMARK VINA RESULT:     -12.5      3.168      8.421
REMARK SMILES CCn1nc(-c2cccnc2)c2cc(C(=O)NCCCCNC(=O)c3ccc(-c4c5nc(c(-c6c(F)c(F)c(F)c(F)c6F)c6ccc([nH]6)c(-c6c(F)c(F)c(F)c(F)c6F)c6nc(c(-c7c(F)c(F)c(F)c(F)c7F)c7ccc4[nH]7)C=C6)C=C5)cc3)sc21
REMARK SMILES IDX 20 1 19 2 18 3 17 4 15 5 16 6 14 8 3 9 4 10 89 11 5 12 12 13
REMARK SMILES IDX 88 14 13 15 2 16 1 17 6 18 7 19 11 20 8 21 10 22 9 23 21 24
REMARK SMILES IDX 22 25 23 26 24 28 25 29 26 30 87 31 27 32 86 33 28 34 29 35
REMARK SMILES IDX 30 36 80 37 31 38 85 39 79 40 81 41 32 42 84 43 78 44 77 45
REMARK SMILES IDX 33 47 65 48 45 49 64 50 46 51 49 52 63 53 82 54 47 55 48 56
REMARK SMILES IDX 62 58 83 59 50 60 34 61 35 62 43 63 36 64 37 65 41 66 44 67
REMARK SMILES IDX 38 68 39 69 42 70 40 71 66 72 67 73 75 74 68 75 69 76 73 77
REMARK SMILES IDX 76 78 70 79 71 80 74 81 72 82 51 83 52 84 60 85 53 86 54 87
REMARK SMILES IDX 58 88 61 89 55 90 56 91 59 92 57 93
REMARK H PARENT 17 7 22 27 81 46 49 57
REMARK Flexibility Score: inf
ROOT
ATOM      1  C   UNL A   1      33.336  28.686  25.778  1.00  0.00     0.023 C 
ENDROOT
BRANCH   1   2
ATOM      2  C   UNL A   1      33.520  29.140  24.323  1.00  0.00     0.023 C 
BRANCH   2   3
ATOM      3  C   UNL A   1      32.374  28.762  23.373  1.00  0.00     0.116 C 
BRANCH   3   4
ATOM      4  N   UNL A   1      32.820  27.959  22.239  1.00  0.00    -0.351 N 
ATOM      5  C   UNL A   1      33.175  26.630  22.099  1.00  0.00     0.261 C 
ATOM      6  O   UNL A   1      33.361  26.262  20.933  1.00  0.00    -0.268 OA
ATOM      7  H   UNL A   1      32.879  28.470  21.399  1.00  0.00     0.163 HD
BRANCH   5   8
ATOM      8  C   UNL A   1      33.279  25.692  23.215  1.00  0.00     0.095 A 
ATOM      9  N   UNL A   1      32.576  22.947  25.638  1.00  0.00    -0.254 N 
ATOM     10  N   UNL A   1      33.745  22.334  25.982  1.00  0.00    -0.171 NA
ATOM     11  C   UNL A   1      32.805  24.039  24.887  1.00  0.00     0.122 A 
ATOM     12  C   UNL A   1      34.720  23.106  25.422  1.00  0.00     0.103 A 
ATOM     13  C   UNL A   1      34.112  24.102  24.648  1.00  0.00     0.040 A 
ATOM     14  S   UNL A   1      31.907  25.210  24.164  1.00  0.00    -0.110 S 
ATOM     15  C   UNL A   1      34.455  25.080  23.707  1.00  0.00     0.038 A 
BRANCH   9  16
ATOM     16  C   UNL A   1      31.279  22.323  25.801  1.00  0.00     0.142 C 
ATOM     17  C   UNL A   1      30.351  22.967  26.805  1.00  0.00     0.029 C 
ENDBRANCH   9  16
BRANCH  12  18
ATOM     18  C   UNL A   1      36.123  22.847  25.702  1.00  0.00     0.021 A 
ATOM     19  C   UNL A   1      36.988  23.855  26.131  1.00  0.00     0.013 A 
ATOM     20  C   UNL A   1      36.681  21.598  25.444  1.00  0.00     0.121 A 
ATOM     21  C   UNL A   1      38.348  23.583  26.286  1.00  0.00     0.021 A 
ATOM     22  N   UNL A   1      37.997  21.301  25.587  1.00  0.00    -0.264 NA
ATOM     23  C   UNL A   1      38.801  22.305  25.998  1.00  0.00     0.111 A 
ENDBRANCH  12  18
ENDBRANCH   5   8
ENDBRANCH   3   4
ENDBRANCH   2   3
ENDBRANCH   1   2
BRANCH   1  24
ATOM     24  C   UNL A   1      34.372  29.229  26.756  1.00  0.00     0.116 C 
BRANCH  24  25
ATOM     25  N   UNL A   1      34.255  30.669  26.992  1.00  0.00    -0.352 N 
ATOM     26  C   UNL A   1      34.865  31.399  27.994  1.00  0.00     0.251 C 
ATOM     27  H   UNL A   1      33.679  31.170  26.371  1.00  0.00     0.163 HD
ATOM     28  O   UNL A   1      34.415  32.478  28.372  1.00  0.00    -0.269 OA
BRANCH  26  29
ATOM     29  C   UNL A   1      36.096  30.861  28.586  1.00  0.00     0.039 A 
ATOM     30  C   UNL A   1      36.218  29.512  28.935  1.00  0.00     0.014 A 
ATOM     31  C   UNL A   1      37.167  31.743  28.713  1.00  0.00     0.014 A 
ATOM     32  C   UNL A   1      37.466  29.032  29.327  1.00  0.00     0.010 A 
ATOM     33  C   UNL A   1      38.416  31.243  28.976  1.00  0.00     0.010 A 
ATOM     34  C   UNL A   1      38.569  29.900  29.321  1.00  0.00    -0.014 A 
BRANCH  34  35
ATOM     35  C   UNL A   1      39.929  29.394  29.511  1.00  0.00     0.031 A 
ATOM     36  C   UNL A   1      40.359  29.286  30.939  1.00  0.00     0.074 A 
ATOM     37  C   UNL A   1      40.604  28.807  28.496  1.00  0.00     0.049 A 
ATOM     38  N   UNL A   1      41.389  29.823  31.508  1.00  0.00    -0.248 NA
ATOM     39  C   UNL A   1      39.471  28.581  31.883  1.00  0.00     0.031 C 
ATOM     40  C   UNL A   1      40.131  28.587  27.122  1.00  0.00     0.029 A 
ATOM     41  N   UNL A   1      41.800  28.155  28.500  1.00  0.00    -0.354 N 
ATOM     42  C   UNL A   1      41.388  29.367  32.828  1.00  0.00     0.074 A 
ATOM     43  C   UNL A   1      40.103  28.761  33.044  1.00  0.00     0.031 C 
ATOM     44  C   UNL A   1      40.894  27.650  26.521  1.00  0.00     0.029 A 
ATOM     45  C   UNL A   1      42.007  27.336  27.393  1.00  0.00     0.049 A 
ATOM     46  H   UNL A   1      42.461  28.253  29.223  1.00  0.00     0.167 HD
ATOM     47  C   UNL A   1      42.547  29.293  33.541  1.00  0.00     0.037 A 
ATOM     48  C   UNL A   1      43.007  26.438  27.214  1.00  0.00     0.037 A 
ATOM     49  C   UNL A   1      43.573  30.091  32.920  1.00  0.00     0.049 A 
ATOM     50  C   UNL A   1      44.083  26.793  28.166  1.00  0.00     0.074 A 
ATOM     51  C   UNL A   1      43.776  31.431  32.673  1.00  0.00     0.029 A 
ATOM     52  N   UNL A   1      44.451  29.412  32.115  1.00  0.00    -0.354 N 
ATOM     53  N   UNL A   1      44.786  27.888  28.091  1.00  0.00    -0.248 NA
ATOM     54  C   UNL A   1      44.105  26.121  29.454  1.00  0.00     0.031 C 
ATOM     55  C   UNL A   1      44.482  31.481  31.432  1.00  0.00     0.029 A 
ATOM     56  C   UNL A   1      44.730  30.172  31.014  1.00  0.00     0.049 A 
ATOM     57  H   UNL A   1      44.820  28.519  32.300  1.00  0.00     0.167 HD
ATOM     58  C   UNL A   1      44.966  28.275  29.408  1.00  0.00     0.074 A 
ATOM     59  C   UNL A   1      44.654  27.085  30.196  1.00  0.00     0.031 C 
ATOM     60  C   UNL A   1      45.059  29.600  29.729  1.00  0.00     0.037 A 
BRANCH  47  61
ATOM     61  C   UNL A   1      42.910  28.163  34.495  1.00  0.00     0.064 A 
ATOM     62  C   UNL A   1      43.272  28.491  35.823  1.00  0.00     0.173 A 
ATOM     63  C   UNL A   1      43.254  26.856  34.089  1.00  0.00     0.173 A 
ATOM     64  F   UNL A   1      42.995  29.703  36.327  1.00  0.00    -0.203 F 
ATOM     65  C   UNL A   1      44.025  27.627  36.624  1.00  0.00     0.198 A 
ATOM     66  C   UNL A   1      43.962  25.978  34.911  1.00  0.00     0.198 A 
ATOM     67  F   UNL A   1      43.025  26.402  32.853  1.00  0.00    -0.203 F 
ATOM     68  F   UNL A   1      44.471  28.046  37.816  1.00  0.00    -0.200 F 
ATOM     69  C   UNL A   1      44.382  26.376  36.161  1.00  0.00     0.200 A 
ATOM     70  F   UNL A   1      44.311  24.773  34.439  1.00  0.00    -0.200 F 
ATOM     71  F   UNL A   1      45.168  25.577  36.893  1.00  0.00    -0.200 F 
ENDBRANCH  47  61
BRANCH  48  72
ATOM     72  C   UNL A   1      42.982  25.146  26.487  1.00  0.00     0.064 A 
ATOM     73  C   UNL A   1      43.844  24.903  25.404  1.00  0.00     0.173 A 
ATOM     74  C   UNL A   1      42.314  24.025  27.017  1.00  0.00     0.173 A 
ATOM     75  F   UNL A   1      44.553  25.908  24.869  1.00  0.00    -0.203 F 
ATOM     76  C   UNL A   1      44.045  23.613  24.900  1.00  0.00     0.198 A 
ATOM     77  C   UNL A   1      42.510  22.740  26.509  1.00  0.00     0.198 A 
ATOM     78  F   UNL A   1      41.530  24.142  28.099  1.00  0.00    -0.203 F 
ATOM     79  F   UNL A   1      44.924  23.412  23.908  1.00  0.00    -0.200 F 
ATOM     80  C   UNL A   1      43.387  22.531  25.462  1.00  0.00     0.200 A 
ATOM     81  F   UNL A   1      41.896  21.697  27.086  1.00  0.00    -0.200 F 
ATOM     82  F   UNL A   1      43.626  21.288  25.022  1.00  0.00    -0.200 F 
ENDBRANCH  48  72
BRANCH  60  83
ATOM     83  C   UNL A   1      45.326  30.565  28.608  1.00  0.00     0.064 A 
ATOM     84  C   UNL A   1      44.328  31.210  27.857  1.00  0.00     0.173 A 
ATOM     85  C   UNL A   1      46.654  30.945  28.374  1.00  0.00     0.173 A 
ATOM     86  F   UNL A   1      43.031  30.972  28.081  1.00  0.00    -0.203 F 
ATOM     87  C   UNL A   1      44.652  32.158  26.887  1.00  0.00     0.198 A 
ATOM     88  C   UNL A   1      46.972  31.920  27.433  1.00  0.00     0.198 A 
ATOM     89  F   UNL A   1      47.644  30.400  29.098  1.00  0.00    -0.203 F 
ATOM     90  F   UNL A   1      43.681  32.748  26.173  1.00  0.00    -0.200 F 
ATOM     91  C   UNL A   1      45.974  32.518  26.683  1.00  0.00     0.200 A 
ATOM     92  F   UNL A   1      48.247  32.299  27.275  1.00  0.00    -0.200 F 
ATOM     93  F   UNL A   1      46.283  33.460  25.782  1.00  0.00    -0.200 F 
ENDBRANCH  60  83
ENDBRANCH  34  35
ENDBRANCH  26  29
ENDBRANCH  24  25
ENDBRANCH   1  24
TORSDOF 13
ENDMDL
