MODEL 1
REMARK VINA RESULT:     -10.3      0.000      0.000
REMARK SMILES COC[C@@H](C)CC(=O)N1CC(CC(=O)NCCCCNC(=O)c2ccc(-c3c4nc(c(-c5c(F)c(F)c(F)c(F)c5F)c5ccc([nH]5)c(-c5c(F)c(F)c(F)c(F)c5F)c5nc(c(-c6c(F)c(F)c(F)c(F)c6F)c6ccc3[nH]6)C=C5)C=C4)cc2)C1
REMARK SMILES IDX 16 1 15 2 13 3 14 4 12 6 11 7 7 8 8 9 9 10 10 11 86 12 6 13
REMARK SMILES IDX 4 14 5 15 3 16 2 17 1 18 17 19 18 20 19 21 20 22 21 23 22 25
REMARK SMILES IDX 23 26 24 27 85 28 25 29 84 30 26 31 27 32 28 33 78 34 29 35
REMARK SMILES IDX 83 36 77 37 79 38 30 39 82 40 76 41 75 42 31 44 63 45 43 46
REMARK SMILES IDX 62 47 44 48 47 49 61 50 80 51 45 52 46 53 60 55 81 56 48 57
REMARK SMILES IDX 32 58 33 59 41 60 34 61 35 62 39 63 42 64 36 65 37 66 40 67
REMARK SMILES IDX 38 68 64 69 65 70 73 71 66 72 67 73 71 74 74 75 68 76 69 77
REMARK SMILES IDX 72 78 70 79 49 80 50 81 58 82 51 83 52 84 56 85 59 86 53 87
REMARK SMILES IDX 54 88 57 89 55 90
REMARK H PARENT 15 5 20 24 79 43 47 54
REMARK Flexibility Score: inf
ROOT
ATOM      1  C   UNL A   1      35.097  33.108  27.961  1.00  0.00     0.116 C 
ENDROOT
BRANCH   1   2
ATOM      2  N   UNL A   1      35.648  31.784  28.177  1.00  0.00    -0.356 N 
ATOM      3  C   UNL A   1      35.144  30.555  27.874  1.00  0.00     0.220 C 
ATOM      4  O   UNL A   1      35.768  29.567  28.265  1.00  0.00    -0.275 OA
ATOM      5  H   UNL A   1      36.530  31.772  28.612  1.00  0.00     0.163 HD
BRANCH   3   6
ATOM      6  C   UNL A   1      33.842  30.392  27.103  1.00  0.00     0.107 C 
BRANCH   6   7
ATOM      7  C   UNL A   1      33.169  29.041  27.342  1.00  0.00     0.037 C 
ATOM      8  C   UNL A   1      31.302  26.631  26.034  1.00  0.00     0.222 C 
ATOM      9  O   UNL A   1      31.484  25.629  26.719  1.00  0.00    -0.275 OA
ATOM     10  N   UNL A   1      32.136  27.730  26.063  1.00  0.00    -0.342 N 
ATOM     11  C   UNL A   1      33.534  27.806  26.501  1.00  0.00     0.125 C 
ATOM     12  C   UNL A   1      31.778  28.959  26.741  1.00  0.00     0.125 C 
BRANCH   8  13
ATOM     13  C   UNL A   1      30.202  26.703  24.968  1.00  0.00     0.106 C 
BRANCH  13  14
ATOM     14  C   UNL A   1      30.411  27.597  23.726  1.00  0.00     0.021 C 
ATOM     15  C   UNL A   1      29.043  27.953  23.126  1.00  0.00     0.010 C 
BRANCH  14  16
ATOM     16  C   UNL A   1      31.266  26.914  22.653  1.00  0.00     0.163 C 
BRANCH  16  17
ATOM     17  O   UNL A   1      32.641  27.285  22.693  1.00  0.00    -0.384 OA
ATOM     18  C   UNL A   1      32.863  28.689  22.740  1.00  0.00     0.194 C 
ENDBRANCH  16  17
ENDBRANCH  14  16
ENDBRANCH  13  14
ENDBRANCH   8  13
ENDBRANCH   6   7
ENDBRANCH   3   6
ENDBRANCH   1   2
BRANCH   1  19
ATOM     19  C   UNL A   1      34.373  33.611  29.210  1.00  0.00     0.023 C 
BRANCH  19  20
ATOM     20  C   UNL A   1      33.223  34.578  28.988  1.00  0.00     0.023 C 
BRANCH  20  21
ATOM     21  C   UNL A   1      33.438  35.958  29.580  1.00  0.00     0.116 C 
BRANCH  21  22
ATOM     22  N   UNL A   1      32.527  36.273  30.674  1.00  0.00    -0.352 N 
ATOM     23  C   UNL A   1      32.582  35.869  31.986  1.00  0.00     0.251 C 
ATOM     24  H   UNL A   1      31.769  36.856  30.441  1.00  0.00     0.163 HD
ATOM     25  O   UNL A   1      31.655  36.112  32.754  1.00  0.00    -0.269 OA
BRANCH  23  26
ATOM     26  C   UNL A   1      33.759  35.118  32.456  1.00  0.00     0.039 A 
ATOM     27  C   UNL A   1      33.611  33.796  32.880  1.00  0.00     0.014 A 
ATOM     28  C   UNL A   1      35.018  35.722  32.435  1.00  0.00     0.014 A 
ATOM     29  C   UNL A   1      34.743  33.063  33.236  1.00  0.00     0.010 A 
ATOM     30  C   UNL A   1      36.148  34.958  32.674  1.00  0.00     0.010 A 
ATOM     31  C   UNL A   1      36.021  33.631  33.108  1.00  0.00    -0.014 A 
BRANCH  31  32
ATOM     32  C   UNL A   1      37.246  32.882  33.473  1.00  0.00     0.031 A 
ATOM     33  C   UNL A   1      37.938  33.190  34.774  1.00  0.00     0.074 A 
ATOM     34  C   UNL A   1      37.768  31.990  32.612  1.00  0.00     0.049 A 
ATOM     35  N   UNL A   1      39.060  32.714  35.251  1.00  0.00    -0.248 NA
ATOM     36  C   UNL A   1      37.307  34.203  35.636  1.00  0.00     0.031 C 
ATOM     37  C   UNL A   1      37.217  31.660  31.295  1.00  0.00     0.029 A 
ATOM     38  N   UNL A   1      38.884  31.202  32.712  1.00  0.00    -0.354 N 
ATOM     39  C   UNL A   1      39.273  33.384  36.448  1.00  0.00     0.074 A 
ATOM     40  C   UNL A   1      38.210  34.351  36.591  1.00  0.00     0.031 C 
ATOM     41  C   UNL A   1      37.980  30.714  30.725  1.00  0.00     0.029 A 
ATOM     42  C   UNL A   1      39.091  30.398  31.617  1.00  0.00     0.049 A 
ATOM     43  H   UNL A   1      39.482  31.210  33.495  1.00  0.00     0.167 HD
ATOM     44  C   UNL A   1      40.248  33.184  37.365  1.00  0.00     0.037 A 
ATOM     45  C   UNL A   1      40.070  29.509  31.368  1.00  0.00     0.037 A 
ATOM     46  C   UNL A   1      41.282  32.194  37.227  1.00  0.00     0.049 A 
ATOM     47  C   UNL A   1      41.133  29.292  32.412  1.00  0.00     0.074 A 
ATOM     48  C   UNL A   1      42.285  31.860  38.119  1.00  0.00     0.029 A 
ATOM     49  N   UNL A   1      41.443  31.375  36.117  1.00  0.00    -0.354 N 
ATOM     50  N   UNL A   1      41.285  29.878  33.576  1.00  0.00    -0.248 NA
ATOM     51  C   UNL A   1      42.153  28.280  32.111  1.00  0.00     0.031 C 
ATOM     52  C   UNL A   1      43.084  30.876  37.528  1.00  0.00     0.029 A 
ATOM     53  C   UNL A   1      42.542  30.550  36.294  1.00  0.00     0.049 A 
ATOM     54  H   UNL A   1      40.862  31.378  35.323  1.00  0.00     0.167 HD
ATOM     55  C   UNL A   1      42.399  29.288  34.157  1.00  0.00     0.074 A 
ATOM     56  C   UNL A   1      42.865  28.280  33.228  1.00  0.00     0.031 C 
ATOM     57  C   UNL A   1      42.989  29.557  35.350  1.00  0.00     0.037 A 
BRANCH  44  58
ATOM     58  C   UNL A   1      40.235  34.050  38.594  1.00  0.00     0.064 A 
ATOM     59  C   UNL A   1      40.942  35.263  38.652  1.00  0.00     0.173 A 
ATOM     60  C   UNL A   1      39.494  33.672  39.724  1.00  0.00     0.173 A 
ATOM     61  F   UNL A   1      41.682  35.665  37.607  1.00  0.00    -0.203 F 
ATOM     62  C   UNL A   1      40.936  36.044  39.804  1.00  0.00     0.198 A 
ATOM     63  C   UNL A   1      39.461  34.474  40.862  1.00  0.00     0.198 A 
ATOM     64  F   UNL A   1      38.801  32.525  39.726  1.00  0.00    -0.203 F 
ATOM     65  F   UNL A   1      41.669  37.165  39.857  1.00  0.00    -0.200 F 
ATOM     66  C   UNL A   1      40.189  35.653  40.905  1.00  0.00     0.200 A 
ATOM     67  F   UNL A   1      38.729  34.102  41.920  1.00  0.00    -0.200 F 
ATOM     68  F   UNL A   1      40.179  36.410  42.012  1.00  0.00    -0.200 F 
ENDBRANCH  44  58
BRANCH  45  69
ATOM     69  C   UNL A   1      40.068  28.732  30.101  1.00  0.00     0.064 A 
ATOM     70  C   UNL A   1      40.673  29.242  28.943  1.00  0.00     0.173 A 
ATOM     71  C   UNL A   1      39.461  27.470  30.017  1.00  0.00     0.173 A 
ATOM     72  F   UNL A   1      41.252  30.451  28.967  1.00  0.00    -0.203 F 
ATOM     73  C   UNL A   1      40.648  28.532  27.744  1.00  0.00     0.198 A 
ATOM     74  C   UNL A   1      39.465  26.748  28.825  1.00  0.00     0.198 A 
ATOM     75  F   UNL A   1      38.875  26.933  31.095  1.00  0.00    -0.203 F 
ATOM     76  F   UNL A   1      41.188  29.068  26.640  1.00  0.00    -0.200 F 
ATOM     77  C   UNL A   1      40.049  27.283  27.687  1.00  0.00     0.200 A 
ATOM     78  F   UNL A   1      38.900  25.533  28.779  1.00  0.00    -0.200 F 
ATOM     79  F   UNL A   1      40.028  26.599  26.535  1.00  0.00    -0.200 F 
ENDBRANCH  45  69
BRANCH  57  80
ATOM     80  C   UNL A   1      44.182  28.722  35.719  1.00  0.00     0.064 A 
ATOM     81  C   UNL A   1      45.485  29.091  35.351  1.00  0.00     0.173 A 
ATOM     82  C   UNL A   1      44.019  27.539  36.457  1.00  0.00     0.173 A 
ATOM     83  F   UNL A   1      45.694  30.206  34.635  1.00  0.00    -0.203 F 
ATOM     84  C   UNL A   1      46.573  28.281  35.664  1.00  0.00     0.198 A 
ATOM     85  C   UNL A   1      45.114  26.753  36.803  1.00  0.00     0.198 A 
ATOM     86  F   UNL A   1      42.796  27.147  36.847  1.00  0.00    -0.203 F 
ATOM     87  F   UNL A   1      47.798  28.617  35.237  1.00  0.00    -0.200 F 
ATOM     88  C   UNL A   1      46.388  27.117  36.393  1.00  0.00     0.200 A 
ATOM     89  F   UNL A   1      44.935  25.638  37.524  1.00  0.00    -0.200 F 
ATOM     90  F   UNL A   1      47.436  26.338  36.692  1.00  0.00    -0.200 F 
ENDBRANCH  57  80
ENDBRANCH  31  32
ENDBRANCH  23  26
ENDBRANCH  21  22
ENDBRANCH  20  21
ENDBRANCH  19  20
ENDBRANCH   1  19
TORSDOF 16
ENDMDL
MODEL 2
REMARK VINA RESULT:     -10.2      2.365      8.027
REMARK SMILES COC[C@@H](C)CC(=O)N1CC(CC(=O)NCCCCNC(=O)c2ccc(-c3c4nc(c(-c5c(F)c(F)c(F)c(F)c5F)c5ccc([nH]5)c(-c5c(F)c(F)c(F)c(F)c5F)c5nc(c(-c6c(F)c(F)c(F)c(F)c6F)c6ccc3[nH]6)C=C5)C=C4)cc2)C1
REMARK SMILES IDX 16 1 15 2 13 3 14 4 12 6 11 7 7 8 8 9 9 10 10 11 86 12 6 13
REMARK SMILES IDX 4 14 5 15 3 16 2 17 1 18 17 19 18 20 19 21 20 22 21 23 22 25
REMARK SMILES IDX 23 26 24 27 85 28 25 29 84 30 26 31 27 32 28 33 78 34 29 35
REMARK SMILES IDX 83 36 77 37 79 38 30 39 82 40 76 41 75 42 31 44 63 45 43 46
REMARK SMILES IDX 62 47 44 48 47 49 61 50 80 51 45 52 46 53 60 55 81 56 48 57
REMARK SMILES IDX 32 58 33 59 41 60 34 61 35 62 39 63 42 64 36 65 37 66 40 67
REMARK SMILES IDX 38 68 64 69 65 70 73 71 66 72 67 73 71 74 74 75 68 76 69 77
REMARK SMILES IDX 72 78 70 79 49 80 50 81 58 82 51 83 52 84 56 85 59 86 53 87
REMARK SMILES IDX 54 88 57 89 55 90
REMARK H PARENT 15 5 20 24 79 43 47 54
REMARK Flexibility Score: inf
ROOT
ATOM      1  C   UNL A   1      32.476  30.079  25.445  1.00  0.00     0.116 C 
ENDROOT
BRANCH   1   2
ATOM      2  N   UNL A   1      33.729  29.791  26.115  1.00  0.00    -0.356 N 
ATOM      3  C   UNL A   1      34.214  28.625  26.626  1.00  0.00     0.220 C 
ATOM      4  O   UNL A   1      35.274  28.669  27.251  1.00  0.00    -0.275 OA
ATOM      5  H   UNL A   1      34.328  30.566  26.217  1.00  0.00     0.163 HD
BRANCH   3   6
ATOM      6  C   UNL A   1      33.468  27.308  26.460  1.00  0.00     0.107 C 
BRANCH   6   7
ATOM      7  C   UNL A   1      34.029  26.440  25.336  1.00  0.00     0.037 C 
ATOM      8  C   UNL A   1      33.662  23.654  23.572  1.00  0.00     0.222 C 
ATOM      9  O   UNL A   1      34.301  23.803  22.535  1.00  0.00    -0.275 OA
ATOM     10  N   UNL A   1      33.310  24.698  24.401  1.00  0.00    -0.342 N 
ATOM     11  C   UNL A   1      33.200  26.125  24.078  1.00  0.00     0.125 C 
ATOM     12  C   UNL A   1      33.985  24.957  25.656  1.00  0.00     0.125 C 
BRANCH   8  13
ATOM     13  C   UNL A   1      33.071  22.298  23.978  1.00  0.00     0.106 C 
BRANCH  13  14
ATOM     14  C   UNL A   1      34.018  21.170  24.445  1.00  0.00     0.021 C 
ATOM     15  C   UNL A   1      33.255  20.233  25.392  1.00  0.00     0.010 C 
BRANCH  14  16
ATOM     16  C   UNL A   1      35.258  21.709  25.165  1.00  0.00     0.163 C 
BRANCH  16  17
ATOM     17  O   UNL A   1      36.421  21.762  24.343  1.00  0.00    -0.384 OA
ATOM     18  C   UNL A   1      37.616  21.361  25.001  1.00  0.00     0.194 C 
ENDBRANCH  16  17
ENDBRANCH  14  16
ENDBRANCH  13  14
ENDBRANCH   8  13
ENDBRANCH   6   7
ENDBRANCH   3   6
ENDBRANCH   1   2
BRANCH   1  19
ATOM     19  C   UNL A   1      31.459  30.680  26.416  1.00  0.00     0.023 C 
BRANCH  19  20
ATOM     20  C   UNL A   1      31.409  32.195  26.500  1.00  0.00     0.023 C 
BRANCH  20  21
ATOM     21  C   UNL A   1      32.510  32.815  27.340  1.00  0.00     0.116 C 
BRANCH  21  22
ATOM     22  N   UNL A   1      32.299  34.229  27.627  1.00  0.00    -0.352 N 
ATOM     23  C   UNL A   1      32.919  35.022  28.562  1.00  0.00     0.251 C 
ATOM     24  H   UNL A   1      31.619  34.678  27.074  1.00  0.00     0.163 HD
ATOM     25  O   UNL A   1      32.527  36.166  28.771  1.00  0.00    -0.269 OA
BRANCH  23  26
ATOM     26  C   UNL A   1      34.049  34.471  29.331  1.00  0.00     0.039 A 
ATOM     27  C   UNL A   1      33.814  33.867  30.568  1.00  0.00     0.014 A 
ATOM     28  C   UNL A   1      35.339  34.524  28.799  1.00  0.00     0.014 A 
ATOM     29  C   UNL A   1      34.875  33.267  31.247  1.00  0.00     0.010 A 
ATOM     30  C   UNL A   1      36.364  33.826  29.416  1.00  0.00     0.010 A 
ATOM     31  C   UNL A   1      36.151  33.219  30.661  1.00  0.00    -0.014 A 
BRANCH  31  32
ATOM     32  C   UNL A   1      37.300  32.588  31.350  1.00  0.00     0.031 A 
ATOM     33  C   UNL A   1      38.035  31.459  30.679  1.00  0.00     0.074 A 
ATOM     34  C   UNL A   1      37.631  32.979  32.594  1.00  0.00     0.049 A 
ATOM     35  N   UNL A   1      39.011  30.717  31.134  1.00  0.00    -0.248 NA
ATOM     36  C   UNL A   1      37.579  31.084  29.330  1.00  0.00     0.031 C 
ATOM     37  C   UNL A   1      36.948  34.019  33.367  1.00  0.00     0.029 A 
ATOM     38  N   UNL A   1      38.624  32.541  33.433  1.00  0.00    -0.354 N 
ATOM     39  C   UNL A   1      39.266  29.782  30.139  1.00  0.00     0.074 A 
ATOM     40  C   UNL A   1      38.296  29.998  29.091  1.00  0.00     0.031 C 
ATOM     41  C   UNL A   1      37.562  34.160  34.552  1.00  0.00     0.029 A 
ATOM     42  C   UNL A   1      38.656  33.198  34.638  1.00  0.00     0.049 A 
ATOM     43  H   UNL A   1      39.253  31.823  33.193  1.00  0.00     0.167 HD
ATOM     44  C   UNL A   1      40.246  28.849  30.088  1.00  0.00     0.037 A 
ATOM     45  C   UNL A   1      39.480  33.036  35.690  1.00  0.00     0.037 A 
ATOM     46  C   UNL A   1      41.227  28.666  31.124  1.00  0.00     0.049 A 
ATOM     47  C   UNL A   1      40.573  32.005  35.602  1.00  0.00     0.074 A 
ATOM     48  C   UNL A   1      42.302  27.796  31.153  1.00  0.00     0.029 A 
ATOM     49  N   UNL A   1      41.249  29.372  32.320  1.00  0.00    -0.354 N 
ATOM     50  N   UNL A   1      40.854  31.175  34.625  1.00  0.00    -0.248 NA
ATOM     51  C   UNL A   1      41.472  31.899  36.758  1.00  0.00     0.031 C 
ATOM     52  C   UNL A   1      42.944  27.938  32.388  1.00  0.00     0.029 A 
ATOM     53  C   UNL A   1      42.308  28.942  33.103  1.00  0.00     0.049 A 
ATOM     54  H   UNL A   1      40.608  30.075  32.573  1.00  0.00     0.167 HD
ATOM     55  C   UNL A   1      41.975  30.467  35.037  1.00  0.00     0.074 A 
ATOM     56  C   UNL A   1      42.338  30.988  36.339  1.00  0.00     0.031 C 
ATOM     57  C   UNL A   1      42.644  29.473  34.399  1.00  0.00     0.037 A 
BRANCH  44  58
ATOM     58  C   UNL A   1      40.303  27.965  28.873  1.00  0.00     0.064 A 
ATOM     59  C   UNL A   1      39.612  26.742  28.815  1.00  0.00     0.173 A 
ATOM     60  C   UNL A   1      41.043  28.351  27.746  1.00  0.00     0.173 A 
ATOM     61  F   UNL A   1      38.904  26.316  29.871  1.00  0.00    -0.203 F 
ATOM     62  C   UNL A   1      39.691  25.926  27.690  1.00  0.00     0.198 A 
ATOM     63  C   UNL A   1      41.089  27.548  26.608  1.00  0.00     0.198 A 
ATOM     64  F   UNL A   1      41.721  29.507  27.745  1.00  0.00    -0.203 F 
ATOM     65  F   UNL A   1      39.076  24.735  27.684  1.00  0.00    -0.200 F 
ATOM     66  C   UNL A   1      40.422  26.333  26.585  1.00  0.00     0.200 A 
ATOM     67  F   UNL A   1      41.785  27.949  25.536  1.00  0.00    -0.200 F 
ATOM     68  F   UNL A   1      40.491  25.549  25.500  1.00  0.00    -0.200 F 
ENDBRANCH  44  58
BRANCH  45  69
ATOM     69  C   UNL A   1      39.329  33.895  36.894  1.00  0.00     0.064 A 
ATOM     70  C   UNL A   1      39.898  35.176  36.941  1.00  0.00     0.173 A 
ATOM     71  C   UNL A   1      38.619  33.457  38.022  1.00  0.00     0.173 A 
ATOM     72  F   UNL A   1      40.601  35.635  35.895  1.00  0.00    -0.203 F 
ATOM     73  C   UNL A   1      39.786  35.974  38.078  1.00  0.00     0.198 A 
ATOM     74  C   UNL A   1      38.480  34.269  39.146  1.00  0.00     0.198 A 
ATOM     75  F   UNL A   1      38.048  32.245  38.027  1.00  0.00    -0.203 F 
ATOM     76  F   UNL A   1      40.385  37.172  38.113  1.00  0.00    -0.200 F 
ATOM     77  C   UNL A   1      39.072  35.523  39.177  1.00  0.00     0.200 A 
ATOM     78  F   UNL A   1      37.775  33.836  40.200  1.00  0.00    -0.200 F 
ATOM     79  F   UNL A   1      38.962  36.292  40.269  1.00  0.00    -0.200 F 
ENDBRANCH  45  69
BRANCH  57  80
ATOM     80  C   UNL A   1      43.851  28.914  35.097  1.00  0.00     0.064 A 
ATOM     81  C   UNL A   1      45.139  29.424  34.870  1.00  0.00     0.173 A 
ATOM     82  C   UNL A   1      43.717  27.857  36.011  1.00  0.00     0.173 A 
ATOM     83  F   UNL A   1      45.323  30.427  33.997  1.00  0.00    -0.203 F 
ATOM     84  C   UNL A   1      46.251  28.864  35.492  1.00  0.00     0.198 A 
ATOM     85  C   UNL A   1      44.827  27.326  36.661  1.00  0.00     0.198 A 
ATOM     86  F   UNL A   1      42.507  27.340  36.275  1.00  0.00    -0.203 F 
ATOM     87  F   UNL A   1      47.478  29.319  35.202  1.00  0.00    -0.200 F 
ATOM     88  C   UNL A   1      46.094  27.819  36.390  1.00  0.00     0.200 A 
ATOM     89  F   UNL A   1      44.671  26.329  37.543  1.00  0.00    -0.200 F 
ATOM     90  F   UNL A   1      47.165  27.280  36.987  1.00  0.00    -0.200 F 
ENDBRANCH  57  80
ENDBRANCH  31  32
ENDBRANCH  23  26
ENDBRANCH  21  22
ENDBRANCH  20  21
ENDBRANCH  19  20
ENDBRANCH   1  19
TORSDOF 16
ENDMDL
MODEL 3
REMARK VINA RESULT:     -10.1      6.366     10.938
REMARK SMILES COC[C@@H](C)CC(=O)N1CC(CC(=O)NCCCCNC(=O)c2ccc(-c3c4nc(c(-c5c(F)c(F)c(F)c(F)c5F)c5ccc([nH]5)c(-c5c(F)c(F)c(F)c(F)c5F)c5nc(c(-c6c(F)c(F)c(F)c(F)c6F)c6ccc3[nH]6)C=C5)C=C4)cc2)C1
REMARK SMILES IDX 16 1 15 2 13 3 14 4 12 6 11 7 7 8 8 9 9 10 10 11 86 12 6 13
REMARK SMILES IDX 4 14 5 15 3 16 2 17 1 18 17 19 18 20 19 21 20 22 21 23 22 25
REMARK SMILES IDX 23 26 24 27 85 28 25 29 84 30 26 31 27 32 28 33 78 34 29 35
REMARK SMILES IDX 83 36 77 37 79 38 30 39 82 40 76 41 75 42 31 44 63 45 43 46
REMARK SMILES IDX 62 47 44 48 47 49 61 50 80 51 45 52 46 53 60 55 81 56 48 57
REMARK SMILES IDX 32 58 33 59 41 60 34 61 35 62 39 63 42 64 36 65 37 66 40 67
REMARK SMILES IDX 38 68 64 69 65 70 73 71 66 72 67 73 71 74 74 75 68 76 69 77
REMARK SMILES IDX 72 78 70 79 49 80 50 81 58 82 51 83 52 84 56 85 59 86 53 87
REMARK SMILES IDX 54 88 57 89 55 90
REMARK H PARENT 15 5 20 24 79 43 47 54
REMARK Flexibility Score: inf
ROOT
ATOM      1  C   UNL A   1      36.636  21.581  25.525  1.00  0.00     0.116 C 
ENDROOT
BRANCH   1   2
ATOM      2  N   UNL A   1      35.605  21.384  26.525  1.00  0.00    -0.356 N 
ATOM      3  C   UNL A   1      34.417  22.024  26.711  1.00  0.00     0.220 C 
ATOM      4  O   UNL A   1      33.761  21.736  27.714  1.00  0.00    -0.275 OA
ATOM      5  H   UNL A   1      35.794  20.669  27.175  1.00  0.00     0.163 HD
BRANCH   3   6
ATOM      6  C   UNL A   1      33.916  23.081  25.736  1.00  0.00     0.107 C 
BRANCH   6   7
ATOM      7  C   UNL A   1      33.341  24.313  26.433  1.00  0.00     0.037 C 
ATOM      8  C   UNL A   1      31.398  26.984  26.128  1.00  0.00     0.222 C 
ATOM      9  O   UNL A   1      31.089  27.330  27.264  1.00  0.00    -0.275 OA
ATOM     10  N   UNL A   1      31.922  25.744  25.831  1.00  0.00    -0.342 N 
ATOM     11  C   UNL A   1      31.824  24.500  26.602  1.00  0.00     0.125 C 
ATOM     12  C   UNL A   1      33.328  25.542  25.542  1.00  0.00     0.125 C 
BRANCH   8  13
ATOM     13  C   UNL A   1      31.101  27.854  24.901  1.00  0.00     0.106 C 
BRANCH  13  14
ATOM     14  C   UNL A   1      30.645  27.178  23.588  1.00  0.00     0.021 C 
ATOM     15  C   UNL A   1      31.804  27.203  22.581  1.00  0.00     0.010 C 
BRANCH  14  16
ATOM     16  C   UNL A   1      29.427  27.869  22.968  1.00  0.00     0.163 C 
BRANCH  16  17
ATOM     17  O   UNL A   1      29.762  28.888  22.030  1.00  0.00    -0.384 OA
ATOM     18  C   UNL A   1      29.398  30.200  22.442  1.00  0.00     0.194 C 
ENDBRANCH  16  17
ENDBRANCH  14  16
ENDBRANCH  13  14
ENDBRANCH   8  13
ENDBRANCH   6   7
ENDBRANCH   3   6
ENDBRANCH   1   2
BRANCH   1  19
ATOM     19  C   UNL A   1      36.903  20.292  24.748  1.00  0.00     0.023 C 
BRANCH  19  20
ATOM     20  C   UNL A   1      38.350  19.842  24.649  1.00  0.00     0.023 C 
BRANCH  20  21
ATOM     21  C   UNL A   1      39.110  19.872  25.961  1.00  0.00     0.116 C 
BRANCH  21  22
ATOM     22  N   UNL A   1      40.252  18.965  25.995  1.00  0.00    -0.352 N 
ATOM     23  C   UNL A   1      41.582  19.259  26.171  1.00  0.00     0.251 C 
ATOM     24  H   UNL A   1      40.040  18.011  25.877  1.00  0.00     0.163 HD
ATOM     25  O   UNL A   1      42.438  18.390  26.035  1.00  0.00    -0.269 OA
BRANCH  23  26
ATOM     26  C   UNL A   1      41.972  20.642  26.500  1.00  0.00     0.039 A 
ATOM     27  C   UNL A   1      42.354  20.959  27.805  1.00  0.00     0.014 A 
ATOM     28  C   UNL A   1      41.994  21.612  25.497  1.00  0.00     0.014 A 
ATOM     29  C   UNL A   1      42.810  22.247  28.088  1.00  0.00     0.010 A 
ATOM     30  C   UNL A   1      42.556  22.852  25.754  1.00  0.00     0.010 A 
ATOM     31  C   UNL A   1      42.940  23.193  27.057  1.00  0.00    -0.014 A 
BRANCH  31  32
ATOM     32  C   UNL A   1      43.421  24.568  27.320  1.00  0.00     0.031 A 
ATOM     33  C   UNL A   1      42.470  25.588  27.887  1.00  0.00     0.074 A 
ATOM     34  C   UNL A   1      44.677  24.914  26.983  1.00  0.00     0.049 A 
ATOM     35  N   UNL A   1      42.659  26.862  28.118  1.00  0.00    -0.248 NA
ATOM     36  C   UNL A   1      41.108  25.122  28.195  1.00  0.00     0.031 C 
ATOM     37  C   UNL A   1      45.665  24.025  26.367  1.00  0.00     0.029 A 
ATOM     38  N   UNL A   1      45.337  26.109  27.106  1.00  0.00    -0.354 N 
ATOM     39  C   UNL A   1      41.439  27.345  28.574  1.00  0.00     0.074 A 
ATOM     40  C   UNL A   1      40.498  26.251  28.516  1.00  0.00     0.031 C 
ATOM     41  C   UNL A   1      46.814  24.698  26.196  1.00  0.00     0.029 A 
ATOM     42  C   UNL A   1      46.633  26.071  26.655  1.00  0.00     0.049 A 
ATOM     43  H   UNL A   1      44.920  26.918  27.482  1.00  0.00     0.167 HD
ATOM     44  C   UNL A   1      41.140  28.583  29.034  1.00  0.00     0.037 A 
ATOM     45  C   UNL A   1      47.566  27.042  26.618  1.00  0.00     0.037 A 
ATOM     46  C   UNL A   1      42.096  29.655  29.118  1.00  0.00     0.049 A 
ATOM     47  C   UNL A   1      47.214  28.404  27.152  1.00  0.00     0.074 A 
ATOM     48  C   UNL A   1      41.922  30.930  29.624  1.00  0.00     0.029 A 
ATOM     49  N   UNL A   1      43.411  29.572  28.680  1.00  0.00    -0.354 N 
ATOM     50  N   UNL A   1      46.079  28.832  27.652  1.00  0.00    -0.248 NA
ATOM     51  C   UNL A   1      48.280  29.413  27.131  1.00  0.00     0.031 C 
ATOM     52  C   UNL A   1      43.117  31.635  29.445  1.00  0.00     0.029 A 
ATOM     53  C   UNL A   1      44.055  30.781  28.886  1.00  0.00     0.049 A 
ATOM     54  H   UNL A   1      43.825  28.772  28.283  1.00  0.00     0.167 HD
ATOM     55  C   UNL A   1      46.300  30.150  28.027  1.00  0.00     0.074 A 
ATOM     56  C   UNL A   1      47.687  30.439  27.723  1.00  0.00     0.031 C 
ATOM     57  C   UNL A   1      45.435  31.045  28.570  1.00  0.00     0.037 A 
BRANCH  44  58
ATOM     58  C   UNL A   1      39.728  28.835  29.484  1.00  0.00     0.064 A 
ATOM     59  C   UNL A   1      38.748  29.326  28.604  1.00  0.00     0.173 A 
ATOM     60  C   UNL A   1      39.343  28.568  30.806  1.00  0.00     0.173 A 
ATOM     61  F   UNL A   1      39.065  29.616  27.333  1.00  0.00    -0.203 F 
ATOM     62  C   UNL A   1      37.450  29.573  29.041  1.00  0.00     0.198 A 
ATOM     63  C   UNL A   1      38.034  28.782  31.230  1.00  0.00     0.198 A 
ATOM     64  F   UNL A   1      40.236  28.098  31.689  1.00  0.00    -0.203 F 
ATOM     65  F   UNL A   1      36.550  30.102  28.200  1.00  0.00    -0.200 F 
ATOM     66  C   UNL A   1      37.091  29.293  30.351  1.00  0.00     0.200 A 
ATOM     67  F   UNL A   1      37.686  28.499  32.492  1.00  0.00    -0.200 F 
ATOM     68  F   UNL A   1      35.839  29.526  30.768  1.00  0.00    -0.200 F 
ENDBRANCH  44  58
BRANCH  45  69
ATOM     69  C   UNL A   1      48.927  26.748  26.095  1.00  0.00     0.064 A 
ATOM     70  C   UNL A   1      49.269  27.052  24.770  1.00  0.00     0.173 A 
ATOM     71  C   UNL A   1      49.910  26.159  26.903  1.00  0.00     0.173 A 
ATOM     72  F   UNL A   1      48.359  27.601  23.952  1.00  0.00    -0.203 F 
ATOM     73  C   UNL A   1      50.533  26.752  24.264  1.00  0.00     0.198 A 
ATOM     74  C   UNL A   1      51.184  25.889  26.405  1.00  0.00     0.198 A 
ATOM     75  F   UNL A   1      49.638  25.856  28.179  1.00  0.00    -0.203 F 
ATOM     76  F   UNL A   1      50.814  27.005  22.978  1.00  0.00    -0.200 F 
ATOM     77  C   UNL A   1      51.491  26.177  25.084  1.00  0.00     0.200 A 
ATOM     78  F   UNL A   1      52.113  25.349  27.206  1.00  0.00    -0.200 F 
ATOM     79  F   UNL A   1      52.708  25.892  24.599  1.00  0.00    -0.200 F 
ENDBRANCH  45  69
BRANCH  57  80
ATOM     80  C   UNL A   1      45.984  32.405  28.894  1.00  0.00     0.064 A 
ATOM     81  C   UNL A   1      45.932  33.462  27.973  1.00  0.00     0.173 A 
ATOM     82  C   UNL A   1      46.564  32.657  30.148  1.00  0.00     0.173 A 
ATOM     83  F   UNL A   1      45.398  33.271  26.756  1.00  0.00    -0.203 F 
ATOM     84  C   UNL A   1      46.485  34.703  28.275  1.00  0.00     0.198 A 
ATOM     85  C   UNL A   1      47.079  33.910  30.461  1.00  0.00     0.198 A 
ATOM     86  F   UNL A   1      46.627  31.685  31.071  1.00  0.00    -0.203 F 
ATOM     87  F   UNL A   1      46.490  35.674  27.351  1.00  0.00    -0.200 F 
ATOM     88  C   UNL A   1      47.053  34.928  29.519  1.00  0.00     0.200 A 
ATOM     89  F   UNL A   1      47.612  34.131  31.671  1.00  0.00    -0.200 F 
ATOM     90  F   UNL A   1      47.587  36.122  29.808  1.00  0.00    -0.200 F 
ENDBRANCH  57  80
ENDBRANCH  31  32
ENDBRANCH  23  26
ENDBRANCH  21  22
ENDBRANCH  20  21
ENDBRANCH  19  20
ENDBRANCH   1  19
TORSDOF 16
ENDMDL
