MODEL 1
REMARK VINA RESULT:     -12.8      0.000      0.000
REMARK SMILES Cc1cc(N2CCC[C@H](C(=O)NCCCCNC(=O)c3ccc(-c4c5nc(c(-c6c(F)c(F)c(F)c(F)c6F)c6ccc([nH]6)c(-c6c(F)c(F)c(F)c(F)c6F)c6nc(c(-c7c(F)c(F)c(F)c(F)c7F)c7ccc4[nH]7)C=C6)C=C5)cc3)C2)nc(C(C)C)n1
REMARK SMILES IDX 14 1 13 2 12 3 10 4 11 5 9 7 5 8 6 9 83 10 7 11 8 12 4 13
REMARK SMILES IDX 1 14 2 15 3 16 89 17 85 18 84 19 86 20 87 21 88 22 15 23
REMARK SMILES IDX 16 24 17 25 18 26 19 28 20 29 21 30 82 31 22 32 81 33 23 34
REMARK SMILES IDX 24 35 25 36 75 37 26 38 80 39 74 40 76 41 27 42 79 43 73 44
REMARK SMILES IDX 72 45 28 47 60 48 40 49 59 50 41 51 44 52 58 53 77 54 42 55
REMARK SMILES IDX 43 56 57 58 78 59 45 60 29 61 30 62 38 63 31 64 32 65 36 66
REMARK SMILES IDX 39 67 33 68 34 69 37 70 35 71 61 72 62 73 70 74 63 75 64 76
REMARK SMILES IDX 68 77 71 78 65 79 66 80 69 81 67 82 46 83 47 84 55 85 48 86
REMARK SMILES IDX 49 87 53 88 56 89 50 90 51 91 54 92 52 93
REMARK H PARENT 12 6 17 27 76 46 44 57
REMARK Flexibility Score: inf
ROOT
ATOM      1  C   UNL A   1      33.746  26.833  25.847  1.00  0.00     0.023 C 
ENDROOT
BRANCH   1   2
ATOM      2  C   UNL A   1      33.108  25.473  26.113  1.00  0.00     0.116 C 
BRANCH   2   3
ATOM      3  N   UNL A   1      31.720  25.569  26.504  1.00  0.00    -0.356 N 
ATOM      4  C   UNL A   1      30.592  25.183  25.859  1.00  0.00     0.224 C 
ATOM      5  O   UNL A   1      29.547  25.214  26.523  1.00  0.00    -0.275 OA
ATOM      6  H   UNL A   1      31.569  25.983  27.384  1.00  0.00     0.163 HD
BRANCH   4   7
ATOM      7  C   UNL A   1      30.534  24.721  24.400  1.00  0.00     0.098 C 
ATOM      8  N   UNL A   1      32.366  23.206  23.779  1.00  0.00    -0.356 N 
ATOM      9  C   UNL A   1      32.772  23.931  22.591  1.00  0.00     0.118 C 
ATOM     10  C   UNL A   1      30.978  23.278  24.204  1.00  0.00     0.131 C 
ATOM     11  C   UNL A   1      32.443  25.418  22.761  1.00  0.00     0.022 C 
ATOM     12  C   UNL A   1      31.059  25.708  23.349  1.00  0.00     0.017 C 
BRANCH   8  13
ATOM     13  C   UNL A   1      33.077  22.111  24.219  1.00  0.00     0.132 A 
ATOM     14  C   UNL A   1      36.536  21.001  25.127  1.00  0.00     0.067 C 
ATOM     15  C   UNL A   1      35.067  21.018  24.831  1.00  0.00     0.043 A 
ATOM     16  C   UNL A   1      34.409  22.202  24.562  1.00  0.00     0.070 A 
ATOM     17  N   UNL A   1      34.450  19.821  24.786  1.00  0.00    -0.238 NA
ATOM     18  C   UNL A   1      33.147  19.825  24.457  1.00  0.00     0.133 A 
ATOM     19  N   UNL A   1      32.441  20.929  24.170  1.00  0.00    -0.216 NA
BRANCH  18  20
ATOM     20  C   UNL A   1      32.432  18.500  24.318  1.00  0.00     0.051 C 
ATOM     21  C   UNL A   1      32.792  17.828  22.993  1.00  0.00     0.016 C 
ATOM     22  C   UNL A   1      32.720  17.582  25.503  1.00  0.00     0.016 C 
ENDBRANCH  18  20
ENDBRANCH   8  13
ENDBRANCH   4   7
ENDBRANCH   2   3
ENDBRANCH   1   2
BRANCH   1  23
ATOM     23  C   UNL A   1      32.748  27.973  25.675  1.00  0.00     0.023 C 
BRANCH  23  24
ATOM     24  C   UNL A   1      33.366  29.339  25.389  1.00  0.00     0.116 C 
BRANCH  24  25
ATOM     25  N   UNL A   1      32.709  30.457  26.051  1.00  0.00    -0.352 N 
ATOM     26  C   UNL A   1      33.209  31.225  27.083  1.00  0.00     0.251 C 
ATOM     27  H   UNL A   1      31.807  30.690  25.729  1.00  0.00     0.163 HD
ATOM     28  O   UNL A   1      32.551  32.107  27.610  1.00  0.00    -0.269 OA
BRANCH  26  29
ATOM     29  C   UNL A   1      34.571  30.916  27.565  1.00  0.00     0.039 A 
ATOM     30  C   UNL A   1      35.513  31.944  27.653  1.00  0.00     0.014 A 
ATOM     31  C   UNL A   1      34.858  29.637  28.046  1.00  0.00     0.014 A 
ATOM     32  C   UNL A   1      36.720  31.709  28.315  1.00  0.00     0.010 A 
ATOM     33  C   UNL A   1      36.029  29.425  28.761  1.00  0.00     0.010 A 
ATOM     34  C   UNL A   1      36.963  30.462  28.913  1.00  0.00    -0.014 A 
BRANCH  34  35
ATOM     35  C   UNL A   1      38.185  30.198  29.712  1.00  0.00     0.031 A 
ATOM     36  C   UNL A   1      39.225  29.259  29.176  1.00  0.00     0.074 A 
ATOM     37  C   UNL A   1      38.300  30.703  30.956  1.00  0.00     0.049 A 
ATOM     38  N   UNL A   1      40.273  28.751  29.775  1.00  0.00    -0.248 NA
ATOM     39  C   UNL A   1      39.039  28.798  27.792  1.00  0.00     0.031 C 
ATOM     40  C   UNL A   1      37.332  31.589  31.605  1.00  0.00     0.029 A 
ATOM     41  N   UNL A   1      39.271  30.519  31.909  1.00  0.00    -0.354 N 
ATOM     42  C   UNL A   1      40.847  27.887  28.853  1.00  0.00     0.074 A 
ATOM     43  C   UNL A   1      40.011  27.907  27.671  1.00  0.00     0.031 C 
ATOM     44  C   UNL A   1      37.763  31.880  32.844  1.00  0.00     0.029 A 
ATOM     45  C   UNL A   1      39.016  31.171  33.090  1.00  0.00     0.049 A 
ATOM     46  H   UNL A   1      40.076  29.972  31.758  1.00  0.00     0.167 HD
ATOM     47  C   UNL A   1      41.978  27.156  28.977  1.00  0.00     0.037 A 
ATOM     48  C   UNL A   1      39.710  31.183  34.244  1.00  0.00     0.037 A 
ATOM     49  C   UNL A   1      42.829  27.173  30.136  1.00  0.00     0.049 A 
ATOM     50  C   UNL A   1      40.984  30.387  34.344  1.00  0.00     0.074 A 
ATOM     51  C   UNL A   1      44.027  26.513  30.338  1.00  0.00     0.029 A 
ATOM     52  N   UNL A   1      42.570  27.901  31.288  1.00  0.00    -0.354 N 
ATOM     53  N   UNL A   1      41.545  29.612  33.450  1.00  0.00    -0.248 NA
ATOM     54  C   UNL A   1      41.722  30.471  35.613  1.00  0.00     0.031 C 
ATOM     55  C   UNL A   1      44.482  26.821  31.625  1.00  0.00     0.029 A 
ATOM     56  C   UNL A   1      43.586  27.703  32.208  1.00  0.00     0.049 A 
ATOM     57  H   UNL A   1      41.781  28.471  31.432  1.00  0.00     0.167 HD
ATOM     58  C   UNL A   1      42.718  29.148  34.029  1.00  0.00     0.074 A 
ATOM     59  C   UNL A   1      42.788  29.726  35.353  1.00  0.00     0.031 C 
ATOM     60  C   UNL A   1      43.654  28.318  33.508  1.00  0.00     0.037 A 
BRANCH  47  61
ATOM     61  C   UNL A   1      42.363  26.279  27.822  1.00  0.00     0.064 A 
ATOM     62  C   UNL A   1      43.297  26.699  26.862  1.00  0.00     0.173 A 
ATOM     63  C   UNL A   1      41.810  24.998  27.685  1.00  0.00     0.173 A 
ATOM     64  F   UNL A   1      43.844  27.922  26.942  1.00  0.00    -0.203 F 
ATOM     65  C   UNL A   1      43.638  25.880  25.790  1.00  0.00     0.198 A 
ATOM     66  C   UNL A   1      42.176  24.170  26.626  1.00  0.00     0.198 A 
ATOM     67  F   UNL A   1      40.916  24.547  28.578  1.00  0.00    -0.203 F 
ATOM     68  F   UNL A   1      44.493  26.323  24.858  1.00  0.00    -0.200 F 
ATOM     69  C   UNL A   1      43.083  24.615  25.677  1.00  0.00     0.200 A 
ATOM     70  F   UNL A   1      41.647  22.943  26.523  1.00  0.00    -0.200 F 
ATOM     71  F   UNL A   1      43.416  23.826  24.646  1.00  0.00    -0.200 F 
ENDBRANCH  47  61
BRANCH  48  72
ATOM     72  C   UNL A   1      39.235  32.003  35.388  1.00  0.00     0.064 A 
ATOM     73  C   UNL A   1      39.581  33.358  35.489  1.00  0.00     0.173 A 
ATOM     74  C   UNL A   1      38.433  31.457  36.400  1.00  0.00     0.173 A 
ATOM     75  F   UNL A   1      40.364  33.918  34.556  1.00  0.00    -0.203 F 
ATOM     76  C   UNL A   1      39.159  34.131  36.568  1.00  0.00     0.198 A 
ATOM     77  C   UNL A   1      37.992  32.238  37.467  1.00  0.00     0.198 A 
ATOM     78  F   UNL A   1      38.070  30.167  36.347  1.00  0.00    -0.203 F 
ATOM     79  F   UNL A   1      39.540  35.412  36.661  1.00  0.00    -0.200 F 
ATOM     80  C   UNL A   1      38.361  33.572  37.555  1.00  0.00     0.200 A 
ATOM     81  F   UNL A   1      37.211  31.697  38.412  1.00  0.00    -0.200 F 
ATOM     82  F   UNL A   1      37.953  34.316  38.591  1.00  0.00    -0.200 F 
ENDBRANCH  48  72
BRANCH  60  83
ATOM     83  C   UNL A   1      44.867  28.032  34.339  1.00  0.00     0.064 A 
ATOM     84  C   UNL A   1      45.996  28.861  34.304  1.00  0.00     0.173 A 
ATOM     85  C   UNL A   1      44.864  26.955  35.239  1.00  0.00     0.173 A 
ATOM     86  F   UNL A   1      46.048  29.895  33.450  1.00  0.00    -0.203 F 
ATOM     87  C   UNL A   1      47.085  28.617  35.136  1.00  0.00     0.198 A 
ATOM     88  C   UNL A   1      45.946  26.727  36.083  1.00  0.00     0.198 A 
ATOM     89  F   UNL A   1      43.804  26.138  35.310  1.00  0.00    -0.203 F 
ATOM     90  F   UNL A   1      48.167  29.407  35.070  1.00  0.00    -0.200 F 
ATOM     91  C   UNL A   1      47.056  27.557  36.031  1.00  0.00     0.200 A 
ATOM     92  F   UNL A   1      45.911  25.710  36.954  1.00  0.00    -0.200 F 
ATOM     93  F   UNL A   1      48.099  27.333  36.840  1.00  0.00    -0.200 F 
ENDBRANCH  60  83
ENDBRANCH  34  35
ENDBRANCH  26  29
ENDBRANCH  24  25
ENDBRANCH  23  24
ENDBRANCH   1  23
TORSDOF 13
ENDMDL
MODEL 2
REMARK VINA RESULT:     -12.8      1.924      7.848
REMARK SMILES Cc1cc(N2CCC[C@H](C(=O)NCCCCNC(=O)c3ccc(-c4c5nc(c(-c6c(F)c(F)c(F)c(F)c6F)c6ccc([nH]6)c(-c6c(F)c(F)c(F)c(F)c6F)c6nc(c(-c7c(F)c(F)c(F)c(F)c7F)c7ccc4[nH]7)C=C6)C=C5)cc3)C2)nc(C(C)C)n1
REMARK SMILES IDX 14 1 13 2 12 3 10 4 11 5 9 7 5 8 6 9 83 10 7 11 8 12 4 13
REMARK SMILES IDX 1 14 2 15 3 16 89 17 85 18 84 19 86 20 87 21 88 22 15 23
REMARK SMILES IDX 16 24 17 25 18 26 19 28 20 29 21 30 82 31 22 32 81 33 23 34
REMARK SMILES IDX 24 35 25 36 75 37 26 38 80 39 74 40 76 41 27 42 79 43 73 44
REMARK SMILES IDX 72 45 28 47 60 48 40 49 59 50 41 51 44 52 58 53 77 54 42 55
REMARK SMILES IDX 43 56 57 58 78 59 45 60 29 61 30 62 38 63 31 64 32 65 36 66
REMARK SMILES IDX 39 67 33 68 34 69 37 70 35 71 61 72 62 73 70 74 63 75 64 76
REMARK SMILES IDX 68 77 71 78 65 79 66 80 69 81 67 82 46 83 47 84 55 85 48 86
REMARK SMILES IDX 49 87 53 88 56 89 50 90 51 91 54 92 52 93
REMARK H PARENT 12 6 17 27 76 46 44 57
REMARK Flexibility Score: inf
ROOT
ATOM      1  C   UNL A   1      32.051  30.689  26.117  1.00  0.00     0.023 C 
ENDROOT
BRANCH   1   2
ATOM      2  C   UNL A   1      33.315  29.999  26.620  1.00  0.00     0.116 C 
BRANCH   2   3
ATOM      3  N   UNL A   1      33.875  29.077  25.659  1.00  0.00    -0.356 N 
ATOM      4  C   UNL A   1      33.455  27.850  25.263  1.00  0.00     0.224 C 
ATOM      5  O   UNL A   1      34.028  27.370  24.276  1.00  0.00    -0.275 OA
ATOM      6  H   UNL A   1      34.697  29.392  25.219  1.00  0.00     0.163 HD
BRANCH   4   7
ATOM      7  C   UNL A   1      32.343  27.046  25.943  1.00  0.00     0.098 C 
ATOM      8  N   UNL A   1      32.112  24.761  25.069  1.00  0.00    -0.356 N 
ATOM      9  C   UNL A   1      30.684  24.829  24.833  1.00  0.00     0.118 C 
ATOM     10  C   UNL A   1      32.687  25.574  26.128  1.00  0.00     0.131 C 
ATOM     11  C   UNL A   1      30.280  26.277  24.541  1.00  0.00     0.022 C 
ATOM     12  C   UNL A   1      30.910  27.321  25.466  1.00  0.00     0.017 C 
BRANCH   8  13
ATOM     13  C   UNL A   1      32.842  23.655  24.693  1.00  0.00     0.132 A 
ATOM     14  C   UNL A   1      32.528  19.975  24.076  1.00  0.00     0.067 C 
ATOM     15  C   UNL A   1      33.079  21.358  24.251  1.00  0.00     0.043 A 
ATOM     16  C   UNL A   1      32.242  22.436  24.460  1.00  0.00     0.070 A 
ATOM     17  N   UNL A   1      34.422  21.473  24.252  1.00  0.00    -0.238 NA
ATOM     18  C   UNL A   1      34.923  22.700  24.473  1.00  0.00     0.133 A 
ATOM     19  N   UNL A   1      34.178  23.794  24.697  1.00  0.00    -0.216 NA
BRANCH  18  20
ATOM     20  C   UNL A   1      36.423  22.864  24.561  1.00  0.00     0.051 C 
ATOM     21  C   UNL A   1      36.802  23.745  25.751  1.00  0.00     0.016 C 
ATOM     22  C   UNL A   1      37.130  21.513  24.623  1.00  0.00     0.016 C 
ENDBRANCH  18  20
ENDBRANCH   8  13
ENDBRANCH   4   7
ENDBRANCH   2   3
ENDBRANCH   1   2
BRANCH   1  23
ATOM     23  C   UNL A   1      31.645  31.921  26.920  1.00  0.00     0.023 C 
BRANCH  23  24
ATOM     24  C   UNL A   1      32.798  32.820  27.358  1.00  0.00     0.116 C 
BRANCH  24  25
ATOM     25  N   UNL A   1      32.428  34.203  27.623  1.00  0.00    -0.352 N 
ATOM     26  C   UNL A   1      32.976  35.045  28.570  1.00  0.00     0.251 C 
ATOM     27  H   UNL A   1      31.707  34.578  27.067  1.00  0.00     0.163 HD
ATOM     28  O   UNL A   1      32.553  36.174  28.752  1.00  0.00    -0.269 OA
BRANCH  26  29
ATOM     29  C   UNL A   1      34.080  34.515  29.397  1.00  0.00     0.039 A 
ATOM     30  C   UNL A   1      33.782  33.842  30.583  1.00  0.00     0.014 A 
ATOM     31  C   UNL A   1      35.390  34.580  28.918  1.00  0.00     0.014 A 
ATOM     32  C   UNL A   1      34.795  33.147  31.246  1.00  0.00     0.010 A 
ATOM     33  C   UNL A   1      36.381  33.835  29.543  1.00  0.00     0.010 A 
ATOM     34  C   UNL A   1      36.089  33.101  30.704  1.00  0.00    -0.014 A 
BRANCH  34  35
ATOM     35  C   UNL A   1      37.172  32.295  31.318  1.00  0.00     0.031 A 
ATOM     36  C   UNL A   1      37.664  32.648  32.691  1.00  0.00     0.074 A 
ATOM     37  C   UNL A   1      37.786  31.333  30.601  1.00  0.00     0.049 A 
ATOM     38  N   UNL A   1      38.708  32.198  33.341  1.00  0.00    -0.248 NA
ATOM     39  C   UNL A   1      36.900  33.675  33.415  1.00  0.00     0.031 C 
ATOM     40  C   UNL A   1      37.431  30.932  29.239  1.00  0.00     0.029 A 
ATOM     41  N   UNL A   1      38.861  30.537  30.911  1.00  0.00    -0.354 N 
ATOM     42  C   UNL A   1      38.744  32.912  34.530  1.00  0.00     0.074 A 
ATOM     43  C   UNL A   1      37.644  33.852  34.496  1.00  0.00     0.031 C 
ATOM     44  C   UNL A   1      38.264  29.958  28.836  1.00  0.00     0.029 A 
ATOM     45  C   UNL A   1      39.236  29.695  29.893  1.00  0.00     0.049 A 
ATOM     46  H   UNL A   1      39.319  30.567  31.782  1.00  0.00     0.167 HD
ATOM     47  C   UNL A   1      39.607  32.783  35.563  1.00  0.00     0.037 A 
ATOM     48  C   UNL A   1      40.256  28.819  29.820  1.00  0.00     0.037 A 
ATOM     49  C   UNL A   1      40.671  31.817  35.610  1.00  0.00     0.049 A 
ATOM     50  C   UNL A   1      41.183  28.670  30.997  1.00  0.00     0.074 A 
ATOM     51  C   UNL A   1      41.565  31.566  36.635  1.00  0.00     0.029 A 
ATOM     52  N   UNL A   1      40.976  30.934  34.585  1.00  0.00    -0.354 N 
ATOM     53  N   UNL A   1      41.179  29.315  32.137  1.00  0.00    -0.248 NA
ATOM     54  C   UNL A   1      42.253  27.669  30.878  1.00  0.00     0.031 C 
ATOM     55  C   UNL A   1      42.429  30.546  36.220  1.00  0.00     0.029 A 
ATOM     56  C   UNL A   1      42.047  30.137  34.952  1.00  0.00     0.049 A 
ATOM     57  H   UNL A   1      40.502  30.881  33.724  1.00  0.00     0.167 HD
ATOM     58  C   UNL A   1      42.215  28.774  32.886  1.00  0.00     0.074 A 
ATOM     59  C   UNL A   1      42.830  27.749  32.070  1.00  0.00     0.031 C 
ATOM     60  C   UNL A   1      42.620  29.097  34.138  1.00  0.00     0.037 A 
BRANCH  47  61
ATOM     61  C   UNL A   1      39.430  33.707  36.731  1.00  0.00     0.064 A 
ATOM     62  C   UNL A   1      38.694  33.325  37.863  1.00  0.00     0.173 A 
ATOM     63  C   UNL A   1      40.019  34.979  36.728  1.00  0.00     0.173 A 
ATOM     64  F   UNL A   1      38.099  32.124  37.908  1.00  0.00    -0.203 F 
ATOM     65  C   UNL A   1      38.528  34.196  38.936  1.00  0.00     0.198 A 
ATOM     66  C   UNL A   1      39.876  35.837  37.816  1.00  0.00     0.198 A 
ATOM     67  F   UNL A   1      40.737  35.391  35.671  1.00  0.00    -0.203 F 
ATOM     68  F   UNL A   1      37.778  33.829  39.984  1.00  0.00    -0.200 F 
ATOM     69  C   UNL A   1      39.124  35.448  38.914  1.00  0.00     0.200 A 
ATOM     70  F   UNL A   1      40.461  37.042  37.799  1.00  0.00    -0.200 F 
ATOM     71  F   UNL A   1      38.968  36.284  39.950  1.00  0.00    -0.200 F 
ENDBRANCH  47  61
BRANCH  48  72
ATOM     72  C   UNL A   1      40.437  27.988  28.601  1.00  0.00     0.064 A 
ATOM     73  C   UNL A   1      41.187  28.464  27.518  1.00  0.00     0.173 A 
ATOM     74  C   UNL A   1      39.866  26.713  28.491  1.00  0.00     0.173 A 
ATOM     75  F   UNL A   1      41.734  29.688  27.570  1.00  0.00    -0.203 F 
ATOM     76  C   UNL A   1      41.345  27.704  26.361  1.00  0.00     0.198 A 
ATOM     77  C   UNL A   1      40.045  25.943  27.343  1.00  0.00     0.198 A 
ATOM     78  F   UNL A   1      39.143  26.210  29.502  1.00  0.00    -0.203 F 
ATOM     79  F   UNL A   1      42.033  28.201  25.324  1.00  0.00    -0.200 F 
ATOM     80  C   UNL A   1      40.778  26.441  26.276  1.00  0.00     0.200 A 
ATOM     81  F   UNL A   1      39.505  24.719  27.269  1.00  0.00    -0.200 F 
ATOM     82  F   UNL A   1      40.932  25.709  25.165  1.00  0.00    -0.200 F 
ENDBRANCH  48  72
BRANCH  60  83
ATOM     83  C   UNL A   1      43.738  28.297  34.734  1.00  0.00     0.064 A 
ATOM     84  C   UNL A   1      45.072  28.714  34.643  1.00  0.00     0.173 A 
ATOM     85  C   UNL A   1      43.455  27.137  35.471  1.00  0.00     0.173 A 
ATOM     86  F   UNL A   1      45.390  29.810  33.937  1.00  0.00    -0.203 F 
ATOM     87  C   UNL A   1      46.088  27.991  35.263  1.00  0.00     0.198 A 
ATOM     88  C   UNL A   1      44.471  26.430  36.107  1.00  0.00     0.198 A 
ATOM     89  F   UNL A   1      42.192  26.702  35.589  1.00  0.00    -0.203 F 
ATOM     90  F   UNL A   1      47.362  28.393  35.144  1.00  0.00    -0.200 F 
ATOM     91  C   UNL A   1      45.786  26.857  36.002  1.00  0.00     0.200 A 
ATOM     92  F   UNL A   1      44.176  25.340  36.829  1.00  0.00    -0.200 F 
ATOM     93  F   UNL A   1      46.764  26.172  36.610  1.00  0.00    -0.200 F 
ENDBRANCH  60  83
ENDBRANCH  34  35
ENDBRANCH  26  29
ENDBRANCH  24  25
ENDBRANCH  23  24
ENDBRANCH   1  23
TORSDOF 13
ENDMDL
MODEL 3
REMARK VINA RESULT:     -12.7      0.398      1.643
REMARK SMILES Cc1cc(N2CCC[C@H](C(=O)NCCCCNC(=O)c3ccc(-c4c5nc(c(-c6c(F)c(F)c(F)c(F)c6F)c6ccc([nH]6)c(-c6c(F)c(F)c(F)c(F)c6F)c6nc(c(-c7c(F)c(F)c(F)c(F)c7F)c7ccc4[nH]7)C=C6)C=C5)cc3)C2)nc(C(C)C)n1
REMARK SMILES IDX 14 1 13 2 12 3 10 4 11 5 9 7 5 8 6 9 83 10 7 11 8 12 4 13
REMARK SMILES IDX 1 14 2 15 3 16 89 17 85 18 84 19 86 20 87 21 88 22 15 23
REMARK SMILES IDX 16 24 17 25 18 26 19 28 20 29 21 30 82 31 22 32 81 33 23 34
REMARK SMILES IDX 24 35 25 36 75 37 26 38 80 39 74 40 76 41 27 42 79 43 73 44
REMARK SMILES IDX 72 45 28 47 60 48 40 49 59 50 41 51 44 52 58 53 77 54 42 55
REMARK SMILES IDX 43 56 57 58 78 59 45 60 29 61 30 62 38 63 31 64 32 65 36 66
REMARK SMILES IDX 39 67 33 68 34 69 37 70 35 71 61 72 62 73 70 74 63 75 64 76
REMARK SMILES IDX 68 77 71 78 65 79 66 80 69 81 67 82 46 83 47 84 55 85 48 86
REMARK SMILES IDX 49 87 53 88 56 89 50 90 51 91 54 92 52 93
REMARK H PARENT 12 6 17 27 76 46 44 57
REMARK Flexibility Score: inf
ROOT
ATOM      1  C   UNL A   1      33.865  26.806  25.642  1.00  0.00     0.023 C 
ENDROOT
BRANCH   1   2
ATOM      2  C   UNL A   1      33.303  25.425  25.968  1.00  0.00     0.116 C 
BRANCH   2   3
ATOM      3  N   UNL A   1      31.925  25.465  26.401  1.00  0.00    -0.356 N 
ATOM      4  C   UNL A   1      30.806  24.949  25.837  1.00  0.00     0.224 C 
ATOM      5  O   UNL A   1      29.783  24.972  26.535  1.00  0.00    -0.275 OA
ATOM      6  H   UNL A   1      31.774  25.948  27.246  1.00  0.00     0.163 HD
BRANCH   4   7
ATOM      7  C   UNL A   1      30.733  24.352  24.428  1.00  0.00     0.098 C 
ATOM      8  N   UNL A   1      32.725  23.051  23.812  1.00  0.00    -0.356 N 
ATOM      9  C   UNL A   1      32.956  23.713  22.544  1.00  0.00     0.118 C 
ATOM     10  C   UNL A   1      31.367  22.970  24.324  1.00  0.00     0.131 C 
ATOM     11  C   UNL A   1      32.429  25.150  22.612  1.00  0.00     0.022 C 
ATOM     12  C   UNL A   1      31.053  25.301  23.266  1.00  0.00     0.017 C 
BRANCH   8  13
ATOM     13  C   UNL A   1      33.607  22.108  24.293  1.00  0.00     0.132 A 
ATOM     14  C   UNL A   1      37.200  21.630  25.233  1.00  0.00     0.067 C 
ATOM     15  C   UNL A   1      35.750  21.389  24.941  1.00  0.00     0.043 A 
ATOM     16  C   UNL A   1      34.904  22.434  24.628  1.00  0.00     0.070 A 
ATOM     17  N   UNL A   1      35.343  20.105  24.943  1.00  0.00    -0.238 NA
ATOM     18  C   UNL A   1      34.059  19.877  24.617  1.00  0.00     0.133 A 
ATOM     19  N   UNL A   1      33.179  20.835  24.290  1.00  0.00    -0.216 NA
BRANCH  18  20
ATOM     20  C   UNL A   1      33.577  18.447  24.531  1.00  0.00     0.051 C 
ATOM     21  C   UNL A   1      32.436  18.321  23.522  1.00  0.00     0.016 C 
ATOM     22  C   UNL A   1      34.720  17.491  24.197  1.00  0.00     0.016 C 
ENDBRANCH  18  20
ENDBRANCH   8  13
ENDBRANCH   4   7
ENDBRANCH   2   3
ENDBRANCH   1   2
BRANCH   1  23
ATOM     23  C   UNL A   1      32.836  27.930  25.689  1.00  0.00     0.023 C 
BRANCH  23  24
ATOM     24  C   UNL A   1      33.372  29.317  25.344  1.00  0.00     0.116 C 
BRANCH  24  25
ATOM     25  N   UNL A   1      32.700  30.418  26.018  1.00  0.00    -0.352 N 
ATOM     26  C   UNL A   1      33.189  31.181  27.060  1.00  0.00     0.251 C 
ATOM     27  H   UNL A   1      31.796  30.642  25.697  1.00  0.00     0.163 HD
ATOM     28  O   UNL A   1      32.519  32.047  27.596  1.00  0.00    -0.269 OA
BRANCH  26  29
ATOM     29  C   UNL A   1      34.555  30.885  27.539  1.00  0.00     0.039 A 
ATOM     30  C   UNL A   1      35.478  31.926  27.652  1.00  0.00     0.014 A 
ATOM     31  C   UNL A   1      34.862  29.601  27.993  1.00  0.00     0.014 A 
ATOM     32  C   UNL A   1      36.687  31.697  28.313  1.00  0.00     0.010 A 
ATOM     33  C   UNL A   1      36.034  29.393  28.708  1.00  0.00     0.010 A 
ATOM     34  C   UNL A   1      36.950  30.443  28.885  1.00  0.00    -0.014 A 
BRANCH  34  35
ATOM     35  C   UNL A   1      38.174  30.182  29.682  1.00  0.00     0.031 A 
ATOM     36  C   UNL A   1      39.212  29.239  29.149  1.00  0.00     0.074 A 
ATOM     37  C   UNL A   1      38.292  30.695  30.923  1.00  0.00     0.049 A 
ATOM     38  N   UNL A   1      40.260  28.733  29.748  1.00  0.00    -0.248 NA
ATOM     39  C   UNL A   1      39.021  28.770  27.768  1.00  0.00     0.031 C 
ATOM     40  C   UNL A   1      37.327  31.585  31.569  1.00  0.00     0.029 A 
ATOM     41  N   UNL A   1      39.266  30.515  31.874  1.00  0.00    -0.354 N 
ATOM     42  C   UNL A   1      40.831  27.863  28.830  1.00  0.00     0.074 A 
ATOM     43  C   UNL A   1      39.992  27.877  27.651  1.00  0.00     0.031 C 
ATOM     44  C   UNL A   1      37.762  31.883  32.805  1.00  0.00     0.029 A 
ATOM     45  C   UNL A   1      39.014  31.174  33.052  1.00  0.00     0.049 A 
ATOM     46  H   UNL A   1      40.070  29.967  31.724  1.00  0.00     0.167 HD
ATOM     47  C   UNL A   1      41.962  27.131  28.955  1.00  0.00     0.037 A 
ATOM     48  C   UNL A   1      39.712  31.193  34.204  1.00  0.00     0.037 A 
ATOM     49  C   UNL A   1      42.815  27.155  30.112  1.00  0.00     0.049 A 
ATOM     50  C   UNL A   1      40.985  30.396  34.305  1.00  0.00     0.074 A 
ATOM     51  C   UNL A   1      44.013  26.495  30.315  1.00  0.00     0.029 A 
ATOM     52  N   UNL A   1      42.560  27.889  31.261  1.00  0.00    -0.354 N 
ATOM     53  N   UNL A   1      41.543  29.615  33.414  1.00  0.00    -0.248 NA
ATOM     54  C   UNL A   1      41.727  30.487  35.571  1.00  0.00     0.031 C 
ATOM     55  C   UNL A   1      44.473  26.811  31.598  1.00  0.00     0.029 A 
ATOM     56  C   UNL A   1      43.579  27.697  32.178  1.00  0.00     0.049 A 
ATOM     57  H   UNL A   1      41.772  28.462  31.403  1.00  0.00     0.167 HD
ATOM     58  C   UNL A   1      42.717  29.153  33.993  1.00  0.00     0.074 A 
ATOM     59  C   UNL A   1      42.792  29.740  35.314  1.00  0.00     0.031 C 
ATOM     60  C   UNL A   1      43.651  28.319  33.474  1.00  0.00     0.037 A 
BRANCH  47  61
ATOM     61  C   UNL A   1      42.343  26.247  27.805  1.00  0.00     0.064 A 
ATOM     62  C   UNL A   1      41.762  24.982  27.628  1.00  0.00     0.173 A 
ATOM     63  C   UNL A   1      43.282  26.678  26.857  1.00  0.00     0.173 A 
ATOM     64  F   UNL A   1      40.869  24.520  28.516  1.00  0.00    -0.203 F 
ATOM     65  C   UNL A   1      42.132  24.168  26.562  1.00  0.00     0.198 A 
ATOM     66  C   UNL A   1      43.628  25.872  25.775  1.00  0.00     0.198 A 
ATOM     67  F   UNL A   1      43.863  27.881  26.977  1.00  0.00    -0.203 F 
ATOM     68  F   UNL A   1      41.602  22.942  26.443  1.00  0.00    -0.200 F 
ATOM     69  C   UNL A   1      43.059  24.615  25.634  1.00  0.00     0.200 A 
ATOM     70  F   UNL A   1      44.515  26.310  24.871  1.00  0.00    -0.200 F 
ATOM     71  F   UNL A   1      43.411  23.832  24.605  1.00  0.00    -0.200 F 
ENDBRANCH  47  61
BRANCH  48  72
ATOM     72  C   UNL A   1      39.241  32.020  35.345  1.00  0.00     0.064 A 
ATOM     73  C   UNL A   1      39.586  33.376  35.435  1.00  0.00     0.173 A 
ATOM     74  C   UNL A   1      38.444  31.480  36.364  1.00  0.00     0.173 A 
ATOM     75  F   UNL A   1      40.365  33.931  34.494  1.00  0.00    -0.203 F 
ATOM     76  C   UNL A   1      39.168  34.156  36.510  1.00  0.00     0.198 A 
ATOM     77  C   UNL A   1      38.006  32.268  37.427  1.00  0.00     0.198 A 
ATOM     78  F   UNL A   1      38.082  30.190  36.321  1.00  0.00    -0.203 F 
ATOM     79  F   UNL A   1      39.547  35.438  36.593  1.00  0.00    -0.200 F 
ATOM     80  C   UNL A   1      38.374  33.603  37.504  1.00  0.00     0.200 A 
ATOM     81  F   UNL A   1      37.230  31.733  38.379  1.00  0.00    -0.200 F 
ATOM     82  F   UNL A   1      37.970  34.354  38.537  1.00  0.00    -0.200 F 
ENDBRANCH  48  72
BRANCH  60  83
ATOM     83  C   UNL A   1      44.866  28.038  34.304  1.00  0.00     0.064 A 
ATOM     84  C   UNL A   1      44.914  26.961  35.200  1.00  0.00     0.173 A 
ATOM     85  C   UNL A   1      46.024  28.813  34.139  1.00  0.00     0.173 A 
ATOM     86  F   UNL A   1      43.826  26.201  35.399  1.00  0.00    -0.203 F 
ATOM     87  C   UNL A   1      46.077  26.676  35.910  1.00  0.00     0.198 A 
ATOM     88  C   UNL A   1      47.191  28.512  34.835  1.00  0.00     0.198 A 
ATOM     89  F   UNL A   1      46.027  29.851  33.289  1.00  0.00    -0.203 F 
ATOM     90  F   UNL A   1      46.094  25.658  36.781  1.00  0.00    -0.200 F 
ATOM     91  C   UNL A   1      47.216  27.444  35.720  1.00  0.00     0.200 A 
ATOM     92  F   UNL A   1      48.294  29.248  34.642  1.00  0.00    -0.200 F 
ATOM     93  F   UNL A   1      48.338  27.158  36.393  1.00  0.00    -0.200 F 
ENDBRANCH  60  83
ENDBRANCH  34  35
ENDBRANCH  26  29
ENDBRANCH  24  25
ENDBRANCH  23  24
ENDBRANCH   1  23
TORSDOF 13
ENDMDL
