MODEL 1
REMARK VINA RESULT:     -12.3      0.000      0.000
REMARK SMILES COc1cc(C(=O)NCCCCNC(=O)c2ccc(-c3c4nc(c(-c5c(F)c(F)c(F)c(F)c5F)c5ccc([nH]5)c(-c5c(F)c(F)c(F)c(F)c5F)c5nc(c(-c6c(F)c(F)c(F)c(F)c6F)c6ccc3[nH]6)C=C5)C=C4)cc2)ccc1OCC(=O)N[C@H]1CCCC[C@H]1C
REMARK SMILES IDX 9 1 8 2 6 3 7 4 5 6 3 7 4 8 81 9 80 10 79 11 2 12 1 13 82 14
REMARK SMILES IDX 83 15 84 16 85 17 86 18 87 20 88 21 92 22 89 23 91 24 93 25
REMARK SMILES IDX 90 26 10 27 11 28 12 29 13 30 14 31 15 33 16 34 17 35 78 36
REMARK SMILES IDX 18 37 77 38 19 39 20 40 21 41 71 42 22 43 76 44 70 45 72 46
REMARK SMILES IDX 23 47 75 48 69 49 68 50 24 52 56 53 36 54 55 55 37 56 40 57
REMARK SMILES IDX 54 58 73 59 38 60 39 61 53 63 74 64 41 65 25 66 26 67 34 68
REMARK SMILES IDX 27 69 28 70 32 71 35 72 29 73 30 74 33 75 31 76 57 77 58 78
REMARK SMILES IDX 66 79 59 80 60 81 64 82 67 83 61 84 62 85 65 86 63 87 42 88
REMARK SMILES IDX 43 89 51 90 44 91 45 92 49 93 52 94 46 95 47 96 50 97 48 98
REMARK H PARENT 8 5 86 19 13 32 72 51 40 62
REMARK Flexibility Score: inf
ROOT
ATOM      1  C   UNL A   1      33.130  30.034  26.680  1.00  0.00     0.116 C 
ENDROOT
BRANCH   1   2
ATOM      2  N   UNL A   1      33.565  29.822  25.306  1.00  0.00    -0.352 N 
ATOM      3  C   UNL A   1      33.476  28.801  24.385  1.00  0.00     0.251 C 
ATOM      4  O   UNL A   1      33.951  29.024  23.269  1.00  0.00    -0.269 OA
ATOM      5  H   UNL A   1      34.040  30.605  24.945  1.00  0.00     0.163 HD
BRANCH   3   6
ATOM      6  C   UNL A   1      32.883  27.454  24.647  1.00  0.00     0.043 A 
ATOM      7  C   UNL A   1      31.023  25.867  24.355  1.00  0.00     0.161 A 
ATOM      8  C   UNL A   1      31.627  27.121  24.096  1.00  0.00     0.064 A 
ATOM      9  C   UNL A   1      31.701  24.912  25.110  1.00  0.00     0.161 A 
ATOM     10  C   UNL A   1      32.994  25.204  25.519  1.00  0.00     0.051 A 
ATOM     11  C   UNL A   1      33.509  26.487  25.413  1.00  0.00     0.018 A 
BRANCH   7  12
ATOM     12  O   UNL A   1      29.863  25.517  23.723  1.00  0.00    -0.493 OA
ATOM     13  C   UNL A   1      28.791  26.419  23.990  1.00  0.00     0.278 C 
ENDBRANCH   7  12
BRANCH   9  14
ATOM     14  O   UNL A   1      31.290  23.691  25.561  1.00  0.00    -0.480 OA
BRANCH  14  15
ATOM     15  C   UNL A   1      31.501  22.542  24.768  1.00  0.00     0.329 C 
BRANCH  15  16
ATOM     16  C   UNL A   1      32.347  21.308  25.183  1.00  0.00     0.258 C 
ATOM     17  O   UNL A   1      31.794  20.203  25.283  1.00  0.00    -0.271 OA
ATOM     18  N   UNL A   1      33.693  21.264  25.367  1.00  0.00    -0.350 N 
ATOM     19  H   UNL A   1      33.971  20.400  25.750  1.00  0.00     0.163 HD
BRANCH  18  20
ATOM     20  C   UNL A   1      34.851  22.145  25.152  1.00  0.00     0.085 C 
ATOM     21  C   UNL A   1      35.217  22.982  26.376  1.00  0.00     0.025 C 
ATOM     22  C   UNL A   1      36.029  21.490  24.380  1.00  0.00     0.008 C 
ATOM     23  C   UNL A   1      36.435  23.864  26.139  1.00  0.00     0.002 C 
ATOM     24  C   UNL A   1      37.300  22.363  24.351  1.00  0.00     0.005 C 
ATOM     25  C   UNL A   1      36.391  20.132  24.929  1.00  0.00     0.010 C 
ATOM     26  C   UNL A   1      37.612  23.011  25.696  1.00  0.00     0.000 C 
ENDBRANCH  18  20
ENDBRANCH  15  16
ENDBRANCH  14  15
ENDBRANCH   9  14
ENDBRANCH   3   6
ENDBRANCH   1   2
BRANCH   1  27
ATOM     27  C   UNL A   1      31.699  30.543  26.809  1.00  0.00     0.023 C 
BRANCH  27  28
ATOM     28  C   UNL A   1      31.563  32.062  26.743  1.00  0.00     0.023 C 
BRANCH  28  29
ATOM     29  C   UNL A   1      32.718  32.848  27.353  1.00  0.00     0.116 C 
BRANCH  29  30
ATOM     30  N   UNL A   1      32.384  34.224  27.696  1.00  0.00    -0.352 N 
ATOM     31  C   UNL A   1      32.968  35.035  28.641  1.00  0.00     0.251 C 
ATOM     32  H   UNL A   1      31.646  34.626  27.185  1.00  0.00     0.163 HD
ATOM     33  O   UNL A   1      32.516  36.152  28.874  1.00  0.00    -0.269 OA
BRANCH  31  34
ATOM     34  C   UNL A   1      34.127  34.529  29.405  1.00  0.00     0.039 A 
ATOM     35  C   UNL A   1      33.908  33.912  30.638  1.00  0.00     0.014 A 
ATOM     36  C   UNL A   1      35.416  34.617  28.877  1.00  0.00     0.014 A 
ATOM     37  C   UNL A   1      34.980  33.322  31.312  1.00  0.00     0.010 A 
ATOM     38  C   UNL A   1      36.463  33.950  29.502  1.00  0.00     0.010 A 
ATOM     39  C   UNL A   1      36.259  33.305  30.732  1.00  0.00    -0.014 A 
BRANCH  39  40
ATOM     40  C   UNL A   1      37.408  32.655  31.410  1.00  0.00     0.031 A 
ATOM     41  C   UNL A   1      38.102  31.493  30.750  1.00  0.00     0.074 A 
ATOM     42  C   UNL A   1      37.787  33.060  32.639  1.00  0.00     0.049 A 
ATOM     43  N   UNL A   1      39.068  30.736  31.203  1.00  0.00    -0.248 NA
ATOM     44  C   UNL A   1      37.622  31.109  29.411  1.00  0.00     0.031 C 
ATOM     45  C   UNL A   1      37.164  34.141  33.406  1.00  0.00     0.029 A 
ATOM     46  N   UNL A   1      38.784  32.603  33.464  1.00  0.00    -0.354 N 
ATOM     47  C   UNL A   1      39.290  29.780  30.221  1.00  0.00     0.074 A 
ATOM     48  C   UNL A   1      38.324  30.013  29.173  1.00  0.00     0.031 C 
ATOM     49  C   UNL A   1      37.809  34.279  34.576  1.00  0.00     0.029 A 
ATOM     50  C   UNL A   1      38.864  33.273  34.661  1.00  0.00     0.049 A 
ATOM     51  H   UNL A   1      39.387  31.863  33.221  1.00  0.00     0.167 HD
ATOM     52  C   UNL A   1      40.235  28.810  30.186  1.00  0.00     0.037 A 
ATOM     53  C   UNL A   1      39.691  33.091  35.709  1.00  0.00     0.037 A 
ATOM     54  C   UNL A   1      41.224  28.609  31.210  1.00  0.00     0.049 A 
ATOM     55  C   UNL A   1      40.738  32.009  35.634  1.00  0.00     0.074 A 
ATOM     56  C   UNL A   1      42.266  27.700  31.234  1.00  0.00     0.029 A 
ATOM     57  N   UNL A   1      41.294  29.333  32.390  1.00  0.00    -0.354 N 
ATOM     58  N   UNL A   1      40.988  31.162  34.665  1.00  0.00    -0.248 NA
ATOM     59  C   UNL A   1      41.625  31.866  36.797  1.00  0.00     0.031 C 
ATOM     60  C   UNL A   1      42.937  27.839  32.453  1.00  0.00     0.029 A 
ATOM     61  C   UNL A   1      42.351  28.877  33.159  1.00  0.00     0.049 A 
ATOM     62  H   UNL A   1      40.682  30.062  32.644  1.00  0.00     0.167 HD
ATOM     63  C   UNL A   1      42.087  30.421  35.081  1.00  0.00     0.074 A 
ATOM     64  C   UNL A   1      42.461  30.925  36.384  1.00  0.00     0.031 C 
ATOM     65  C   UNL A   1      42.730  29.413  34.440  1.00  0.00     0.037 A 
BRANCH  52  66
ATOM     66  C   UNL A   1      40.256  27.895  28.995  1.00  0.00     0.064 A 
ATOM     67  C   UNL A   1      40.984  28.208  27.837  1.00  0.00     0.173 A 
ATOM     68  C   UNL A   1      39.590  26.661  29.037  1.00  0.00     0.173 A 
ATOM     69  F   UNL A   1      41.628  29.380  27.739  1.00  0.00    -0.203 F 
ATOM     70  C   UNL A   1      41.026  27.329  26.757  1.00  0.00     0.198 A 
ATOM     71  C   UNL A   1      39.661  25.771  27.970  1.00  0.00     0.198 A 
ATOM     72  F   UNL A   1      38.882  26.311  30.122  1.00  0.00    -0.203 F 
ATOM     73  F   UNL A   1      41.692  27.668  25.645  1.00  0.00    -0.200 F 
ATOM     74  C   UNL A   1      40.374  26.108  26.829  1.00  0.00     0.200 A 
ATOM     75  F   UNL A   1      39.042  24.583  28.046  1.00  0.00    -0.200 F 
ATOM     76  F   UNL A   1      40.430  25.255  25.796  1.00  0.00    -0.200 F 
ENDBRANCH  52  66
BRANCH  53  77
ATOM     77  C   UNL A   1      39.590  33.960  36.913  1.00  0.00     0.064 A 
ATOM     78  C   UNL A   1      38.832  33.563  38.025  1.00  0.00     0.173 A 
ATOM     79  C   UNL A   1      40.202  35.220  36.961  1.00  0.00     0.173 A 
ATOM     80  F   UNL A   1      38.210  32.374  38.022  1.00  0.00    -0.203 F 
ATOM     81  C   UNL A   1      38.657  34.409  39.119  1.00  0.00     0.198 A 
ATOM     82  C   UNL A   1      40.055  36.052  38.069  1.00  0.00     0.198 A 
ATOM     83  F   UNL A   1      40.943  35.647  35.927  1.00  0.00    -0.203 F 
ATOM     84  F   UNL A   1      37.871  34.031  40.135  1.00  0.00    -0.200 F 
ATOM     85  C   UNL A   1      39.272  35.651  39.141  1.00  0.00     0.200 A 
ATOM     86  F   UNL A   1      40.662  37.246  38.094  1.00  0.00    -0.200 F 
ATOM     87  F   UNL A   1      39.096  36.469  40.189  1.00  0.00    -0.200 F 
ENDBRANCH  53  77
BRANCH  65  88
ATOM     88  C   UNL A   1      43.949  28.839  35.103  1.00  0.00     0.064 A 
ATOM     89  C   UNL A   1      43.879  27.730  35.958  1.00  0.00     0.173 A 
ATOM     90  C   UNL A   1      45.215  29.387  34.842  1.00  0.00     0.173 A 
ATOM     91  F   UNL A   1      42.691  27.176  36.250  1.00  0.00    -0.203 F 
ATOM     92  C   UNL A   1      45.025  27.212  36.554  1.00  0.00     0.198 A 
ATOM     93  C   UNL A   1      46.364  28.844  35.410  1.00  0.00     0.198 A 
ATOM     94  F   UNL A   1      45.340  30.442  34.022  1.00  0.00    -0.203 F 
ATOM     95  F   UNL A   1      44.927  26.187  37.412  1.00  0.00    -0.200 F 
ATOM     96  C   UNL A   1      46.267  27.764  36.274  1.00  0.00     0.200 A 
ATOM     97  F   UNL A   1      47.563  29.367  35.123  1.00  0.00    -0.200 F 
ATOM     98  F   UNL A   1      47.370  27.258  36.842  1.00  0.00    -0.200 F 
ENDBRANCH  65  88
ENDBRANCH  39  40
ENDBRANCH  31  34
ENDBRANCH  29  30
ENDBRANCH  28  29
ENDBRANCH  27  28
ENDBRANCH   1  27
TORSDOF 16
ENDMDL
MODEL 2
REMARK VINA RESULT:     -12.2      0.724      7.266
REMARK SMILES COc1cc(C(=O)NCCCCNC(=O)c2ccc(-c3c4nc(c(-c5c(F)c(F)c(F)c(F)c5F)c5ccc([nH]5)c(-c5c(F)c(F)c(F)c(F)c5F)c5nc(c(-c6c(F)c(F)c(F)c(F)c6F)c6ccc3[nH]6)C=C5)C=C4)cc2)ccc1OCC(=O)N[C@H]1CCCC[C@H]1C
REMARK SMILES IDX 9 1 8 2 6 3 7 4 5 6 3 7 4 8 81 9 80 10 79 11 2 12 1 13 82 14
REMARK SMILES IDX 83 15 84 16 85 17 86 18 87 20 88 21 92 22 89 23 91 24 93 25
REMARK SMILES IDX 90 26 10 27 11 28 12 29 13 30 14 31 15 33 16 34 17 35 78 36
REMARK SMILES IDX 18 37 77 38 19 39 20 40 21 41 71 42 22 43 76 44 70 45 72 46
REMARK SMILES IDX 23 47 75 48 69 49 68 50 24 52 56 53 36 54 55 55 37 56 40 57
REMARK SMILES IDX 54 58 73 59 38 60 39 61 53 63 74 64 41 65 25 66 26 67 34 68
REMARK SMILES IDX 27 69 28 70 32 71 35 72 29 73 30 74 33 75 31 76 57 77 58 78
REMARK SMILES IDX 66 79 59 80 60 81 64 82 67 83 61 84 62 85 65 86 63 87 42 88
REMARK SMILES IDX 43 89 51 90 44 91 45 92 49 93 52 94 46 95 47 96 50 97 48 98
REMARK H PARENT 8 5 86 19 13 32 72 51 40 62
REMARK Flexibility Score: inf
ROOT
ATOM      1  C   UNL A   1      33.038  29.998  26.270  1.00  0.00     0.116 C 
ENDROOT
BRANCH   1   2
ATOM      2  N   UNL A   1      33.406  29.834  24.871  1.00  0.00    -0.352 N 
ATOM      3  C   UNL A   1      33.213  28.875  23.900  1.00  0.00     0.251 C 
ATOM      4  O   UNL A   1      33.662  29.127  22.780  1.00  0.00    -0.269 OA
ATOM      5  H   UNL A   1      33.923  30.602  24.534  1.00  0.00     0.163 HD
BRANCH   3   6
ATOM      6  C   UNL A   1      32.536  27.559  24.113  1.00  0.00     0.043 A 
ATOM      7  C   UNL A   1      30.456  26.263  24.349  1.00  0.00     0.161 A 
ATOM      8  C   UNL A   1      31.126  27.488  24.116  1.00  0.00     0.064 A 
ATOM      9  C   UNL A   1      31.189  25.090  24.515  1.00  0.00     0.161 A 
ATOM     10  C   UNL A   1      32.566  25.156  24.363  1.00  0.00     0.051 A 
ATOM     11  C   UNL A   1      33.225  26.375  24.308  1.00  0.00     0.018 A 
BRANCH   7  12
ATOM     12  O   UNL A   1      29.095  26.190  24.236  1.00  0.00    -0.493 OA
ATOM     13  C   UNL A   1      28.533  27.307  23.552  1.00  0.00     0.278 C 
ENDBRANCH   7  12
BRANCH   9  14
ATOM     14  O   UNL A   1      30.774  23.830  24.838  1.00  0.00    -0.480 OA
BRANCH  14  15
ATOM     15  C   UNL A   1      31.506  23.070  25.777  1.00  0.00     0.329 C 
BRANCH  15  16
ATOM     16  C   UNL A   1      32.215  21.720  25.481  1.00  0.00     0.258 C 
ATOM     17  O   UNL A   1      31.530  20.697  25.336  1.00  0.00    -0.271 OA
ATOM     18  N   UNL A   1      33.542  21.526  25.255  1.00  0.00    -0.350 N 
ATOM     19  H   UNL A   1      33.759  20.567  25.218  1.00  0.00     0.163 HD
BRANCH  18  20
ATOM     20  C   UNL A   1      34.744  22.350  25.051  1.00  0.00     0.085 C 
ATOM     21  C   UNL A   1      35.098  23.223  26.253  1.00  0.00     0.025 C 
ATOM     22  C   UNL A   1      35.921  21.614  24.354  1.00  0.00     0.008 C 
ATOM     23  C   UNL A   1      36.360  24.043  26.028  1.00  0.00     0.002 C 
ATOM     24  C   UNL A   1      37.228  22.432  24.340  1.00  0.00     0.005 C 
ATOM     25  C   UNL A   1      36.203  20.268  24.973  1.00  0.00     0.010 C 
ATOM     26  C   UNL A   1      37.516  23.125  25.668  1.00  0.00     0.000 C 
ENDBRANCH  18  20
ENDBRANCH  15  16
ENDBRANCH  14  15
ENDBRANCH   9  14
ENDBRANCH   3   6
ENDBRANCH   1   2
BRANCH   1  27
ATOM     27  C   UNL A   1      31.611  30.491  26.484  1.00  0.00     0.023 C 
BRANCH  27  28
ATOM     28  C   UNL A   1      31.485  32.006  26.624  1.00  0.00     0.023 C 
BRANCH  28  29
ATOM     29  C   UNL A   1      32.696  32.711  27.223  1.00  0.00     0.116 C 
BRANCH  29  30
ATOM     30  N   UNL A   1      32.443  34.088  27.625  1.00  0.00    -0.352 N 
ATOM     31  C   UNL A   1      33.091  34.831  28.583  1.00  0.00     0.251 C 
ATOM     32  H   UNL A   1      31.714  34.546  27.149  1.00  0.00     0.163 HD
ATOM     33  O   UNL A   1      32.704  35.961  28.869  1.00  0.00    -0.269 OA
BRANCH  31  34
ATOM     34  C   UNL A   1      34.240  34.238  29.298  1.00  0.00     0.039 A 
ATOM     35  C   UNL A   1      34.000  33.375  30.369  1.00  0.00     0.014 A 
ATOM     36  C   UNL A   1      35.546  34.493  28.874  1.00  0.00     0.014 A 
ATOM     37  C   UNL A   1      35.071  32.714  30.973  1.00  0.00     0.010 A 
ATOM     38  C   UNL A   1      36.599  33.764  29.414  1.00  0.00     0.010 A 
ATOM     39  C   UNL A   1      36.375  32.876  30.477  1.00  0.00    -0.014 A 
BRANCH  39  40
ATOM     40  C   UNL A   1      37.527  32.158  31.078  1.00  0.00     0.031 A 
ATOM     41  C   UNL A   1      38.001  32.533  32.457  1.00  0.00     0.074 A 
ATOM     42  C   UNL A   1      38.185  31.220  30.367  1.00  0.00     0.049 A 
ATOM     43  N   UNL A   1      39.032  32.089  33.130  1.00  0.00    -0.248 NA
ATOM     44  C   UNL A   1      37.231  33.571  33.163  1.00  0.00     0.031 C 
ATOM     45  C   UNL A   1      37.856  30.802  29.003  1.00  0.00     0.029 A 
ATOM     46  N   UNL A   1      39.277  30.454  30.692  1.00  0.00    -0.354 N 
ATOM     47  C   UNL A   1      39.045  32.808  34.318  1.00  0.00     0.074 A 
ATOM     48  C   UNL A   1      37.956  33.756  34.254  1.00  0.00     0.031 C 
ATOM     49  C   UNL A   1      38.710  29.839  28.620  1.00  0.00     0.029 A 
ATOM     50  C   UNL A   1      39.671  29.599  29.691  1.00  0.00     0.049 A 
ATOM     51  H   UNL A   1      39.735  30.512  31.562  1.00  0.00     0.167 HD
ATOM     52  C   UNL A   1      39.874  32.671  35.379  1.00  0.00     0.037 A 
ATOM     53  C   UNL A   1      40.696  28.725  29.644  1.00  0.00     0.037 A 
ATOM     54  C   UNL A   1      40.928  31.696  35.458  1.00  0.00     0.049 A 
ATOM     55  C   UNL A   1      41.596  28.590  30.846  1.00  0.00     0.074 A 
ATOM     56  C   UNL A   1      41.778  31.430  36.517  1.00  0.00     0.029 A 
ATOM     57  N   UNL A   1      41.272  30.823  34.438  1.00  0.00    -0.354 N 
ATOM     58  N   UNL A   1      41.549  29.222  31.994  1.00  0.00    -0.248 NA
ATOM     59  C   UNL A   1      42.687  27.609  30.748  1.00  0.00     0.031 C 
ATOM     60  C   UNL A   1      42.670  30.431  36.119  1.00  0.00     0.029 A 
ATOM     61  C   UNL A   1      42.336  30.030  34.835  1.00  0.00     0.049 A 
ATOM     62  H   UNL A   1      40.827  30.775  33.560  1.00  0.00     0.167 HD
ATOM     63  C   UNL A   1      42.569  28.682  32.768  1.00  0.00     0.074 A 
ATOM     64  C   UNL A   1      43.211  27.667  31.963  1.00  0.00     0.031 C 
ATOM     65  C   UNL A   1      42.941  29.000  34.033  1.00  0.00     0.037 A 
BRANCH  52  66
ATOM     66  C   UNL A   1      39.673  33.589  36.551  1.00  0.00     0.064 A 
ATOM     67  C   UNL A   1      40.264  34.861  36.601  1.00  0.00     0.173 A 
ATOM     68  C   UNL A   1      38.831  33.214  37.608  1.00  0.00     0.173 A 
ATOM     69  F   UNL A   1      41.088  35.264  35.623  1.00  0.00    -0.203 F 
ATOM     70  C   UNL A   1      40.034  35.715  37.677  1.00  0.00     0.198 A 
ATOM     71  C   UNL A   1      38.578  34.082  38.666  1.00  0.00     0.198 A 
ATOM     72  F   UNL A   1      38.240  32.010  37.607  1.00  0.00    -0.203 F 
ATOM     73  F   UNL A   1      40.641  36.908  37.725  1.00  0.00    -0.200 F 
ATOM     74  C   UNL A   1      39.183  35.329  38.702  1.00  0.00     0.200 A 
ATOM     75  F   UNL A   1      37.743  33.715  39.649  1.00  0.00    -0.200 F 
ATOM     76  F   UNL A   1      38.949  36.160  39.728  1.00  0.00    -0.200 F 
ENDBRANCH  52  66
BRANCH  53  77
ATOM     77  C   UNL A   1      40.923  27.889  28.435  1.00  0.00     0.064 A 
ATOM     78  C   UNL A   1      41.679  28.373  27.356  1.00  0.00     0.173 A 
ATOM     79  C   UNL A   1      40.351  26.616  28.307  1.00  0.00     0.173 A 
ATOM     80  F   UNL A   1      42.231  29.594  27.421  1.00  0.00    -0.203 F 
ATOM     81  C   UNL A   1      41.820  27.633  26.183  1.00  0.00     0.198 A 
ATOM     82  C   UNL A   1      40.521  25.861  27.147  1.00  0.00     0.198 A 
ATOM     83  F   UNL A   1      39.624  26.101  29.309  1.00  0.00    -0.203 F 
ATOM     84  F   UNL A   1      42.489  28.151  25.145  1.00  0.00    -0.200 F 
ATOM     85  C   UNL A   1      41.244  26.377  26.081  1.00  0.00     0.200 A 
ATOM     86  F   UNL A   1      39.975  24.642  27.057  1.00  0.00    -0.200 F 
ATOM     87  F   UNL A   1      41.372  25.670  24.950  1.00  0.00    -0.200 F 
ENDBRANCH  53  77
BRANCH  65  88
ATOM     88  C   UNL A   1      44.044  28.192  34.653  1.00  0.00     0.064 A 
ATOM     89  C   UNL A   1      45.385  28.599  34.601  1.00  0.00     0.173 A 
ATOM     90  C   UNL A   1      43.743  27.009  35.347  1.00  0.00     0.173 A 
ATOM     91  F   UNL A   1      45.727  29.716  33.940  1.00  0.00    -0.203 F 
ATOM     92  C   UNL A   1      46.388  27.835  35.191  1.00  0.00     0.198 A 
ATOM     93  C   UNL A   1      44.744  26.267  35.967  1.00  0.00     0.198 A 
ATOM     94  F   UNL A   1      42.475  26.580  35.437  1.00  0.00    -0.203 F 
ATOM     95  F   UNL A   1      47.668  28.214  35.081  1.00  0.00    -0.200 F 
ATOM     96  C   UNL A   1      46.066  26.674  35.880  1.00  0.00     0.200 A 
ATOM     97  F   UNL A   1      44.428  25.156  36.647  1.00  0.00    -0.200 F 
ATOM     98  F   UNL A   1      47.033  25.945  36.454  1.00  0.00    -0.200 F 
ENDBRANCH  65  88
ENDBRANCH  39  40
ENDBRANCH  31  34
ENDBRANCH  29  30
ENDBRANCH  28  29
ENDBRANCH  27  28
ENDBRANCH   1  27
TORSDOF 16
ENDMDL
MODEL 3
REMARK VINA RESULT:     -12.2      5.365     11.102
REMARK SMILES COc1cc(C(=O)NCCCCNC(=O)c2ccc(-c3c4nc(c(-c5c(F)c(F)c(F)c(F)c5F)c5ccc([nH]5)c(-c5c(F)c(F)c(F)c(F)c5F)c5nc(c(-c6c(F)c(F)c(F)c(F)c6F)c6ccc3[nH]6)C=C5)C=C4)cc2)ccc1OCC(=O)N[C@H]1CCCC[C@H]1C
REMARK SMILES IDX 9 1 8 2 6 3 7 4 5 6 3 7 4 8 81 9 80 10 79 11 2 12 1 13 82 14
REMARK SMILES IDX 83 15 84 16 85 17 86 18 87 20 88 21 92 22 89 23 91 24 93 25
REMARK SMILES IDX 90 26 10 27 11 28 12 29 13 30 14 31 15 33 16 34 17 35 78 36
REMARK SMILES IDX 18 37 77 38 19 39 20 40 21 41 71 42 22 43 76 44 70 45 72 46
REMARK SMILES IDX 23 47 75 48 69 49 68 50 24 52 56 53 36 54 55 55 37 56 40 57
REMARK SMILES IDX 54 58 73 59 38 60 39 61 53 63 74 64 41 65 25 66 26 67 34 68
REMARK SMILES IDX 27 69 28 70 32 71 35 72 29 73 30 74 33 75 31 76 57 77 58 78
REMARK SMILES IDX 66 79 59 80 60 81 64 82 67 83 61 84 62 85 65 86 63 87 42 88
REMARK SMILES IDX 43 89 51 90 44 91 45 92 49 93 52 94 46 95 47 96 50 97 48 98
REMARK H PARENT 8 5 86 19 13 32 72 51 40 62
REMARK Flexibility Score: inf
ROOT
ATOM      1  C   UNL A   1      35.992  21.183  25.574  1.00  0.00     0.116 C 
ENDROOT
BRANCH   1   2
ATOM      2  N   UNL A   1      35.015  20.176  25.181  1.00  0.00    -0.352 N 
ATOM      3  C   UNL A   1      33.743  20.184  24.650  1.00  0.00     0.251 C 
ATOM      4  O   UNL A   1      33.241  19.083  24.410  1.00  0.00    -0.269 OA
ATOM      5  H   UNL A   1      35.347  19.261  25.331  1.00  0.00     0.163 HD
BRANCH   3   6
ATOM      6  C   UNL A   1      32.931  21.409  24.378  1.00  0.00     0.043 A 
ATOM      7  C   UNL A   1      31.498  23.227  25.218  1.00  0.00     0.161 A 
ATOM      8  C   UNL A   1      32.302  22.084  25.447  1.00  0.00     0.064 A 
ATOM      9  C   UNL A   1      31.372  23.741  23.929  1.00  0.00     0.161 A 
ATOM     10  C   UNL A   1      32.115  23.151  22.917  1.00  0.00     0.051 A 
ATOM     11  C   UNL A   1      32.758  21.938  23.112  1.00  0.00     0.018 A 
BRANCH   7  12
ATOM     12  O   UNL A   1      30.990  23.935  26.271  1.00  0.00    -0.493 OA
ATOM     13  C   UNL A   1      29.898  23.276  26.909  1.00  0.00     0.278 C 
ENDBRANCH   7  12
BRANCH   9  14
ATOM     14  O   UNL A   1      30.592  24.758  23.459  1.00  0.00    -0.480 OA
BRANCH  14  15
ATOM     15  C   UNL A   1      31.145  25.722  22.587  1.00  0.00     0.329 C 
BRANCH  15  16
ATOM     16  C   UNL A   1      30.966  27.259  22.718  1.00  0.00     0.258 C 
ATOM     17  O   UNL A   1      30.284  27.861  21.877  1.00  0.00    -0.271 OA
ATOM     18  N   UNL A   1      31.401  28.048  23.736  1.00  0.00    -0.350 N 
ATOM     19  H   UNL A   1      31.276  29.001  23.525  1.00  0.00     0.163 HD
BRANCH  18  20
ATOM     20  C   UNL A   1      32.008  27.875  25.066  1.00  0.00     0.085 C 
ATOM     21  C   UNL A   1      33.498  27.546  25.020  1.00  0.00     0.025 C 
ATOM     22  C   UNL A   1      31.559  28.922  26.122  1.00  0.00     0.008 C 
ATOM     23  C   UNL A   1      34.108  27.401  26.407  1.00  0.00     0.002 C 
ATOM     24  C   UNL A   1      32.360  28.843  27.438  1.00  0.00     0.005 C 
ATOM     25  C   UNL A   1      31.632  30.334  25.598  1.00  0.00     0.010 C 
ATOM     26  C   UNL A   1      33.859  28.663  27.216  1.00  0.00     0.000 C 
ENDBRANCH  18  20
ENDBRANCH  15  16
ENDBRANCH  14  15
ENDBRANCH   9  14
ENDBRANCH   3   6
ENDBRANCH   1   2
BRANCH   1  27
ATOM     27  C   UNL A   1      37.266  21.174  24.737  1.00  0.00     0.023 C 
BRANCH  27  28
ATOM     28  C   UNL A   1      38.176  19.975  24.990  1.00  0.00     0.023 C 
BRANCH  28  29
ATOM     29  C   UNL A   1      39.380  20.246  25.885  1.00  0.00     0.116 C 
BRANCH  29  30
ATOM     30  N   UNL A   1      40.346  19.156  25.926  1.00  0.00    -0.352 N 
ATOM     31  C   UNL A   1      41.704  19.226  26.129  1.00  0.00     0.251 C 
ATOM     32  H   UNL A   1      39.979  18.253  25.792  1.00  0.00     0.163 HD
ATOM     33  O   UNL A   1      42.402  18.219  26.050  1.00  0.00    -0.269 OA
BRANCH  31  34
ATOM     34  C   UNL A   1      42.324  20.538  26.403  1.00  0.00     0.039 A 
ATOM     35  C   UNL A   1      42.731  21.334  25.330  1.00  0.00     0.014 A 
ATOM     36  C   UNL A   1      42.450  21.002  27.714  1.00  0.00     0.014 A 
ATOM     37  C   UNL A   1      43.204  22.625  25.571  1.00  0.00     0.010 A 
ATOM     38  C   UNL A   1      42.832  22.318  27.945  1.00  0.00     0.010 A 
ATOM     39  C   UNL A   1      43.225  23.140  26.878  1.00  0.00    -0.014 A 
BRANCH  39  40
ATOM     40  C   UNL A   1      43.691  24.521  27.158  1.00  0.00     0.031 A 
ATOM     41  C   UNL A   1      42.712  25.547  27.665  1.00  0.00     0.074 A 
ATOM     42  C   UNL A   1      44.967  24.871  26.899  1.00  0.00     0.049 A 
ATOM     43  N   UNL A   1      42.892  26.823  27.896  1.00  0.00    -0.248 NA
ATOM     44  C   UNL A   1      41.337  25.085  27.916  1.00  0.00     0.031 C 
ATOM     45  C   UNL A   1      45.998  23.983  26.359  1.00  0.00     0.029 A 
ATOM     46  N   UNL A   1      45.612  26.074  27.046  1.00  0.00    -0.354 N 
ATOM     47  C   UNL A   1      41.655  27.313  28.292  1.00  0.00     0.074 A 
ATOM     48  C   UNL A   1      40.719  26.215  28.218  1.00  0.00     0.031 C 
ATOM     49  C   UNL A   1      47.150  24.664  26.246  1.00  0.00     0.029 A 
ATOM     50  C   UNL A   1      46.932  26.044  26.665  1.00  0.00     0.049 A 
ATOM     51  H   UNL A   1      45.170  26.883  27.393  1.00  0.00     0.167 HD
ATOM     52  C   UNL A   1      41.335  28.561  28.707  1.00  0.00     0.037 A 
ATOM     53  C   UNL A   1      47.857  27.024  26.652  1.00  0.00     0.037 A 
ATOM     54  C   UNL A   1      42.279  29.640  28.824  1.00  0.00     0.049 A 
ATOM     55  C   UNL A   1      47.471  28.401  27.129  1.00  0.00     0.074 A 
ATOM     56  C   UNL A   1      42.068  30.921  29.300  1.00  0.00     0.029 A 
ATOM     57  N   UNL A   1      43.615  29.560  28.462  1.00  0.00    -0.354 N 
ATOM     58  N   UNL A   1      46.316  28.831  27.575  1.00  0.00    -0.248 NA
ATOM     59  C   UNL A   1      48.524  29.427  27.110  1.00  0.00     0.031 C 
ATOM     60  C   UNL A   1      43.265  31.633  29.180  1.00  0.00     0.029 A 
ATOM     61  C   UNL A   1      44.236  30.776  28.688  1.00  0.00     0.049 A 
ATOM     62  H   UNL A   1      44.056  28.757  28.099  1.00  0.00     0.167 HD
ATOM     63  C   UNL A   1      46.516  30.158  27.933  1.00  0.00     0.074 A 
ATOM     64  C   UNL A   1      47.904  30.459  27.662  1.00  0.00     0.031 C 
ATOM     65  C   UNL A   1      45.629  31.049  28.443  1.00  0.00     0.037 A 
BRANCH  52  66
ATOM     66  C   UNL A   1      39.905  28.832  29.080  1.00  0.00     0.064 A 
ATOM     67  C   UNL A   1      38.976  29.309  28.143  1.00  0.00     0.173 A 
ATOM     68  C   UNL A   1      39.446  28.554  30.376  1.00  0.00     0.173 A 
ATOM     69  F   UNL A   1      39.366  29.603  26.894  1.00  0.00    -0.203 F 
ATOM     70  C   UNL A   1      37.645  29.516  28.495  1.00  0.00     0.198 A 
ATOM     71  C   UNL A   1      38.108  28.731  30.716  1.00  0.00     0.198 A 
ATOM     72  F   UNL A   1      40.292  28.093  31.309  1.00  0.00    -0.203 F 
ATOM     73  F   UNL A   1      36.785  30.012  27.595  1.00  0.00    -0.200 F 
ATOM     74  C   UNL A   1      37.210  29.217  29.777  1.00  0.00     0.200 A 
ATOM     75  F   UNL A   1      37.685  28.428  31.951  1.00  0.00    -0.200 F 
ATOM     76  F   UNL A   1      35.924  29.401  30.110  1.00  0.00    -0.200 F 
ENDBRANCH  52  66
BRANCH  53  77
ATOM     77  C   UNL A   1      49.246  26.747  26.195  1.00  0.00     0.064 A 
ATOM     78  C   UNL A   1      49.631  26.994  24.869  1.00  0.00     0.173 A 
ATOM     79  C   UNL A   1      50.200  26.184  27.053  1.00  0.00     0.173 A 
ATOM     80  F   UNL A   1      48.749  27.514  24.002  1.00  0.00    -0.203 F 
ATOM     81  C   UNL A   1      50.902  26.653  24.410  1.00  0.00     0.198 A 
ATOM     82  C   UNL A   1      51.483  25.874  26.603  1.00  0.00     0.198 A 
ATOM     83  F   UNL A   1      49.888  25.931  28.334  1.00  0.00    -0.203 F 
ATOM     84  F   UNL A   1      51.217  26.837  23.121  1.00  0.00    -0.200 F 
ATOM     85  C   UNL A   1      51.827  26.096  25.278  1.00  0.00     0.200 A 
ATOM     86  F   UNL A   1      52.379  25.349  27.448  1.00  0.00    -0.200 F 
ATOM     87  F   UNL A   1      53.046  25.759  24.835  1.00  0.00    -0.200 F 
ENDBRANCH  53  77
BRANCH  65  88
ATOM     88  C   UNL A   1      46.147  32.409  28.810  1.00  0.00     0.064 A 
ATOM     89  C   UNL A   1      46.139  33.478  27.904  1.00  0.00     0.173 A 
ATOM     90  C   UNL A   1      46.624  32.652  30.109  1.00  0.00     0.173 A 
ATOM     91  F   UNL A   1      45.705  33.296  26.647  1.00  0.00    -0.203 F 
ATOM     92  C   UNL A   1      46.619  34.732  28.272  1.00  0.00     0.198 A 
ATOM     93  C   UNL A   1      47.069  33.916  30.485  1.00  0.00     0.198 A 
ATOM     94  F   UNL A   1      46.643  31.666  31.018  1.00  0.00    -0.203 F 
ATOM     95  F   UNL A   1      46.653  35.725  27.373  1.00  0.00    -0.200 F 
ATOM     96  C   UNL A   1      47.076  34.952  29.564  1.00  0.00     0.200 A 
ATOM     97  F   UNL A   1      47.492  34.129  31.738  1.00  0.00    -0.200 F 
ATOM     98  F   UNL A   1      47.530  36.162  29.919  1.00  0.00    -0.200 F 
ENDBRANCH  65  88
ENDBRANCH  39  40
ENDBRANCH  31  34
ENDBRANCH  29  30
ENDBRANCH  28  29
ENDBRANCH  27  28
ENDBRANCH   1  27
TORSDOF 16
ENDMDL
