MODEL 1
REMARK VINA RESULT:     -13.2      0.000      0.000
REMARK SMILES O=C(Cc1ccccc1)Nc1cccc(C(=O)Nc2ccccc2C(=O)NCCCCNC(=O)c2ccc(-c3c4nc(c(-c5c(F)c(F)c(F)c(F)c5F)c5ccc([nH]5)c(-c5c(F)c(F)c(F)c(F)c5F)c5nc(c(-c6c(F)c(F)c(F)c(F)c6F)c6ccc3[nH]6)C=C5)C=C4)cc2)c1
REMARK SMILES IDX 28 1 27 2 25 3 26 4 24 6 19 7 20 8 21 9 23 10 22 11 18 12
REMARK SMILES IDX 16 13 17 14 15 16 11 17 12 18 98 19 13 20 14 21 10 22 1 23
REMARK SMILES IDX 2 24 3 26 4 27 5 28 9 29 6 30 8 31 7 32 29 33 30 34 31 35
REMARK SMILES IDX 32 36 33 37 34 39 35 40 36 41 97 42 37 43 96 44 38 45 39 46
REMARK SMILES IDX 40 47 90 48 41 49 95 50 89 51 91 52 42 53 94 54 88 55 87 56
REMARK SMILES IDX 43 58 75 59 55 60 74 61 56 62 59 63 73 64 92 65 57 66 58 67
REMARK SMILES IDX 72 69 93 70 60 71 44 72 45 73 53 74 46 75 47 76 51 77 54 78
REMARK SMILES IDX 48 79 49 80 52 81 50 82 76 83 77 84 85 85 78 86 79 87 83 88
REMARK SMILES IDX 86 89 80 90 81 91 84 92 82 93 61 94 62 95 70 96 63 97 64 98
REMARK SMILES IDX 68 99 71 100 65 101 66 102 69 103 67 104
REMARK H PARENT 27 5 18 15 10 25 32 38 91 57 59 68
REMARK Flexibility Score: inf
ROOT
ATOM      1  C   UNL A   1      34.035  21.657  27.099  1.00  0.00     0.116 C 
ENDROOT
BRANCH   1   2
ATOM      2  N   UNL A   1      33.318  20.540  26.524  1.00  0.00    -0.352 N 
ATOM      3  C   UNL A   1      32.667  20.457  25.318  1.00  0.00     0.253 C 
ATOM      4  O   UNL A   1      32.083  19.405  25.050  1.00  0.00    -0.269 OA
ATOM      5  H   UNL A   1      33.294  19.725  27.075  1.00  0.00     0.163 HD
BRANCH   3   6
ATOM      6  C   UNL A   1      32.548  21.619  24.391  1.00  0.00     0.063 A 
ATOM      7  C   UNL A   1      31.579  22.647  24.405  1.00  0.00     0.054 A 
ATOM      8  C   UNL A   1      31.547  23.545  23.321  1.00  0.00     0.027 A 
ATOM      9  C   UNL A   1      32.524  23.524  22.323  1.00  0.00     0.002 A 
ATOM     10  C   UNL A   1      33.538  21.625  23.381  1.00  0.00     0.016 A 
ATOM     11  C   UNL A   1      33.538  22.581  22.368  1.00  0.00     0.001 A 
BRANCH   7  12
ATOM     12  N   UNL A   1      30.633  22.951  25.419  1.00  0.00    -0.321 N 
ATOM     13  C   UNL A   1      30.525  24.005  26.308  1.00  0.00     0.255 C 
ATOM     14  O   UNL A   1      29.747  23.920  27.256  1.00  0.00    -0.269 OA
ATOM     15  H   UNL A   1      29.916  22.283  25.507  1.00  0.00     0.170 HD
BRANCH  13  16
ATOM     16  C   UNL A   1      31.296  25.252  26.119  1.00  0.00     0.042 A 
ATOM     17  C   UNL A   1      31.479  27.375  25.005  1.00  0.00     0.041 A 
ATOM     18  C   UNL A   1      32.831  27.429  25.361  1.00  0.00     0.026 A 
ATOM     19  C   UNL A   1      30.696  26.342  25.496  1.00  0.00     0.040 A 
ATOM     20  C   UNL A   1      33.396  26.424  26.153  1.00  0.00     0.003 A 
ATOM     21  C   UNL A   1      32.633  25.314  26.511  1.00  0.00     0.014 A 
BRANCH  17  22
ATOM     22  N   UNL A   1      30.992  28.286  24.051  1.00  0.00    -0.326 N 
ATOM     23  O   UNL A   1      31.092  27.039  22.071  1.00  0.00    -0.274 OA
ATOM     24  C   UNL A   1      30.915  28.092  22.676  1.00  0.00     0.228 C 
ATOM     25  H   UNL A   1      30.670  29.151  24.393  1.00  0.00     0.169 HD
BRANCH  24  26
ATOM     26  C   UNL A   1      30.570  29.359  21.918  1.00  0.00     0.135 C 
BRANCH  26  27
ATOM     27  C   UNL A   1      29.400  30.126  22.487  1.00  0.00    -0.039 A 
ATOM     28  C   UNL A   1      29.471  31.523  22.544  1.00  0.00     0.004 A 
ATOM     29  C   UNL A   1      28.235  29.488  22.941  1.00  0.00     0.004 A 
ATOM     30  C   UNL A   1      28.422  32.260  23.091  1.00  0.00     0.000 A 
ATOM     31  C   UNL A   1      27.197  30.224  23.507  1.00  0.00     0.000 A 
ATOM     32  C   UNL A   1      27.293  31.610  23.586  1.00  0.00     0.000 A 
ENDBRANCH  26  27
ENDBRANCH  24  26
ENDBRANCH  17  22
ENDBRANCH  13  16
ENDBRANCH   7  12
ENDBRANCH   3   6
ENDBRANCH   1   2
BRANCH   1  33
ATOM     33  C   UNL A   1      35.422  21.875  26.512  1.00  0.00     0.023 C 
BRANCH  33  34
ATOM     34  C   UNL A   1      35.673  23.249  25.889  1.00  0.00     0.023 C 
BRANCH  34  35
ATOM     35  C   UNL A   1      36.940  23.397  25.050  1.00  0.00     0.116 C 
BRANCH  35  36
ATOM     36  N   UNL A   1      38.017  22.501  25.443  1.00  0.00    -0.352 N 
ATOM     37  C   UNL A   1      39.183  22.757  26.131  1.00  0.00     0.251 C 
ATOM     38  H   UNL A   1      37.893  21.562  25.175  1.00  0.00     0.163 HD
ATOM     39  O   UNL A   1      40.031  21.886  26.261  1.00  0.00    -0.269 OA
BRANCH  37  40
ATOM     40  C   UNL A   1      39.429  24.107  26.686  1.00  0.00     0.039 A 
ATOM     41  C   UNL A   1      39.041  24.376  28.001  1.00  0.00     0.014 A 
ATOM     42  C   UNL A   1      40.048  25.097  25.923  1.00  0.00     0.014 A 
ATOM     43  C   UNL A   1      39.358  25.609  28.577  1.00  0.00     0.010 A 
ATOM     44  C   UNL A   1      40.445  26.288  26.525  1.00  0.00     0.010 A 
ATOM     45  C   UNL A   1      40.105  26.557  27.860  1.00  0.00    -0.014 A 
BRANCH  45  46
ATOM     46  C   UNL A   1      40.534  27.837  28.484  1.00  0.00     0.031 A 
ATOM     47  C   UNL A   1      41.967  28.032  28.898  1.00  0.00     0.074 A 
ATOM     48  C   UNL A   1      39.625  28.801  28.732  1.00  0.00     0.049 A 
ATOM     49  N   UNL A   1      42.521  29.042  29.523  1.00  0.00    -0.248 NA
ATOM     50  C   UNL A   1      42.898  26.932  28.598  1.00  0.00     0.031 C 
ATOM     51  C   UNL A   1      38.195  28.716  28.433  1.00  0.00     0.029 A 
ATOM     52  N   UNL A   1      39.768  30.042  29.307  1.00  0.00    -0.354 N 
ATOM     53  C   UNL A   1      43.855  28.694  29.694  1.00  0.00     0.074 A 
ATOM     54  C   UNL A   1      44.013  27.355  29.173  1.00  0.00     0.031 C 
ATOM     55  C   UNL A   1      37.597  29.861  28.802  1.00  0.00     0.029 A 
ATOM     56  C   UNL A   1      38.593  30.748  29.397  1.00  0.00     0.049 A 
ATOM     57  H   UNL A   1      40.633  30.390  29.624  1.00  0.00     0.167 HD
ATOM     58  C   UNL A   1      44.865  29.437  30.205  1.00  0.00     0.037 A 
ATOM     59  C   UNL A   1      38.347  31.971  29.903  1.00  0.00     0.037 A 
ATOM     60  C   UNL A   1      44.714  30.778  30.704  1.00  0.00     0.049 A 
ATOM     61  C   UNL A   1      39.491  32.777  30.462  1.00  0.00     0.074 A 
ATOM     62  C   UNL A   1      45.680  31.620  31.227  1.00  0.00     0.029 A 
ATOM     63  N   UNL A   1      43.516  31.475  30.734  1.00  0.00    -0.354 N 
ATOM     64  N   UNL A   1      40.758  32.456  30.569  1.00  0.00    -0.248 NA
ATOM     65  C   UNL A   1      39.171  34.123  30.959  1.00  0.00     0.031 C 
ATOM     66  C   UNL A   1      45.061  32.818  31.601  1.00  0.00     0.029 A 
ATOM     67  C   UNL A   1      43.719  32.739  31.267  1.00  0.00     0.049 A 
ATOM     68  H   UNL A   1      42.650  31.125  30.425  1.00  0.00     0.167 HD
ATOM     69  C   UNL A   1      41.390  33.571  31.104  1.00  0.00     0.074 A 
ATOM     70  C   UNL A   1      40.370  34.581  31.287  1.00  0.00     0.031 C 
ATOM     71  C   UNL A   1      42.698  33.743  31.417  1.00  0.00     0.037 A 
BRANCH  58  72
ATOM     72  C   UNL A   1      46.234  28.819  30.224  1.00  0.00     0.064 A 
ATOM     73  C   UNL A   1      46.685  28.079  31.329  1.00  0.00     0.173 A 
ATOM     74  C   UNL A   1      47.092  28.936  29.120  1.00  0.00     0.173 A 
ATOM     75  F   UNL A   1      45.908  27.949  32.415  1.00  0.00    -0.203 F 
ATOM     76  C   UNL A   1      47.953  27.505  31.339  1.00  0.00     0.198 A 
ATOM     77  C   UNL A   1      48.347  28.332  29.121  1.00  0.00     0.198 A 
ATOM     78  F   UNL A   1      46.709  29.626  28.036  1.00  0.00    -0.203 F 
ATOM     79  F   UNL A   1      48.379  26.848  32.426  1.00  0.00    -0.200 F 
ATOM     80  C   UNL A   1      48.779  27.625  30.233  1.00  0.00     0.200 A 
ATOM     81  F   UNL A   1      49.141  28.436  28.046  1.00  0.00    -0.200 F 
ATOM     82  F   UNL A   1      49.996  27.063  30.241  1.00  0.00    -0.200 F 
ENDBRANCH  58  72
BRANCH  59  83
ATOM     83  C   UNL A   1      36.969  32.531  29.884  1.00  0.00     0.064 A 
ATOM     84  C   UNL A   1      36.501  33.255  28.777  1.00  0.00     0.173 A 
ATOM     85  C   UNL A   1      36.108  32.390  30.981  1.00  0.00     0.173 A 
ATOM     86  F   UNL A   1      37.294  33.436  27.711  1.00  0.00    -0.203 F 
ATOM     87  C   UNL A   1      35.239  33.847  28.785  1.00  0.00     0.198 A 
ATOM     88  C   UNL A   1      34.835  32.955  30.975  1.00  0.00     0.198 A 
ATOM     89  F   UNL A   1      36.504  31.701  32.062  1.00  0.00    -0.203 F 
ATOM     90  F   UNL A   1      34.843  34.587  27.741  1.00  0.00    -0.200 F 
ATOM     91  C   UNL A   1      34.406  33.694  29.882  1.00  0.00     0.200 A 
ATOM     92  F   UNL A   1      34.026  32.793  32.031  1.00  0.00    -0.200 F 
ATOM     93  F   UNL A   1      33.196  34.269  29.892  1.00  0.00    -0.200 F 
ENDBRANCH  59  83
BRANCH  71  94
ATOM     94  C   UNL A   1      43.112  35.092  31.929  1.00  0.00     0.064 A 
ATOM     95  C   UNL A   1      43.560  36.106  31.069  1.00  0.00     0.173 A 
ATOM     96  C   UNL A   1      43.034  35.379  33.300  1.00  0.00     0.173 A 
ATOM     97  F   UNL A   1      43.666  35.875  29.751  1.00  0.00    -0.203 F 
ATOM     98  C   UNL A   1      43.948  37.345  31.567  1.00  0.00     0.198 A 
ATOM     99  C   UNL A   1      43.391  36.632  33.791  1.00  0.00     0.198 A 
ATOM    100  F   UNL A   1      42.603  34.448  34.164  1.00  0.00    -0.203 F 
ATOM    101  F   UNL A   1      44.427  38.281  30.735  1.00  0.00    -0.200 F 
ATOM    102  C   UNL A   1      43.857  37.610  32.926  1.00  0.00     0.200 A 
ATOM    103  F   UNL A   1      43.290  36.890  35.101  1.00  0.00    -0.200 F 
ATOM    104  F   UNL A   1      44.229  38.806  33.403  1.00  0.00    -0.200 F 
ENDBRANCH  71  94
ENDBRANCH  45  46
ENDBRANCH  37  40
ENDBRANCH  35  36
ENDBRANCH  34  35
ENDBRANCH  33  34
ENDBRANCH   1  33
TORSDOF 16
ENDMDL
MODEL 2
REMARK VINA RESULT:     -13.0      3.702      9.227
REMARK SMILES O=C(Cc1ccccc1)Nc1cccc(C(=O)Nc2ccccc2C(=O)NCCCCNC(=O)c2ccc(-c3c4nc(c(-c5c(F)c(F)c(F)c(F)c5F)c5ccc([nH]5)c(-c5c(F)c(F)c(F)c(F)c5F)c5nc(c(-c6c(F)c(F)c(F)c(F)c6F)c6ccc3[nH]6)C=C5)C=C4)cc2)c1
REMARK SMILES IDX 28 1 27 2 25 3 26 4 24 6 19 7 20 8 21 9 23 10 22 11 18 12
REMARK SMILES IDX 16 13 17 14 15 16 11 17 12 18 98 19 13 20 14 21 10 22 1 23
REMARK SMILES IDX 2 24 3 26 4 27 5 28 9 29 6 30 8 31 7 32 29 33 30 34 31 35
REMARK SMILES IDX 32 36 33 37 34 39 35 40 36 41 97 42 37 43 96 44 38 45 39 46
REMARK SMILES IDX 40 47 90 48 41 49 95 50 89 51 91 52 42 53 94 54 88 55 87 56
REMARK SMILES IDX 43 58 75 59 55 60 74 61 56 62 59 63 73 64 92 65 57 66 58 67
REMARK SMILES IDX 72 69 93 70 60 71 44 72 45 73 53 74 46 75 47 76 51 77 54 78
REMARK SMILES IDX 48 79 49 80 52 81 50 82 76 83 77 84 85 85 78 86 79 87 83 88
REMARK SMILES IDX 86 89 80 90 81 91 84 92 82 93 61 94 62 95 70 96 63 97 64 98
REMARK SMILES IDX 68 99 71 100 65 101 66 102 69 103 67 104
REMARK H PARENT 27 5 18 15 10 25 32 38 91 57 59 68
REMARK Flexibility Score: inf
ROOT
ATOM      1  C   UNL A   1      30.674  30.359  24.637  1.00  0.00     0.116 C 
ENDROOT
BRANCH   1   2
ATOM      2  N   UNL A   1      30.168  30.454  23.286  1.00  0.00    -0.352 N 
ATOM      3  C   UNL A   1      29.810  29.450  22.421  1.00  0.00     0.253 C 
ATOM      4  O   UNL A   1      29.439  29.768  21.290  1.00  0.00    -0.269 OA
ATOM      5  H   UNL A   1      30.066  31.369  22.938  1.00  0.00     0.163 HD
BRANCH   3   6
ATOM      6  C   UNL A   1      29.967  28.007  22.763  1.00  0.00     0.063 A 
ATOM      7  C   UNL A   1      31.007  27.131  22.383  1.00  0.00     0.054 A 
ATOM      8  C   UNL A   1      30.858  25.759  22.664  1.00  0.00     0.027 A 
ATOM      9  C   UNL A   1      29.787  25.279  23.422  1.00  0.00     0.002 A 
ATOM     10  C   UNL A   1      28.899  27.504  23.543  1.00  0.00     0.016 A 
ATOM     11  C   UNL A   1      28.820  26.157  23.886  1.00  0.00     0.001 A 
BRANCH   7  12
ATOM     12  N   UNL A   1      32.254  27.453  21.785  1.00  0.00    -0.321 N 
ATOM     13  C   UNL A   1      33.485  27.788  22.319  1.00  0.00     0.255 C 
ATOM     14  O   UNL A   1      34.354  28.261  21.588  1.00  0.00    -0.269 OA
ATOM     15  H   UNL A   1      32.240  27.434  20.802  1.00  0.00     0.170 HD
BRANCH  13  16
ATOM     16  C   UNL A   1      33.795  27.552  23.745  1.00  0.00     0.042 A 
ATOM     17  C   UNL A   1      34.007  25.966  25.540  1.00  0.00     0.041 A 
ATOM     18  C   UNL A   1      33.943  27.019  26.459  1.00  0.00     0.026 A 
ATOM     19  C   UNL A   1      34.056  26.258  24.186  1.00  0.00     0.040 A 
ATOM     20  C   UNL A   1      33.872  28.344  26.015  1.00  0.00     0.003 A 
ATOM     21  C   UNL A   1      33.769  28.612  24.651  1.00  0.00     0.014 A 
BRANCH  17  22
ATOM     22  N   UNL A   1      33.876  24.647  26.009  1.00  0.00    -0.326 N 
ATOM     23  O   UNL A   1      31.565  24.458  26.339  1.00  0.00    -0.274 OA
ATOM     24  C   UNL A   1      32.710  24.029  26.446  1.00  0.00     0.228 C 
ATOM     25  H   UNL A   1      34.697  24.103  26.028  1.00  0.00     0.169 HD
BRANCH  24  26
ATOM     26  C   UNL A   1      32.963  22.690  27.111  1.00  0.00     0.135 C 
BRANCH  26  27
ATOM     27  C   UNL A   1      33.334  21.581  26.156  1.00  0.00    -0.039 A 
ATOM     28  C   UNL A   1      32.311  20.864  25.522  1.00  0.00     0.004 A 
ATOM     29  C   UNL A   1      34.669  21.257  25.865  1.00  0.00     0.004 A 
ATOM     30  C   UNL A   1      32.618  19.814  24.658  1.00  0.00     0.000 A 
ATOM     31  C   UNL A   1      34.973  20.194  25.019  1.00  0.00     0.000 A 
ATOM     32  C   UNL A   1      33.947  19.469  24.420  1.00  0.00     0.000 A 
ENDBRANCH  26  27
ENDBRANCH  24  26
ENDBRANCH  17  22
ENDBRANCH  13  16
ENDBRANCH   7  12
ENDBRANCH   3   6
ENDBRANCH   1   2
BRANCH   1  33
ATOM     33  C   UNL A   1      30.683  31.679  25.394  1.00  0.00     0.023 C 
BRANCH  33  34
ATOM     34  C   UNL A   1      31.351  31.654  26.769  1.00  0.00     0.023 C 
BRANCH  34  35
ATOM     35  C   UNL A   1      32.619  32.489  26.928  1.00  0.00     0.116 C 
BRANCH  35  36
ATOM     36  N   UNL A   1      32.376  33.856  27.364  1.00  0.00    -0.352 N 
ATOM     37  C   UNL A   1      32.988  34.601  28.347  1.00  0.00     0.251 C 
ATOM     38  H   UNL A   1      31.659  34.323  26.878  1.00  0.00     0.163 HD
ATOM     39  O   UNL A   1      32.557  35.704  28.650  1.00  0.00    -0.269 OA
BRANCH  37  40
ATOM     40  C   UNL A   1      34.156  34.049  29.070  1.00  0.00     0.039 A 
ATOM     41  C   UNL A   1      33.937  33.163  30.127  1.00  0.00     0.014 A 
ATOM     42  C   UNL A   1      35.458  34.391  28.702  1.00  0.00     0.014 A 
ATOM     43  C   UNL A   1      35.026  32.550  30.754  1.00  0.00     0.010 A 
ATOM     44  C   UNL A   1      36.536  33.712  29.263  1.00  0.00     0.010 A 
ATOM     45  C   UNL A   1      36.332  32.783  30.295  1.00  0.00    -0.014 A 
BRANCH  45  46
ATOM     46  C   UNL A   1      37.497  32.071  30.885  1.00  0.00     0.031 A 
ATOM     47  C   UNL A   1      37.987  32.436  32.260  1.00  0.00     0.074 A 
ATOM     48  C   UNL A   1      38.151  31.139  30.163  1.00  0.00     0.049 A 
ATOM     49  N   UNL A   1      39.027  31.986  32.917  1.00  0.00    -0.248 NA
ATOM     50  C   UNL A   1      37.223  33.466  32.982  1.00  0.00     0.031 C 
ATOM     51  C   UNL A   1      37.814  30.733  28.798  1.00  0.00     0.029 A 
ATOM     52  N   UNL A   1      39.247  30.370  30.475  1.00  0.00    -0.354 N 
ATOM     53  C   UNL A   1      39.044  32.682  34.120  1.00  0.00     0.074 A 
ATOM     54  C   UNL A   1      37.955  33.632  34.073  1.00  0.00     0.031 C 
ATOM     55  C   UNL A   1      38.667  29.775  28.398  1.00  0.00     0.029 A 
ATOM     56  C   UNL A   1      39.633  29.524  29.463  1.00  0.00     0.049 A 
ATOM     57  H   UNL A   1      39.711  30.422  31.342  1.00  0.00     0.167 HD
ATOM     58  C   UNL A   1      39.868  32.519  35.181  1.00  0.00     0.037 A 
ATOM     59  C   UNL A   1      40.652  28.645  29.404  1.00  0.00     0.037 A 
ATOM     60  C   UNL A   1      40.939  31.559  35.237  1.00  0.00     0.049 A 
ATOM     61  C   UNL A   1      41.552  28.483  30.601  1.00  0.00     0.074 A 
ATOM     62  C   UNL A   1      41.820  31.306  36.274  1.00  0.00     0.029 A 
ATOM     63  N   UNL A   1      41.268  30.688  34.211  1.00  0.00    -0.354 N 
ATOM     64  N   UNL A   1      41.523  29.109  31.752  1.00  0.00    -0.248 NA
ATOM     65  C   UNL A   1      42.619  27.477  30.495  1.00  0.00     0.031 C 
ATOM     66  C   UNL A   1      42.702  30.300  35.864  1.00  0.00     0.029 A 
ATOM     67  C   UNL A   1      42.340  29.894  34.590  1.00  0.00     0.049 A 
ATOM     68  H   UNL A   1      40.810  30.640  33.341  1.00  0.00     0.167 HD
ATOM     69  C   UNL A   1      42.536  28.548  32.518  1.00  0.00     0.074 A 
ATOM     70  C   UNL A   1      43.152  27.520  31.707  1.00  0.00     0.031 C 
ATOM     71  C   UNL A   1      42.923  28.856  33.781  1.00  0.00     0.037 A 
BRANCH  58  72
ATOM     72  C   UNL A   1      39.624  33.386  36.383  1.00  0.00     0.064 A 
ATOM     73  C   UNL A   1      38.751  32.984  37.407  1.00  0.00     0.173 A 
ATOM     74  C   UNL A   1      40.290  34.611  36.534  1.00  0.00     0.173 A 
ATOM     75  F   UNL A   1      38.079  31.827  37.305  1.00  0.00    -0.203 F 
ATOM     76  C   UNL A   1      38.531  33.789  38.520  1.00  0.00     0.198 A 
ATOM     77  C   UNL A   1      40.092  35.399  37.666  1.00  0.00     0.198 A 
ATOM     78  F   UNL A   1      41.139  35.040  35.589  1.00  0.00    -0.203 F 
ATOM     79  F   UNL A   1      37.654  33.407  39.458  1.00  0.00    -0.200 F 
ATOM     80  C   UNL A   1      39.208  34.991  38.653  1.00  0.00     0.200 A 
ATOM     81  F   UNL A   1      40.757  36.555  37.800  1.00  0.00    -0.200 F 
ATOM     82  F   UNL A   1      39.003  35.762  39.730  1.00  0.00    -0.200 F 
ENDBRANCH  58  72
BRANCH  59  83
ATOM     83  C   UNL A   1      40.869  27.826  28.181  1.00  0.00     0.064 A 
ATOM     84  C   UNL A   1      40.332  26.534  28.075  1.00  0.00     0.173 A 
ATOM     85  C   UNL A   1      41.644  28.298  27.113  1.00  0.00     0.173 A 
ATOM     86  F   UNL A   1      39.600  26.029  29.078  1.00  0.00    -0.203 F 
ATOM     87  C   UNL A   1      40.596  25.733  26.965  1.00  0.00     0.198 A 
ATOM     88  C   UNL A   1      41.881  27.509  25.990  1.00  0.00     0.198 A 
ATOM     89  F   UNL A   1      42.176  29.529  27.161  1.00  0.00    -0.203 F 
ATOM     90  F   UNL A   1      40.124  24.480  26.920  1.00  0.00    -0.200 F 
ATOM     91  C   UNL A   1      41.367  26.222  25.922  1.00  0.00     0.200 A 
ATOM     92  F   UNL A   1      42.615  27.989  24.977  1.00  0.00    -0.200 F 
ATOM     93  F   UNL A   1      41.626  25.449  24.859  1.00  0.00    -0.200 F 
ENDBRANCH  59  83
BRANCH  71  94
ATOM     94  C   UNL A   1      44.021  28.030  34.385  1.00  0.00     0.064 A 
ATOM     95  C   UNL A   1      43.760  26.830  35.061  1.00  0.00     0.173 A 
ATOM     96  C   UNL A   1      45.358  28.439  34.262  1.00  0.00     0.173 A 
ATOM     97  F   UNL A   1      42.497  26.405  35.217  1.00  0.00    -0.203 F 
ATOM     98  C   UNL A   1      44.793  26.086  35.622  1.00  0.00     0.198 A 
ATOM     99  C   UNL A   1      46.393  27.675  34.796  1.00  0.00     0.198 A 
ATOM    100  F   UNL A   1      45.663  29.575  33.618  1.00  0.00    -0.203 F 
ATOM    101  F   UNL A   1      44.517  24.971  36.312  1.00  0.00    -0.200 F 
ATOM    102  C   UNL A   1      46.109  26.505  35.484  1.00  0.00     0.200 A 
ATOM    103  F   UNL A   1      47.663  28.075  34.650  1.00  0.00    -0.200 F 
ATOM    104  F   UNL A   1      47.103  25.786  36.023  1.00  0.00    -0.200 F 
ENDBRANCH  71  94
ENDBRANCH  45  46
ENDBRANCH  37  40
ENDBRANCH  35  36
ENDBRANCH  34  35
ENDBRANCH  33  34
ENDBRANCH   1  33
TORSDOF 16
ENDMDL
MODEL 3
REMARK VINA RESULT:     -12.9      2.906      4.381
REMARK SMILES O=C(Cc1ccccc1)Nc1cccc(C(=O)Nc2ccccc2C(=O)NCCCCNC(=O)c2ccc(-c3c4nc(c(-c5c(F)c(F)c(F)c(F)c5F)c5ccc([nH]5)c(-c5c(F)c(F)c(F)c(F)c5F)c5nc(c(-c6c(F)c(F)c(F)c(F)c6F)c6ccc3[nH]6)C=C5)C=C4)cc2)c1
REMARK SMILES IDX 28 1 27 2 25 3 26 4 24 6 19 7 20 8 21 9 23 10 22 11 18 12
REMARK SMILES IDX 16 13 17 14 15 16 11 17 12 18 98 19 13 20 14 21 10 22 1 23
REMARK SMILES IDX 2 24 3 26 4 27 5 28 9 29 6 30 8 31 7 32 29 33 30 34 31 35
REMARK SMILES IDX 32 36 33 37 34 39 35 40 36 41 97 42 37 43 96 44 38 45 39 46
REMARK SMILES IDX 40 47 90 48 41 49 95 50 89 51 91 52 42 53 94 54 88 55 87 56
REMARK SMILES IDX 43 58 75 59 55 60 74 61 56 62 59 63 73 64 92 65 57 66 58 67
REMARK SMILES IDX 72 69 93 70 60 71 44 72 45 73 53 74 46 75 47 76 51 77 54 78
REMARK SMILES IDX 48 79 49 80 52 81 50 82 76 83 77 84 85 85 78 86 79 87 83 88
REMARK SMILES IDX 86 89 80 90 81 91 84 92 82 93 61 94 62 95 70 96 63 97 64 98
REMARK SMILES IDX 68 99 71 100 65 101 66 102 69 103 67 104
REMARK H PARENT 27 5 18 15 10 25 32 38 91 57 59 68
REMARK Flexibility Score: inf
ROOT
ATOM      1  C   UNL A   1      36.035  21.679  25.690  1.00  0.00     0.116 C 
ENDROOT
BRANCH   1   2
ATOM      2  N   UNL A   1      36.033  23.122  25.599  1.00  0.00    -0.352 N 
ATOM      3  C   UNL A   1      34.967  23.984  25.523  1.00  0.00     0.253 C 
ATOM      4  O   UNL A   1      35.206  25.188  25.410  1.00  0.00    -0.269 OA
ATOM      5  H   UNL A   1      36.921  23.546  25.589  1.00  0.00     0.163 HD
BRANCH   3   6
ATOM      6  C   UNL A   1      33.555  23.507  25.457  1.00  0.00     0.063 A 
ATOM      7  C   UNL A   1      32.704  23.463  24.331  1.00  0.00     0.054 A 
ATOM      8  C   UNL A   1      31.347  23.148  24.534  1.00  0.00     0.027 A 
ATOM      9  C   UNL A   1      30.868  22.748  25.784  1.00  0.00     0.002 A 
ATOM     10  C   UNL A   1      33.055  23.084  26.710  1.00  0.00     0.016 A 
ATOM     11  C   UNL A   1      31.729  22.688  26.868  1.00  0.00     0.001 A 
BRANCH   7  12
ATOM     12  N   UNL A   1      33.043  23.644  22.964  1.00  0.00    -0.321 N 
ATOM     13  C   UNL A   1      32.963  24.738  22.120  1.00  0.00     0.255 C 
ATOM     14  O   UNL A   1      33.094  24.577  20.907  1.00  0.00    -0.269 OA
ATOM     15  H   UNL A   1      33.404  22.837  22.533  1.00  0.00     0.170 HD
BRANCH  13  16
ATOM     16  C   UNL A   1      32.766  26.104  22.648  1.00  0.00     0.042 A 
ATOM     17  C   UNL A   1      31.233  27.897  23.115  1.00  0.00     0.041 A 
ATOM     18  C   UNL A   1      32.316  28.777  23.215  1.00  0.00     0.026 A 
ATOM     19  C   UNL A   1      31.481  26.543  22.954  1.00  0.00     0.040 A 
ATOM     20  C   UNL A   1      33.627  28.305  23.096  1.00  0.00     0.003 A 
ATOM     21  C   UNL A   1      33.855  26.966  22.783  1.00  0.00     0.014 A 
BRANCH  17  22
ATOM     22  N   UNL A   1      29.933  28.427  23.039  1.00  0.00    -0.326 N 
ATOM     23  O   UNL A   1      28.636  26.709  23.962  1.00  0.00    -0.274 OA
ATOM     24  C   UNL A   1      28.748  27.782  23.377  1.00  0.00     0.228 C 
ATOM     25  H   UNL A   1      29.853  29.353  22.713  1.00  0.00     0.169 HD
BRANCH  24  26
ATOM     26  C   UNL A   1      27.513  28.549  22.947  1.00  0.00     0.135 C 
BRANCH  26  27
ATOM     27  C   UNL A   1      27.770  29.992  22.587  1.00  0.00    -0.039 A 
ATOM     28  C   UNL A   1      28.007  30.323  21.246  1.00  0.00     0.004 A 
ATOM     29  C   UNL A   1      27.761  31.018  23.546  1.00  0.00     0.004 A 
ATOM     30  C   UNL A   1      28.278  31.641  20.883  1.00  0.00     0.000 A 
ATOM     31  C   UNL A   1      28.053  32.330  23.184  1.00  0.00     0.000 A 
ATOM     32  C   UNL A   1      28.317  32.641  21.853  1.00  0.00     0.000 A 
ENDBRANCH  26  27
ENDBRANCH  24  26
ENDBRANCH  17  22
ENDBRANCH  13  16
ENDBRANCH   7  12
ENDBRANCH   3   6
ENDBRANCH   1   2
BRANCH   1  33
ATOM     33  C   UNL A   1      36.782  20.984  24.562  1.00  0.00     0.023 C 
BRANCH  33  34
ATOM     34  C   UNL A   1      37.761  19.889  24.986  1.00  0.00     0.023 C 
BRANCH  34  35
ATOM     35  C   UNL A   1      38.994  20.339  25.765  1.00  0.00     0.116 C 
BRANCH  35  36
ATOM     36  N   UNL A   1      40.035  19.325  25.861  1.00  0.00    -0.352 N 
ATOM     37  C   UNL A   1      41.384  19.453  26.108  1.00  0.00     0.251 C 
ATOM     38  H   UNL A   1      39.725  18.401  25.728  1.00  0.00     0.163 HD
ATOM     39  O   UNL A   1      42.124  18.484  26.028  1.00  0.00    -0.269 OA
BRANCH  37  40
ATOM     40  C   UNL A   1      41.950  20.781  26.435  1.00  0.00     0.039 A 
ATOM     41  C   UNL A   1      42.240  21.666  25.394  1.00  0.00     0.014 A 
ATOM     42  C   UNL A   1      42.184  21.157  27.759  1.00  0.00     0.014 A 
ATOM     43  C   UNL A   1      42.676  22.961  25.688  1.00  0.00     0.010 A 
ATOM     44  C   UNL A   1      42.528  22.474  28.053  1.00  0.00     0.010 A 
ATOM     45  C   UNL A   1      42.777  23.391  27.020  1.00  0.00    -0.014 A 
BRANCH  45  46
ATOM     46  C   UNL A   1      43.149  24.792  27.355  1.00  0.00     0.031 A 
ATOM     47  C   UNL A   1      44.561  25.268  27.143  1.00  0.00     0.074 A 
ATOM     48  C   UNL A   1      42.236  25.617  27.903  1.00  0.00     0.049 A 
ATOM     49  N   UNL A   1      45.099  26.425  27.440  1.00  0.00    -0.248 NA
ATOM     50  C   UNL A   1      45.501  24.307  26.546  1.00  0.00     0.031 C 
ATOM     51  C   UNL A   1      40.849  25.262  28.212  1.00  0.00     0.029 A 
ATOM     52  N   UNL A   1      42.339  26.926  28.309  1.00  0.00    -0.354 N 
ATOM     53  C   UNL A   1      46.435  26.325  27.073  1.00  0.00     0.074 A 
ATOM     54  C   UNL A   1      46.643  24.975  26.598  1.00  0.00     0.031 C 
ATOM     55  C   UNL A   1      40.226  26.331  28.736  1.00  0.00     0.029 A 
ATOM     56  C   UNL A   1      41.175  27.435  28.833  1.00  0.00     0.049 A 
ATOM     57  H   UNL A   1      43.170  27.448  28.232  1.00  0.00     0.167 HD
ATOM     58  C   UNL A   1      47.394  27.281  27.094  1.00  0.00     0.037 A 
ATOM     59  C   UNL A   1      40.906  28.656  29.335  1.00  0.00     0.037 A 
ATOM     60  C   UNL A   1      47.184  28.631  27.546  1.00  0.00     0.049 A 
ATOM     61  C   UNL A   1      41.992  29.701  29.344  1.00  0.00     0.074 A 
ATOM     62  C   UNL A   1      48.087  29.678  27.593  1.00  0.00     0.029 A 
ATOM     63  N   UNL A   1      45.978  29.121  28.026  1.00  0.00    -0.354 N 
ATOM     64  N   UNL A   1      43.236  29.608  28.944  1.00  0.00    -0.248 NA
ATOM     65  C   UNL A   1      41.627  31.028  29.862  1.00  0.00     0.031 C 
ATOM     66  C   UNL A   1      47.436  30.796  28.126  1.00  0.00     0.029 A 
ATOM     67  C   UNL A   1      46.115  30.457  28.369  1.00  0.00     0.049 A 
ATOM     68  H   UNL A   1      45.149  28.598  28.111  1.00  0.00     0.167 HD
ATOM     69  C   UNL A   1      43.790  30.869  29.122  1.00  0.00     0.074 A 
ATOM     70  C   UNL A   1      42.741  31.713  29.654  1.00  0.00     0.031 C 
ATOM     71  C   UNL A   1      45.054  31.290  28.870  1.00  0.00     0.037 A 
BRANCH  58  72
ATOM     72  C   UNL A   1      48.756  26.903  26.587  1.00  0.00     0.064 A 
ATOM     73  C   UNL A   1      49.735  26.380  27.448  1.00  0.00     0.173 A 
ATOM     74  C   UNL A   1      49.079  27.030  25.229  1.00  0.00     0.173 A 
ATOM     75  F   UNL A   1      49.481  26.251  28.759  1.00  0.00    -0.203 F 
ATOM     76  C   UNL A   1      50.995  26.028  26.972  1.00  0.00     0.198 A 
ATOM     77  C   UNL A   1      50.330  26.645  24.750  1.00  0.00     0.198 A 
ATOM     78  F   UNL A   1      48.180  27.518  24.362  1.00  0.00    -0.203 F 
ATOM     79  F   UNL A   1      51.928  25.580  27.822  1.00  0.00    -0.200 F 
ATOM     80  C   UNL A   1      51.288  26.152  25.623  1.00  0.00     0.200 A 
ATOM     81  F   UNL A   1      50.608  26.753  23.444  1.00  0.00    -0.200 F 
ATOM     82  F   UNL A   1      52.498  25.803  25.165  1.00  0.00    -0.200 F 
ENDBRANCH  58  72
BRANCH  59  83
ATOM     83  C   UNL A   1      39.548  28.976  29.849  1.00  0.00     0.064 A 
ATOM     84  C   UNL A   1      38.566  29.514  29.004  1.00  0.00     0.173 A 
ATOM     85  C   UNL A   1      39.213  28.787  31.197  1.00  0.00     0.173 A 
ATOM     86  F   UNL A   1      38.843  29.733  27.710  1.00  0.00    -0.203 F 
ATOM     87  C   UNL A   1      37.317  29.887  29.496  1.00  0.00     0.198 A 
ATOM     88  C   UNL A   1      37.953  29.131  31.681  1.00  0.00     0.198 A 
ATOM     89  F   UNL A   1      40.112  28.269  32.047  1.00  0.00    -0.203 F 
ATOM     90  F   UNL A   1      36.422  30.459  28.679  1.00  0.00    -0.200 F 
ATOM     91  C   UNL A   1      37.010  29.692  30.833  1.00  0.00     0.200 A 
ATOM     92  F   UNL A   1      37.654  28.928  32.972  1.00  0.00    -0.200 F 
ATOM     93  F   UNL A   1      35.811  30.058  31.308  1.00  0.00    -0.200 F 
ENDBRANCH  59  83
BRANCH  71  94
ATOM     94  C   UNL A   1      45.355  32.743  29.105  1.00  0.00     0.064 A 
ATOM     95  C   UNL A   1      45.876  33.204  30.323  1.00  0.00     0.173 A 
ATOM     96  C   UNL A   1      45.140  33.680  28.083  1.00  0.00     0.173 A 
ATOM     97  F   UNL A   1      46.084  32.349  31.335  1.00  0.00    -0.203 F 
ATOM     98  C   UNL A   1      46.137  34.556  30.520  1.00  0.00     0.198 A 
ATOM     99  C   UNL A   1      45.434  35.028  28.274  1.00  0.00     0.198 A 
ATOM    100  F   UNL A   1      44.651  33.290  26.897  1.00  0.00    -0.203 F 
ATOM    101  F   UNL A   1      46.582  34.984  31.711  1.00  0.00    -0.200 F 
ATOM    102  C   UNL A   1      45.923  35.466  29.495  1.00  0.00     0.200 A 
ATOM    103  F   UNL A   1      45.239  35.902  27.278  1.00  0.00    -0.200 F 
ATOM    104  F   UNL A   1      46.178  36.768  29.687  1.00  0.00    -0.200 F 
ENDBRANCH  71  94
ENDBRANCH  45  46
ENDBRANCH  37  40
ENDBRANCH  35  36
ENDBRANCH  34  35
ENDBRANCH  33  34
ENDBRANCH   1  33
TORSDOF 16
ENDMDL
