MODEL 1
REMARK VINA RESULT:     -13.4      0.000      0.000
REMARK SMILES O=C(NCCCCNC(=O)[C@H]1C=C[C@H](NC(=O)c2cc(F)c(Cl)cc2Cl)C1)c1ccc(-c2c3nc(c(-c4c(F)c(F)c(F)c(F)c4F)c4ccc([nH]4)c(-c4c(F)c(F)c(F)c(F)c4F)c4nc(c(-c5c(F)c(F)c(F)c(F)c5F)c5ccc2[nH]5)C=C4)C=C3)cc1
REMARK SMILES IDX 5 1 4 2 3 3 1 4 2 5 28 7 29 8 90 9 30 10 89 11 31 12 32 13
REMARK SMILES IDX 33 14 83 15 34 16 88 17 82 18 84 19 35 20 87 21 81 22 80 23
REMARK SMILES IDX 36 25 68 26 48 27 67 28 49 29 52 30 66 31 85 32 50 33 51 34
REMARK SMILES IDX 65 36 86 37 53 38 37 39 38 40 46 41 39 42 40 43 44 44 47 45
REMARK SMILES IDX 41 46 42 47 45 48 43 49 69 50 70 51 78 52 71 53 72 54 76 55
REMARK SMILES IDX 79 56 73 57 74 58 77 59 75 60 54 61 55 62 63 63 56 64 57 65
REMARK SMILES IDX 61 66 64 67 58 68 59 69 62 70 60 71 6 72 7 73 8 74 9 75
REMARK SMILES IDX 10 77 11 78 12 79 27 80 13 81 14 82 15 83 16 84 17 86 18 87
REMARK SMILES IDX 19 88 25 89 20 90 24 91 26 92 21 93 22 94 23 95
REMARK H PARENT 3 6 84 24 52 35 8 76 15 85
REMARK Flexibility Score: inf
ROOT
ATOM      1  C   UNL A   1      31.583  32.011  26.770  1.00  0.00     0.023 C 
ENDROOT
BRANCH   1   2
ATOM      2  C   UNL A   1      32.750  32.835  27.299  1.00  0.00     0.116 C 
BRANCH   2   3
ATOM      3  N   UNL A   1      32.392  34.203  27.643  1.00  0.00    -0.352 N 
ATOM      4  O   UNL A   1      32.528  36.125  28.831  1.00  0.00    -0.269 OA
ATOM      5  C   UNL A   1      32.990  35.019  28.573  1.00  0.00     0.251 C 
ATOM      6  H   UNL A   1      31.632  34.590  27.152  1.00  0.00     0.163 HD
BRANCH   5   7
ATOM      7  C   UNL A   1      34.168  34.512  29.301  1.00  0.00     0.039 A 
ATOM      8  C   UNL A   1      35.442  34.625  28.742  1.00  0.00     0.014 A 
ATOM      9  C   UNL A   1      33.978  33.857  30.520  1.00  0.00     0.014 A 
ATOM     10  C   UNL A   1      36.504  33.951  29.326  1.00  0.00     0.010 A 
ATOM     11  C   UNL A   1      35.065  33.246  31.147  1.00  0.00     0.010 A 
ATOM     12  C   UNL A   1      36.326  33.251  30.532  1.00  0.00    -0.014 A 
BRANCH  12  13
ATOM     13  C   UNL A   1      37.485  32.555  31.138  1.00  0.00     0.031 A 
ATOM     14  C   UNL A   1      37.929  32.867  32.539  1.00  0.00     0.074 A 
ATOM     15  C   UNL A   1      38.105  31.598  30.425  1.00  0.00     0.049 A 
ATOM     16  N   UNL A   1      38.893  32.323  33.239  1.00  0.00    -0.248 NA
ATOM     17  C   UNL A   1      37.204  33.933  33.247  1.00  0.00     0.031 C 
ATOM     18  C   UNL A   1      37.761  31.217  29.054  1.00  0.00     0.029 A 
ATOM     19  N   UNL A   1      39.131  30.751  30.758  1.00  0.00    -0.354 N 
ATOM     20  C   UNL A   1      38.911  32.997  34.452  1.00  0.00     0.074 A 
ATOM     21  C   UNL A   1      37.869  34.001  34.393  1.00  0.00     0.031 C 
ATOM     22  C   UNL A   1      38.520  30.176  28.684  1.00  0.00     0.029 A 
ATOM     23  C   UNL A   1      39.438  29.852  29.769  1.00  0.00     0.049 A 
ATOM     24  H   UNL A   1      39.601  30.786  31.622  1.00  0.00     0.167 HD
ATOM     25  C   UNL A   1      39.722  32.792  35.518  1.00  0.00     0.037 A 
ATOM     26  C   UNL A   1      40.362  28.874  29.739  1.00  0.00     0.037 A 
ATOM     27  C   UNL A   1      40.732  31.768  35.583  1.00  0.00     0.049 A 
ATOM     28  C   UNL A   1      41.238  28.663  30.938  1.00  0.00     0.074 A 
ATOM     29  C   UNL A   1      41.574  31.448  36.635  1.00  0.00     0.029 A 
ATOM     30  N   UNL A   1      41.037  30.893  34.549  1.00  0.00    -0.354 N 
ATOM     31  N   UNL A   1      41.227  29.292  32.089  1.00  0.00    -0.248 NA
ATOM     32  C   UNL A   1      42.259  27.614  30.832  1.00  0.00     0.031 C 
ATOM     33  C   UNL A   1      42.412  30.405  36.226  1.00  0.00     0.029 A 
ATOM     34  C   UNL A   1      42.066  30.048  34.932  1.00  0.00     0.049 A 
ATOM     35  H   UNL A   1      40.589  30.876  33.673  1.00  0.00     0.167 HD
ATOM     36  C   UNL A   1      42.230  28.707  32.849  1.00  0.00     0.074 A 
ATOM     37  C   UNL A   1      42.814  27.660  32.035  1.00  0.00     0.031 C 
ATOM     38  C   UNL A   1      42.634  29.014  34.105  1.00  0.00     0.037 A 
BRANCH  25  39
ATOM     39  C   UNL A   1      39.568  33.706  36.698  1.00  0.00     0.064 A 
ATOM     40  C   UNL A   1      40.191  34.961  36.747  1.00  0.00     0.173 A 
ATOM     41  C   UNL A   1      38.749  33.337  37.776  1.00  0.00     0.173 A 
ATOM     42  F   UNL A   1      40.995  35.356  35.749  1.00  0.00    -0.203 F 
ATOM     43  C   UNL A   1      40.014  35.806  37.841  1.00  0.00     0.198 A 
ATOM     44  C   UNL A   1      38.556  34.193  38.857  1.00  0.00     0.198 A 
ATOM     45  F   UNL A   1      38.128  32.148  37.776  1.00  0.00    -0.203 F 
ATOM     46  F   UNL A   1      40.648  36.986  37.884  1.00  0.00    -0.200 F 
ATOM     47  C   UNL A   1      39.193  35.424  38.891  1.00  0.00     0.200 A 
ATOM     48  F   UNL A   1      37.754  33.826  39.866  1.00  0.00    -0.200 F 
ATOM     49  F   UNL A   1      39.019  36.241  39.939  1.00  0.00    -0.200 F 
ENDBRANCH  25  39
BRANCH  26  50
ATOM     50  C   UNL A   1      40.481  28.015  28.535  1.00  0.00     0.064 A 
ATOM     51  C   UNL A   1      41.251  28.421  27.437  1.00  0.00     0.173 A 
ATOM     52  C   UNL A   1      39.859  26.760  28.471  1.00  0.00     0.173 A 
ATOM     53  F   UNL A   1      41.852  29.621  27.448  1.00  0.00    -0.203 F 
ATOM     54  C   UNL A   1      41.388  27.607  26.317  1.00  0.00     0.198 A 
ATOM     55  C   UNL A   1      40.017  25.936  27.360  1.00  0.00     0.198 A 
ATOM     56  F   UNL A   1      39.117  26.326  29.501  1.00  0.00    -0.203 F 
ATOM     57  F   UNL A   1      42.106  28.031  25.267  1.00  0.00    -0.200 F 
ATOM     58  C   UNL A   1      40.778  26.362  26.282  1.00  0.00     0.200 A 
ATOM     59  F   UNL A   1      39.441  24.727  27.339  1.00  0.00    -0.200 F 
ATOM     60  F   UNL A   1      40.921  25.573  25.209  1.00  0.00    -0.200 F 
ENDBRANCH  26  50
BRANCH  38  61
ATOM     61  C   UNL A   1      43.747  28.190  34.676  1.00  0.00     0.064 A 
ATOM     62  C   UNL A   1      45.086  28.595  34.569  1.00  0.00     0.173 A 
ATOM     63  C   UNL A   1      43.472  26.991  35.348  1.00  0.00     0.173 A 
ATOM     64  F   UNL A   1      45.398  29.727  33.919  1.00  0.00    -0.203 F 
ATOM     65  C   UNL A   1      46.112  27.815  35.092  1.00  0.00     0.198 A 
ATOM     66  C   UNL A   1      44.499  26.224  35.891  1.00  0.00     0.198 A 
ATOM     67  F   UNL A   1      42.207  26.563  35.479  1.00  0.00    -0.203 F 
ATOM     68  F   UNL A   1      47.387  28.196  34.937  1.00  0.00    -0.200 F 
ATOM     69  C   UNL A   1      45.817  26.632  35.756  1.00  0.00     0.200 A 
ATOM     70  F   UNL A   1      44.213  25.086  36.539  1.00  0.00    -0.200 F 
ATOM     71  F   UNL A   1      46.808  25.881  36.257  1.00  0.00    -0.200 F 
ENDBRANCH  38  61
ENDBRANCH  12  13
ENDBRANCH   5   7
ENDBRANCH   2   3
ENDBRANCH   1   2
BRANCH   1  72
ATOM     72  C   UNL A   1      31.813  30.497  26.775  1.00  0.00     0.023 C 
BRANCH  72  73
ATOM     73  C   UNL A   1      32.642  29.982  25.599  1.00  0.00     0.116 C 
BRANCH  73  74
ATOM     74  N   UNL A   1      31.820  29.702  24.447  1.00  0.00    -0.356 N 
ATOM     75  C   UNL A   1      31.121  28.608  24.073  1.00  0.00     0.227 C 
ATOM     76  H   UNL A   1      31.755  30.451  23.812  1.00  0.00     0.163 HD
ATOM     77  O   UNL A   1      30.545  28.695  22.980  1.00  0.00    -0.274 OA
BRANCH  75  78
ATOM     78  C   UNL A   1      31.028  27.285  24.847  1.00  0.00     0.103 C 
ATOM     79  C   UNL A   1      29.976  26.389  24.253  1.00  0.00    -0.016 C 
ATOM     80  C   UNL A   1      32.187  26.321  25.111  1.00  0.00     0.047 C 
ATOM     81  C   UNL A   1      30.278  25.094  24.400  1.00  0.00    -0.006 C 
ATOM     82  C   UNL A   1      31.598  24.904  25.052  1.00  0.00     0.106 C 
BRANCH  82  83
ATOM     83  N   UNL A   1      31.527  24.192  26.314  1.00  0.00    -0.346 N 
ATOM     84  C   UNL A   1      32.256  23.183  26.883  1.00  0.00     0.253 C 
ATOM     85  H   UNL A   1      30.791  24.502  26.889  1.00  0.00     0.164 HD
ATOM     86  O   UNL A   1      31.853  22.625  27.900  1.00  0.00    -0.269 OA
BRANCH  84  87
ATOM     87  C   UNL A   1      33.504  22.707  26.281  1.00  0.00     0.061 A 
ATOM     88  C   UNL A   1      34.660  23.467  26.500  1.00  0.00     0.056 A 
ATOM     89  C   UNL A   1      33.540  21.586  25.443  1.00  0.00     0.055 A 
ATOM     90  C   UNL A   1      35.866  23.037  25.954  1.00  0.00     0.142 A 
ATOM     91  C   UNL A   1      34.760  21.157  24.913  1.00  0.00     0.045 A 
ATOM     92  Cl  UNL A   1      32.116  20.715  25.001  1.00  0.00    -0.083 Cl
ATOM     93  F   UNL A   1      36.973  23.751  26.205  1.00  0.00    -0.205 F 
ATOM     94  C   UNL A   1      35.924  21.877  25.183  1.00  0.00     0.078 A 
ATOM     95  Cl  UNL A   1      37.424  21.325  24.543  1.00  0.00    -0.081 Cl
ENDBRANCH  84  87
ENDBRANCH  82  83
ENDBRANCH  75  78
ENDBRANCH  73  74
ENDBRANCH  72  73
ENDBRANCH   1  72
TORSDOF 13
ENDMDL
MODEL 2
REMARK VINA RESULT:     -13.3      0.185      1.948
REMARK SMILES O=C(NCCCCNC(=O)[C@H]1C=C[C@H](NC(=O)c2cc(F)c(Cl)cc2Cl)C1)c1ccc(-c2c3nc(c(-c4c(F)c(F)c(F)c(F)c4F)c4ccc([nH]4)c(-c4c(F)c(F)c(F)c(F)c4F)c4nc(c(-c5c(F)c(F)c(F)c(F)c5F)c5ccc2[nH]5)C=C4)C=C3)cc1
REMARK SMILES IDX 5 1 4 2 3 3 1 4 2 5 28 7 29 8 90 9 30 10 89 11 31 12 32 13
REMARK SMILES IDX 33 14 83 15 34 16 88 17 82 18 84 19 35 20 87 21 81 22 80 23
REMARK SMILES IDX 36 25 68 26 48 27 67 28 49 29 52 30 66 31 85 32 50 33 51 34
REMARK SMILES IDX 65 36 86 37 53 38 37 39 38 40 46 41 39 42 40 43 44 44 47 45
REMARK SMILES IDX 41 46 42 47 45 48 43 49 69 50 70 51 78 52 71 53 72 54 76 55
REMARK SMILES IDX 79 56 73 57 74 58 77 59 75 60 54 61 55 62 63 63 56 64 57 65
REMARK SMILES IDX 61 66 64 67 58 68 59 69 62 70 60 71 6 72 7 73 8 74 9 75
REMARK SMILES IDX 10 77 11 78 12 79 27 80 13 81 14 82 15 83 16 84 17 86 18 87
REMARK SMILES IDX 19 88 25 89 20 90 24 91 26 92 21 93 22 94 23 95
REMARK H PARENT 3 6 84 24 52 35 8 76 15 85
REMARK Flexibility Score: inf
ROOT
ATOM      1  C   UNL A   1      31.663  31.993  26.862  1.00  0.00     0.023 C 
ENDROOT
BRANCH   1   2
ATOM      2  C   UNL A   1      32.823  32.862  27.332  1.00  0.00     0.116 C 
BRANCH   2   3
ATOM      3  N   UNL A   1      32.431  34.218  27.686  1.00  0.00    -0.352 N 
ATOM      4  O   UNL A   1      32.511  36.129  28.898  1.00  0.00    -0.269 OA
ATOM      5  C   UNL A   1      32.999  35.036  28.634  1.00  0.00     0.251 C 
ATOM      6  H   UNL A   1      31.670  34.595  27.189  1.00  0.00     0.163 HD
BRANCH   5   7
ATOM      7  C   UNL A   1      34.178  34.545  29.372  1.00  0.00     0.039 A 
ATOM      8  C   UNL A   1      35.458  34.699  28.836  1.00  0.00     0.014 A 
ATOM      9  C   UNL A   1      33.986  33.864  30.576  1.00  0.00     0.014 A 
ATOM     10  C   UNL A   1      36.527  34.042  29.426  1.00  0.00     0.010 A 
ATOM     11  C   UNL A   1      35.077  33.269  31.210  1.00  0.00     0.010 A 
ATOM     12  C   UNL A   1      36.347  33.316  30.616  1.00  0.00    -0.014 A 
BRANCH  12  13
ATOM     13  C   UNL A   1      37.514  32.639  31.229  1.00  0.00     0.031 A 
ATOM     14  C   UNL A   1      37.957  32.972  32.625  1.00  0.00     0.074 A 
ATOM     15  C   UNL A   1      38.141  31.678  30.527  1.00  0.00     0.049 A 
ATOM     16  N   UNL A   1      38.927  32.446  33.330  1.00  0.00    -0.248 NA
ATOM     17  C   UNL A   1      37.224  34.040  33.321  1.00  0.00     0.031 C 
ATOM     18  C   UNL A   1      37.798  31.277  29.161  1.00  0.00     0.029 A 
ATOM     19  N   UNL A   1      39.175  30.845  30.869  1.00  0.00    -0.354 N 
ATOM     20  C   UNL A   1      38.941  33.136  34.535  1.00  0.00     0.074 A 
ATOM     21  C   UNL A   1      37.890  34.130  34.464  1.00  0.00     0.031 C 
ATOM     22  C   UNL A   1      38.566  30.238  28.803  1.00  0.00     0.029 A 
ATOM     23  C   UNL A   1      39.489  29.936  29.891  1.00  0.00     0.049 A 
ATOM     24  H   UNL A   1      39.646  30.895  31.732  1.00  0.00     0.167 HD
ATOM     25  C   UNL A   1      39.755  32.951  35.601  1.00  0.00     0.037 A 
ATOM     26  C   UNL A   1      40.421  28.967  29.871  1.00  0.00     0.037 A 
ATOM     27  C   UNL A   1      40.775  31.937  35.678  1.00  0.00     0.049 A 
ATOM     28  C   UNL A   1      41.301  28.779  31.072  1.00  0.00     0.074 A 
ATOM     29  C   UNL A   1      41.621  31.638  36.732  1.00  0.00     0.029 A 
ATOM     30  N   UNL A   1      41.087  31.053  34.654  1.00  0.00    -0.354 N 
ATOM     31  N   UNL A   1      41.287  29.422  32.215  1.00  0.00    -0.248 NA
ATOM     32  C   UNL A   1      42.331  27.737  30.977  1.00  0.00     0.031 C 
ATOM     33  C   UNL A   1      42.468  30.598  36.335  1.00  0.00     0.029 A 
ATOM     34  C   UNL A   1      42.124  30.221  35.046  1.00  0.00     0.049 A 
ATOM     35  H   UNL A   1      40.637  31.020  33.780  1.00  0.00     0.167 HD
ATOM     36  C   UNL A   1      42.296  28.856  32.980  1.00  0.00     0.074 A 
ATOM     37  C   UNL A   1      42.888  27.804  32.178  1.00  0.00     0.031 C 
ATOM     38  C   UNL A   1      42.699  29.183  34.232  1.00  0.00     0.037 A 
BRANCH  25  39
ATOM     39  C   UNL A   1      39.596  33.879  36.770  1.00  0.00     0.064 A 
ATOM     40  C   UNL A   1      38.810  33.540  37.881  1.00  0.00     0.173 A 
ATOM     41  C   UNL A   1      40.275  35.107  36.796  1.00  0.00     0.173 A 
ATOM     42  F   UNL A   1      38.129  32.385  37.900  1.00  0.00    -0.203 F 
ATOM     43  C   UNL A   1      38.696  34.405  38.968  1.00  0.00     0.198 A 
ATOM     44  C   UNL A   1      40.177  35.958  37.893  1.00  0.00     0.198 A 
ATOM     45  F   UNL A   1      41.042  35.476  35.759  1.00  0.00    -0.203 F 
ATOM     46  F   UNL A   1      37.911  34.078  40.003  1.00  0.00    -0.200 F 
ATOM     47  C   UNL A   1      39.384  35.610  38.975  1.00  0.00     0.200 A 
ATOM     48  F   UNL A   1      40.851  37.117  37.903  1.00  0.00    -0.200 F 
ATOM     49  F   UNL A   1      39.278  36.437  40.024  1.00  0.00    -0.200 F 
ENDBRANCH  25  39
BRANCH  26  50
ATOM     50  C   UNL A   1      40.547  28.093  28.679  1.00  0.00     0.064 A 
ATOM     51  C   UNL A   1      39.867  26.870  28.611  1.00  0.00     0.173 A 
ATOM     52  C   UNL A   1      41.318  28.477  27.573  1.00  0.00     0.173 A 
ATOM     53  F   UNL A   1      39.130  26.455  29.652  1.00  0.00    -0.203 F 
ATOM     54  C   UNL A   1      39.961  26.059  27.483  1.00  0.00     0.198 A 
ATOM     55  C   UNL A   1      41.390  27.677  26.436  1.00  0.00     0.198 A 
ATOM     56  F   UNL A   1      41.981  29.643  27.589  1.00  0.00    -0.203 F 
ATOM     57  F   UNL A   1      39.325  24.880  27.454  1.00  0.00    -0.200 F 
ATOM     58  C   UNL A   1      40.715  26.467  26.393  1.00  0.00     0.200 A 
ATOM     59  F   UNL A   1      42.106  28.083  25.379  1.00  0.00    -0.200 F 
ATOM     60  F   UNL A   1      40.794  25.692  25.303  1.00  0.00    -0.200 F 
ENDBRANCH  26  50
BRANCH  38  61
ATOM     61  C   UNL A   1      43.821  28.376  34.811  1.00  0.00     0.064 A 
ATOM     62  C   UNL A   1      43.582  27.171  35.489  1.00  0.00     0.173 A 
ATOM     63  C   UNL A   1      45.149  28.805  34.675  1.00  0.00     0.173 A 
ATOM     64  F   UNL A   1      42.326  26.732  35.659  1.00  0.00    -0.203 F 
ATOM     65  C   UNL A   1      44.631  26.438  36.033  1.00  0.00     0.198 A 
ATOM     66  C   UNL A   1      46.199  28.056  35.200  1.00  0.00     0.198 A 
ATOM     67  F   UNL A   1      45.429  29.948  34.032  1.00  0.00    -0.203 F 
ATOM     68  F   UNL A   1      44.377  25.315  36.718  1.00  0.00    -0.200 F 
ATOM     69  C   UNL A   1      45.939  26.879  35.884  1.00  0.00     0.200 A 
ATOM     70  F   UNL A   1      47.462  28.479  35.049  1.00  0.00    -0.200 F 
ATOM     71  F   UNL A   1      46.948  26.172  36.411  1.00  0.00    -0.200 F 
ENDBRANCH  38  61
ENDBRANCH  12  13
ENDBRANCH   5   7
ENDBRANCH   2   3
ENDBRANCH   1   2
BRANCH   1  72
ATOM     72  C   UNL A   1      31.963  30.492  26.822  1.00  0.00     0.023 C 
BRANCH  72  73
ATOM     73  C   UNL A   1      32.733  30.035  25.584  1.00  0.00     0.116 C 
BRANCH  73  74
ATOM     74  N   UNL A   1      31.851  29.764  24.475  1.00  0.00    -0.356 N 
ATOM     75  C   UNL A   1      31.118  28.679  24.141  1.00  0.00     0.227 C 
ATOM     76  H   UNL A   1      31.766  30.512  23.841  1.00  0.00     0.163 HD
ATOM     77  O   UNL A   1      30.490  28.772  23.077  1.00  0.00    -0.274 OA
BRANCH  75  78
ATOM     78  C   UNL A   1      31.043  27.361  24.923  1.00  0.00     0.103 C 
ATOM     79  C   UNL A   1      29.962  26.471  24.374  1.00  0.00    -0.016 C 
ATOM     80  C   UNL A   1      32.204  26.388  25.149  1.00  0.00     0.047 C 
ATOM     81  C   UNL A   1      30.260  25.174  24.515  1.00  0.00    -0.006 C 
ATOM     82  C   UNL A   1      31.601  24.977  25.119  1.00  0.00     0.106 C 
BRANCH  82  83
ATOM     83  N   UNL A   1      31.572  24.270  26.386  1.00  0.00    -0.346 N 
ATOM     84  C   UNL A   1      32.314  23.258  26.932  1.00  0.00     0.253 C 
ATOM     85  H   UNL A   1      30.860  24.588  26.986  1.00  0.00     0.164 HD
ATOM     86  O   UNL A   1      31.945  22.708  27.965  1.00  0.00    -0.269 OA
BRANCH  84  87
ATOM     87  C   UNL A   1      33.536  22.771  26.287  1.00  0.00     0.061 A 
ATOM     88  C   UNL A   1      34.703  23.526  26.456  1.00  0.00     0.056 A 
ATOM     89  C   UNL A   1      33.534  21.644  25.457  1.00  0.00     0.055 A 
ATOM     90  C   UNL A   1      35.885  23.085  25.869  1.00  0.00     0.142 A 
ATOM     91  C   UNL A   1      34.731  21.204  24.885  1.00  0.00     0.045 A 
ATOM     92  Cl  UNL A   1      32.089  20.777  25.076  1.00  0.00    -0.083 Cl
ATOM     93  F   UNL A   1      37.005  23.794  26.072  1.00  0.00    -0.205 F 
ATOM     94  C   UNL A   1      35.909  21.919  25.104  1.00  0.00     0.078 A 
ATOM     95  Cl  UNL A   1      37.380  21.354  24.413  1.00  0.00    -0.081 Cl
ENDBRANCH  84  87
ENDBRANCH  82  83
ENDBRANCH  75  78
ENDBRANCH  73  74
ENDBRANCH  72  73
ENDBRANCH   1  72
TORSDOF 13
ENDMDL
MODEL 3
REMARK VINA RESULT:     -13.2      0.425      7.197
REMARK SMILES O=C(NCCCCNC(=O)[C@H]1C=C[C@H](NC(=O)c2cc(F)c(Cl)cc2Cl)C1)c1ccc(-c2c3nc(c(-c4c(F)c(F)c(F)c(F)c4F)c4ccc([nH]4)c(-c4c(F)c(F)c(F)c(F)c4F)c4nc(c(-c5c(F)c(F)c(F)c(F)c5F)c5ccc2[nH]5)C=C4)C=C3)cc1
REMARK SMILES IDX 5 1 4 2 3 3 1 4 2 5 28 7 29 8 90 9 30 10 89 11 31 12 32 13
REMARK SMILES IDX 33 14 83 15 34 16 88 17 82 18 84 19 35 20 87 21 81 22 80 23
REMARK SMILES IDX 36 25 68 26 48 27 67 28 49 29 52 30 66 31 85 32 50 33 51 34
REMARK SMILES IDX 65 36 86 37 53 38 37 39 38 40 46 41 39 42 40 43 44 44 47 45
REMARK SMILES IDX 41 46 42 47 45 48 43 49 69 50 70 51 78 52 71 53 72 54 76 55
REMARK SMILES IDX 79 56 73 57 74 58 77 59 75 60 54 61 55 62 63 63 56 64 57 65
REMARK SMILES IDX 61 66 64 67 58 68 59 69 62 70 60 71 6 72 7 73 8 74 9 75
REMARK SMILES IDX 10 77 11 78 12 79 27 80 13 81 14 82 15 83 16 84 17 86 18 87
REMARK SMILES IDX 19 88 25 89 20 90 24 91 26 92 21 93 22 94 23 95
REMARK H PARENT 3 6 84 24 52 35 8 76 15 85
REMARK Flexibility Score: inf
ROOT
ATOM      1  C   UNL A   1      31.590  32.007  26.821  1.00  0.00     0.023 C 
ENDROOT
BRANCH   1   2
ATOM      2  C   UNL A   1      32.768  32.838  27.313  1.00  0.00     0.116 C 
BRANCH   2   3
ATOM      3  N   UNL A   1      32.418  34.209  27.648  1.00  0.00    -0.352 N 
ATOM      4  O   UNL A   1      32.528  36.123  28.853  1.00  0.00    -0.269 OA
ATOM      5  C   UNL A   1      32.983  35.010  28.612  1.00  0.00     0.251 C 
ATOM      6  H   UNL A   1      31.690  34.613  27.122  1.00  0.00     0.163 HD
BRANCH   5   7
ATOM      7  C   UNL A   1      34.114  34.478  29.395  1.00  0.00     0.039 A 
ATOM      8  C   UNL A   1      35.418  34.592  28.913  1.00  0.00     0.014 A 
ATOM      9  C   UNL A   1      33.850  33.798  30.586  1.00  0.00     0.014 A 
ATOM     10  C   UNL A   1      36.441  33.897  29.542  1.00  0.00     0.010 A 
ATOM     11  C   UNL A   1      34.894  33.164  31.260  1.00  0.00     0.010 A 
ATOM     12  C   UNL A   1      36.189  33.173  30.720  1.00  0.00    -0.014 A 
BRANCH  12  13
ATOM     13  C   UNL A   1      37.307  32.455  31.375  1.00  0.00     0.031 A 
ATOM     14  C   UNL A   1      38.068  31.381  30.649  1.00  0.00     0.074 A 
ATOM     15  C   UNL A   1      37.663  32.817  32.621  1.00  0.00     0.049 A 
ATOM     16  N   UNL A   1      39.099  30.684  31.056  1.00  0.00    -0.248 NA
ATOM     17  C   UNL A   1      37.609  31.038  29.295  1.00  0.00     0.031 C 
ATOM     18  C   UNL A   1      36.990  33.843  33.420  1.00  0.00     0.029 A 
ATOM     19  N   UNL A   1      38.690  32.391  33.422  1.00  0.00    -0.354 N 
ATOM     20  C   UNL A   1      39.392  29.802  30.024  1.00  0.00     0.074 A 
ATOM     21  C   UNL A   1      38.423  30.041  28.975  1.00  0.00     0.031 C 
ATOM     22  C   UNL A   1      37.656  34.009  34.571  1.00  0.00     0.029 A 
ATOM     23  C   UNL A   1      38.768  33.066  34.614  1.00  0.00     0.049 A 
ATOM     24  H   UNL A   1      39.311  31.672  33.166  1.00  0.00     0.167 HD
ATOM     25  C   UNL A   1      40.384  28.880  29.961  1.00  0.00     0.037 A 
ATOM     26  C   UNL A   1      39.637  32.935  35.632  1.00  0.00     0.037 A 
ATOM     27  C   UNL A   1      41.365  28.673  30.994  1.00  0.00     0.049 A 
ATOM     28  C   UNL A   1      40.731  31.914  35.528  1.00  0.00     0.074 A 
ATOM     29  C   UNL A   1      42.438  27.797  31.005  1.00  0.00     0.029 A 
ATOM     30  N   UNL A   1      41.395  29.353  32.203  1.00  0.00    -0.354 N 
ATOM     31  N   UNL A   1      41.013  31.103  34.536  1.00  0.00    -0.248 NA
ATOM     32  C   UNL A   1      41.623  31.783  36.687  1.00  0.00     0.031 C 
ATOM     33  C   UNL A   1      43.094  27.921  32.234  1.00  0.00     0.029 A 
ATOM     34  C   UNL A   1      42.454  28.903  32.974  1.00  0.00     0.049 A 
ATOM     35  H   UNL A   1      40.757  30.052  32.473  1.00  0.00     0.167 HD
ATOM     36  C   UNL A   1      42.121  30.375  34.946  1.00  0.00     0.074 A 
ATOM     37  C   UNL A   1      42.471  30.855  36.267  1.00  0.00     0.031 C 
ATOM     38  C   UNL A   1      42.783  29.393  34.288  1.00  0.00     0.037 A 
BRANCH  25  39
ATOM     39  C   UNL A   1      40.448  28.007  28.742  1.00  0.00     0.064 A 
ATOM     40  C   UNL A   1      41.187  28.372  27.609  1.00  0.00     0.173 A 
ATOM     41  C   UNL A   1      39.794  26.765  28.728  1.00  0.00     0.173 A 
ATOM     42  F   UNL A   1      41.819  29.554  27.566  1.00  0.00    -0.203 F 
ATOM     43  C   UNL A   1      41.255  27.535  26.497  1.00  0.00     0.198 A 
ATOM     44  C   UNL A   1      39.882  25.920  27.624  1.00  0.00     0.198 A 
ATOM     45  F   UNL A   1      39.076  26.368  29.788  1.00  0.00    -0.203 F 
ATOM     46  F   UNL A   1      41.937  27.920  25.410  1.00  0.00    -0.200 F 
ATOM     47  C   UNL A   1      40.608  26.308  26.508  1.00  0.00     0.200 A 
ATOM     48  F   UNL A   1      39.265  24.731  27.641  1.00  0.00    -0.200 F 
ATOM     49  F   UNL A   1      40.679  25.501  25.441  1.00  0.00    -0.200 F 
ENDBRANCH  25  39
BRANCH  26  50
ATOM     50  C   UNL A   1      39.512  33.813  36.821  1.00  0.00     0.064 A 
ATOM     51  C   UNL A   1      40.103  35.082  36.841  1.00  0.00     0.173 A 
ATOM     52  C   UNL A   1      38.772  33.416  37.944  1.00  0.00     0.173 A 
ATOM     53  F   UNL A   1      40.833  35.498  35.795  1.00  0.00    -0.203 F 
ATOM     54  C   UNL A   1      39.966  35.920  37.944  1.00  0.00     0.198 A 
ATOM     55  C   UNL A   1      38.615  34.265  39.036  1.00  0.00     0.198 A 
ATOM     56  F   UNL A   1      38.182  32.212  37.968  1.00  0.00    -0.203 F 
ATOM     57  F   UNL A   1      40.566  37.119  37.951  1.00  0.00    -0.200 F 
ATOM     58  C   UNL A   1      39.215  35.515  39.038  1.00  0.00     0.200 A 
ATOM     59  F   UNL A   1      37.874  33.876  40.082  1.00  0.00    -0.200 F 
ATOM     60  F   UNL A   1      39.072  36.327  40.093  1.00  0.00    -0.200 F 
ENDBRANCH  26  50
BRANCH  38  61
ATOM     61  C   UNL A   1      43.965  28.792  34.986  1.00  0.00     0.064 A 
ATOM     62  C   UNL A   1      45.255  29.319  34.827  1.00  0.00     0.173 A 
ATOM     63  C   UNL A   1      43.803  27.686  35.834  1.00  0.00     0.173 A 
ATOM     64  F   UNL A   1      45.460  30.365  34.012  1.00  0.00    -0.203 F 
ATOM     65  C   UNL A   1      46.345  28.744  35.472  1.00  0.00     0.198 A 
ATOM     66  C   UNL A   1      44.893  27.128  36.495  1.00  0.00     0.198 A 
ATOM     67  F   UNL A   1      42.588  27.149  36.020  1.00  0.00    -0.203 F 
ATOM     68  F   UNL A   1      47.576  29.233  35.268  1.00  0.00    -0.200 F 
ATOM     69  C   UNL A   1      46.163  27.652  36.308  1.00  0.00     0.200 A 
ATOM     70  F   UNL A   1      44.714  26.078  37.309  1.00  0.00    -0.200 F 
ATOM     71  F   UNL A   1      47.215  27.098  36.926  1.00  0.00    -0.200 F 
ENDBRANCH  38  61
ENDBRANCH  12  13
ENDBRANCH   5   7
ENDBRANCH   2   3
ENDBRANCH   1   2
BRANCH   1  72
ATOM     72  C   UNL A   1      31.854  30.500  26.749  1.00  0.00     0.023 C 
BRANCH  72  73
ATOM     73  C   UNL A   1      32.568  30.046  25.476  1.00  0.00     0.116 C 
BRANCH  73  74
ATOM     74  N   UNL A   1      31.636  29.769  24.410  1.00  0.00    -0.356 N 
ATOM     75  C   UNL A   1      30.902  28.676  24.106  1.00  0.00     0.227 C 
ATOM     76  H   UNL A   1      31.511  30.519  23.786  1.00  0.00     0.163 HD
ATOM     77  O   UNL A   1      30.222  28.766  23.075  1.00  0.00    -0.274 OA
BRANCH  75  78
ATOM     78  C   UNL A   1      30.882  27.353  24.884  1.00  0.00     0.103 C 
ATOM     79  C   UNL A   1      29.900  26.389  24.278  1.00  0.00    -0.016 C 
ATOM     80  C   UNL A   1      32.097  26.467  25.172  1.00  0.00     0.047 C 
ATOM     81  C   UNL A   1      30.283  25.117  24.436  1.00  0.00    -0.006 C 
ATOM     82  C   UNL A   1      31.601  25.015  25.110  1.00  0.00     0.106 C 
BRANCH  82  83
ATOM     83  N   UNL A   1      31.557  24.304  26.374  1.00  0.00    -0.346 N 
ATOM     84  C   UNL A   1      32.287  23.284  26.922  1.00  0.00     0.253 C 
ATOM     85  H   UNL A   1      30.842  24.626  26.969  1.00  0.00     0.164 HD
ATOM     86  O   UNL A   1      31.906  22.733  27.950  1.00  0.00    -0.269 OA
BRANCH  84  87
ATOM     87  C   UNL A   1      33.510  22.791  26.285  1.00  0.00     0.061 A 
ATOM     88  C   UNL A   1      34.682  23.534  26.467  1.00  0.00     0.056 A 
ATOM     89  C   UNL A   1      33.505  21.668  25.448  1.00  0.00     0.055 A 
ATOM     90  C   UNL A   1      35.865  23.087  25.887  1.00  0.00     0.142 A 
ATOM     91  C   UNL A   1      34.703  21.221  24.884  1.00  0.00     0.045 A 
ATOM     92  Cl  UNL A   1      32.057  20.816  25.051  1.00  0.00    -0.083 Cl
ATOM     93  F   UNL A   1      36.989  23.785  26.104  1.00  0.00    -0.205 F 
ATOM     94  C   UNL A   1      35.885  21.925  25.117  1.00  0.00     0.078 A 
ATOM     95  Cl  UNL A   1      37.357  21.351  24.434  1.00  0.00    -0.081 Cl
ENDBRANCH  84  87
ENDBRANCH  82  83
ENDBRANCH  75  78
ENDBRANCH  73  74
ENDBRANCH  72  73
ENDBRANCH   1  72
TORSDOF 13
ENDMDL
