MODEL 1
REMARK VINA RESULT:     -12.0      0.000      0.000
REMARK SMILES CC(C)[C@H](C)CNC(=O)N1CC(n2cc(C(=O)NCCCCNC(=O)c3ccc(-c4c5nc(c(-c6c(F)c(F)c(F)c(F)c6F)c6ccc([nH]6)c(-c6c(F)c(F)c(F)c(F)c6F)c6nc(c(-c7c(F)c(F)c(F)c(F)c7F)c7ccc4[nH]7)C=C6)C=C5)cc3)nn2)C1
REMARK SMILES IDX 19 1 18 2 16 3 17 4 15 6 13 7 14 8 90 9 89 10 12 11 7 12
REMARK SMILES IDX 8 13 9 15 10 16 11 17 91 18 6 19 4 20 5 21 2 22 1 23 3 24
REMARK SMILES IDX 20 25 21 26 22 27 23 28 24 29 25 31 26 32 27 33 88 34 28 35
REMARK SMILES IDX 87 36 29 37 30 38 31 39 81 40 32 41 86 42 80 43 82 44 33 45
REMARK SMILES IDX 85 46 79 47 78 48 34 50 66 51 46 52 65 53 47 54 50 55 64 56
REMARK SMILES IDX 83 57 48 58 49 59 63 61 84 62 51 63 35 64 36 65 44 66 37 67
REMARK SMILES IDX 38 68 42 69 45 70 39 71 40 72 43 73 41 74 67 75 68 76 76 77
REMARK SMILES IDX 69 78 70 79 74 80 77 81 71 82 72 83 75 84 73 85 52 86 53 87
REMARK SMILES IDX 61 88 54 89 55 90 59 91 62 92 56 93 57 94 60 95 58 96
REMARK H PARENT 18 5 7 14 23 30 82 49 50 60
REMARK Flexibility Score: inf
ROOT
ATOM      1  C   UNL A   1      41.445  28.372  35.274  1.00  0.00     0.116 C 
ENDROOT
BRANCH   1   2
ATOM      2  N   UNL A   1      41.984  28.358  33.929  1.00  0.00    -0.351 N 
ATOM      3  C   UNL A   1      41.390  28.514  32.697  1.00  0.00     0.273 C 
ATOM      4  O   UNL A   1      42.152  28.575  31.730  1.00  0.00    -0.267 OA
ATOM      5  H   UNL A   1      42.956  28.210  33.889  1.00  0.00     0.163 HD
BRANCH   3   6
ATOM      6  C   UNL A   1      39.942  28.633  32.544  1.00  0.00     0.170 A 
ATOM      7  N   UNL A   1      37.882  29.129  32.049  1.00  0.00    -0.245 N 
ATOM      8  C   UNL A   1      39.163  29.599  31.937  1.00  0.00     0.145 A 
ATOM      9  N   UNL A   1      37.846  27.982  32.737  1.00  0.00    -0.066 NA
ATOM     10  N   UNL A   1      39.093  27.682  33.075  1.00  0.00    -0.125 NA
BRANCH   7  11
ATOM     11  C   UNL A   1      36.761  29.747  31.414  1.00  0.00     0.148 C 
ATOM     12  N   UNL A   1      34.231  33.077  31.446  1.00  0.00    -0.338 N 
ATOM     13  C   UNL A   1      35.006  32.340  30.611  1.00  0.00     0.317 C 
ATOM     14  H   UNL A   1      33.357  33.340  31.078  1.00  0.00     0.165 HD
ATOM     15  O   UNL A   1      34.727  32.318  29.414  1.00  0.00    -0.249 OA
ATOM     16  N   UNL A   1      36.057  31.651  31.124  1.00  0.00    -0.320 N 
ATOM     17  C   UNL A   1      37.059  30.863  30.406  1.00  0.00     0.150 C 
ATOM     18  C   UNL A   1      36.165  30.839  32.325  1.00  0.00     0.150 C 
BRANCH  12  19
ATOM     19  C   UNL A   1      34.490  33.538  32.801  1.00  0.00     0.121 C 
BRANCH  19  20
ATOM     20  C   UNL A   1      33.761  34.858  33.147  1.00  0.00     0.008 C 
ATOM     21  C   UNL A   1      34.788  35.942  33.513  1.00  0.00     0.010 C 
BRANCH  20  22
ATOM     22  C   UNL A   1      32.707  35.305  32.064  1.00  0.00    -0.013 C 
ATOM     23  C   UNL A   1      31.343  35.731  32.622  1.00  0.00     0.008 C 
ATOM     24  C   UNL A   1      33.185  36.385  31.084  1.00  0.00     0.008 C 
ENDBRANCH  20  22
ENDBRANCH  19  20
ENDBRANCH  12  19
ENDBRANCH   7  11
ENDBRANCH   3   6
ENDBRANCH   1   2
BRANCH   1  25
ATOM     25  C   UNL A   1      41.834  27.117  36.060  1.00  0.00     0.023 C 
BRANCH  25  26
ATOM     26  C   UNL A   1      41.445  25.780  35.406  1.00  0.00     0.023 C 
BRANCH  26  27
ATOM     27  C   UNL A   1      41.959  24.533  36.120  1.00  0.00     0.116 C 
BRANCH  27  28
ATOM     28  N   UNL A   1      43.150  24.779  36.932  1.00  0.00    -0.352 N 
ATOM     29  C   UNL A   1      44.479  24.658  36.557  1.00  0.00     0.251 C 
ATOM     30  H   UNL A   1      42.988  25.065  37.861  1.00  0.00     0.163 HD
ATOM     31  O   UNL A   1      45.357  24.487  37.384  1.00  0.00    -0.269 OA
BRANCH  29  32
ATOM     32  C   UNL A   1      44.815  24.766  35.125  1.00  0.00     0.039 A 
ATOM     33  C   UNL A   1      44.981  23.636  34.321  1.00  0.00     0.014 A 
ATOM     34  C   UNL A   1      44.929  26.046  34.591  1.00  0.00     0.014 A 
ATOM     35  C   UNL A   1      45.177  23.814  32.953  1.00  0.00     0.010 A 
ATOM     36  C   UNL A   1      44.963  26.218  33.232  1.00  0.00     0.010 A 
ATOM     37  C   UNL A   1      45.141  25.111  32.412  1.00  0.00    -0.014 A 
BRANCH  37  38
ATOM     38  C   UNL A   1      45.127  25.326  30.969  1.00  0.00     0.031 A 
ATOM     39  C   UNL A   1      46.199  26.248  30.507  1.00  0.00     0.074 A 
ATOM     40  C   UNL A   1      44.375  24.587  30.120  1.00  0.00     0.049 A 
ATOM     41  N   UNL A   1      46.052  27.443  30.046  1.00  0.00    -0.248 NA
ATOM     42  C   UNL A   1      47.605  25.876  30.741  1.00  0.00     0.031 C 
ATOM     43  C   UNL A   1      43.533  23.430  30.452  1.00  0.00     0.029 A 
ATOM     44  N   UNL A   1      44.275  24.640  28.758  1.00  0.00    -0.354 N 
ATOM     45  C   UNL A   1      47.330  27.873  29.691  1.00  0.00     0.074 A 
ATOM     46  C   UNL A   1      48.247  26.978  30.340  1.00  0.00     0.031 C 
ATOM     47  C   UNL A   1      43.206  22.758  29.327  1.00  0.00     0.029 A 
ATOM     48  C   UNL A   1      43.653  23.531  28.184  1.00  0.00     0.049 A 
ATOM     49  H   UNL A   1      44.613  25.398  28.227  1.00  0.00     0.167 HD
ATOM     50  C   UNL A   1      47.488  28.717  28.633  1.00  0.00     0.037 A 
ATOM     51  C   UNL A   1      43.504  23.268  26.863  1.00  0.00     0.037 A 
ATOM     52  C   UNL A   1      46.210  29.263  28.245  1.00  0.00     0.049 A 
ATOM     53  C   UNL A   1      43.646  24.551  26.142  1.00  0.00     0.074 A 
ATOM     54  C   UNL A   1      45.339  30.217  28.720  1.00  0.00     0.029 A 
ATOM     55  N   UNL A   1      45.504  28.441  27.407  1.00  0.00    -0.354 N 
ATOM     56  N   UNL A   1      42.780  25.520  26.237  1.00  0.00    -0.248 NA
ATOM     57  C   UNL A   1      44.945  24.919  25.590  1.00  0.00     0.031 C 
ATOM     58  C   UNL A   1      44.045  29.842  28.250  1.00  0.00     0.029 A 
ATOM     59  C   UNL A   1      44.165  28.706  27.452  1.00  0.00     0.049 A 
ATOM     60  H   UNL A   1      45.912  27.744  26.843  1.00  0.00     0.167 HD
ATOM     61  C   UNL A   1      43.551  26.663  26.189  1.00  0.00     0.074 A 
ATOM     62  C   UNL A   1      44.823  26.249  25.609  1.00  0.00     0.031 C 
ATOM     63  C   UNL A   1      43.214  27.751  26.937  1.00  0.00     0.037 A 
BRANCH  50  64
ATOM     64  C   UNL A   1      48.621  28.659  27.621  1.00  0.00     0.064 A 
ATOM     65  C   UNL A   1      48.849  27.445  26.933  1.00  0.00     0.173 A 
ATOM     66  C   UNL A   1      49.672  29.597  27.541  1.00  0.00     0.173 A 
ATOM     67  F   UNL A   1      47.927  26.470  26.942  1.00  0.00    -0.203 F 
ATOM     68  C   UNL A   1      50.063  27.165  26.297  1.00  0.00     0.198 A 
ATOM     69  C   UNL A   1      50.864  29.333  26.865  1.00  0.00     0.198 A 
ATOM     70  F   UNL A   1      49.648  30.759  28.199  1.00  0.00    -0.203 F 
ATOM     71  F   UNL A   1      50.276  25.953  25.768  1.00  0.00    -0.200 F 
ATOM     72  C   UNL A   1      51.074  28.107  26.272  1.00  0.00     0.200 A 
ATOM     73  F   UNL A   1      51.841  30.251  26.873  1.00  0.00    -0.200 F 
ATOM     74  F   UNL A   1      52.261  27.822  25.720  1.00  0.00    -0.200 F 
ENDBRANCH  50  64
BRANCH  51  75
ATOM     75  C   UNL A   1      43.438  21.975  26.142  1.00  0.00     0.064 A 
ATOM     76  C   UNL A   1      44.599  21.339  25.671  1.00  0.00     0.173 A 
ATOM     77  C   UNL A   1      42.268  21.196  26.182  1.00  0.00     0.173 A 
ATOM     78  F   UNL A   1      45.764  22.002  25.633  1.00  0.00    -0.203 F 
ATOM     79  C   UNL A   1      44.599  19.988  25.305  1.00  0.00     0.198 A 
ATOM     80  C   UNL A   1      42.269  19.848  25.817  1.00  0.00     0.198 A 
ATOM     81  F   UNL A   1      41.128  21.704  26.673  1.00  0.00    -0.203 F 
ATOM     82  F   UNL A   1      45.742  19.397  24.927  1.00  0.00    -0.200 F 
ATOM     83  C   UNL A   1      43.438  19.240  25.395  1.00  0.00     0.200 A 
ATOM     84  F   UNL A   1      41.147  19.124  25.944  1.00  0.00    -0.200 F 
ATOM     85  F   UNL A   1      43.453  17.928  25.119  1.00  0.00    -0.200 F 
ENDBRANCH  51  75
BRANCH  63  86
ATOM     86  C   UNL A   1      41.784  27.872  27.361  1.00  0.00     0.064 A 
ATOM     87  C   UNL A   1      41.233  27.277  28.506  1.00  0.00     0.173 A 
ATOM     88  C   UNL A   1      40.950  28.691  26.588  1.00  0.00     0.173 A 
ATOM     89  F   UNL A   1      41.987  26.541  29.333  1.00  0.00    -0.203 F 
ATOM     90  C   UNL A   1      39.892  27.464  28.838  1.00  0.00     0.198 A 
ATOM     91  C   UNL A   1      39.624  28.907  26.942  1.00  0.00     0.198 A 
ATOM     92  F   UNL A   1      41.439  29.313  25.504  1.00  0.00    -0.203 F 
ATOM     93  F   UNL A   1      39.378  26.871  29.926  1.00  0.00    -0.200 F 
ATOM     94  C   UNL A   1      39.091  28.284  28.059  1.00  0.00     0.200 A 
ATOM     95  F   UNL A   1      38.867  29.733  26.207  1.00  0.00    -0.200 F 
ATOM     96  F   UNL A   1      37.811  28.491  28.395  1.00  0.00    -0.200 F 
ENDBRANCH  63  86
ENDBRANCH  37  38
ENDBRANCH  29  32
ENDBRANCH  27  28
ENDBRANCH  26  27
ENDBRANCH  25  26
ENDBRANCH   1  25
TORSDOF 15
ENDMDL
MODEL 2
REMARK VINA RESULT:     -12.0      5.161     10.312
REMARK SMILES CC(C)[C@H](C)CNC(=O)N1CC(n2cc(C(=O)NCCCCNC(=O)c3ccc(-c4c5nc(c(-c6c(F)c(F)c(F)c(F)c6F)c6ccc([nH]6)c(-c6c(F)c(F)c(F)c(F)c6F)c6nc(c(-c7c(F)c(F)c(F)c(F)c7F)c7ccc4[nH]7)C=C6)C=C5)cc3)nn2)C1
REMARK SMILES IDX 19 1 18 2 16 3 17 4 15 6 13 7 14 8 90 9 89 10 12 11 7 12
REMARK SMILES IDX 8 13 9 15 10 16 11 17 91 18 6 19 4 20 5 21 2 22 1 23 3 24
REMARK SMILES IDX 20 25 21 26 22 27 23 28 24 29 25 31 26 32 27 33 88 34 28 35
REMARK SMILES IDX 87 36 29 37 30 38 31 39 81 40 32 41 86 42 80 43 82 44 33 45
REMARK SMILES IDX 85 46 79 47 78 48 34 50 66 51 46 52 65 53 47 54 50 55 64 56
REMARK SMILES IDX 83 57 48 58 49 59 63 61 84 62 51 63 35 64 36 65 44 66 37 67
REMARK SMILES IDX 38 68 42 69 45 70 39 71 40 72 43 73 41 74 67 75 68 76 76 77
REMARK SMILES IDX 69 78 70 79 74 80 77 81 71 82 72 83 75 84 73 85 52 86 53 87
REMARK SMILES IDX 61 88 54 89 55 90 59 91 62 92 56 93 57 94 60 95 58 96
REMARK H PARENT 18 5 7 14 23 30 82 49 50 60
REMARK Flexibility Score: inf
ROOT
ATOM      1  C   UNL A   1      32.468  29.366  24.643  1.00  0.00     0.116 C 
ENDROOT
BRANCH   1   2
ATOM      2  N   UNL A   1      31.475  28.807  23.750  1.00  0.00    -0.351 N 
ATOM      3  C   UNL A   1      31.376  27.579  23.134  1.00  0.00     0.273 C 
ATOM      4  O   UNL A   1      30.330  27.361  22.521  1.00  0.00    -0.267 OA
ATOM      5  H   UNL A   1      30.732  29.419  23.544  1.00  0.00     0.163 HD
BRANCH   3   6
ATOM      6  C   UNL A   1      32.435  26.578  23.228  1.00  0.00     0.170 A 
ATOM      7  N   UNL A   1      33.846  25.006  23.752  1.00  0.00    -0.245 N 
ATOM      8  C   UNL A   1      32.882  25.815  24.289  1.00  0.00     0.145 A 
ATOM      9  N   UNL A   1      34.044  25.284  22.458  1.00  0.00    -0.066 NA
ATOM     10  N   UNL A   1      33.214  26.264  22.130  1.00  0.00    -0.125 NA
BRANCH   7  11
ATOM     11  C   UNL A   1      34.469  23.941  24.472  1.00  0.00     0.148 C 
ATOM     12  N   UNL A   1      34.264  19.864  25.384  1.00  0.00    -0.338 N 
ATOM     13  C   UNL A   1      35.127  20.810  24.935  1.00  0.00     0.317 C 
ATOM     14  H   UNL A   1      34.641  19.238  26.044  1.00  0.00     0.165 HD
ATOM     15  O   UNL A   1      36.331  20.645  25.122  1.00  0.00    -0.249 OA
ATOM     16  N   UNL A   1      34.634  21.903  24.300  1.00  0.00    -0.320 N 
ATOM     17  C   UNL A   1      35.377  22.997  23.675  1.00  0.00     0.150 C 
ATOM     18  C   UNL A   1      33.496  22.752  24.616  1.00  0.00     0.150 C 
BRANCH  12  19
ATOM     19  C   UNL A   1      32.870  19.631  25.042  1.00  0.00     0.121 C 
BRANCH  19  20
ATOM     20  C   UNL A   1      32.642  18.305  24.280  1.00  0.00     0.008 C 
ATOM     21  C   UNL A   1      32.172  18.599  22.846  1.00  0.00     0.010 C 
BRANCH  20  22
ATOM     22  C   UNL A   1      33.854  17.302  24.370  1.00  0.00    -0.013 C 
ATOM     23  C   UNL A   1      33.698  16.186  25.412  1.00  0.00     0.008 C 
ATOM     24  C   UNL A   1      34.284  16.665  23.042  1.00  0.00     0.008 C 
ENDBRANCH  20  22
ENDBRANCH  19  20
ENDBRANCH  12  19
ENDBRANCH   7  11
ENDBRANCH   3   6
ENDBRANCH   1   2
BRANCH   1  25
ATOM     25  C   UNL A   1      31.840  30.272  25.705  1.00  0.00     0.023 C 
BRANCH  25  26
ATOM     26  C   UNL A   1      32.164  29.904  27.163  1.00  0.00     0.023 C 
BRANCH  26  27
ATOM     27  C   UNL A   1      33.624  30.078  27.569  1.00  0.00     0.116 C 
BRANCH  27  28
ATOM     28  N   UNL A   1      34.169  31.391  27.227  1.00  0.00    -0.352 N 
ATOM     29  C   UNL A   1      35.337  31.977  27.690  1.00  0.00     0.251 C 
ATOM     30  H   UNL A   1      33.641  31.925  26.590  1.00  0.00     0.163 HD
ATOM     31  O   UNL A   1      35.488  33.186  27.673  1.00  0.00    -0.269 OA
BRANCH  29  32
ATOM     32  C   UNL A   1      36.413  31.099  28.184  1.00  0.00     0.039 A 
ATOM     33  C   UNL A   1      36.452  29.737  27.875  1.00  0.00     0.014 A 
ATOM     34  C   UNL A   1      37.415  31.687  28.950  1.00  0.00     0.014 A 
ATOM     35  C   UNL A   1      37.560  28.994  28.275  1.00  0.00     0.010 A 
ATOM     36  C   UNL A   1      38.571  30.997  29.205  1.00  0.00     0.010 A 
ATOM     37  C   UNL A   1      38.630  29.640  28.919  1.00  0.00    -0.014 A 
BRANCH  37  38
ATOM     38  C   UNL A   1      39.892  28.949  29.161  1.00  0.00     0.031 A 
ATOM     39  C   UNL A   1      40.147  28.691  30.603  1.00  0.00     0.074 A 
ATOM     40  C   UNL A   1      40.633  28.395  28.172  1.00  0.00     0.049 A 
ATOM     41  N   UNL A   1      41.042  29.247  31.347  1.00  0.00    -0.248 NA
ATOM     42  C   UNL A   1      39.198  27.851  31.354  1.00  0.00     0.031 C 
ATOM     43  C   UNL A   1      40.292  28.311  26.745  1.00  0.00     0.029 A 
ATOM     44  N   UNL A   1      41.805  27.695  28.235  1.00  0.00    -0.354 N 
ATOM     45  C   UNL A   1      40.933  28.635  32.595  1.00  0.00     0.074 A 
ATOM     46  C   UNL A   1      39.661  27.968  32.603  1.00  0.00     0.031 C 
ATOM     47  C   UNL A   1      41.095  27.415  26.131  1.00  0.00     0.029 A 
ATOM     48  C   UNL A   1      42.122  27.001  27.067  1.00  0.00     0.049 A 
ATOM     49  H   UNL A   1      42.376  27.683  29.037  1.00  0.00     0.167 HD
ATOM     50  C   UNL A   1      42.045  28.468  33.364  1.00  0.00     0.037 A 
ATOM     51  C   UNL A   1      43.163  26.154  26.876  1.00  0.00     0.037 A 
ATOM     52  C   UNL A   1      43.130  29.259  32.837  1.00  0.00     0.049 A 
ATOM     53  C   UNL A   1      44.175  26.463  27.908  1.00  0.00     0.074 A 
ATOM     54  C   UNL A   1      43.489  30.587  32.821  1.00  0.00     0.029 A 
ATOM     55  N   UNL A   1      43.810  28.636  31.824  1.00  0.00    -0.354 N 
ATOM     56  N   UNL A   1      44.847  27.579  27.934  1.00  0.00    -0.248 NA
ATOM     57  C   UNL A   1      44.193  25.688  29.144  1.00  0.00     0.031 C 
ATOM     58  C   UNL A   1      44.299  30.766  31.659  1.00  0.00     0.029 A 
ATOM     59  C   UNL A   1      44.462  29.534  31.029  1.00  0.00     0.049 A 
ATOM     60  H   UNL A   1      43.825  27.661  31.685  1.00  0.00     0.167 HD
ATOM     61  C   UNL A   1      44.983  27.856  29.279  1.00  0.00     0.074 A 
ATOM     62  C   UNL A   1      44.738  26.593  29.963  1.00  0.00     0.031 C 
ATOM     63  C   UNL A   1      44.937  29.144  29.722  1.00  0.00     0.037 A 
BRANCH  50  64
ATOM     64  C   UNL A   1      42.349  27.250  34.222  1.00  0.00     0.064 A 
ATOM     65  C   UNL A   1      42.047  27.306  35.602  1.00  0.00     0.173 A 
ATOM     66  C   UNL A   1      43.203  26.193  33.839  1.00  0.00     0.173 A 
ATOM     67  F   UNL A   1      41.253  28.270  36.090  1.00  0.00    -0.203 F 
ATOM     68  C   UNL A   1      42.625  26.429  36.527  1.00  0.00     0.198 A 
ATOM     69  C   UNL A   1      43.741  25.293  34.759  1.00  0.00     0.198 A 
ATOM     70  F   UNL A   1      43.647  26.048  32.588  1.00  0.00    -0.203 F 
ATOM     71  F   UNL A   1      42.406  26.603  37.838  1.00  0.00    -0.200 F 
ATOM     72  C   UNL A   1      43.480  25.429  36.105  1.00  0.00     0.200 A 
ATOM     73  F   UNL A   1      44.586  24.343  34.331  1.00  0.00    -0.200 F 
ATOM     74  F   UNL A   1      44.086  24.628  36.992  1.00  0.00    -0.200 F 
ENDBRANCH  50  64
BRANCH  51  75
ATOM     75  C   UNL A   1      43.287  24.967  25.997  1.00  0.00     0.064 A 
ATOM     76  C   UNL A   1      44.385  24.807  25.135  1.00  0.00     0.173 A 
ATOM     77  C   UNL A   1      42.493  23.829  26.220  1.00  0.00     0.173 A 
ATOM     78  F   UNL A   1      45.211  25.836  24.895  1.00  0.00    -0.203 F 
ATOM     79  C   UNL A   1      44.696  23.567  24.564  1.00  0.00     0.198 A 
ATOM     80  C   UNL A   1      42.804  22.591  25.652  1.00  0.00     0.198 A 
ATOM     81  F   UNL A   1      41.461  23.875  27.076  1.00  0.00    -0.203 F 
ATOM     82  F   UNL A   1      45.792  23.438  23.803  1.00  0.00    -0.200 F 
ATOM     83  C   UNL A   1      43.916  22.457  24.838  1.00  0.00     0.200 A 
ATOM     84  F   UNL A   1      42.064  21.516  25.954  1.00  0.00    -0.200 F 
ATOM     85  F   UNL A   1      44.256  21.254  24.356  1.00  0.00    -0.200 F 
ENDBRANCH  51  75
BRANCH  63  86
ATOM     86  C   UNL A   1      45.267  30.219  28.736  1.00  0.00     0.064 A 
ATOM     87  C   UNL A   1      44.331  30.877  27.923  1.00  0.00     0.173 A 
ATOM     88  C   UNL A   1      46.601  30.640  28.663  1.00  0.00     0.173 A 
ATOM     89  F   UNL A   1      43.027  30.580  27.990  1.00  0.00    -0.203 F 
ATOM     90  C   UNL A   1      44.725  31.887  27.047  1.00  0.00     0.198 A 
ATOM     91  C   UNL A   1      46.986  31.673  27.816  1.00  0.00     0.198 A 
ATOM     92  F   UNL A   1      47.528  30.068  29.447  1.00  0.00    -0.203 F 
ATOM     93  F   UNL A   1      43.819  32.491  26.263  1.00  0.00    -0.200 F 
ATOM     94  C   UNL A   1      46.051  32.287  27.000  1.00  0.00     0.200 A 
ATOM     95  F   UNL A   1      48.262  32.082  27.807  1.00  0.00    -0.200 F 
ATOM     96  F   UNL A   1      46.427  33.280  26.181  1.00  0.00    -0.200 F 
ENDBRANCH  63  86
ENDBRANCH  37  38
ENDBRANCH  29  32
ENDBRANCH  27  28
ENDBRANCH  26  27
ENDBRANCH  25  26
ENDBRANCH   1  25
TORSDOF 15
ENDMDL
MODEL 3
REMARK VINA RESULT:     -11.7      5.292      9.896
REMARK SMILES CC(C)[C@H](C)CNC(=O)N1CC(n2cc(C(=O)NCCCCNC(=O)c3ccc(-c4c5nc(c(-c6c(F)c(F)c(F)c(F)c6F)c6ccc([nH]6)c(-c6c(F)c(F)c(F)c(F)c6F)c6nc(c(-c7c(F)c(F)c(F)c(F)c7F)c7ccc4[nH]7)C=C6)C=C5)cc3)nn2)C1
REMARK SMILES IDX 19 1 18 2 16 3 17 4 15 6 13 7 14 8 90 9 89 10 12 11 7 12
REMARK SMILES IDX 8 13 9 15 10 16 11 17 91 18 6 19 4 20 5 21 2 22 1 23 3 24
REMARK SMILES IDX 20 25 21 26 22 27 23 28 24 29 25 31 26 32 27 33 88 34 28 35
REMARK SMILES IDX 87 36 29 37 30 38 31 39 81 40 32 41 86 42 80 43 82 44 33 45
REMARK SMILES IDX 85 46 79 47 78 48 34 50 66 51 46 52 65 53 47 54 50 55 64 56
REMARK SMILES IDX 83 57 48 58 49 59 63 61 84 62 51 63 35 64 36 65 44 66 37 67
REMARK SMILES IDX 38 68 42 69 45 70 39 71 40 72 43 73 41 74 67 75 68 76 76 77
REMARK SMILES IDX 69 78 70 79 74 80 77 81 71 82 72 83 75 84 73 85 52 86 53 87
REMARK SMILES IDX 61 88 54 89 55 90 59 91 62 92 56 93 57 94 60 95 58 96
REMARK H PARENT 18 5 7 14 23 30 82 49 50 60
REMARK Flexibility Score: inf
ROOT
ATOM      1  C   UNL A   1      37.220  23.612  25.832  1.00  0.00     0.116 C 
ENDROOT
BRANCH   1   2
ATOM      2  N   UNL A   1      37.281  23.200  24.444  1.00  0.00    -0.351 N 
ATOM      3  C   UNL A   1      36.313  23.102  23.469  1.00  0.00     0.273 C 
ATOM      4  O   UNL A   1      36.712  22.834  22.335  1.00  0.00    -0.267 OA
ATOM      5  H   UNL A   1      38.181  22.942  24.143  1.00  0.00     0.163 HD
BRANCH   3   6
ATOM      6  C   UNL A   1      34.900  23.334  23.753  1.00  0.00     0.170 A 
ATOM      7  N   UNL A   1      32.900  24.092  24.152  1.00  0.00    -0.245 N 
ATOM      8  C   UNL A   1      34.208  24.486  24.071  1.00  0.00     0.145 A 
ATOM      9  N   UNL A   1      32.780  22.772  23.966  1.00  0.00    -0.066 NA
ATOM     10  N   UNL A   1      33.996  22.289  23.755  1.00  0.00    -0.125 NA
BRANCH   7  11
ATOM     11  C   UNL A   1      31.812  25.006  24.310  1.00  0.00     0.148 C 
ATOM     12  N   UNL A   1      30.763  29.047  24.560  1.00  0.00    -0.338 N 
ATOM     13  C   UNL A   1      30.438  27.903  23.906  1.00  0.00     0.317 C 
ATOM     14  H   UNL A   1      29.997  29.591  24.852  1.00  0.00     0.165 HD
ATOM     15  O   UNL A   1      29.297  27.782  23.464  1.00  0.00    -0.249 OA
ATOM     16  N   UNL A   1      31.378  26.935  23.764  1.00  0.00    -0.320 N 
ATOM     17  C   UNL A   1      31.270  25.670  23.038  1.00  0.00     0.150 C 
ATOM     18  C   UNL A   1      32.338  26.398  24.715  1.00  0.00     0.150 C 
BRANCH  12  19
ATOM     19  C   UNL A   1      32.068  29.593  24.898  1.00  0.00     0.121 C 
BRANCH  19  20
ATOM     20  C   UNL A   1      32.237  29.881  26.409  1.00  0.00     0.008 C 
ATOM     21  C   UNL A   1      31.610  28.743  27.231  1.00  0.00     0.010 C 
BRANCH  20  22
ATOM     22  C   UNL A   1      33.713  30.244  26.826  1.00  0.00    -0.013 C 
ATOM     23  C   UNL A   1      33.845  31.455  27.760  1.00  0.00     0.008 C 
ATOM     24  C   UNL A   1      34.535  29.090  27.415  1.00  0.00     0.008 C 
ENDBRANCH  20  22
ENDBRANCH  19  20
ENDBRANCH  12  19
ENDBRANCH   7  11
ENDBRANCH   3   6
ENDBRANCH   1   2
BRANCH   1  25
ATOM     25  C   UNL A   1      38.597  23.590  26.499  1.00  0.00     0.023 C 
BRANCH  25  26
ATOM     26  C   UNL A   1      39.367  22.263  26.381  1.00  0.00     0.023 C 
BRANCH  26  27
ATOM     27  C   UNL A   1      40.684  22.205  27.151  1.00  0.00     0.116 C 
BRANCH  27  28
ATOM     28  N   UNL A   1      41.855  22.464  26.315  1.00  0.00    -0.352 N 
ATOM     29  C   UNL A   1      42.361  23.691  25.912  1.00  0.00     0.251 C 
ATOM     30  H   UNL A   1      42.346  21.671  26.000  1.00  0.00     0.163 HD
ATOM     31  O   UNL A   1      43.062  23.791  24.920  1.00  0.00    -0.269 OA
BRANCH  29  32
ATOM     32  C   UNL A   1      42.051  24.878  26.728  1.00  0.00     0.039 A 
ATOM     33  C   UNL A   1      42.557  25.037  28.021  1.00  0.00     0.014 A 
ATOM     34  C   UNL A   1      41.254  25.861  26.148  1.00  0.00     0.014 A 
ATOM     35  C   UNL A   1      42.322  26.238  28.687  1.00  0.00     0.010 A 
ATOM     36  C   UNL A   1      41.157  27.095  26.735  1.00  0.00     0.010 A 
ATOM     37  C   UNL A   1      41.641  27.273  28.024  1.00  0.00    -0.014 A 
BRANCH  37  38
ATOM     38  C   UNL A   1      41.561  28.612  28.600  1.00  0.00     0.031 A 
ATOM     39  C   UNL A   1      42.659  29.507  28.146  1.00  0.00     0.074 A 
ATOM     40  C   UNL A   1      40.481  29.060  29.282  1.00  0.00     0.049 A 
ATOM     41  N   UNL A   1      43.642  29.953  28.852  1.00  0.00    -0.248 NA
ATOM     42  C   UNL A   1      42.784  29.806  26.709  1.00  0.00     0.031 C 
ATOM     43  C   UNL A   1      39.208  28.357  29.496  1.00  0.00     0.029 A 
ATOM     44  N   UNL A   1      40.240  30.280  29.847  1.00  0.00    -0.354 N 
ATOM     45  C   UNL A   1      44.363  30.796  28.008  1.00  0.00     0.074 A 
ATOM     46  C   UNL A   1      43.931  30.491  26.673  1.00  0.00     0.031 C 
ATOM     47  C   UNL A   1      38.267  29.226  29.924  1.00  0.00     0.029 A 
ATOM     48  C   UNL A   1      38.906  30.500  30.192  1.00  0.00     0.049 A 
ATOM     49  H   UNL A   1      40.948  30.947  29.999  1.00  0.00     0.167 HD
ATOM     50  C   UNL A   1      44.997  31.886  28.525  1.00  0.00     0.037 A 
ATOM     51  C   UNL A   1      38.363  31.644  30.675  1.00  0.00     0.037 A 
ATOM     52  C   UNL A   1      45.044  31.790  29.964  1.00  0.00     0.049 A 
ATOM     53  C   UNL A   1      39.465  32.445  31.248  1.00  0.00     0.074 A 
ATOM     54  C   UNL A   1      45.761  31.080  30.900  1.00  0.00     0.029 A 
ATOM     55  N   UNL A   1      43.903  32.240  30.573  1.00  0.00    -0.354 N 
ATOM     56  N   UNL A   1      40.125  32.088  32.313  1.00  0.00    -0.248 NA
ATOM     57  C   UNL A   1      40.098  33.474  30.431  1.00  0.00     0.031 C 
ATOM     58  C   UNL A   1      44.928  30.995  32.056  1.00  0.00     0.029 A 
ATOM     59  C   UNL A   1      43.752  31.703  31.819  1.00  0.00     0.049 A 
ATOM     60  H   UNL A   1      43.268  32.871  30.162  1.00  0.00     0.167 HD
ATOM     61  C   UNL A   1      41.417  32.501  32.061  1.00  0.00     0.074 A 
ATOM     62  C   UNL A   1      41.307  33.495  31.000  1.00  0.00     0.031 C 
ATOM     63  C   UNL A   1      42.473  31.752  32.487  1.00  0.00     0.037 A 
BRANCH  50  64
ATOM     64  C   UNL A   1      45.094  33.249  27.858  1.00  0.00     0.064 A 
ATOM     65  C   UNL A   1      46.377  33.764  27.561  1.00  0.00     0.173 A 
ATOM     66  C   UNL A   1      44.045  34.192  27.805  1.00  0.00     0.173 A 
ATOM     67  F   UNL A   1      47.456  32.968  27.586  1.00  0.00    -0.203 F 
ATOM     68  C   UNL A   1      46.596  35.125  27.320  1.00  0.00     0.198 A 
ATOM     69  C   UNL A   1      44.261  35.540  27.519  1.00  0.00     0.198 A 
ATOM     70  F   UNL A   1      42.787  33.884  28.137  1.00  0.00    -0.203 F 
ATOM     71  F   UNL A   1      47.846  35.583  27.169  1.00  0.00    -0.200 F 
ATOM     72  C   UNL A   1      45.538  36.014  27.309  1.00  0.00     0.200 A 
ATOM     73  F   UNL A   1      43.224  36.389  27.536  1.00  0.00    -0.200 F 
ATOM     74  F   UNL A   1      45.749  37.326  27.143  1.00  0.00    -0.200 F 
ENDBRANCH  50  64
BRANCH  51  75
ATOM     75  C   UNL A   1      36.998  32.200  30.520  1.00  0.00     0.064 A 
ATOM     76  C   UNL A   1      36.038  32.078  31.540  1.00  0.00     0.173 A 
ATOM     77  C   UNL A   1      36.718  33.128  29.502  1.00  0.00     0.173 A 
ATOM     78  F   UNL A   1      36.245  31.239  32.565  1.00  0.00    -0.203 F 
ATOM     79  C   UNL A   1      34.886  32.872  31.563  1.00  0.00     0.198 A 
ATOM     80  C   UNL A   1      35.568  33.921  29.526  1.00  0.00     0.198 A 
ATOM     81  F   UNL A   1      37.605  33.354  28.523  1.00  0.00    -0.203 F 
ATOM     82  F   UNL A   1      34.028  32.777  32.588  1.00  0.00    -0.200 F 
ATOM     83  C   UNL A   1      34.661  33.805  30.565  1.00  0.00     0.200 A 
ATOM     84  F   UNL A   1      35.380  34.848  28.575  1.00  0.00    -0.200 F 
ATOM     85  F   UNL A   1      33.599  34.620  30.626  1.00  0.00    -0.200 F 
ENDBRANCH  51  75
BRANCH  63  86
ATOM     86  C   UNL A   1      42.233  30.823  33.634  1.00  0.00     0.064 A 
ATOM     87  C   UNL A   1      42.235  31.200  34.986  1.00  0.00     0.173 A 
ATOM     88  C   UNL A   1      41.925  29.491  33.330  1.00  0.00     0.173 A 
ATOM     89  F   UNL A   1      42.449  32.470  35.349  1.00  0.00    -0.203 F 
ATOM     90  C   UNL A   1      41.976  30.269  35.991  1.00  0.00     0.198 A 
ATOM     91  C   UNL A   1      41.630  28.573  34.331  1.00  0.00     0.198 A 
ATOM     92  F   UNL A   1      41.874  29.089  32.051  1.00  0.00    -0.203 F 
ATOM     93  F   UNL A   1      42.001  30.643  37.279  1.00  0.00    -0.200 F 
ATOM     94  C   UNL A   1      41.668  28.958  35.661  1.00  0.00     0.200 A 
ATOM     95  F   UNL A   1      41.293  27.318  34.003  1.00  0.00    -0.200 F 
ATOM     96  F   UNL A   1      41.388  28.069  36.624  1.00  0.00    -0.200 F 
ENDBRANCH  63  86
ENDBRANCH  37  38
ENDBRANCH  29  32
ENDBRANCH  27  28
ENDBRANCH  26  27
ENDBRANCH  25  26
ENDBRANCH   1  25
TORSDOF 15
ENDMDL
