MODEL 1
REMARK VINA RESULT:     -12.5      0.000      0.000
REMARK SMILES Cc1nsc(N[C@H](C)c2cccc(Br)c2)c1C(=O)NCCCCNC(=O)c1ccc(-c2c3nc(c(-c4c(F)c(F)c(F)c(F)c4F)c4ccc([nH]4)c(-c4c(F)c(F)c(F)c(F)c4F)c4nc(c(-c5c(F)c(F)c(F)c(F)c5F)c5ccc2[nH]5)C=C4)C=C3)cc1
REMARK SMILES IDX 21 1 20 2 19 3 17 4 18 5 16 7 1 8 2 9 3 10 4 11 5 12 6 13
REMARK SMILES IDX 7 15 8 16 9 17 10 18 15 19 11 20 13 21 12 22 14 23 22 24
REMARK SMILES IDX 23 25 24 26 25 27 26 29 27 30 28 31 89 32 29 33 88 34 30 35
REMARK SMILES IDX 31 36 32 37 82 38 33 39 87 40 81 41 83 42 34 43 86 44 80 45
REMARK SMILES IDX 79 46 35 48 67 49 47 50 66 51 48 52 51 53 65 54 84 55 49 56
REMARK SMILES IDX 50 57 64 59 85 60 52 61 36 62 37 63 45 64 38 65 39 66 43 67
REMARK SMILES IDX 46 68 40 69 41 70 44 71 42 72 68 73 69 74 77 75 70 76 71 77
REMARK SMILES IDX 75 78 78 79 72 80 73 81 76 82 74 83 53 84 54 85 62 86 55 87
REMARK SMILES IDX 56 88 60 89 63 90 57 91 58 92 61 93 59 94
REMARK H PARENT 19 6 6 14 24 28 83 47 51 58
REMARK Flexibility Score: inf
ROOT
ATOM      1  C   UNL A   1      34.120  29.098  27.520  1.00  0.00     0.023 C 
ENDROOT
BRANCH   1   2
ATOM      2  C   UNL A   1      33.171  28.079  26.893  1.00  0.00     0.116 C 
BRANCH   2   3
ATOM      3  N   UNL A   1      33.756  27.304  25.829  1.00  0.00    -0.352 N 
ATOM      4  C   UNL A   1      33.637  26.016  25.380  1.00  0.00     0.256 C 
ATOM      5  O   UNL A   1      34.160  25.864  24.266  1.00  0.00    -0.269 OA
ATOM      6  H   UNL A   1      34.396  27.827  25.296  1.00  0.00     0.163 HD
BRANCH   4   7
ATOM      7  C   UNL A   1      33.073  24.866  26.115  1.00  0.00     0.097 A 
ATOM      8  C   UNL A   1      30.391  24.904  26.067  1.00  0.00     0.069 C 
ATOM      9  C   UNL A   1      31.734  24.450  26.517  1.00  0.00     0.066 A 
ATOM     10  N   UNL A   1      31.672  23.458  27.409  1.00  0.00    -0.195 NA
ATOM     11  S   UNL A   1      33.173  22.867  27.677  1.00  0.00    -0.018 S 
ATOM     12  C   UNL A   1      33.947  23.818  26.476  1.00  0.00     0.123 A 
BRANCH  12  13
ATOM     13  N   UNL A   1      35.194  23.591  25.964  1.00  0.00    -0.368 N 
ATOM     14  H   UNL A   1      35.895  24.230  26.230  1.00  0.00     0.162 HD
BRANCH  13  15
ATOM     15  C   UNL A   1      35.610  22.513  25.073  1.00  0.00     0.107 C 
ATOM     16  C   UNL A   1      36.604  23.085  24.053  1.00  0.00     0.036 C 
BRANCH  15  17
ATOM     17  C   UNL A   1      34.476  21.793  24.341  1.00  0.00    -0.025 A 
ATOM     18  C   UNL A   1      33.691  22.396  23.342  1.00  0.00     0.006 A 
ATOM     19  C   UNL A   1      34.157  20.477  24.719  1.00  0.00     0.021 A 
ATOM     20  C   UNL A   1      32.545  21.766  22.847  1.00  0.00     0.002 A 
ATOM     21  C   UNL A   1      33.041  19.830  24.184  1.00  0.00     0.018 A 
ATOM     22  C   UNL A   1      32.212  20.484  23.276  1.00  0.00     0.016 A 
ATOM     23  Br  UNL A   1      32.638  18.061  24.713  1.00  0.00    -0.051 Br
ENDBRANCH  15  17
ENDBRANCH  13  15
ENDBRANCH  12  13
ENDBRANCH   4   7
ENDBRANCH   2   3
ENDBRANCH   1   2
BRANCH   1  24
ATOM     24  C   UNL A   1      33.820  30.569  27.200  1.00  0.00     0.023 C 
BRANCH  24  25
ATOM     25  C   UNL A   1      34.914  31.557  27.597  1.00  0.00     0.116 C 
BRANCH  25  26
ATOM     26  N   UNL A   1      34.622  32.297  28.832  1.00  0.00    -0.352 N 
ATOM     27  C   UNL A   1      35.075  32.036  30.119  1.00  0.00     0.251 C 
ATOM     28  H   UNL A   1      34.029  33.078  28.735  1.00  0.00     0.163 HD
ATOM     29  O   UNL A   1      34.489  32.442  31.105  1.00  0.00    -0.269 OA
BRANCH  27  30
ATOM     30  C   UNL A   1      36.336  31.289  30.258  1.00  0.00     0.039 A 
ATOM     31  C   UNL A   1      36.406  29.894  30.355  1.00  0.00     0.014 A 
ATOM     32  C   UNL A   1      37.486  32.066  30.235  1.00  0.00     0.014 A 
ATOM     33  C   UNL A   1      37.663  29.291  30.377  1.00  0.00     0.010 A 
ATOM     34  C   UNL A   1      38.682  31.468  29.996  1.00  0.00     0.010 A 
ATOM     35  C   UNL A   1      38.791  30.098  30.197  1.00  0.00    -0.014 A 
BRANCH  35  36
ATOM     36  C   UNL A   1      40.151  29.594  30.158  1.00  0.00     0.031 A 
ATOM     37  C   UNL A   1      40.762  29.366  31.491  1.00  0.00     0.074 A 
ATOM     38  C   UNL A   1      40.613  29.036  29.016  1.00  0.00     0.049 A 
ATOM     39  N   UNL A   1      41.804  29.942  31.990  1.00  0.00    -0.248 NA
ATOM     40  C   UNL A   1      40.049  28.504  32.451  1.00  0.00     0.031 C 
ATOM     41  C   UNL A   1      39.913  28.886  27.731  1.00  0.00     0.029 A 
ATOM     42  N   UNL A   1      41.749  28.314  28.819  1.00  0.00    -0.354 N 
ATOM     43  C   UNL A   1      42.001  29.355  33.235  1.00  0.00     0.074 A 
ATOM     44  C   UNL A   1      40.774  28.679  33.557  1.00  0.00     0.031 C 
ATOM     45  C   UNL A   1      40.517  27.930  26.993  1.00  0.00     0.029 A 
ATOM     46  C   UNL A   1      41.717  27.504  27.682  1.00  0.00     0.049 A 
ATOM     47  H   UNL A   1      42.523  28.357  29.425  1.00  0.00     0.167 HD
ATOM     48  C   UNL A   1      43.253  29.228  33.762  1.00  0.00     0.037 A 
ATOM     49  C   UNL A   1      42.587  26.493  27.423  1.00  0.00     0.037 A 
ATOM     50  C   UNL A   1      44.194  30.054  33.041  1.00  0.00     0.049 A 
ATOM     51  C   UNL A   1      43.792  26.745  28.268  1.00  0.00     0.074 A 
ATOM     52  C   UNL A   1      44.258  31.403  32.745  1.00  0.00     0.029 A 
ATOM     53  N   UNL A   1      45.031  29.439  32.137  1.00  0.00    -0.354 N 
ATOM     54  N   UNL A   1      44.574  27.782  28.110  1.00  0.00    -0.248 NA
ATOM     55  C   UNL A   1      43.802  26.153  29.601  1.00  0.00     0.031 C 
ATOM     56  C   UNL A   1      44.675  31.453  31.381  1.00  0.00     0.029 A 
ATOM     57  C   UNL A   1      44.949  30.150  30.967  1.00  0.00     0.049 A 
ATOM     58  H   UNL A   1      45.583  28.640  32.301  1.00  0.00     0.167 HD
ATOM     59  C   UNL A   1      44.832  28.231  29.399  1.00  0.00     0.074 A 
ATOM     60  C   UNL A   1      44.369  27.157  30.278  1.00  0.00     0.031 C 
ATOM     61  C   UNL A   1      45.095  29.546  29.662  1.00  0.00     0.037 A 
BRANCH  48  62
ATOM     62  C   UNL A   1      43.711  28.090  34.646  1.00  0.00     0.064 A 
ATOM     63  C   UNL A   1      43.542  26.768  34.183  1.00  0.00     0.173 A 
ATOM     64  C   UNL A   1      44.027  28.212  36.016  1.00  0.00     0.173 A 
ATOM     65  F   UNL A   1      43.234  26.528  32.900  1.00  0.00    -0.203 F 
ATOM     66  C   UNL A   1      43.585  25.670  35.045  1.00  0.00     0.198 A 
ATOM     67  C   UNL A   1      44.128  27.109  36.861  1.00  0.00     0.198 A 
ATOM     68  F   UNL A   1      44.139  29.395  36.628  1.00  0.00    -0.203 F 
ATOM     69  F   UNL A   1      43.279  24.451  34.584  1.00  0.00    -0.200 F 
ATOM     70  C   UNL A   1      43.869  25.842  36.386  1.00  0.00     0.200 A 
ATOM     71  F   UNL A   1      44.392  27.301  38.162  1.00  0.00    -0.200 F 
ATOM     72  F   UNL A   1      43.847  24.801  37.229  1.00  0.00    -0.200 F 
ENDBRANCH  48  62
BRANCH  49  73
ATOM     73  C   UNL A   1      42.269  25.176  26.810  1.00  0.00     0.064 A 
ATOM     74  C   UNL A   1      42.950  24.708  25.674  1.00  0.00     0.173 A 
ATOM     75  C   UNL A   1      41.455  24.230  27.471  1.00  0.00     0.173 A 
ATOM     76  F   UNL A   1      43.789  25.519  25.013  1.00  0.00    -0.203 F 
ATOM     77  C   UNL A   1      42.832  23.382  25.234  1.00  0.00     0.198 A 
ATOM     78  C   UNL A   1      41.328  22.913  27.027  1.00  0.00     0.198 A 
ATOM     79  F   UNL A   1      40.832  24.536  28.618  1.00  0.00    -0.203 F 
ATOM     80  F   UNL A   1      43.540  22.960  24.178  1.00  0.00    -0.200 F 
ATOM     81  C   UNL A   1      42.025  22.484  25.915  1.00  0.00     0.200 A 
ATOM     82  F   UNL A   1      40.571  22.050  27.720  1.00  0.00    -0.200 F 
ATOM     83  F   UNL A   1      41.951  21.203  25.527  1.00  0.00    -0.200 F 
ENDBRANCH  49  73
BRANCH  61  84
ATOM     84  C   UNL A   1      45.317  30.494  28.513  1.00  0.00     0.064 A 
ATOM     85  C   UNL A   1      44.310  31.289  27.937  1.00  0.00     0.173 A 
ATOM     86  C   UNL A   1      46.636  30.751  28.116  1.00  0.00     0.173 A 
ATOM     87  F   UNL A   1      43.038  31.188  28.338  1.00  0.00    -0.203 F 
ATOM     88  C   UNL A   1      44.608  32.265  26.986  1.00  0.00     0.198 A 
ATOM     89  C   UNL A   1      46.936  31.751  27.195  1.00  0.00     0.198 A 
ATOM     90  F   UNL A   1      47.648  30.068  28.673  1.00  0.00    -0.203 F 
ATOM     91  F   UNL A   1      43.624  33.008  26.456  1.00  0.00    -0.200 F 
ATOM     92  C   UNL A   1      45.921  32.502  26.624  1.00  0.00     0.200 A 
ATOM     93  F   UNL A   1      48.214  32.012  26.891  1.00  0.00    -0.200 F 
ATOM     94  F   UNL A   1      46.215  33.473  25.747  1.00  0.00    -0.200 F 
ENDBRANCH  61  84
ENDBRANCH  35  36
ENDBRANCH  27  30
ENDBRANCH  25  26
ENDBRANCH  24  25
ENDBRANCH   1  24
TORSDOF 14
ENDMDL
MODEL 2
REMARK VINA RESULT:     -12.4      3.086      8.231
REMARK SMILES Cc1nsc(N[C@H](C)c2cccc(Br)c2)c1C(=O)NCCCCNC(=O)c1ccc(-c2c3nc(c(-c4c(F)c(F)c(F)c(F)c4F)c4ccc([nH]4)c(-c4c(F)c(F)c(F)c(F)c4F)c4nc(c(-c5c(F)c(F)c(F)c(F)c5F)c5ccc2[nH]5)C=C4)C=C3)cc1
REMARK SMILES IDX 21 1 20 2 19 3 17 4 18 5 16 7 1 8 2 9 3 10 4 11 5 12 6 13
REMARK SMILES IDX 7 15 8 16 9 17 10 18 15 19 11 20 13 21 12 22 14 23 22 24
REMARK SMILES IDX 23 25 24 26 25 27 26 29 27 30 28 31 89 32 29 33 88 34 30 35
REMARK SMILES IDX 31 36 32 37 82 38 33 39 87 40 81 41 83 42 34 43 86 44 80 45
REMARK SMILES IDX 79 46 35 48 67 49 47 50 66 51 48 52 51 53 65 54 84 55 49 56
REMARK SMILES IDX 50 57 64 59 85 60 52 61 36 62 37 63 45 64 38 65 39 66 43 67
REMARK SMILES IDX 46 68 40 69 41 70 44 71 42 72 68 73 69 74 77 75 70 76 71 77
REMARK SMILES IDX 75 78 78 79 72 80 73 81 76 82 74 83 53 84 54 85 62 86 55 87
REMARK SMILES IDX 56 88 60 89 63 90 57 91 58 92 61 93 59 94
REMARK H PARENT 19 6 6 14 24 28 83 47 51 58
REMARK Flexibility Score: inf
ROOT
ATOM      1  C   UNL A   1      35.295  22.934  26.533  1.00  0.00     0.023 C 
ENDROOT
BRANCH   1   2
ATOM      2  C   UNL A   1      34.317  22.039  27.293  1.00  0.00     0.116 C 
BRANCH   2   3
ATOM      3  N   UNL A   1      33.039  22.649  27.554  1.00  0.00    -0.352 N 
ATOM      4  C   UNL A   1      31.878  22.823  26.850  1.00  0.00     0.256 C 
ATOM      5  O   UNL A   1      30.946  23.195  27.579  1.00  0.00    -0.269 OA
ATOM      6  H   UNL A   1      32.988  23.034  28.459  1.00  0.00     0.163 HD
BRANCH   4   7
ATOM      7  C   UNL A   1      31.699  22.714  25.389  1.00  0.00     0.097 A 
ATOM      8  C   UNL A   1      32.569  20.345  24.479  1.00  0.00     0.069 C 
ATOM      9  C   UNL A   1      32.089  21.747  24.367  1.00  0.00     0.066 A 
ATOM     10  N   UNL A   1      31.956  22.149  23.100  1.00  0.00    -0.195 NA
ATOM     11  S   UNL A   1      31.214  23.606  23.062  1.00  0.00    -0.018 S 
ATOM     12  C   UNL A   1      30.893  23.678  24.746  1.00  0.00     0.123 A 
BRANCH  12  13
ATOM     13  N   UNL A   1      30.008  24.526  25.350  1.00  0.00    -0.368 N 
ATOM     14  H   UNL A   1      29.278  24.102  25.858  1.00  0.00     0.162 HD
BRANCH  13  15
ATOM     15  C   UNL A   1      30.016  25.985  25.333  1.00  0.00     0.107 C 
ATOM     16  C   UNL A   1      29.291  26.459  24.066  1.00  0.00     0.036 C 
BRANCH  15  17
ATOM     17  C   UNL A   1      31.400  26.633  25.409  1.00  0.00    -0.025 A 
ATOM     18  C   UNL A   1      32.116  26.797  26.607  1.00  0.00     0.006 A 
ATOM     19  C   UNL A   1      31.970  27.148  24.230  1.00  0.00     0.021 A 
ATOM     20  C   UNL A   1      33.280  27.569  26.653  1.00  0.00     0.002 A 
ATOM     21  C   UNL A   1      33.160  27.875  24.271  1.00  0.00     0.018 A 
ATOM     22  C   UNL A   1      33.799  28.120  25.484  1.00  0.00     0.016 A 
ATOM     23  Br  UNL A   1      33.900  28.554  22.669  1.00  0.00    -0.051 Br
ENDBRANCH  15  17
ENDBRANCH  13  15
ENDBRANCH  12  13
ENDBRANCH   4   7
ENDBRANCH   2   3
ENDBRANCH   1   2
BRANCH   1  24
ATOM     24  C   UNL A   1      36.141  22.233  25.461  1.00  0.00     0.023 C 
BRANCH  24  25
ATOM     25  C   UNL A   1      37.610  22.647  25.419  1.00  0.00     0.116 C 
BRANCH  25  26
ATOM     26  N   UNL A   1      38.507  21.707  26.105  1.00  0.00    -0.352 N 
ATOM     27  C   UNL A   1      39.740  21.967  26.691  1.00  0.00     0.251 C 
ATOM     28  H   UNL A   1      38.195  20.774  26.155  1.00  0.00     0.163 HD
ATOM     29  O   UNL A   1      40.564  21.091  26.876  1.00  0.00    -0.269 OA
BRANCH  27  30
ATOM     30  C   UNL A   1      40.003  23.344  27.140  1.00  0.00     0.039 A 
ATOM     31  C   UNL A   1      39.057  24.375  27.079  1.00  0.00     0.014 A 
ATOM     32  C   UNL A   1      41.259  23.554  27.689  1.00  0.00     0.014 A 
ATOM     33  C   UNL A   1      39.385  25.612  27.631  1.00  0.00     0.010 A 
ATOM     34  C   UNL A   1      41.473  24.662  28.445  1.00  0.00     0.010 A 
ATOM     35  C   UNL A   1      40.601  25.736  28.310  1.00  0.00    -0.014 A 
BRANCH  35  36
ATOM     36  C   UNL A   1      41.046  26.952  28.964  1.00  0.00     0.031 A 
ATOM     37  C   UNL A   1      42.224  27.597  28.331  1.00  0.00     0.074 A 
ATOM     38  C   UNL A   1      40.202  27.593  29.805  1.00  0.00     0.049 A 
ATOM     39  N   UNL A   1      43.385  27.802  28.854  1.00  0.00    -0.248 NA
ATOM     40  C   UNL A   1      42.158  27.921  26.895  1.00  0.00     0.031 C 
ATOM     41  C   UNL A   1      38.840  27.199  30.199  1.00  0.00     0.029 A 
ATOM     42  N   UNL A   1      40.316  28.837  30.342  1.00  0.00    -0.354 N 
ATOM     43  C   UNL A   1      44.123  28.477  27.886  1.00  0.00     0.074 A 
ATOM     44  C   UNL A   1      43.414  28.298  26.648  1.00  0.00     0.031 C 
ATOM     45  C   UNL A   1      38.181  28.270  30.690  1.00  0.00     0.029 A 
ATOM     46  C   UNL A   1      39.106  29.381  30.778  1.00  0.00     0.049 A 
ATOM     47  H   UNL A   1      41.175  29.312  30.416  1.00  0.00     0.167 HD
ATOM     48  C   UNL A   1      45.093  29.368  28.237  1.00  0.00     0.037 A 
ATOM     49  C   UNL A   1      38.906  30.690  31.081  1.00  0.00     0.037 A 
ATOM     50  C   UNL A   1      45.433  29.227  29.634  1.00  0.00     0.049 A 
ATOM     51  C   UNL A   1      40.256  31.276  31.337  1.00  0.00     0.074 A 
ATOM     52  C   UNL A   1      45.866  28.172  30.415  1.00  0.00     0.029 A 
ATOM     53  N   UNL A   1      44.929  30.156  30.517  1.00  0.00    -0.354 N 
ATOM     54  N   UNL A   1      41.018  30.911  32.336  1.00  0.00    -0.248 NA
ATOM     55  C   UNL A   1      40.958  31.848  30.193  1.00  0.00     0.031 C 
ATOM     56  C   UNL A   1      45.116  28.286  31.624  1.00  0.00     0.029 A 
ATOM     57  C   UNL A   1      44.363  29.458  31.554  1.00  0.00     0.049 A 
ATOM     58  H   UNL A   1      44.968  31.135  30.422  1.00  0.00     0.167 HD
ATOM     59  C   UNL A   1      42.291  30.801  31.789  1.00  0.00     0.074 A 
ATOM     60  C   UNL A   1      42.199  31.439  30.475  1.00  0.00     0.031 C 
ATOM     61  C   UNL A   1      43.217  29.933  32.295  1.00  0.00     0.037 A 
BRANCH  48  62
ATOM     62  C   UNL A   1      45.450  30.612  27.455  1.00  0.00     0.064 A 
ATOM     63  C   UNL A   1      46.810  30.868  27.182  1.00  0.00     0.173 A 
ATOM     64  C   UNL A   1      44.575  31.695  27.222  1.00  0.00     0.173 A 
ATOM     65  F   UNL A   1      47.736  29.916  27.371  1.00  0.00    -0.203 F 
ATOM     66  C   UNL A   1      47.264  32.134  26.804  1.00  0.00     0.198 A 
ATOM     67  C   UNL A   1      45.025  32.940  26.788  1.00  0.00     0.198 A 
ATOM     68  F   UNL A   1      43.270  31.643  27.507  1.00  0.00    -0.203 F 
ATOM     69  F   UNL A   1      48.579  32.362  26.693  1.00  0.00    -0.200 F 
ATOM     70  C   UNL A   1      46.372  33.172  26.616  1.00  0.00     0.200 A 
ATOM     71  F   UNL A   1      44.143  33.937  26.624  1.00  0.00    -0.200 F 
ATOM     72  F   UNL A   1      46.808  34.403  26.319  1.00  0.00    -0.200 F 
ENDBRANCH  48  62
BRANCH  49  73
ATOM     73  C   UNL A   1      37.697  31.503  30.781  1.00  0.00     0.064 A 
ATOM     74  C   UNL A   1      37.342  31.835  29.463  1.00  0.00     0.173 A 
ATOM     75  C   UNL A   1      36.720  31.766  31.766  1.00  0.00     0.173 A 
ATOM     76  F   UNL A   1      38.185  31.572  28.453  1.00  0.00    -0.203 F 
ATOM     77  C   UNL A   1      36.091  32.387  29.151  1.00  0.00     0.198 A 
ATOM     78  C   UNL A   1      35.479  32.325  31.457  1.00  0.00     0.198 A 
ATOM     79  F   UNL A   1      36.910  31.403  33.042  1.00  0.00    -0.203 F 
ATOM     80  F   UNL A   1      35.770  32.641  27.875  1.00  0.00    -0.200 F 
ATOM     81  C   UNL A   1      35.159  32.626  30.148  1.00  0.00     0.200 A 
ATOM     82  F   UNL A   1      34.577  32.515  32.430  1.00  0.00    -0.200 F 
ATOM     83  F   UNL A   1      33.944  33.105  29.845  1.00  0.00    -0.200 F 
ENDBRANCH  49  73
BRANCH  61  84
ATOM     84  C   UNL A   1      42.930  29.231  33.596  1.00  0.00     0.064 A 
ATOM     85  C   UNL A   1      42.223  28.020  33.704  1.00  0.00     0.173 A 
ATOM     86  C   UNL A   1      43.568  29.700  34.752  1.00  0.00     0.173 A 
ATOM     87  F   UNL A   1      41.678  27.442  32.628  1.00  0.00    -0.203 F 
ATOM     88  C   UNL A   1      42.131  27.336  34.916  1.00  0.00     0.198 A 
ATOM     89  C   UNL A   1      43.507  28.997  35.952  1.00  0.00     0.198 A 
ATOM     90  F   UNL A   1      44.309  30.818  34.701  1.00  0.00    -0.203 F 
ATOM     91  F   UNL A   1      41.450  26.182  34.985  1.00  0.00    -0.200 F 
ATOM     92  C   UNL A   1      42.782  27.820  36.036  1.00  0.00     0.200 A 
ATOM     93  F   UNL A   1      44.185  29.442  37.019  1.00  0.00    -0.200 F 
ATOM     94  F   UNL A   1      42.735  27.138  37.190  1.00  0.00    -0.200 F 
ENDBRANCH  61  84
ENDBRANCH  35  36
ENDBRANCH  27  30
ENDBRANCH  25  26
ENDBRANCH  24  25
ENDBRANCH   1  24
TORSDOF 14
ENDMDL
MODEL 3
REMARK VINA RESULT:     -12.4      2.468      3.445
REMARK SMILES Cc1nsc(N[C@H](C)c2cccc(Br)c2)c1C(=O)NCCCCNC(=O)c1ccc(-c2c3nc(c(-c4c(F)c(F)c(F)c(F)c4F)c4ccc([nH]4)c(-c4c(F)c(F)c(F)c(F)c4F)c4nc(c(-c5c(F)c(F)c(F)c(F)c5F)c5ccc2[nH]5)C=C4)C=C3)cc1
REMARK SMILES IDX 21 1 20 2 19 3 17 4 18 5 16 7 1 8 2 9 3 10 4 11 5 12 6 13
REMARK SMILES IDX 7 15 8 16 9 17 10 18 15 19 11 20 13 21 12 22 14 23 22 24
REMARK SMILES IDX 23 25 24 26 25 27 26 29 27 30 28 31 89 32 29 33 88 34 30 35
REMARK SMILES IDX 31 36 32 37 82 38 33 39 87 40 81 41 83 42 34 43 86 44 80 45
REMARK SMILES IDX 79 46 35 48 67 49 47 50 66 51 48 52 51 53 65 54 84 55 49 56
REMARK SMILES IDX 50 57 64 59 85 60 52 61 36 62 37 63 45 64 38 65 39 66 43 67
REMARK SMILES IDX 46 68 40 69 41 70 44 71 42 72 68 73 69 74 77 75 70 76 71 77
REMARK SMILES IDX 75 78 78 79 72 80 73 81 76 82 74 83 53 84 54 85 62 86 55 87
REMARK SMILES IDX 56 88 60 89 63 90 57 91 58 92 61 93 59 94
REMARK H PARENT 19 6 6 14 24 28 83 47 51 58
REMARK Flexibility Score: inf
ROOT
ATOM      1  C   UNL A   1      34.589  29.327  27.248  1.00  0.00     0.023 C 
ENDROOT
BRANCH   1   2
ATOM      2  C   UNL A   1      34.066  28.435  26.124  1.00  0.00     0.116 C 
BRANCH   2   3
ATOM      3  N   UNL A   1      32.871  27.704  26.457  1.00  0.00    -0.352 N 
ATOM      4  C   UNL A   1      32.365  26.469  26.150  1.00  0.00     0.256 C 
ATOM      5  O   UNL A   1      31.403  26.171  26.876  1.00  0.00    -0.269 OA
ATOM      6  H   UNL A   1      32.274  28.215  27.050  1.00  0.00     0.163 HD
BRANCH   4   7
ATOM      7  C   UNL A   1      32.777  25.589  25.039  1.00  0.00     0.097 A 
ATOM      8  C   UNL A   1      34.179  23.486  25.938  1.00  0.00     0.069 C 
ATOM      9  C   UNL A   1      33.633  24.414  24.912  1.00  0.00     0.066 A 
ATOM     10  N   UNL A   1      33.958  24.058  23.667  1.00  0.00    -0.195 NA
ATOM     11  S   UNL A   1      33.137  24.987  22.599  1.00  0.00    -0.018 S 
ATOM     12  C   UNL A   1      32.184  25.796  23.775  1.00  0.00     0.123 A 
BRANCH  12  13
ATOM     13  N   UNL A   1      31.049  26.513  23.521  1.00  0.00    -0.368 N 
ATOM     14  H   UNL A   1      30.221  26.178  23.937  1.00  0.00     0.162 HD
BRANCH  13  15
ATOM     15  C   UNL A   1      30.918  27.717  22.707  1.00  0.00     0.107 C 
ATOM     16  C   UNL A   1      32.160  28.591  22.932  1.00  0.00     0.036 C 
BRANCH  15  17
ATOM     17  C   UNL A   1      29.654  28.542  22.956  1.00  0.00    -0.025 A 
ATOM     18  C   UNL A   1      28.378  27.977  23.126  1.00  0.00     0.006 A 
ATOM     19  C   UNL A   1      29.754  29.945  22.961  1.00  0.00     0.021 A 
ATOM     20  C   UNL A   1      27.232  28.776  23.151  1.00  0.00     0.002 A 
ATOM     21  C   UNL A   1      28.610  30.742  23.039  1.00  0.00     0.018 A 
ATOM     22  C   UNL A   1      27.346  30.163  23.097  1.00  0.00     0.016 A 
ATOM     23  Br  UNL A   1      28.778  32.625  23.042  1.00  0.00    -0.051 Br
ENDBRANCH  15  17
ENDBRANCH  13  15
ENDBRANCH  12  13
ENDBRANCH   4   7
ENDBRANCH   2   3
ENDBRANCH   1   2
BRANCH   1  24
ATOM     24  C   UNL A   1      33.934  30.712  27.356  1.00  0.00     0.023 C 
BRANCH  24  25
ATOM     25  C   UNL A   1      34.892  31.861  27.661  1.00  0.00     0.116 C 
BRANCH  25  26
ATOM     26  N   UNL A   1      34.600  32.553  28.924  1.00  0.00    -0.352 N 
ATOM     27  C   UNL A   1      35.031  32.225  30.203  1.00  0.00     0.251 C 
ATOM     28  H   UNL A   1      34.026  33.350  28.854  1.00  0.00     0.163 HD
ATOM     29  O   UNL A   1      34.441  32.601  31.199  1.00  0.00    -0.269 OA
BRANCH  27  30
ATOM     30  C   UNL A   1      36.273  31.444  30.324  1.00  0.00     0.039 A 
ATOM     31  C   UNL A   1      36.310  30.045  30.357  1.00  0.00     0.014 A 
ATOM     32  C   UNL A   1      37.440  32.194  30.354  1.00  0.00     0.014 A 
ATOM     33  C   UNL A   1      37.553  29.413  30.368  1.00  0.00     0.010 A 
ATOM     34  C   UNL A   1      38.626  31.581  30.104  1.00  0.00     0.010 A 
ATOM     35  C   UNL A   1      38.701  30.201  30.241  1.00  0.00    -0.014 A 
BRANCH  35  36
ATOM     36  C   UNL A   1      40.050  29.669  30.198  1.00  0.00     0.031 A 
ATOM     37  C   UNL A   1      40.663  29.430  31.528  1.00  0.00     0.074 A 
ATOM     38  C   UNL A   1      40.496  29.099  29.055  1.00  0.00     0.049 A 
ATOM     39  N   UNL A   1      41.718  29.986  32.021  1.00  0.00    -0.248 NA
ATOM     40  C   UNL A   1      39.935  28.586  32.493  1.00  0.00     0.031 C 
ATOM     41  C   UNL A   1      39.787  28.962  27.772  1.00  0.00     0.029 A 
ATOM     42  N   UNL A   1      41.615  28.353  28.854  1.00  0.00    -0.354 N 
ATOM     43  C   UNL A   1      41.909  29.397  33.267  1.00  0.00     0.074 A 
ATOM     44  C   UNL A   1      40.669  28.747  33.595  1.00  0.00     0.031 C 
ATOM     45  C   UNL A   1      40.368  27.992  27.034  1.00  0.00     0.029 A 
ATOM     46  C   UNL A   1      41.561  27.542  27.719  1.00  0.00     0.049 A 
ATOM     47  H   UNL A   1      42.393  28.382  29.456  1.00  0.00     0.167 HD
ATOM     48  C   UNL A   1      43.160  29.245  33.788  1.00  0.00     0.037 A 
ATOM     49  C   UNL A   1      42.409  26.513  27.458  1.00  0.00     0.037 A 
ATOM     50  C   UNL A   1      44.115  30.049  33.062  1.00  0.00     0.049 A 
ATOM     51  C   UNL A   1      43.623  26.741  28.297  1.00  0.00     0.074 A 
ATOM     52  C   UNL A   1      44.205  31.396  32.763  1.00  0.00     0.029 A 
ATOM     53  N   UNL A   1      44.934  29.415  32.156  1.00  0.00    -0.354 N 
ATOM     54  N   UNL A   1      44.426  27.761  28.134  1.00  0.00    -0.248 NA
ATOM     55  C   UNL A   1      43.626  26.152  29.631  1.00  0.00     0.031 C 
ATOM     56  C   UNL A   1      44.618  31.435  31.397  1.00  0.00     0.029 A 
ATOM     57  C   UNL A   1      44.863  30.126  30.984  1.00  0.00     0.049 A 
ATOM     58  H   UNL A   1      45.470  28.606  32.318  1.00  0.00     0.167 HD
ATOM     59  C   UNL A   1      44.698  28.206  29.421  1.00  0.00     0.074 A 
ATOM     60  C   UNL A   1      44.217  27.144  30.304  1.00  0.00     0.031 C 
ATOM     61  C   UNL A   1      44.990  29.517  29.680  1.00  0.00     0.037 A 
BRANCH  48  62
ATOM     62  C   UNL A   1      43.597  28.099  34.672  1.00  0.00     0.064 A 
ATOM     63  C   UNL A   1      43.376  26.780  34.224  1.00  0.00     0.173 A 
ATOM     64  C   UNL A   1      43.944  28.221  36.035  1.00  0.00     0.173 A 
ATOM     65  F   UNL A   1      43.035  26.540  32.949  1.00  0.00    -0.203 F 
ATOM     66  C   UNL A   1      43.400  25.687  35.094  1.00  0.00     0.198 A 
ATOM     67  C   UNL A   1      44.025  27.122  36.888  1.00  0.00     0.198 A 
ATOM     68  F   UNL A   1      44.107  29.404  36.635  1.00  0.00    -0.203 F 
ATOM     69  F   UNL A   1      43.045  24.476  34.649  1.00  0.00    -0.200 F 
ATOM     70  C   UNL A   1      43.717  25.860  36.428  1.00  0.00     0.200 A 
ATOM     71  F   UNL A   1      44.322  27.314  38.181  1.00  0.00    -0.200 F 
ATOM     72  F   UNL A   1      43.677  24.827  37.280  1.00  0.00    -0.200 F 
ENDBRANCH  48  62
BRANCH  49  73
ATOM     73  C   UNL A   1      42.060  25.201  26.849  1.00  0.00     0.064 A 
ATOM     74  C   UNL A   1      42.829  24.642  25.815  1.00  0.00     0.173 A 
ATOM     75  C   UNL A   1      41.103  24.344  27.436  1.00  0.00     0.173 A 
ATOM     76  F   UNL A   1      43.800  25.362  25.234  1.00  0.00    -0.203 F 
ATOM     77  C   UNL A   1      42.658  23.313  25.401  1.00  0.00     0.198 A 
ATOM     78  C   UNL A   1      40.925  23.025  27.017  1.00  0.00     0.198 A 
ATOM     79  F   UNL A   1      40.379  24.738  28.492  1.00  0.00    -0.203 F 
ATOM     80  F   UNL A   1      43.448  22.800  24.448  1.00  0.00    -0.200 F 
ATOM     81  C   UNL A   1      41.710  22.504  26.007  1.00  0.00     0.200 A 
ATOM     82  F   UNL A   1      40.028  22.247  27.640  1.00  0.00    -0.200 F 
ATOM     83  F   UNL A   1      41.580  21.219  25.649  1.00  0.00    -0.200 F 
ENDBRANCH  49  73
BRANCH  61  84
ATOM     84  C   UNL A   1      45.226  30.457  28.528  1.00  0.00     0.064 A 
ATOM     85  C   UNL A   1      44.234  31.272  27.955  1.00  0.00     0.173 A 
ATOM     86  C   UNL A   1      46.549  30.686  28.125  1.00  0.00     0.173 A 
ATOM     87  F   UNL A   1      42.962  31.199  28.361  1.00  0.00    -0.203 F 
ATOM     88  C   UNL A   1      44.548  32.240  27.001  1.00  0.00     0.198 A 
ATOM     89  C   UNL A   1      46.866  31.677  27.201  1.00  0.00     0.198 A 
ATOM     90  F   UNL A   1      47.549  29.983  28.680  1.00  0.00    -0.203 F 
ATOM     91  F   UNL A   1      43.578  33.002  26.474  1.00  0.00    -0.200 F 
ATOM     92  C   UNL A   1      45.865  32.448  26.633  1.00  0.00     0.200 A 
ATOM     93  F   UNL A   1      48.148  31.912  26.891  1.00  0.00    -0.200 F 
ATOM     94  F   UNL A   1      46.175  33.412  25.753  1.00  0.00    -0.200 F 
ENDBRANCH  61  84
ENDBRANCH  35  36
ENDBRANCH  27  30
ENDBRANCH  25  26
ENDBRANCH  24  25
ENDBRANCH   1  24
TORSDOF 14
ENDMDL
