MODEL 1
REMARK VINA RESULT:     -13.0      0.000      0.000
REMARK SMILES O=C(C[NH+]1CCN(C(=O)c2ccc(F)c(F)c2F)CC1)NCCCCNC(=O)c1ccc(-c2c3nc(c(-c4c(F)c(F)c(F)c(F)c4F)c4ccc([nH]4)c(-c4c(F)c(F)c(F)c(F)c4F)c4nc(c(-c5c(F)c(F)c(F)c(F)c5F)c5ccc2[nH]5)C=C4)C=C3)cc1
REMARK SMILES IDX 23 1 22 2 21 3 1 4 2 5 3 7 4 8 5 9 20 10 6 12 19 13 7 14
REMARK SMILES IDX 8 15 9 16 10 17 11 18 17 19 12 20 15 21 18 22 13 23 16 24
REMARK SMILES IDX 14 25 24 26 25 27 26 28 27 29 28 31 29 32 30 33 91 34 31 35
REMARK SMILES IDX 90 36 32 37 33 38 34 39 84 40 35 41 89 42 83 43 85 44 36 45
REMARK SMILES IDX 88 46 82 47 81 48 37 50 69 51 49 52 68 53 50 54 53 55 67 56
REMARK SMILES IDX 86 57 51 58 52 59 66 61 87 62 54 63 38 64 39 65 47 66 40 67
REMARK SMILES IDX 41 68 45 69 48 70 42 71 43 72 46 73 44 74 70 75 71 76 79 77
REMARK SMILES IDX 72 78 73 79 77 80 80 81 74 82 75 83 78 84 76 85 55 86 56 87
REMARK SMILES IDX 64 88 57 89 58 90 62 91 65 92 59 93 60 94 63 95 61 96
REMARK H PARENT 21 6 4 11 26 30 85 49 53 60
REMARK Flexibility Score: inf
ROOT
ATOM      1  C   UNL A   1      30.975  28.947  24.174  1.00  0.00     0.023 C 
ENDROOT
BRANCH   1   2
ATOM      2  C   UNL A   1      31.511  28.717  22.762  1.00  0.00     0.116 C 
BRANCH   2   3
ATOM      3  N   UNL A   1      31.781  27.320  22.504  1.00  0.00    -0.351 N 
ATOM      4  O   UNL A   1      34.003  27.609  21.994  1.00  0.00    -0.269 OA
ATOM      5  C   UNL A   1      33.040  26.865  22.157  1.00  0.00     0.275 C 
ATOM      6  H   UNL A   1      31.044  26.670  22.577  1.00  0.00     0.163 HD
BRANCH   5   7
ATOM      7  C   UNL A   1      33.115  25.340  21.996  1.00  0.00     0.363 C 
BRANCH   7   8
ATOM      8  N   UNL A   1      33.903  24.702  23.073  1.00  0.00    -0.324 N 
ATOM      9  C   UNL A   1      33.185  24.570  24.359  1.00  0.00     0.284 C 
ATOM     10  C   UNL A   1      34.378  23.364  22.650  1.00  0.00     0.284 C 
ATOM     11  H   UNL A   1      34.688  25.333  23.235  1.00  0.00     0.348 HD
ATOM     12  C   UNL A   1      32.057  23.522  24.359  1.00  0.00     0.181 C 
ATOM     13  C   UNL A   1      33.285  22.271  22.622  1.00  0.00     0.181 C 
ATOM     14  N   UNL A   1      32.540  22.226  23.888  1.00  0.00    -0.327 N 
ATOM     15  C   UNL A   1      32.159  21.086  24.586  1.00  0.00     0.257 C 
ATOM     16  O   UNL A   1      31.406  21.106  25.552  1.00  0.00    -0.269 OA
BRANCH  15  17
ATOM     17  C   UNL A   1      32.723  19.784  24.199  1.00  0.00     0.079 A 
ATOM     18  C   UNL A   1      32.046  18.970  23.279  1.00  0.00     0.020 A 
ATOM     19  C   UNL A   1      33.975  19.414  24.687  1.00  0.00     0.174 A 
ATOM     20  C   UNL A   1      32.617  17.757  22.885  1.00  0.00     0.043 A 
ATOM     21  C   UNL A   1      34.543  18.213  24.281  1.00  0.00     0.195 A 
ATOM     22  F   UNL A   1      34.629  20.189  25.564  1.00  0.00    -0.203 F 
ATOM     23  C   UNL A   1      33.863  17.390  23.390  1.00  0.00     0.161 A 
ATOM     24  F   UNL A   1      35.741  17.843  24.754  1.00  0.00    -0.200 F 
ATOM     25  F   UNL A   1      34.402  16.225  23.005  1.00  0.00    -0.204 F 
ENDBRANCH  15  17
ENDBRANCH   7   8
ENDBRANCH   5   7
ENDBRANCH   2   3
ENDBRANCH   1   2
BRANCH   1  26
ATOM     26  C   UNL A   1      31.869  28.431  25.308  1.00  0.00     0.023 C 
BRANCH  26  27
ATOM     27  C   UNL A   1      33.080  29.297  25.640  1.00  0.00     0.116 C 
BRANCH  27  28
ATOM     28  N   UNL A   1      32.707  30.637  26.061  1.00  0.00    -0.352 N 
ATOM     29  C   UNL A   1      33.255  31.442  27.029  1.00  0.00     0.251 C 
ATOM     30  H   UNL A   1      31.944  31.028  25.577  1.00  0.00     0.163 HD
ATOM     31  O   UNL A   1      32.682  32.481  27.351  1.00  0.00    -0.269 OA
BRANCH  29  32
ATOM     32  C   UNL A   1      34.516  31.065  27.710  1.00  0.00     0.039 A 
ATOM     33  C   UNL A   1      35.497  32.045  27.894  1.00  0.00     0.014 A 
ATOM     34  C   UNL A   1      34.755  29.755  28.136  1.00  0.00     0.014 A 
ATOM     35  C   UNL A   1      36.683  31.730  28.561  1.00  0.00     0.010 A 
ATOM     36  C   UNL A   1      35.910  29.458  28.860  1.00  0.00     0.010 A 
ATOM     37  C   UNL A   1      36.885  30.441  29.084  1.00  0.00    -0.014 A 
BRANCH  37  38
ATOM     38  C   UNL A   1      38.097  30.114  29.878  1.00  0.00     0.031 A 
ATOM     39  C   UNL A   1      39.137  29.176  29.333  1.00  0.00     0.074 A 
ATOM     40  C   UNL A   1      38.237  30.622  31.118  1.00  0.00     0.049 A 
ATOM     41  N   UNL A   1      40.218  28.714  29.910  1.00  0.00    -0.248 NA
ATOM     42  C   UNL A   1      38.928  28.674  27.966  1.00  0.00     0.031 C 
ATOM     43  C   UNL A   1      37.286  31.519  31.774  1.00  0.00     0.029 A 
ATOM     44  N   UNL A   1      39.230  30.450  32.052  1.00  0.00    -0.354 N 
ATOM     45  C   UNL A   1      40.809  27.864  28.984  1.00  0.00     0.074 A 
ATOM     46  C   UNL A   1      39.946  27.838  27.824  1.00  0.00     0.031 C 
ATOM     47  C   UNL A   1      37.749  31.837  32.993  1.00  0.00     0.029 A 
ATOM     48  C   UNL A   1      39.009  31.135  33.223  1.00  0.00     0.049 A 
ATOM     49  H   UNL A   1      40.025  29.890  31.898  1.00  0.00     0.167 HD
ATOM     50  C   UNL A   1      41.977  27.187  29.086  1.00  0.00     0.037 A 
ATOM     51  C   UNL A   1      39.733  31.184  34.358  1.00  0.00     0.037 A 
ATOM     52  C   UNL A   1      42.849  27.233  30.230  1.00  0.00     0.049 A 
ATOM     53  C   UNL A   1      41.017  30.406  34.453  1.00  0.00     0.074 A 
ATOM     54  C   UNL A   1      44.075  26.615  30.403  1.00  0.00     0.029 A 
ATOM     55  N   UNL A   1      42.589  27.939  31.396  1.00  0.00    -0.354 N 
ATOM     56  N   UNL A   1      41.585  29.641  33.554  1.00  0.00    -0.248 NA
ATOM     57  C   UNL A   1      41.760  30.499  35.718  1.00  0.00     0.031 C 
ATOM     58  C   UNL A   1      44.539  26.912  31.688  1.00  0.00     0.029 A 
ATOM     59  C   UNL A   1      43.626  27.756  32.298  1.00  0.00     0.049 A 
ATOM     60  H   UNL A   1      41.788  28.487  31.558  1.00  0.00     0.167 HD
ATOM     61  C   UNL A   1      42.759  29.180  34.132  1.00  0.00     0.074 A 
ATOM     62  C   UNL A   1      42.831  29.761  35.456  1.00  0.00     0.031 C 
ATOM     63  C   UNL A   1      43.692  28.346  33.610  1.00  0.00     0.037 A 
BRANCH  50  64
ATOM     64  C   UNL A   1      42.403  26.343  27.921  1.00  0.00     0.064 A 
ATOM     65  C   UNL A   1      43.259  26.861  26.937  1.00  0.00     0.173 A 
ATOM     66  C   UNL A   1      41.895  25.048  27.733  1.00  0.00     0.173 A 
ATOM     67  F   UNL A   1      43.765  28.097  27.064  1.00  0.00    -0.203 F 
ATOM     68  C   UNL A   1      43.577  26.121  25.801  1.00  0.00     0.198 A 
ATOM     69  C   UNL A   1      42.238  24.300  26.610  1.00  0.00     0.198 A 
ATOM     70  F   UNL A   1      41.079  24.504  28.649  1.00  0.00    -0.203 F 
ATOM     71  F   UNL A   1      44.369  26.650  24.858  1.00  0.00    -0.200 F 
ATOM     72  C   UNL A   1      43.069  24.841  25.641  1.00  0.00     0.200 A 
ATOM     73  F   UNL A   1      41.763  23.055  26.466  1.00  0.00    -0.200 F 
ATOM     74  F   UNL A   1      43.381  24.127  24.550  1.00  0.00    -0.200 F 
ENDBRANCH  50  64
BRANCH  51  75
ATOM     75  C   UNL A   1      39.267  32.030  35.488  1.00  0.00     0.064 A 
ATOM     76  C   UNL A   1      39.645  33.376  35.602  1.00  0.00     0.173 A 
ATOM     77  C   UNL A   1      38.452  31.493  36.495  1.00  0.00     0.173 A 
ATOM     78  F   UNL A   1      40.426  33.935  34.666  1.00  0.00    -0.203 F 
ATOM     79  C   UNL A   1      39.245  34.145  36.692  1.00  0.00     0.198 A 
ATOM     80  C   UNL A   1      38.031  32.272  37.571  1.00  0.00     0.198 A 
ATOM     81  F   UNL A   1      38.046  30.217  36.419  1.00  0.00    -0.203 F 
ATOM     82  F   UNL A   1      39.648  35.419  36.796  1.00  0.00    -0.200 F 
ATOM     83  C   UNL A   1      38.435  33.595  37.673  1.00  0.00     0.200 A 
ATOM     84  F   UNL A   1      37.229  31.742  38.504  1.00  0.00    -0.200 F 
ATOM     85  F   UNL A   1      38.041  34.338  38.715  1.00  0.00    -0.200 F 
ENDBRANCH  51  75
BRANCH  63  86
ATOM     86  C   UNL A   1      44.890  28.021  34.452  1.00  0.00     0.064 A 
ATOM     87  C   UNL A   1      46.051  28.803  34.367  1.00  0.00     0.173 A 
ATOM     88  C   UNL A   1      44.919  26.885  35.274  1.00  0.00     0.173 A 
ATOM     89  F   UNL A   1      46.076  29.895  33.589  1.00  0.00    -0.203 F 
ATOM     90  C   UNL A   1      47.206  28.449  35.060  1.00  0.00     0.198 A 
ATOM     91  C   UNL A   1      46.068  26.548  35.986  1.00  0.00     0.198 A 
ATOM     92  F   UNL A   1      43.830  26.111  35.398  1.00  0.00    -0.203 F 
ATOM     93  F   UNL A   1      48.316  29.191  34.934  1.00  0.00    -0.200 F 
ATOM     94  C   UNL A   1      47.212  27.324  35.870  1.00  0.00     0.200 A 
ATOM     95  F   UNL A   1      46.068  25.473  36.786  1.00  0.00    -0.200 F 
ATOM     96  F   UNL A   1      48.324  26.986  36.539  1.00  0.00    -0.200 F 
ENDBRANCH  63  86
ENDBRANCH  37  38
ENDBRANCH  29  32
ENDBRANCH  27  28
ENDBRANCH  26  27
ENDBRANCH   1  26
TORSDOF 13
ENDMDL
MODEL 2
REMARK VINA RESULT:     -12.9      4.360      7.892
REMARK SMILES O=C(C[NH+]1CCN(C(=O)c2ccc(F)c(F)c2F)CC1)NCCCCNC(=O)c1ccc(-c2c3nc(c(-c4c(F)c(F)c(F)c(F)c4F)c4ccc([nH]4)c(-c4c(F)c(F)c(F)c(F)c4F)c4nc(c(-c5c(F)c(F)c(F)c(F)c5F)c5ccc2[nH]5)C=C4)C=C3)cc1
REMARK SMILES IDX 23 1 22 2 21 3 1 4 2 5 3 7 4 8 5 9 20 10 6 12 19 13 7 14
REMARK SMILES IDX 8 15 9 16 10 17 11 18 17 19 12 20 15 21 18 22 13 23 16 24
REMARK SMILES IDX 14 25 24 26 25 27 26 28 27 29 28 31 29 32 30 33 91 34 31 35
REMARK SMILES IDX 90 36 32 37 33 38 34 39 84 40 35 41 89 42 83 43 85 44 36 45
REMARK SMILES IDX 88 46 82 47 81 48 37 50 69 51 49 52 68 53 50 54 53 55 67 56
REMARK SMILES IDX 86 57 51 58 52 59 66 61 87 62 54 63 38 64 39 65 47 66 40 67
REMARK SMILES IDX 41 68 45 69 48 70 42 71 43 72 46 73 44 74 70 75 71 76 79 77
REMARK SMILES IDX 72 78 73 79 77 80 80 81 74 82 75 83 78 84 76 85 55 86 56 87
REMARK SMILES IDX 64 88 57 89 58 90 62 91 65 92 59 93 60 94 63 95 61 96
REMARK H PARENT 21 6 4 11 26 30 85 49 53 60
REMARK Flexibility Score: inf
ROOT
ATOM      1  C   UNL A   1      35.504  21.633  25.945  1.00  0.00     0.023 C 
ENDROOT
BRANCH   1   2
ATOM      2  C   UNL A   1      34.098  21.157  26.304  1.00  0.00     0.116 C 
BRANCH   2   3
ATOM      3  N   UNL A   1      33.086  22.123  25.936  1.00  0.00    -0.351 N 
ATOM      4  O   UNL A   1      32.516  22.684  28.091  1.00  0.00    -0.269 OA
ATOM      5  C   UNL A   1      32.378  22.843  26.882  1.00  0.00     0.275 C 
ATOM      6  H   UNL A   1      32.894  22.275  24.982  1.00  0.00     0.163 HD
BRANCH   5   7
ATOM      7  C   UNL A   1      31.405  23.860  26.270  1.00  0.00     0.363 C 
BRANCH   7   8
ATOM      8  N   UNL A   1      32.031  25.187  26.074  1.00  0.00    -0.324 N 
ATOM      9  C   UNL A   1      32.701  25.359  24.768  1.00  0.00     0.284 C 
ATOM     10  C   UNL A   1      31.032  26.266  26.247  1.00  0.00     0.284 C 
ATOM     11  H   UNL A   1      32.756  25.243  26.789  1.00  0.00     0.348 HD
ATOM     12  C   UNL A   1      31.745  25.467  23.566  1.00  0.00     0.181 C 
ATOM     13  C   UNL A   1      30.037  26.417  25.073  1.00  0.00     0.181 C 
ATOM     14  N   UNL A   1      30.738  26.504  23.784  1.00  0.00    -0.327 N 
ATOM     15  C   UNL A   1      30.451  27.375  22.741  1.00  0.00     0.257 C 
ATOM     16  O   UNL A   1      30.968  27.295  21.632  1.00  0.00    -0.269 OA
BRANCH  15  17
ATOM     17  C   UNL A   1      29.525  28.494  22.972  1.00  0.00     0.079 A 
ATOM     18  C   UNL A   1      28.151  28.329  22.746  1.00  0.00     0.020 A 
ATOM     19  C   UNL A   1      30.018  29.685  23.503  1.00  0.00     0.174 A 
ATOM     20  C   UNL A   1      27.278  29.385  23.016  1.00  0.00     0.043 A 
ATOM     21  C   UNL A   1      29.143  30.727  23.781  1.00  0.00     0.195 A 
ATOM     22  F   UNL A   1      31.330  29.849  23.724  1.00  0.00    -0.203 F 
ATOM     23  C   UNL A   1      27.783  30.576  23.533  1.00  0.00     0.161 A 
ATOM     24  F   UNL A   1      29.609  31.880  24.280  1.00  0.00    -0.200 F 
ATOM     25  F   UNL A   1      26.937  31.585  23.789  1.00  0.00    -0.204 F 
ENDBRANCH  15  17
ENDBRANCH   7   8
ENDBRANCH   5   7
ENDBRANCH   2   3
ENDBRANCH   1   2
BRANCH   1  26
ATOM     26  C   UNL A   1      35.589  23.045  25.354  1.00  0.00     0.023 C 
BRANCH  26  27
ATOM     27  C   UNL A   1      36.997  23.615  25.207  1.00  0.00     0.116 C 
BRANCH  27  28
ATOM     28  N   UNL A   1      38.025  22.670  25.609  1.00  0.00    -0.352 N 
ATOM     29  C   UNL A   1      39.208  22.882  26.272  1.00  0.00     0.251 C 
ATOM     30  H   UNL A   1      37.844  21.732  25.370  1.00  0.00     0.163 HD
ATOM     31  O   UNL A   1      40.024  21.968  26.367  1.00  0.00    -0.269 OA
BRANCH  29  32
ATOM     32  C   UNL A   1      39.528  24.207  26.854  1.00  0.00     0.039 A 
ATOM     33  C   UNL A   1      39.114  24.482  28.161  1.00  0.00     0.014 A 
ATOM     34  C   UNL A   1      40.198  25.188  26.118  1.00  0.00     0.014 A 
ATOM     35  C   UNL A   1      39.428  25.710  28.751  1.00  0.00     0.010 A 
ATOM     36  C   UNL A   1      40.569  26.386  26.728  1.00  0.00     0.010 A 
ATOM     37  C   UNL A   1      40.191  26.659  28.052  1.00  0.00    -0.014 A 
BRANCH  37  38
ATOM     38  C   UNL A   1      40.615  27.930  28.695  1.00  0.00     0.031 A 
ATOM     39  C   UNL A   1      42.036  28.121  29.145  1.00  0.00     0.074 A 
ATOM     40  C   UNL A   1      39.704  28.896  28.925  1.00  0.00     0.049 A 
ATOM     41  N   UNL A   1      42.571  29.126  29.793  1.00  0.00    -0.248 NA
ATOM     42  C   UNL A   1      42.979  27.033  28.846  1.00  0.00     0.031 C 
ATOM     43  C   UNL A   1      38.287  28.821  28.566  1.00  0.00     0.029 A 
ATOM     44  N   UNL A   1      39.831  30.126  29.523  1.00  0.00    -0.354 N 
ATOM     45  C   UNL A   1      43.904  28.788  29.984  1.00  0.00     0.074 A 
ATOM     46  C   UNL A   1      44.089  27.467  29.426  1.00  0.00     0.031 C 
ATOM     47  C   UNL A   1      37.681  29.963  28.929  1.00  0.00     0.029 A 
ATOM     48  C   UNL A   1      38.654  30.833  29.584  1.00  0.00     0.049 A 
ATOM     49  H   UNL A   1      40.683  30.470  29.875  1.00  0.00     0.167 HD
ATOM     50  C   UNL A   1      44.887  29.524  30.555  1.00  0.00     0.037 A 
ATOM     51  C   UNL A   1      38.384  32.041  30.115  1.00  0.00     0.037 A 
ATOM     52  C   UNL A   1      44.708  30.849  31.087  1.00  0.00     0.049 A 
ATOM     53  C   UNL A   1      39.491  32.829  30.761  1.00  0.00     0.074 A 
ATOM     54  C   UNL A   1      45.659  31.689  31.642  1.00  0.00     0.029 A 
ATOM     55  N   UNL A   1      43.501  31.530  31.129  1.00  0.00    -0.354 N 
ATOM     56  N   UNL A   1      40.755  32.516  30.898  1.00  0.00    -0.248 NA
ATOM     57  C   UNL A   1      39.133  34.140  31.325  1.00  0.00     0.031 C 
ATOM     58  C   UNL A   1      45.020  32.860  32.058  1.00  0.00     0.029 A 
ATOM     59  C   UNL A   1      43.681  32.772  31.717  1.00  0.00     0.049 A 
ATOM     60  H   UNL A   1      42.644  31.183  30.792  1.00  0.00     0.167 HD
ATOM     61  C   UNL A   1      41.349  33.593  31.541  1.00  0.00     0.074 A 
ATOM     62  C   UNL A   1      40.309  34.577  31.756  1.00  0.00     0.031 C 
ATOM     63  C   UNL A   1      42.641  33.748  31.919  1.00  0.00     0.037 A 
BRANCH  50  64
ATOM     64  C   UNL A   1      46.262  28.927  30.622  1.00  0.00     0.064 A 
ATOM     65  C   UNL A   1      47.153  29.061  29.546  1.00  0.00     0.173 A 
ATOM     66  C   UNL A   1      46.667  28.148  31.717  1.00  0.00     0.173 A 
ATOM     67  F   UNL A   1      46.811  29.787  28.471  1.00  0.00    -0.203 F 
ATOM     68  C   UNL A   1      48.391  28.424  29.558  1.00  0.00     0.198 A 
ATOM     69  C   UNL A   1      47.917  27.536  31.737  1.00  0.00     0.198 A 
ATOM     70  F   UNL A   1      45.855  27.996  32.774  1.00  0.00    -0.203 F 
ATOM     71  F   UNL A   1      49.212  28.537  28.505  1.00  0.00    -0.200 F 
ATOM     72  C   UNL A   1      48.773  27.666  30.654  1.00  0.00     0.200 A 
ATOM     73  F   UNL A   1      48.293  26.821  32.806  1.00  0.00    -0.200 F 
ATOM     74  F   UNL A   1      49.968  27.058  30.667  1.00  0.00    -0.200 F 
ENDBRANCH  50  64
BRANCH  51  75
ATOM     75  C   UNL A   1      37.005  32.588  30.030  1.00  0.00     0.064 A 
ATOM     76  C   UNL A   1      36.568  33.303  28.906  1.00  0.00     0.173 A 
ATOM     77  C   UNL A   1      36.105  32.428  31.092  1.00  0.00     0.173 A 
ATOM     78  F   UNL A   1      37.393  33.486  27.864  1.00  0.00    -0.203 F 
ATOM     79  C   UNL A   1      35.290  33.856  28.857  1.00  0.00     0.198 A 
ATOM     80  C   UNL A   1      34.818  32.959  31.031  1.00  0.00     0.198 A 
ATOM     81  F   UNL A   1      36.469  31.733  32.180  1.00  0.00    -0.203 F 
ATOM     82  F   UNL A   1      34.908  34.564  27.785  1.00  0.00    -0.200 F 
ATOM     83  C   UNL A   1      34.415  33.680  29.917  1.00  0.00     0.200 A 
ATOM     84  F   UNL A   1      33.967  32.766  32.048  1.00  0.00    -0.200 F 
ATOM     85  F   UNL A   1      33.182  34.202  29.866  1.00  0.00    -0.200 F 
ENDBRANCH  51  75
BRANCH  63  86
ATOM     86  C   UNL A   1      43.025  35.036  32.588  1.00  0.00     0.064 A 
ATOM     87  C   UNL A   1      42.824  35.207  33.965  1.00  0.00     0.173 A 
ATOM     88  C   UNL A   1      43.505  36.127  31.851  1.00  0.00     0.173 A 
ATOM     89  F   UNL A   1      42.358  34.196  34.713  1.00  0.00    -0.203 F 
ATOM     90  C   UNL A   1      43.072  36.433  34.578  1.00  0.00     0.198 A 
ATOM     91  C   UNL A   1      43.778  37.344  32.471  1.00  0.00     0.198 A 
ATOM     92  F   UNL A   1      43.725  36.009  30.532  1.00  0.00    -0.203 F 
ATOM     93  F   UNL A   1      42.837  36.585  35.889  1.00  0.00    -0.200 F 
ATOM     94  C   UNL A   1      43.551  37.498  33.831  1.00  0.00     0.200 A 
ATOM     95  F   UNL A   1      44.261  38.367  31.754  1.00  0.00    -0.200 F 
ATOM     96  F   UNL A   1      43.793  38.676  34.423  1.00  0.00    -0.200 F 
ENDBRANCH  63  86
ENDBRANCH  37  38
ENDBRANCH  29  32
ENDBRANCH  27  28
ENDBRANCH  26  27
ENDBRANCH   1  26
TORSDOF 13
ENDMDL
MODEL 3
REMARK VINA RESULT:     -12.9      4.903     10.134
REMARK SMILES O=C(C[NH+]1CCN(C(=O)c2ccc(F)c(F)c2F)CC1)NCCCCNC(=O)c1ccc(-c2c3nc(c(-c4c(F)c(F)c(F)c(F)c4F)c4ccc([nH]4)c(-c4c(F)c(F)c(F)c(F)c4F)c4nc(c(-c5c(F)c(F)c(F)c(F)c5F)c5ccc2[nH]5)C=C4)C=C3)cc1
REMARK SMILES IDX 23 1 22 2 21 3 1 4 2 5 3 7 4 8 5 9 20 10 6 12 19 13 7 14
REMARK SMILES IDX 8 15 9 16 10 17 11 18 17 19 12 20 15 21 18 22 13 23 16 24
REMARK SMILES IDX 14 25 24 26 25 27 26 28 27 29 28 31 29 32 30 33 91 34 31 35
REMARK SMILES IDX 90 36 32 37 33 38 34 39 84 40 35 41 89 42 83 43 85 44 36 45
REMARK SMILES IDX 88 46 82 47 81 48 37 50 69 51 49 52 68 53 50 54 53 55 67 56
REMARK SMILES IDX 86 57 51 58 52 59 66 61 87 62 54 63 38 64 39 65 47 66 40 67
REMARK SMILES IDX 41 68 45 69 48 70 42 71 43 72 46 73 44 74 70 75 71 76 79 77
REMARK SMILES IDX 72 78 73 79 77 80 80 81 74 82 75 83 78 84 76 85 55 86 56 87
REMARK SMILES IDX 64 88 57 89 58 90 62 91 65 92 59 93 60 94 63 95 61 96
REMARK H PARENT 21 6 4 11 26 30 85 49 53 60
REMARK Flexibility Score: inf
ROOT
ATOM      1  C   UNL A   1      36.728  20.642  24.900  1.00  0.00     0.023 C 
ENDROOT
BRANCH   1   2
ATOM      2  C   UNL A   1      35.327  20.041  24.991  1.00  0.00     0.116 C 
BRANCH   2   3
ATOM      3  N   UNL A   1      34.297  21.056  24.963  1.00  0.00    -0.351 N 
ATOM      4  O   UNL A   1      34.150  21.292  27.244  1.00  0.00    -0.269 OA
ATOM      5  C   UNL A   1      33.798  21.630  26.118  1.00  0.00     0.275 C 
ATOM      6  H   UNL A   1      33.938  21.349  24.093  1.00  0.00     0.163 HD
BRANCH   5   7
ATOM      7  C   UNL A   1      32.762  22.732  25.853  1.00  0.00     0.363 C 
BRANCH   7   8
ATOM      8  N   UNL A   1      33.263  24.073  26.229  1.00  0.00    -0.324 N 
ATOM      9  C   UNL A   1      34.345  24.586  25.363  1.00  0.00     0.284 C 
ATOM     10  C   UNL A   1      32.155  25.057  26.248  1.00  0.00     0.284 C 
ATOM     11  H   UNL A   1      33.660  23.954  27.162  1.00  0.00     0.348 HD
ATOM     12  C   UNL A   1      33.897  24.987  23.946  1.00  0.00     0.181 C 
ATOM     13  C   UNL A   1      31.656  25.490  24.850  1.00  0.00     0.181 C 
ATOM     14  N   UNL A   1      32.770  25.917  23.992  1.00  0.00    -0.327 N 
ATOM     15  C   UNL A   1      32.794  27.024  23.152  1.00  0.00     0.257 C 
ATOM     16  O   UNL A   1      33.690  27.240  22.345  1.00  0.00    -0.269 OA
BRANCH  15  17
ATOM     17  C   UNL A   1      31.729  28.032  23.261  1.00  0.00     0.079 A 
ATOM     18  C   UNL A   1      30.582  27.932  22.459  1.00  0.00     0.020 A 
ATOM     19  C   UNL A   1      31.833  29.029  24.229  1.00  0.00     0.174 A 
ATOM     20  C   UNL A   1      29.557  28.869  22.607  1.00  0.00     0.043 A 
ATOM     21  C   UNL A   1      30.804  29.950  24.379  1.00  0.00     0.195 A 
ATOM     22  F   UNL A   1      32.924  29.129  25.000  1.00  0.00    -0.203 F 
ATOM     23  C   UNL A   1      29.677  29.871  23.568  1.00  0.00     0.161 A 
ATOM     24  F   UNL A   1      30.900  30.920  25.299  1.00  0.00    -0.200 F 
ATOM     25  F   UNL A   1      28.688  30.766  23.702  1.00  0.00    -0.204 F 
ENDBRANCH  15  17
ENDBRANCH   7   8
ENDBRANCH   5   7
ENDBRANCH   2   3
ENDBRANCH   1   2
BRANCH   1  26
ATOM     26  C   UNL A   1      37.882  19.642  25.032  1.00  0.00     0.023 C 
BRANCH  26  27
ATOM     27  C   UNL A   1      39.105  20.142  25.795  1.00  0.00     0.116 C 
BRANCH  27  28
ATOM     28  N   UNL A   1      40.177  19.162  25.833  1.00  0.00    -0.352 N 
ATOM     29  C   UNL A   1      41.521  19.332  26.056  1.00  0.00     0.251 C 
ATOM     30  H   UNL A   1      39.897  18.232  25.675  1.00  0.00     0.163 HD
ATOM     31  O   UNL A   1      42.292  18.392  25.874  1.00  0.00    -0.269 OA
BRANCH  29  32
ATOM     32  C   UNL A   1      42.062  20.643  26.487  1.00  0.00     0.039 A 
ATOM     33  C   UNL A   1      42.511  21.537  25.510  1.00  0.00     0.014 A 
ATOM     34  C   UNL A   1      42.163  20.985  27.839  1.00  0.00     0.014 A 
ATOM     35  C   UNL A   1      42.997  22.793  25.881  1.00  0.00     0.010 A 
ATOM     36  C   UNL A   1      42.586  22.263  28.205  1.00  0.00     0.010 A 
ATOM     37  C   UNL A   1      43.004  23.182  27.231  1.00  0.00    -0.014 A 
BRANCH  37  38
ATOM     38  C   UNL A   1      43.427  24.548  27.635  1.00  0.00     0.031 A 
ATOM     39  C   UNL A   1      42.405  25.591  27.989  1.00  0.00     0.074 A 
ATOM     40  C   UNL A   1      44.736  24.867  27.632  1.00  0.00     0.049 A 
ATOM     41  N   UNL A   1      42.581  26.854  28.289  1.00  0.00    -0.248 NA
ATOM     42  C   UNL A   1      40.996  25.167  27.988  1.00  0.00     0.031 C 
ATOM     43  C   UNL A   1      45.826  23.956  27.279  1.00  0.00     0.029 A 
ATOM     44  N   UNL A   1      45.374  26.047  27.928  1.00  0.00    -0.354 N 
ATOM     45  C   UNL A   1      41.311  27.374  28.503  1.00  0.00     0.074 A 
ATOM     46  C   UNL A   1      40.369  26.305  28.254  1.00  0.00     0.031 C 
ATOM     47  C   UNL A   1      46.996  24.602  27.400  1.00  0.00     0.029 A 
ATOM     48  C   UNL A   1      46.741  25.984  27.797  1.00  0.00     0.049 A 
ATOM     49  H   UNL A   1      44.898  26.863  28.207  1.00  0.00     0.167 HD
ATOM     50  C   UNL A   1      40.967  28.624  28.892  1.00  0.00     0.037 A 
ATOM     51  C   UNL A   1      47.682  26.932  27.968  1.00  0.00     0.037 A 
ATOM     52  C   UNL A   1      41.905  29.681  29.164  1.00  0.00     0.049 A 
ATOM     53  C   UNL A   1      47.270  28.318  28.382  1.00  0.00     0.074 A 
ATOM     54  C   UNL A   1      41.648  30.967  29.608  1.00  0.00     0.029 A 
ATOM     55  N   UNL A   1      43.281  29.575  29.020  1.00  0.00    -0.354 N 
ATOM     56  N   UNL A   1      46.070  28.785  28.621  1.00  0.00    -0.248 NA
ATOM     57  C   UNL A   1      48.343  29.309  28.550  1.00  0.00     0.031 C 
ATOM     58  C   UNL A   1      42.863  31.652  29.694  1.00  0.00     0.029 A 
ATOM     59  C   UNL A   1      43.882  30.779  29.351  1.00  0.00     0.049 A 
ATOM     60  H   UNL A   1      43.758  28.766  28.727  1.00  0.00     0.167 HD
ATOM     61  C   UNL A   1      46.242  30.112  28.988  1.00  0.00     0.074 A 
ATOM     62  C   UNL A   1      47.665  30.375  28.954  1.00  0.00     0.031 C 
ATOM     63  C   UNL A   1      45.301  31.029  29.322  1.00  0.00     0.037 A 
BRANCH  50  64
ATOM     64  C   UNL A   1      39.508  28.926  29.070  1.00  0.00     0.064 A 
ATOM     65  C   UNL A   1      38.739  29.401  27.996  1.00  0.00     0.173 A 
ATOM     66  C   UNL A   1      38.890  28.827  30.326  1.00  0.00     0.173 A 
ATOM     67  F   UNL A   1      39.285  29.524  26.777  1.00  0.00    -0.203 F 
ATOM     68  C   UNL A   1      37.412  29.781  28.177  1.00  0.00     0.198 A 
ATOM     69  C   UNL A   1      37.555  29.181  30.497  1.00  0.00     0.198 A 
ATOM     70  F   UNL A   1      39.579  28.370  31.383  1.00  0.00    -0.203 F 
ATOM     71  F   UNL A   1      36.708  30.265  27.145  1.00  0.00    -0.200 F 
ATOM     72  C   UNL A   1      36.820  29.668  29.426  1.00  0.00     0.200 A 
ATOM     73  F   UNL A   1      36.978  29.051  31.700  1.00  0.00    -0.200 F 
ATOM     74  F   UNL A   1      35.541  30.027  29.598  1.00  0.00    -0.200 F 
ENDBRANCH  50  64
BRANCH  51  75
ATOM     75  C   UNL A   1      49.114  26.585  27.774  1.00  0.00     0.064 A 
ATOM     76  C   UNL A   1      49.673  26.465  26.493  1.00  0.00     0.173 A 
ATOM     77  C   UNL A   1      49.946  26.338  28.874  1.00  0.00     0.173 A 
ATOM     78  F   UNL A   1      48.917  26.689  25.407  1.00  0.00    -0.203 F 
ATOM     79  C   UNL A   1      51.003  26.090  26.320  1.00  0.00     0.198 A 
ATOM     80  C   UNL A   1      51.284  25.988  28.701  1.00  0.00     0.198 A 
ATOM     81  F   UNL A   1      49.464  26.460  30.120  1.00  0.00    -0.203 F 
ATOM     82  F   UNL A   1      51.503  25.949  25.085  1.00  0.00    -0.200 F 
ATOM     83  C   UNL A   1      51.808  25.856  27.424  1.00  0.00     0.200 A 
ATOM     84  F   UNL A   1      52.065  25.785  29.771  1.00  0.00    -0.200 F 
ATOM     85  F   UNL A   1      53.091  25.505  27.259  1.00  0.00    -0.200 F 
ENDBRANCH  51  75
BRANCH  63  86
ATOM     86  C   UNL A   1      45.767  32.403  29.701  1.00  0.00     0.064 A 
ATOM     87  C   UNL A   1      46.042  32.715  31.041  1.00  0.00     0.173 A 
ATOM     88  C   UNL A   1      45.854  33.433  28.754  1.00  0.00     0.173 A 
ATOM     89  F   UNL A   1      45.964  31.766  31.987  1.00  0.00    -0.203 F 
ATOM     90  C   UNL A   1      46.368  34.013  31.422  1.00  0.00     0.198 A 
ATOM     91  C   UNL A   1      46.207  34.726  29.135  1.00  0.00     0.198 A 
ATOM     92  F   UNL A   1      45.612  33.183  27.458  1.00  0.00    -0.203 F 
ATOM     93  F   UNL A   1      46.590  34.297  32.714  1.00  0.00    -0.200 F 
ATOM     94  C   UNL A   1      46.453  35.017  30.468  1.00  0.00     0.200 A 
ATOM     95  F   UNL A   1      46.310  35.690  28.210  1.00  0.00    -0.200 F 
ATOM     96  F   UNL A   1      46.771  36.266  30.836  1.00  0.00    -0.200 F 
ENDBRANCH  63  86
ENDBRANCH  37  38
ENDBRANCH  29  32
ENDBRANCH  27  28
ENDBRANCH  26  27
ENDBRANCH   1  26
TORSDOF 13
ENDMDL
