MODEL 1
REMARK VINA RESULT:     -13.2      0.000      0.000
REMARK SMILES COc1ccc(C)cc1[C@@H](C)NC(=O)CC1(C(=O)NCCCCNC(=O)c2ccc(-c3c4nc(c(-c5c(F)c(F)c(F)c(F)c5F)c5ccc([nH]5)c(-c5c(F)c(F)c(F)c(F)c5F)c5nc(c(-c6c(F)c(F)c(F)c(F)c6F)c6ccc3[nH]6)C=C5)C=C4)cc2)CCCC1
REMARK SMILES IDX 20 1 19 2 17 3 18 4 16 6 90 7 93 8 91 9 92 10 15 11 13 12
REMARK SMILES IDX 12 13 14 15 10 16 11 17 9 18 3 19 4 20 5 21 8 22 6 23 7 24
REMARK SMILES IDX 2 25 1 26 21 27 22 28 23 29 24 30 25 31 26 33 27 34 28 35
REMARK SMILES IDX 89 36 29 37 88 38 30 39 31 40 32 41 82 42 33 43 87 44 81 45
REMARK SMILES IDX 83 46 34 47 86 48 80 49 79 50 35 52 67 53 47 54 66 55 48 56
REMARK SMILES IDX 51 57 65 58 84 59 49 60 50 61 64 63 85 64 52 65 36 66 37 67
REMARK SMILES IDX 45 68 38 69 39 70 43 71 46 72 40 73 41 74 44 75 42 76 68 77
REMARK SMILES IDX 69 78 77 79 70 80 71 81 75 82 78 83 72 84 73 85 76 86 74 87
REMARK SMILES IDX 53 88 54 89 62 90 55 91 56 92 60 93 63 94 57 95 58 96 61 97
REMARK SMILES IDX 59 98
REMARK H PARENT 19 5 12 14 24 32 83 51 51 62
REMARK Flexibility Score: inf
ROOT
ATOM      1  C   UNL A   1      31.117  29.690  24.473  1.00  0.00     0.116 C 
ENDROOT
BRANCH   1   2
ATOM      2  N   UNL A   1      32.247  29.334  23.652  1.00  0.00    -0.356 N 
ATOM      3  C   UNL A   1      33.086  28.279  23.623  1.00  0.00     0.226 C 
ATOM      4  O   UNL A   1      34.212  28.582  23.205  1.00  0.00    -0.274 OA
ATOM      5  H   UNL A   1      32.451  30.007  22.963  1.00  0.00     0.163 HD
BRANCH   3   6
ATOM      6  C   UNL A   1      32.807  26.839  24.132  1.00  0.00     0.058 C 
ATOM      7  C   UNL A   1      31.373  26.428  24.519  1.00  0.00     0.017 C 
ATOM      8  C   UNL A   1      33.568  26.615  25.462  1.00  0.00     0.017 C 
ATOM      9  C   UNL A   1      31.217  26.454  26.035  1.00  0.00     0.001 C 
ATOM     10  C   UNL A   1      32.572  26.823  26.597  1.00  0.00     0.001 C 
BRANCH   6  11
ATOM     11  C   UNL A   1      33.323  25.834  23.031  1.00  0.00     0.117 C 
BRANCH  11  12
ATOM     12  C   UNL A   1      32.359  25.126  22.076  1.00  0.00     0.221 C 
ATOM     13  N   UNL A   1      32.107  23.794  22.117  1.00  0.00    -0.349 N 
ATOM     14  H   UNL A   1      31.355  23.512  21.548  1.00  0.00     0.164 HD
ATOM     15  O   UNL A   1      31.826  25.763  21.158  1.00  0.00    -0.275 OA
BRANCH  13  16
ATOM     16  C   UNL A   1      32.738  22.699  22.844  1.00  0.00     0.113 C 
ATOM     17  C   UNL A   1      32.123  21.370  22.394  1.00  0.00     0.036 C 
BRANCH  16  18
ATOM     18  C   UNL A   1      32.598  22.851  24.358  1.00  0.00     0.016 A 
ATOM     19  C   UNL A   1      33.735  22.937  25.187  1.00  0.00     0.124 A 
ATOM     20  C   UNL A   1      33.586  23.111  26.566  1.00  0.00     0.047 A 
ATOM     21  C   UNL A   1      32.323  23.096  27.153  1.00  0.00     0.007 A 
ATOM     22  C   UNL A   1      31.328  22.828  24.973  1.00  0.00     0.013 A 
ATOM     23  C   UNL A   1      31.185  22.930  26.365  1.00  0.00    -0.051 A 
ATOM     24  C   UNL A   1      29.834  22.789  27.002  1.00  0.00     0.044 C 
BRANCH  19  25
ATOM     25  O   UNL A   1      34.944  22.807  24.565  1.00  0.00    -0.496 OA
ATOM     26  C   UNL A   1      35.957  23.765  24.832  1.00  0.00     0.278 C 
ENDBRANCH  19  25
ENDBRANCH  16  18
ENDBRANCH  13  16
ENDBRANCH  11  12
ENDBRANCH   6  11
ENDBRANCH   3   6
ENDBRANCH   1   2
BRANCH   1  27
ATOM     27  C   UNL A   1      31.563  30.427  25.746  1.00  0.00     0.023 C 
BRANCH  27  28
ATOM     28  C   UNL A   1      33.059  30.347  26.064  1.00  0.00     0.023 C 
BRANCH  28  29
ATOM     29  C   UNL A   1      33.381  30.353  27.548  1.00  0.00     0.116 C 
BRANCH  29  30
ATOM     30  N   UNL A   1      34.161  31.492  28.005  1.00  0.00    -0.352 N 
ATOM     31  C   UNL A   1      35.406  31.551  28.619  1.00  0.00     0.251 C 
ATOM     32  H   UNL A   1      33.736  32.367  27.853  1.00  0.00     0.163 HD
ATOM     33  O   UNL A   1      35.816  32.618  29.031  1.00  0.00    -0.269 OA
BRANCH  31  34
ATOM     34  C   UNL A   1      36.303  30.360  28.639  1.00  0.00     0.039 A 
ATOM     35  C   UNL A   1      36.400  29.621  29.830  1.00  0.00     0.014 A 
ATOM     36  C   UNL A   1      37.179  30.085  27.600  1.00  0.00     0.014 A 
ATOM     37  C   UNL A   1      37.519  28.822  30.064  1.00  0.00     0.010 A 
ATOM     38  C   UNL A   1      38.351  29.423  27.877  1.00  0.00     0.010 A 
ATOM     39  C   UNL A   1      38.548  28.836  29.131  1.00  0.00    -0.014 A 
BRANCH  39  40
ATOM     40  C   UNL A   1      39.898  28.345  29.359  1.00  0.00     0.031 A 
ATOM     41  C   UNL A   1      40.304  27.023  28.848  1.00  0.00     0.074 A 
ATOM     42  C   UNL A   1      40.839  29.213  29.792  1.00  0.00     0.049 A 
ATOM     43  N   UNL A   1      41.419  26.451  29.141  1.00  0.00    -0.248 NA
ATOM     44  C   UNL A   1      39.464  26.216  27.976  1.00  0.00     0.031 C 
ATOM     45  C   UNL A   1      42.287  29.108  29.616  1.00  0.00     0.029 A 
ATOM     46  N   UNL A   1      40.673  30.323  30.630  1.00  0.00    -0.354 N 
ATOM     47  C   UNL A   1      41.585  25.379  28.296  1.00  0.00     0.074 A 
ATOM     48  C   UNL A   1      40.302  25.228  27.653  1.00  0.00     0.031 C 
ATOM     49  C   UNL A   1      42.896  29.909  30.500  1.00  0.00     0.029 A 
ATOM     50  C   UNL A   1      41.865  30.410  31.386  1.00  0.00     0.049 A 
ATOM     51  H   UNL A   1      39.891  30.920  30.681  1.00  0.00     0.167 HD
ATOM     52  C   UNL A   1      42.836  24.846  28.168  1.00  0.00     0.037 A 
ATOM     53  C   UNL A   1      41.858  30.212  32.736  1.00  0.00     0.037 A 
ATOM     54  C   UNL A   1      43.775  25.486  29.100  1.00  0.00     0.049 A 
ATOM     55  C   UNL A   1      42.746  29.086  33.213  1.00  0.00     0.074 A 
ATOM     56  C   UNL A   1      44.788  26.419  28.953  1.00  0.00     0.029 A 
ATOM     57  N   UNL A   1      43.551  25.380  30.468  1.00  0.00    -0.354 N 
ATOM     58  N   UNL A   1      43.226  28.141  32.455  1.00  0.00    -0.248 NA
ATOM     59  C   UNL A   1      43.110  28.918  34.609  1.00  0.00     0.031 C 
ATOM     60  C   UNL A   1      45.214  26.824  30.248  1.00  0.00     0.029 A 
ATOM     61  C   UNL A   1      44.457  26.139  31.183  1.00  0.00     0.049 A 
ATOM     62  H   UNL A   1      42.840  24.833  30.874  1.00  0.00     0.167 HD
ATOM     63  C   UNL A   1      43.916  27.226  33.220  1.00  0.00     0.074 A 
ATOM     64  C   UNL A   1      43.812  27.773  34.562  1.00  0.00     0.031 C 
ATOM     65  C   UNL A   1      44.461  26.101  32.647  1.00  0.00     0.037 A 
BRANCH  52  66
ATOM     66  C   UNL A   1      43.298  23.913  27.056  1.00  0.00     0.064 A 
ATOM     67  C   UNL A   1      42.903  22.555  27.048  1.00  0.00     0.173 A 
ATOM     68  C   UNL A   1      44.163  24.261  26.000  1.00  0.00     0.173 A 
ATOM     69  F   UNL A   1      41.996  22.081  27.911  1.00  0.00    -0.203 F 
ATOM     70  C   UNL A   1      43.421  21.617  26.146  1.00  0.00     0.198 A 
ATOM     71  C   UNL A   1      44.711  23.319  25.122  1.00  0.00     0.198 A 
ATOM     72  F   UNL A   1      44.468  25.529  25.722  1.00  0.00    -0.203 F 
ATOM     73  F   UNL A   1      43.016  20.342  26.209  1.00  0.00    -0.200 F 
ATOM     74  C   UNL A   1      44.350  21.994  25.202  1.00  0.00     0.200 A 
ATOM     75  F   UNL A   1      45.589  23.718  24.189  1.00  0.00    -0.200 F 
ATOM     76  F   UNL A   1      44.873  21.094  24.358  1.00  0.00    -0.200 F 
ENDBRANCH  52  66
BRANCH  53  77
ATOM     77  C   UNL A   1      40.562  30.589  33.361  1.00  0.00     0.064 A 
ATOM     78  C   UNL A   1      40.298  31.957  33.568  1.00  0.00     0.173 A 
ATOM     79  C   UNL A   1      39.472  29.711  33.329  1.00  0.00     0.173 A 
ATOM     80  F   UNL A   1      41.312  32.838  33.593  1.00  0.00    -0.203 F 
ATOM     81  C   UNL A   1      38.993  32.441  33.599  1.00  0.00     0.198 A 
ATOM     82  C   UNL A   1      38.165  30.200  33.377  1.00  0.00     0.198 A 
ATOM     83  F   UNL A   1      39.662  28.402  33.113  1.00  0.00    -0.203 F 
ATOM     84  F   UNL A   1      38.773  33.762  33.661  1.00  0.00    -0.200 F 
ATOM     85  C   UNL A   1      37.928  31.565  33.470  1.00  0.00     0.200 A 
ATOM     86  F   UNL A   1      37.134  29.359  33.218  1.00  0.00    -0.200 F 
ATOM     87  F   UNL A   1      36.677  32.037  33.382  1.00  0.00    -0.200 F 
ENDBRANCH  53  77
BRANCH  65  88
ATOM     88  C   UNL A   1      45.062  24.859  33.320  1.00  0.00     0.064 A 
ATOM     89  C   UNL A   1      44.368  23.694  33.687  1.00  0.00     0.173 A 
ATOM     90  C   UNL A   1      46.458  24.799  33.606  1.00  0.00     0.173 A 
ATOM     91  F   UNL A   1      43.046  23.586  33.571  1.00  0.00    -0.203 F 
ATOM     92  C   UNL A   1      45.004  22.567  34.230  1.00  0.00     0.198 A 
ATOM     93  C   UNL A   1      47.091  23.675  34.143  1.00  0.00     0.198 A 
ATOM     94  F   UNL A   1      47.284  25.825  33.368  1.00  0.00    -0.203 F 
ATOM     95  F   UNL A   1      44.274  21.485  34.537  1.00  0.00    -0.200 F 
ATOM     96  C   UNL A   1      46.364  22.552  34.448  1.00  0.00     0.200 A 
ATOM     97  F   UNL A   1      48.417  23.696  34.347  1.00  0.00    -0.200 F 
ATOM     98  F   UNL A   1      46.966  21.468  34.953  1.00  0.00    -0.200 F 
ENDBRANCH  65  88
ENDBRANCH  39  40
ENDBRANCH  31  34
ENDBRANCH  29  30
ENDBRANCH  28  29
ENDBRANCH  27  28
ENDBRANCH   1  27
TORSDOF 16
ENDMDL
MODEL 2
REMARK VINA RESULT:     -13.0      3.521      9.665
REMARK SMILES COc1ccc(C)cc1[C@@H](C)NC(=O)CC1(C(=O)NCCCCNC(=O)c2ccc(-c3c4nc(c(-c5c(F)c(F)c(F)c(F)c5F)c5ccc([nH]5)c(-c5c(F)c(F)c(F)c(F)c5F)c5nc(c(-c6c(F)c(F)c(F)c(F)c6F)c6ccc3[nH]6)C=C5)C=C4)cc2)CCCC1
REMARK SMILES IDX 20 1 19 2 17 3 18 4 16 6 90 7 93 8 91 9 92 10 15 11 13 12
REMARK SMILES IDX 12 13 14 15 10 16 11 17 9 18 3 19 4 20 5 21 8 22 6 23 7 24
REMARK SMILES IDX 2 25 1 26 21 27 22 28 23 29 24 30 25 31 26 33 27 34 28 35
REMARK SMILES IDX 89 36 29 37 88 38 30 39 31 40 32 41 82 42 33 43 87 44 81 45
REMARK SMILES IDX 83 46 34 47 86 48 80 49 79 50 35 52 67 53 47 54 66 55 48 56
REMARK SMILES IDX 51 57 65 58 84 59 49 60 50 61 64 63 85 64 52 65 36 66 37 67
REMARK SMILES IDX 45 68 38 69 39 70 43 71 46 72 40 73 41 74 44 75 42 76 68 77
REMARK SMILES IDX 69 78 77 79 70 80 71 81 75 82 78 83 72 84 73 85 76 86 74 87
REMARK SMILES IDX 53 88 54 89 62 90 55 91 56 92 60 93 63 94 57 95 58 96 61 97
REMARK SMILES IDX 59 98
REMARK H PARENT 19 5 12 14 24 32 83 51 51 62
REMARK Flexibility Score: inf
ROOT
ATOM      1  C   UNL A   1      35.394  20.838  25.736  1.00  0.00     0.116 C 
ENDROOT
BRANCH   1   2
ATOM      2  N   UNL A   1      34.166  20.390  25.127  1.00  0.00    -0.356 N 
ATOM      3  C   UNL A   1      32.945  20.941  24.970  1.00  0.00     0.226 C 
ATOM      4  O   UNL A   1      32.045  20.090  24.934  1.00  0.00    -0.274 OA
ATOM      5  H   UNL A   1      34.234  19.487  24.742  1.00  0.00     0.163 HD
BRANCH   3   6
ATOM      6  C   UNL A   1      32.590  22.451  24.937  1.00  0.00     0.058 C 
ATOM      7  C   UNL A   1      33.316  23.430  25.882  1.00  0.00     0.017 C 
ATOM      8  C   UNL A   1      31.113  22.634  25.368  1.00  0.00     0.017 C 
ATOM      9  C   UNL A   1      32.421  23.760  27.072  1.00  0.00     0.001 C 
ATOM     10  C   UNL A   1      31.116  23.035  26.838  1.00  0.00     0.001 C 
BRANCH   6  11
ATOM     11  C   UNL A   1      32.795  22.959  23.457  1.00  0.00     0.117 C 
BRANCH  11  12
ATOM     12  C   UNL A   1      34.020  23.784  23.055  1.00  0.00     0.221 C 
ATOM     13  N   UNL A   1      34.001  25.134  22.916  1.00  0.00    -0.349 N 
ATOM     14  H   UNL A   1      34.892  25.537  22.806  1.00  0.00     0.164 HD
ATOM     15  O   UNL A   1      35.075  23.211  22.758  1.00  0.00    -0.275 OA
BRANCH  13  16
ATOM     16  C   UNL A   1      32.911  26.102  22.899  1.00  0.00     0.113 C 
ATOM     17  C   UNL A   1      33.318  27.308  22.047  1.00  0.00     0.036 C 
BRANCH  16  18
ATOM     18  C   UNL A   1      32.524  26.565  24.303  1.00  0.00     0.016 A 
ATOM     19  C   UNL A   1      31.219  26.365  24.798  1.00  0.00     0.124 A 
ATOM     20  C   UNL A   1      30.893  26.764  26.097  1.00  0.00     0.047 A 
ATOM     21  C   UNL A   1      31.815  27.455  26.882  1.00  0.00     0.007 A 
ATOM     22  C   UNL A   1      33.438  27.275  25.109  1.00  0.00     0.013 A 
ATOM     23  C   UNL A   1      33.086  27.737  26.386  1.00  0.00    -0.051 A 
ATOM     24  C   UNL A   1      34.038  28.586  27.175  1.00  0.00     0.044 C 
BRANCH  19  25
ATOM     25  O   UNL A   1      30.324  25.806  23.929  1.00  0.00    -0.496 OA
ATOM     26  C   UNL A   1      29.006  26.328  23.876  1.00  0.00     0.278 C 
ENDBRANCH  19  25
ENDBRANCH  16  18
ENDBRANCH  13  16
ENDBRANCH  11  12
ENDBRANCH   6  11
ENDBRANCH   3   6
ENDBRANCH   1   2
BRANCH   1  27
ATOM     27  C   UNL A   1      36.617  20.370  24.932  1.00  0.00     0.023 C 
BRANCH  27  28
ATOM     28  C   UNL A   1      37.680  21.439  24.666  1.00  0.00     0.023 C 
BRANCH  28  29
ATOM     29  C   UNL A   1      38.021  22.294  25.875  1.00  0.00     0.116 C 
BRANCH  29  30
ATOM     30  N   UNL A   1      39.392  22.177  26.346  1.00  0.00    -0.352 N 
ATOM     31  C   UNL A   1      40.312  23.153  26.708  1.00  0.00     0.251 C 
ATOM     32  H   UNL A   1      39.723  21.253  26.420  1.00  0.00     0.163 HD
ATOM     33  O   UNL A   1      41.456  22.829  26.956  1.00  0.00    -0.269 OA
BRANCH  31  34
ATOM     34  C   UNL A   1      39.877  24.560  26.944  1.00  0.00     0.039 A 
ATOM     35  C   UNL A   1      40.405  25.566  26.117  1.00  0.00     0.014 A 
ATOM     36  C   UNL A   1      39.139  24.922  28.061  1.00  0.00     0.014 A 
ATOM     37  C   UNL A   1      40.419  26.890  26.555  1.00  0.00     0.010 A 
ATOM     38  C   UNL A   1      39.280  26.192  28.567  1.00  0.00     0.010 A 
ATOM     39  C   UNL A   1      39.969  27.167  27.839  1.00  0.00    -0.014 A 
BRANCH  39  40
ATOM     40  C   UNL A   1      40.215  28.400  28.570  1.00  0.00     0.031 A 
ATOM     41  C   UNL A   1      39.179  29.448  28.630  1.00  0.00     0.074 A 
ATOM     42  C   UNL A   1      41.273  28.456  29.409  1.00  0.00     0.049 A 
ATOM     43  N   UNL A   1      39.374  30.623  29.116  1.00  0.00    -0.248 NA
ATOM     44  C   UNL A   1      37.831  29.262  28.116  1.00  0.00     0.031 C 
ATOM     45  C   UNL A   1      41.435  29.330  30.571  1.00  0.00     0.029 A 
ATOM     46  N   UNL A   1      42.512  27.814  29.284  1.00  0.00    -0.354 N 
ATOM     47  C   UNL A   1      38.151  31.235  29.258  1.00  0.00     0.074 A 
ATOM     48  C   UNL A   1      37.236  30.380  28.541  1.00  0.00     0.031 C 
ATOM     49  C   UNL A   1      42.733  29.387  30.898  1.00  0.00     0.029 A 
ATOM     50  C   UNL A   1      43.458  28.701  29.849  1.00  0.00     0.049 A 
ATOM     51  H   UNL A   1      42.687  26.929  28.889  1.00  0.00     0.167 HD
ATOM     52  C   UNL A   1      38.065  32.325  30.078  1.00  0.00     0.037 A 
ATOM     53  C   UNL A   1      44.421  29.285  29.080  1.00  0.00     0.037 A 
ATOM     54  C   UNL A   1      39.394  32.711  30.573  1.00  0.00     0.049 A 
ATOM     55  C   UNL A   1      44.399  30.796  29.083  1.00  0.00     0.074 A 
ATOM     56  C   UNL A   1      40.045  32.572  31.788  1.00  0.00     0.029 A 
ATOM     57  N   UNL A   1      40.369  33.106  29.663  1.00  0.00    -0.354 N 
ATOM     58  N   UNL A   1      43.393  31.528  29.472  1.00  0.00    -0.248 NA
ATOM     59  C   UNL A   1      45.508  31.593  28.587  1.00  0.00     0.031 C 
ATOM     60  C   UNL A   1      41.405  32.949  31.612  1.00  0.00     0.029 A 
ATOM     61  C   UNL A   1      41.582  33.314  30.290  1.00  0.00     0.049 A 
ATOM     62  H   UNL A   1      40.213  33.224  28.698  1.00  0.00     0.167 HD
ATOM     63  C   UNL A   1      43.668  32.861  29.257  1.00  0.00     0.074 A 
ATOM     64  C   UNL A   1      45.013  32.836  28.707  1.00  0.00     0.031 C 
ATOM     65  C   UNL A   1      42.727  33.825  29.532  1.00  0.00     0.037 A 
BRANCH  52  66
ATOM     66  C   UNL A   1      36.781  32.920  30.638  1.00  0.00     0.064 A 
ATOM     67  C   UNL A   1      35.907  33.655  29.803  1.00  0.00     0.173 A 
ATOM     68  C   UNL A   1      36.365  32.859  31.982  1.00  0.00     0.173 A 
ATOM     69  F   UNL A   1      36.089  33.720  28.478  1.00  0.00    -0.203 F 
ATOM     70  C   UNL A   1      34.799  34.357  30.292  1.00  0.00     0.198 A 
ATOM     71  C   UNL A   1      35.281  33.590  32.480  1.00  0.00     0.198 A 
ATOM     72  F   UNL A   1      36.941  32.041  32.865  1.00  0.00    -0.203 F 
ATOM     73  F   UNL A   1      34.024  35.050  29.446  1.00  0.00    -0.200 F 
ATOM     74  C   UNL A   1      34.504  34.350  31.637  1.00  0.00     0.200 A 
ATOM     75  F   UNL A   1      34.995  33.538  33.790  1.00  0.00    -0.200 F 
ATOM     76  F   UNL A   1      33.463  35.046  32.115  1.00  0.00    -0.200 F 
ENDBRANCH  52  66
BRANCH  53  77
ATOM     77  C   UNL A   1      44.804  28.448  27.912  1.00  0.00     0.064 A 
ATOM     78  C   UNL A   1      45.611  27.318  28.142  1.00  0.00     0.173 A 
ATOM     79  C   UNL A   1      44.053  28.484  26.730  1.00  0.00     0.173 A 
ATOM     80  F   UNL A   1      46.339  27.233  29.268  1.00  0.00    -0.203 F 
ATOM     81  C   UNL A   1      45.560  26.213  27.296  1.00  0.00     0.198 A 
ATOM     82  C   UNL A   1      44.018  27.380  25.877  1.00  0.00     0.198 A 
ATOM     83  F   UNL A   1      43.250  29.525  26.469  1.00  0.00    -0.203 F 
ATOM     84  F   UNL A   1      46.236  25.099  27.612  1.00  0.00    -0.200 F 
ATOM     85  C   UNL A   1      44.738  26.233  26.182  1.00  0.00     0.200 A 
ATOM     86  F   UNL A   1      43.197  27.384  24.818  1.00  0.00    -0.200 F 
ATOM     87  F   UNL A   1      44.596  25.132  25.432  1.00  0.00    -0.200 F 
ENDBRANCH  53  77
BRANCH  65  88
ATOM     88  C   UNL A   1      42.726  35.317  29.170  1.00  0.00     0.064 A 
ATOM     89  C   UNL A   1      42.146  35.895  28.029  1.00  0.00     0.173 A 
ATOM     90  C   UNL A   1      43.330  36.270  30.042  1.00  0.00     0.173 A 
ATOM     91  F   UNL A   1      41.600  35.164  27.059  1.00  0.00    -0.203 F 
ATOM     92  C   UNL A   1      42.120  37.281  27.806  1.00  0.00     0.198 A 
ATOM     93  C   UNL A   1      43.301  37.650  29.821  1.00  0.00     0.198 A 
ATOM     94  F   UNL A   1      43.972  35.914  31.162  1.00  0.00    -0.203 F 
ATOM     95  F   UNL A   1      41.529  37.757  26.701  1.00  0.00    -0.200 F 
ATOM     96  C   UNL A   1      42.686  38.158  28.705  1.00  0.00     0.200 A 
ATOM     97  F   UNL A   1      43.866  38.476  30.714  1.00  0.00    -0.200 F 
ATOM     98  F   UNL A   1      42.645  39.479  28.493  1.00  0.00    -0.200 F 
ENDBRANCH  65  88
ENDBRANCH  39  40
ENDBRANCH  31  34
ENDBRANCH  29  30
ENDBRANCH  28  29
ENDBRANCH  27  28
ENDBRANCH   1  27
TORSDOF 16
ENDMDL
MODEL 3
REMARK VINA RESULT:     -12.9      1.048      2.353
REMARK SMILES COc1ccc(C)cc1[C@@H](C)NC(=O)CC1(C(=O)NCCCCNC(=O)c2ccc(-c3c4nc(c(-c5c(F)c(F)c(F)c(F)c5F)c5ccc([nH]5)c(-c5c(F)c(F)c(F)c(F)c5F)c5nc(c(-c6c(F)c(F)c(F)c(F)c6F)c6ccc3[nH]6)C=C5)C=C4)cc2)CCCC1
REMARK SMILES IDX 20 1 19 2 17 3 18 4 16 6 90 7 93 8 91 9 92 10 15 11 13 12
REMARK SMILES IDX 12 13 14 15 10 16 11 17 9 18 3 19 4 20 5 21 8 22 6 23 7 24
REMARK SMILES IDX 2 25 1 26 21 27 22 28 23 29 24 30 25 31 26 33 27 34 28 35
REMARK SMILES IDX 89 36 29 37 88 38 30 39 31 40 32 41 82 42 33 43 87 44 81 45
REMARK SMILES IDX 83 46 34 47 86 48 80 49 79 50 35 52 67 53 47 54 66 55 48 56
REMARK SMILES IDX 51 57 65 58 84 59 49 60 50 61 64 63 85 64 52 65 36 66 37 67
REMARK SMILES IDX 45 68 38 69 39 70 43 71 46 72 40 73 41 74 44 75 42 76 68 77
REMARK SMILES IDX 69 78 77 79 70 80 71 81 75 82 78 83 72 84 73 85 76 86 74 87
REMARK SMILES IDX 53 88 54 89 62 90 55 91 56 92 60 93 63 94 57 95 58 96 61 97
REMARK SMILES IDX 59 98
REMARK H PARENT 19 5 12 14 24 32 83 51 51 62
REMARK Flexibility Score: inf
ROOT
ATOM      1  C   UNL A   1      31.385  29.325  25.314  1.00  0.00     0.116 C 
ENDROOT
BRANCH   1   2
ATOM      2  N   UNL A   1      30.704  28.820  24.147  1.00  0.00    -0.356 N 
ATOM      3  C   UNL A   1      30.908  27.769  23.328  1.00  0.00     0.226 C 
ATOM      4  O   UNL A   1      30.506  27.984  22.175  1.00  0.00    -0.274 OA
ATOM      5  H   UNL A   1      29.920  29.359  23.895  1.00  0.00     0.163 HD
BRANCH   3   6
ATOM      6  C   UNL A   1      31.645  26.444  23.660  1.00  0.00     0.058 C 
ATOM      7  C   UNL A   1      33.159  26.463  23.954  1.00  0.00     0.017 C 
ATOM      8  C   UNL A   1      31.575  25.503  22.432  1.00  0.00     0.017 C 
ATOM      9  C   UNL A   1      33.931  25.997  22.725  1.00  0.00     0.001 C 
ATOM     10  C   UNL A   1      32.897  25.632  21.684  1.00  0.00     0.001 C 
BRANCH   6  11
ATOM     11  C   UNL A   1      30.916  25.787  24.895  1.00  0.00     0.117 C 
BRANCH  11  12
ATOM     12  C   UNL A   1      31.534  25.807  26.295  1.00  0.00     0.221 C 
ATOM     13  N   UNL A   1      32.246  24.775  26.814  1.00  0.00    -0.349 N 
ATOM     14  H   UNL A   1      32.708  24.992  27.656  1.00  0.00     0.164 HD
ATOM     15  O   UNL A   1      31.324  26.768  27.045  1.00  0.00    -0.275 OA
BRANCH  13  16
ATOM     16  C   UNL A   1      32.458  23.405  26.362  1.00  0.00     0.113 C 
ATOM     17  C   UNL A   1      32.621  22.490  27.580  1.00  0.00     0.036 C 
BRANCH  16  18
ATOM     18  C   UNL A   1      33.676  23.277  25.449  1.00  0.00     0.016 A 
ATOM     19  C   UNL A   1      33.566  22.691  24.172  1.00  0.00     0.124 A 
ATOM     20  C   UNL A   1      34.685  22.614  23.337  1.00  0.00     0.047 A 
ATOM     21  C   UNL A   1      35.940  23.016  23.790  1.00  0.00     0.007 A 
ATOM     22  C   UNL A   1      34.957  23.669  25.892  1.00  0.00     0.013 A 
ATOM     23  C   UNL A   1      36.092  23.524  25.079  1.00  0.00    -0.051 A 
ATOM     24  C   UNL A   1      37.455  23.842  25.614  1.00  0.00     0.044 C 
BRANCH  19  25
ATOM     25  O   UNL A   1      32.338  22.192  23.842  1.00  0.00    -0.496 OA
ATOM     26  C   UNL A   1      32.134  21.689  22.531  1.00  0.00     0.278 C 
ENDBRANCH  19  25
ENDBRANCH  16  18
ENDBRANCH  13  16
ENDBRANCH  11  12
ENDBRANCH   6  11
ENDBRANCH   3   6
ENDBRANCH   1   2
BRANCH   1  27
ATOM     27  C   UNL A   1      32.845  29.684  24.994  1.00  0.00     0.023 C 
BRANCH  27  28
ATOM     28  C   UNL A   1      33.861  29.353  26.091  1.00  0.00     0.023 C 
BRANCH  28  29
ATOM     29  C   UNL A   1      33.589  30.039  27.419  1.00  0.00     0.116 C 
BRANCH  29  30
ATOM     30  N   UNL A   1      34.406  31.212  27.686  1.00  0.00    -0.352 N 
ATOM     31  C   UNL A   1      35.686  31.324  28.214  1.00  0.00     0.251 C 
ATOM     32  H   UNL A   1      33.982  32.069  27.453  1.00  0.00     0.163 HD
ATOM     33  O   UNL A   1      36.131  32.426  28.468  1.00  0.00    -0.269 OA
BRANCH  31  34
ATOM     34  C   UNL A   1      36.571  30.128  28.328  1.00  0.00     0.039 A 
ATOM     35  C   UNL A   1      36.633  29.463  29.564  1.00  0.00     0.014 A 
ATOM     36  C   UNL A   1      37.469  29.783  27.329  1.00  0.00     0.014 A 
ATOM     37  C   UNL A   1      37.738  28.670  29.873  1.00  0.00     0.010 A 
ATOM     38  C   UNL A   1      38.627  29.129  27.674  1.00  0.00     0.010 A 
ATOM     39  C   UNL A   1      38.789  28.619  28.966  1.00  0.00    -0.014 A 
BRANCH  39  40
ATOM     40  C   UNL A   1      40.128  28.131  29.256  1.00  0.00     0.031 A 
ATOM     41  C   UNL A   1      40.559  26.808  28.769  1.00  0.00     0.074 A 
ATOM     42  C   UNL A   1      41.047  29.003  29.727  1.00  0.00     0.049 A 
ATOM     43  N   UNL A   1      41.661  26.239  29.114  1.00  0.00    -0.248 NA
ATOM     44  C   UNL A   1      39.759  25.996  27.864  1.00  0.00     0.031 C 
ATOM     45  C   UNL A   1      42.502  28.899  29.615  1.00  0.00     0.029 A 
ATOM     46  N   UNL A   1      40.842  30.116  30.552  1.00  0.00    -0.354 N 
ATOM     47  C   UNL A   1      41.866  25.164  28.282  1.00  0.00     0.074 A 
ATOM     48  C   UNL A   1      40.613  25.007  27.583  1.00  0.00     0.031 C 
ATOM     49  C   UNL A   1      43.069  29.705  30.523  1.00  0.00     0.029 A 
ATOM     50  C   UNL A   1      41.999  30.208  31.360  1.00  0.00     0.049 A 
ATOM     51  H   UNL A   1      40.058  30.711  30.566  1.00  0.00     0.167 HD
ATOM     52  C   UNL A   1      43.122  24.632  28.211  1.00  0.00     0.037 A 
ATOM     53  C   UNL A   1      41.933  30.016  32.709  1.00  0.00     0.037 A 
ATOM     54  C   UNL A   1      44.017  25.278  29.182  1.00  0.00     0.049 A 
ATOM     55  C   UNL A   1      42.800  28.893  33.229  1.00  0.00     0.074 A 
ATOM     56  C   UNL A   1      45.035  26.213  29.076  1.00  0.00     0.029 A 
ATOM     57  N   UNL A   1      43.733  25.177  30.539  1.00  0.00    -0.354 N 
ATOM     58  N   UNL A   1      43.315  27.946  32.497  1.00  0.00    -0.248 NA
ATOM     59  C   UNL A   1      43.102  28.732  34.641  1.00  0.00     0.031 C 
ATOM     60  C   UNL A   1      45.401  26.623  30.388  1.00  0.00     0.029 A 
ATOM     61  C   UNL A   1      44.605  25.941  31.290  1.00  0.00     0.049 A 
ATOM     62  H   UNL A   1      43.005  24.631  30.915  1.00  0.00     0.167 HD
ATOM     63  C   UNL A   1      43.972  27.035  33.296  1.00  0.00     0.074 A 
ATOM     64  C   UNL A   1      43.808  27.588  34.630  1.00  0.00     0.031 C 
ATOM     65  C   UNL A   1      44.544  25.909  32.753  1.00  0.00     0.037 A 
BRANCH  52  66
ATOM     66  C   UNL A   1      43.635  23.696  27.125  1.00  0.00     0.064 A 
ATOM     67  C   UNL A   1      44.500  24.176  26.114  1.00  0.00     0.173 A 
ATOM     68  C   UNL A   1      43.285  22.340  26.979  1.00  0.00     0.173 A 
ATOM     69  F   UNL A   1      45.021  25.409  26.161  1.00  0.00    -0.203 F 
ATOM     70  C   UNL A   1      44.875  23.407  25.005  1.00  0.00     0.198 A 
ATOM     71  C   UNL A   1      43.627  21.582  25.853  1.00  0.00     0.198 A 
ATOM     72  F   UNL A   1      42.657  21.662  27.940  1.00  0.00    -0.203 F 
ATOM     73  F   UNL A   1      45.683  23.933  24.075  1.00  0.00    -0.200 F 
ATOM     74  C   UNL A   1      44.412  22.119  24.859  1.00  0.00     0.200 A 
ATOM     75  F   UNL A   1      43.190  20.317  25.751  1.00  0.00    -0.200 F 
ATOM     76  F   UNL A   1      44.741  21.390  23.784  1.00  0.00    -0.200 F 
ENDBRANCH  52  66
BRANCH  53  77
ATOM     77  C   UNL A   1      40.610  30.392  33.274  1.00  0.00     0.064 A 
ATOM     78  C   UNL A   1      40.313  31.762  33.413  1.00  0.00     0.173 A 
ATOM     79  C   UNL A   1      39.538  29.493  33.243  1.00  0.00     0.173 A 
ATOM     80  F   UNL A   1      41.309  32.664  33.434  1.00  0.00    -0.203 F 
ATOM     81  C   UNL A   1      38.999  32.221  33.380  1.00  0.00     0.198 A 
ATOM     82  C   UNL A   1      38.221  29.957  33.228  1.00  0.00     0.198 A 
ATOM     83  F   UNL A   1      39.759  28.180  33.091  1.00  0.00    -0.203 F 
ATOM     84  F   UNL A   1      38.752  33.539  33.378  1.00  0.00    -0.200 F 
ATOM     85  C   UNL A   1      37.956  31.319  33.254  1.00  0.00     0.200 A 
ATOM     86  F   UNL A   1      37.212  29.089  33.071  1.00  0.00    -0.200 F 
ATOM     87  F   UNL A   1      36.700  31.762  33.105  1.00  0.00    -0.200 F 
ENDBRANCH  53  77
BRANCH  65  88
ATOM     88  C   UNL A   1      45.116  24.671  33.458  1.00  0.00     0.064 A 
ATOM     89  C   UNL A   1      44.415  23.498  33.778  1.00  0.00     0.173 A 
ATOM     90  C   UNL A   1      46.493  24.625  33.828  1.00  0.00     0.173 A 
ATOM     91  F   UNL A   1      43.103  23.376  33.581  1.00  0.00    -0.203 F 
ATOM     92  C   UNL A   1      45.029  22.375  34.355  1.00  0.00     0.198 A 
ATOM     93  C   UNL A   1      47.105  23.506  34.399  1.00  0.00     0.198 A 
ATOM     94  F   UNL A   1      47.321  25.661  33.644  1.00  0.00    -0.203 F 
ATOM     95  F   UNL A   1      44.293  21.285  34.614  1.00  0.00    -0.200 F 
ATOM     96  C   UNL A   1      46.373  22.374  34.655  1.00  0.00     0.200 A 
ATOM     97  F   UNL A   1      48.415  23.540  34.683  1.00  0.00    -0.200 F 
ATOM     98  F   UNL A   1      46.955  21.295  35.193  1.00  0.00    -0.200 F 
ENDBRANCH  65  88
ENDBRANCH  39  40
ENDBRANCH  31  34
ENDBRANCH  29  30
ENDBRANCH  28  29
ENDBRANCH  27  28
ENDBRANCH   1  27
TORSDOF 16
ENDMDL
