MODEL 1
REMARK VINA RESULT:     -12.0      0.000      0.000
REMARK SMILES CNC(=O)NC(=O)CCSc1csc(C(=O)NCCCCNC(=O)c2ccc(-c3c4nc(c(-c5c(F)c(F)c(F)c(F)c5F)c5ccc([nH]5)c(-c5c(F)c(F)c(F)c(F)c5F)c5nc(c(-c6c(F)c(F)c(F)c(F)c6F)c6ccc3[nH]6)C=C5)C=C4)cc2)c1
REMARK SMILES IDX 18 1 17 2 15 3 16 4 14 6 11 7 12 8 88 9 13 10 10 11 9 12
REMARK SMILES IDX 8 13 6 14 1 15 2 16 3 17 4 19 5 20 7 22 19 23 20 24 21 25
REMARK SMILES IDX 22 26 23 27 24 29 25 30 26 31 87 32 27 33 86 34 28 35 29 36
REMARK SMILES IDX 30 37 80 38 31 39 85 40 79 41 81 42 32 43 84 44 78 45 77 46
REMARK SMILES IDX 33 48 65 49 45 50 64 51 46 52 49 53 63 54 82 55 47 56 48 57
REMARK SMILES IDX 62 59 83 60 50 61 34 62 35 63 43 64 36 65 37 66 41 67 44 68
REMARK SMILES IDX 38 69 39 70 42 71 40 72 66 73 67 74 75 75 68 76 69 77 73 78
REMARK SMILES IDX 76 79 70 80 71 81 74 82 72 83 51 84 52 85 60 86 53 87 54 88
REMARK SMILES IDX 58 89 61 90 55 91 56 92 59 93 57 94
REMARK H PARENT 17 5 2 18 5 21 22 28 81 47 49 58
REMARK Flexibility Score: inf
ROOT
ATOM      1  C   UNL A   1      32.239  30.013  25.425  1.00  0.00     0.116 C 
ENDROOT
BRANCH   1   2
ATOM      2  N   UNL A   1      31.165  30.025  24.453  1.00  0.00    -0.351 N 
ATOM      3  C   UNL A   1      30.516  29.019  23.778  1.00  0.00     0.261 C 
ATOM      4  O   UNL A   1      29.551  29.395  23.105  1.00  0.00    -0.268 OA
ATOM      5  H   UNL A   1      30.837  30.927  24.234  1.00  0.00     0.163 HD
BRANCH   3   6
ATOM      6  C   UNL A   1      30.920  27.622  23.882  1.00  0.00     0.093 A 
ATOM      7  C   UNL A   1      31.389  25.431  24.563  1.00  0.00     0.019 A 
ATOM      8  C   UNL A   1      31.558  25.317  23.207  1.00  0.00     0.080 A 
ATOM      9  C   UNL A   1      31.136  26.778  24.958  1.00  0.00     0.040 A 
ATOM     10  S   UNL A   1      31.264  26.793  22.406  1.00  0.00    -0.137 S 
BRANCH   7  11
ATOM     11  S   UNL A   1      31.482  24.126  25.736  1.00  0.00    -0.125 SA
BRANCH  11  12
ATOM     12  C   UNL A   1      33.276  23.932  25.991  1.00  0.00     0.085 C 
BRANCH  12  13
ATOM     13  C   UNL A   1      33.930  22.594  25.657  1.00  0.00     0.112 C 
BRANCH  13  14
ATOM     14  C   UNL A   1      33.580  21.429  26.530  1.00  0.00     0.228 C 
ATOM     15  C   UNL A   1      32.258  21.408  23.155  1.00  0.00     0.144 C 
ATOM     16  N   UNL A   1      32.494  20.104  23.710  1.00  0.00    -0.341 N 
ATOM     17  C   UNL A   1      32.522  19.632  24.959  1.00  0.00     0.321 C 
ATOM     18  H   UNL A   1      32.670  19.415  23.030  1.00  0.00     0.165 HD
ATOM     19  O   UNL A   1      32.264  18.432  25.104  1.00  0.00    -0.248 OA
ATOM     20  N   UNL A   1      32.861  20.338  26.076  1.00  0.00    -0.278 N 
ATOM     21  H   UNL A   1      32.433  19.909  26.851  1.00  0.00     0.174 HD
ATOM     22  O   UNL A   1      33.942  21.426  27.711  1.00  0.00    -0.275 OA
ENDBRANCH  13  14
ENDBRANCH  12  13
ENDBRANCH  11  12
ENDBRANCH   7  11
ENDBRANCH   3   6
ENDBRANCH   1   2
BRANCH   1  23
ATOM     23  C   UNL A   1      31.766  30.509  26.789  1.00  0.00     0.023 C 
BRANCH  23  24
ATOM     24  C   UNL A   1      31.533  32.020  26.863  1.00  0.00     0.023 C 
BRANCH  24  25
ATOM     25  C   UNL A   1      32.756  32.849  27.247  1.00  0.00     0.116 C 
BRANCH  25  26
ATOM     26  N   UNL A   1      32.428  34.216  27.623  1.00  0.00    -0.352 N 
ATOM     27  C   UNL A   1      32.978  35.011  28.602  1.00  0.00     0.251 C 
ATOM     28  H   UNL A   1      31.705  34.633  27.100  1.00  0.00     0.163 HD
ATOM     29  O   UNL A   1      32.483  36.098  28.865  1.00  0.00    -0.269 OA
BRANCH  27  30
ATOM     30  C   UNL A   1      34.155  34.534  29.363  1.00  0.00     0.039 A 
ATOM     31  C   UNL A   1      33.957  33.964  30.624  1.00  0.00     0.014 A 
ATOM     32  C   UNL A   1      35.445  34.632  28.834  1.00  0.00     0.014 A 
ATOM     33  C   UNL A   1      35.042  33.422  31.317  1.00  0.00     0.010 A 
ATOM     34  C   UNL A   1      36.511  34.022  29.489  1.00  0.00     0.010 A 
ATOM     35  C   UNL A   1      36.321  33.405  30.736  1.00  0.00    -0.014 A 
BRANCH  35  36
ATOM     36  C   UNL A   1      37.465  32.736  31.409  1.00  0.00     0.031 A 
ATOM     37  C   UNL A   1      38.146  31.562  30.761  1.00  0.00     0.074 A 
ATOM     38  C   UNL A   1      37.847  33.142  32.635  1.00  0.00     0.049 A 
ATOM     39  N   UNL A   1      39.112  30.806  31.221  1.00  0.00    -0.248 NA
ATOM     40  C   UNL A   1      37.661  31.167  29.430  1.00  0.00     0.031 C 
ATOM     41  C   UNL A   1      37.236  34.236  33.393  1.00  0.00     0.029 A 
ATOM     42  N   UNL A   1      38.835  32.675  33.469  1.00  0.00    -0.354 N 
ATOM     43  C   UNL A   1      39.339  29.845  30.246  1.00  0.00     0.074 A 
ATOM     44  C   UNL A   1      38.374  30.075  29.193  1.00  0.00     0.031 C 
ATOM     45  C   UNL A   1      37.875  34.370  34.566  1.00  0.00     0.029 A 
ATOM     46  C   UNL A   1      38.911  33.347  34.664  1.00  0.00     0.049 A 
ATOM     47  H   UNL A   1      39.431  31.928  33.231  1.00  0.00     0.167 HD
ATOM     48  C   UNL A   1      40.282  28.873  30.218  1.00  0.00     0.037 A 
ATOM     49  C   UNL A   1      39.718  33.154  35.726  1.00  0.00     0.037 A 
ATOM     50  C   UNL A   1      41.254  28.657  31.258  1.00  0.00     0.049 A 
ATOM     51  C   UNL A   1      40.746  32.054  35.676  1.00  0.00     0.074 A 
ATOM     52  C   UNL A   1      42.287  27.738  31.296  1.00  0.00     0.029 A 
ATOM     53  N   UNL A   1      41.309  29.368  32.449  1.00  0.00    -0.354 N 
ATOM     54  N   UNL A   1      41.000  31.200  34.715  1.00  0.00    -0.248 NA
ATOM     55  C   UNL A   1      41.606  31.898  36.858  1.00  0.00     0.031 C 
ATOM     56  C   UNL A   1      42.931  27.853  32.532  1.00  0.00     0.029 A 
ATOM     57  C   UNL A   1      42.341  28.887  33.240  1.00  0.00     0.049 A 
ATOM     58  H   UNL A   1      40.704  30.104  32.696  1.00  0.00     0.167 HD
ATOM     59  C   UNL A   1      42.066  30.428  35.161  1.00  0.00     0.074 A 
ATOM     60  C   UNL A   1      42.420  30.927  36.473  1.00  0.00     0.031 C 
ATOM     61  C   UNL A   1      42.692  29.399  34.539  1.00  0.00     0.037 A 
BRANCH  48  62
ATOM     62  C   UNL A   1      40.312  27.964  29.021  1.00  0.00     0.064 A 
ATOM     63  C   UNL A   1      41.074  28.271  27.884  1.00  0.00     0.173 A 
ATOM     64  C   UNL A   1      39.607  26.752  29.030  1.00  0.00     0.173 A 
ATOM     65  F   UNL A   1      41.760  29.422  27.819  1.00  0.00    -0.203 F 
ATOM     66  C   UNL A   1      41.104  27.412  26.787  1.00  0.00     0.198 A 
ATOM     67  C   UNL A   1      39.667  25.879  27.946  1.00  0.00     0.198 A 
ATOM     68  F   UNL A   1      38.870  26.405  30.095  1.00  0.00    -0.203 F 
ATOM     69  F   UNL A   1      41.798  27.751  25.692  1.00  0.00    -0.200 F 
ATOM     70  C   UNL A   1      40.407  26.213  26.823  1.00  0.00     0.200 A 
ATOM     71  F   UNL A   1      39.006  24.714  27.989  1.00  0.00    -0.200 F 
ATOM     72  F   UNL A   1      40.446  25.383  25.772  1.00  0.00    -0.200 F 
ENDBRANCH  48  62
BRANCH  49  73
ATOM     73  C   UNL A   1      39.601  34.030  36.921  1.00  0.00     0.064 A 
ATOM     74  C   UNL A   1      40.284  35.253  36.989  1.00  0.00     0.173 A 
ATOM     75  C   UNL A   1      38.822  33.658  38.027  1.00  0.00     0.173 A 
ATOM     76  F   UNL A   1      41.060  35.643  35.967  1.00  0.00    -0.203 F 
ATOM     77  C   UNL A   1      40.213  36.057  38.125  1.00  0.00     0.198 A 
ATOM     78  C   UNL A   1      38.725  34.479  39.150  1.00  0.00     0.198 A 
ATOM     79  F   UNL A   1      38.145  32.501  38.013  1.00  0.00    -0.203 F 
ATOM     80  F   UNL A   1      40.919  37.195  38.183  1.00  0.00    -0.200 F 
ATOM     81  C   UNL A   1      39.429  35.672  39.202  1.00  0.00     0.200 A 
ATOM     82  F   UNL A   1      37.954  34.110  40.182  1.00  0.00    -0.200 F 
ATOM     83  F   UNL A   1      39.360  36.447  40.293  1.00  0.00    -0.200 F 
ENDBRANCH  49  73
BRANCH  61  84
ATOM     84  C   UNL A   1      43.857  28.769  35.250  1.00  0.00     0.064 A 
ATOM     85  C   UNL A   1      45.168  29.236  35.084  1.00  0.00     0.173 A 
ATOM     86  C   UNL A   1      43.648  27.705  36.142  1.00  0.00     0.173 A 
ATOM     87  F   UNL A   1      45.423  30.242  34.232  1.00  0.00    -0.203 F 
ATOM     88  C   UNL A   1      46.230  28.645  35.761  1.00  0.00     0.198 A 
ATOM     89  C   UNL A   1      44.709  27.139  36.844  1.00  0.00     0.198 A 
ATOM     90  F   UNL A   1      42.413  27.223  36.345  1.00  0.00    -0.203 F 
ATOM     91  F   UNL A   1      47.482  29.074  35.546  1.00  0.00    -0.200 F 
ATOM     92  C   UNL A   1      46.000  27.603  36.647  1.00  0.00     0.200 A 
ATOM     93  F   UNL A   1      44.480  26.143  37.712  1.00  0.00    -0.200 F 
ATOM     94  F   UNL A   1      47.023  27.041  37.304  1.00  0.00    -0.200 F 
ENDBRANCH  61  84
ENDBRANCH  35  36
ENDBRANCH  27  30
ENDBRANCH  25  26
ENDBRANCH  24  25
ENDBRANCH  23  24
ENDBRANCH   1  23
TORSDOF 15
ENDMDL
MODEL 2
REMARK VINA RESULT:     -12.0      5.625     11.271
REMARK SMILES CNC(=O)NC(=O)CCSc1csc(C(=O)NCCCCNC(=O)c2ccc(-c3c4nc(c(-c5c(F)c(F)c(F)c(F)c5F)c5ccc([nH]5)c(-c5c(F)c(F)c(F)c(F)c5F)c5nc(c(-c6c(F)c(F)c(F)c(F)c6F)c6ccc3[nH]6)C=C5)C=C4)cc2)c1
REMARK SMILES IDX 18 1 17 2 15 3 16 4 14 6 11 7 12 8 88 9 13 10 10 11 9 12
REMARK SMILES IDX 8 13 6 14 1 15 2 16 3 17 4 19 5 20 7 22 19 23 20 24 21 25
REMARK SMILES IDX 22 26 23 27 24 29 25 30 26 31 87 32 27 33 86 34 28 35 29 36
REMARK SMILES IDX 30 37 80 38 31 39 85 40 79 41 81 42 32 43 84 44 78 45 77 46
REMARK SMILES IDX 33 48 65 49 45 50 64 51 46 52 49 53 63 54 82 55 47 56 48 57
REMARK SMILES IDX 62 59 83 60 50 61 34 62 35 63 43 64 36 65 37 66 41 67 44 68
REMARK SMILES IDX 38 69 39 70 42 71 40 72 66 73 67 74 75 75 68 76 69 77 73 78
REMARK SMILES IDX 76 79 70 80 71 81 74 82 72 83 51 84 52 85 60 86 53 87 54 88
REMARK SMILES IDX 58 89 61 90 55 91 56 92 59 93 57 94
REMARK H PARENT 17 5 2 18 5 21 22 28 81 47 49 58
REMARK Flexibility Score: inf
ROOT
ATOM      1  C   UNL A   1      35.571  20.626  25.086  1.00  0.00     0.116 C 
ENDROOT
BRANCH   1   2
ATOM      2  N   UNL A   1      35.127  21.235  26.323  1.00  0.00    -0.351 N 
ATOM      3  C   UNL A   1      34.239  22.249  26.591  1.00  0.00     0.261 C 
ATOM      4  O   UNL A   1      34.011  22.426  27.792  1.00  0.00    -0.268 OA
ATOM      5  H   UNL A   1      35.542  20.848  27.128  1.00  0.00     0.163 HD
BRANCH   3   6
ATOM      6  C   UNL A   1      33.597  23.022  25.535  1.00  0.00     0.093 A 
ATOM      7  C   UNL A   1      33.050  24.517  23.816  1.00  0.00     0.019 A 
ATOM      8  C   UNL A   1      31.982  23.660  23.756  1.00  0.00     0.080 A 
ATOM      9  C   UNL A   1      33.914  24.217  24.911  1.00  0.00     0.040 A 
ATOM     10  S   UNL A   1      32.104  22.414  24.914  1.00  0.00    -0.137 S 
BRANCH   7  11
ATOM     11  S   UNL A   1      33.368  25.860  22.729  1.00  0.00    -0.125 SA
BRANCH  11  12
ATOM     12  C   UNL A   1      33.388  27.298  23.849  1.00  0.00     0.085 C 
BRANCH  12  13
ATOM     13  C   UNL A   1      32.128  27.637  24.639  1.00  0.00     0.112 C 
BRANCH  13  14
ATOM     14  C   UNL A   1      32.031  27.092  26.030  1.00  0.00     0.228 C 
ATOM     15  C   UNL A   1      29.154  26.621  23.877  1.00  0.00     0.144 C 
ATOM     16  N   UNL A   1      29.329  25.596  24.870  1.00  0.00    -0.341 N 
ATOM     17  C   UNL A   1      29.904  25.578  26.074  1.00  0.00     0.321 C 
ATOM     18  H   UNL A   1      28.944  24.729  24.609  1.00  0.00     0.165 HD
ATOM     19  O   UNL A   1      29.486  24.736  26.876  1.00  0.00    -0.248 OA
ATOM     20  N   UNL A   1      30.944  26.363  26.479  1.00  0.00    -0.278 N 
ATOM     21  H   UNL A   1      30.908  26.438  27.459  1.00  0.00     0.174 HD
ATOM     22  O   UNL A   1      32.954  27.294  26.826  1.00  0.00    -0.275 OA
ENDBRANCH  13  14
ENDBRANCH  12  13
ENDBRANCH  11  12
ENDBRANCH   7  11
ENDBRANCH   3   6
ENDBRANCH   1   2
BRANCH   1  23
ATOM     23  C   UNL A   1      37.018  20.993  24.769  1.00  0.00     0.023 C 
BRANCH  23  24
ATOM     24  C   UNL A   1      38.019  19.858  24.998  1.00  0.00     0.023 C 
BRANCH  24  25
ATOM     25  C   UNL A   1      39.240  20.228  25.836  1.00  0.00     0.116 C 
BRANCH  25  26
ATOM     26  N   UNL A   1      40.225  19.159  25.919  1.00  0.00    -0.352 N 
ATOM     27  C   UNL A   1      41.583  19.234  26.126  1.00  0.00     0.251 C 
ATOM     28  H   UNL A   1      39.866  18.249  25.811  1.00  0.00     0.163 HD
ATOM     29  O   UNL A   1      42.278  18.232  26.034  1.00  0.00    -0.269 OA
BRANCH  27  30
ATOM     30  C   UNL A   1      42.210  20.540  26.429  1.00  0.00     0.039 A 
ATOM     31  C   UNL A   1      42.709  21.309  25.373  1.00  0.00     0.014 A 
ATOM     32  C   UNL A   1      42.296  21.013  27.741  1.00  0.00     0.014 A 
ATOM     33  C   UNL A   1      43.220  22.584  25.626  1.00  0.00     0.010 A 
ATOM     34  C   UNL A   1      42.730  22.314  27.981  1.00  0.00     0.010 A 
ATOM     35  C   UNL A   1      43.192  23.117  26.926  1.00  0.00    -0.014 A 
BRANCH  35  36
ATOM     36  C   UNL A   1      43.629  24.511  27.198  1.00  0.00     0.031 A 
ATOM     37  C   UNL A   1      42.644  25.530  27.703  1.00  0.00     0.074 A 
ATOM     38  C   UNL A   1      44.896  24.879  26.925  1.00  0.00     0.049 A 
ATOM     39  N   UNL A   1      42.818  26.808  27.932  1.00  0.00    -0.248 NA
ATOM     40  C   UNL A   1      41.276  25.057  27.960  1.00  0.00     0.031 C 
ATOM     41  C   UNL A   1      45.934  23.999  26.386  1.00  0.00     0.029 A 
ATOM     42  N   UNL A   1      45.526  26.093  27.053  1.00  0.00    -0.354 N 
ATOM     43  C   UNL A   1      41.583  27.290  28.346  1.00  0.00     0.074 A 
ATOM     44  C   UNL A   1      40.654  26.182  28.283  1.00  0.00     0.031 C 
ATOM     45  C   UNL A   1      47.075  24.695  26.250  1.00  0.00     0.029 A 
ATOM     46  C   UNL A   1      46.839  26.078  26.651  1.00  0.00     0.049 A 
ATOM     47  H   UNL A   1      45.077  26.899  27.398  1.00  0.00     0.167 HD
ATOM     48  C   UNL A   1      41.258  28.537  28.764  1.00  0.00     0.037 A 
ATOM     49  C   UNL A   1      47.750  27.070  26.601  1.00  0.00     0.037 A 
ATOM     50  C   UNL A   1      42.188  29.633  28.843  1.00  0.00     0.049 A 
ATOM     51  C   UNL A   1      47.357  28.451  27.054  1.00  0.00     0.074 A 
ATOM     52  C   UNL A   1      41.969  30.917  29.309  1.00  0.00     0.029 A 
ATOM     53  N   UNL A   1      43.515  29.576  28.440  1.00  0.00    -0.354 N 
ATOM     54  N   UNL A   1      46.205  28.876  27.515  1.00  0.00    -0.248 NA
ATOM     55  C   UNL A   1      48.394  29.490  26.987  1.00  0.00     0.031 C 
ATOM     56  C   UNL A   1      43.146  31.653  29.136  1.00  0.00     0.029 A 
ATOM     57  C   UNL A   1      44.118  30.810  28.622  1.00  0.00     0.049 A 
ATOM     58  H   UNL A   1      43.961  28.776  28.079  1.00  0.00     0.167 HD
ATOM     59  C   UNL A   1      46.388  30.218  27.823  1.00  0.00     0.074 A 
ATOM     60  C   UNL A   1      47.767  30.533  27.510  1.00  0.00     0.031 C 
ATOM     61  C   UNL A   1      45.494  31.109  28.318  1.00  0.00     0.037 A 
BRANCH  48  62
ATOM     62  C   UNL A   1      39.833  28.786  29.170  1.00  0.00     0.064 A 
ATOM     63  C   UNL A   1      39.409  28.632  30.499  1.00  0.00     0.173 A 
ATOM     64  C   UNL A   1      38.891  29.228  28.230  1.00  0.00     0.173 A 
ATOM     65  F   UNL A   1      40.267  28.203  31.437  1.00  0.00    -0.203 F 
ATOM     66  C   UNL A   1      38.088  28.881  30.865  1.00  0.00     0.198 A 
ATOM     67  C   UNL A   1      37.579  29.509  28.605  1.00  0.00     0.198 A 
ATOM     68  F   UNL A   1      39.244  29.400  26.947  1.00  0.00    -0.203 F 
ATOM     69  F   UNL A   1      37.695  28.677  32.130  1.00  0.00    -0.200 F 
ATOM     70  C   UNL A   1      37.176  29.327  29.919  1.00  0.00     0.200 A 
ATOM     71  F   UNL A   1      36.704  29.955  27.693  1.00  0.00    -0.200 F 
ATOM     72  F   UNL A   1      35.909  29.577  30.274  1.00  0.00    -0.200 F 
ENDBRANCH  48  62
BRANCH  49  73
ATOM     73  C   UNL A   1      49.129  26.793  26.118  1.00  0.00     0.064 A 
ATOM     74  C   UNL A   1      49.479  27.003  24.776  1.00  0.00     0.173 A 
ATOM     75  C   UNL A   1      50.119  26.298  26.979  1.00  0.00     0.173 A 
ATOM     76  F   UNL A   1      48.561  27.454  23.908  1.00  0.00    -0.203 F 
ATOM     77  C   UNL A   1      50.757  26.703  24.309  1.00  0.00     0.198 A 
ATOM     78  C   UNL A   1      51.407  26.030  26.517  1.00  0.00     0.198 A 
ATOM     79  F   UNL A   1      49.839  26.084  28.273  1.00  0.00    -0.203 F 
ATOM     80  F   UNL A   1      51.047  26.862  23.010  1.00  0.00    -0.200 F 
ATOM     81  C   UNL A   1      51.722  26.222  25.181  1.00  0.00     0.200 A 
ATOM     82  F   UNL A   1      52.341  25.580  27.367  1.00  0.00    -0.200 F 
ATOM     83  F   UNL A   1      52.952  25.937  24.731  1.00  0.00    -0.200 F 
ENDBRANCH  49  73
BRANCH  61  84
ATOM     84  C   UNL A   1      45.987  32.501  28.596  1.00  0.00     0.064 A 
ATOM     85  C   UNL A   1      45.907  33.521  27.637  1.00  0.00     0.173 A 
ATOM     86  C   UNL A   1      46.511  32.826  29.857  1.00  0.00     0.173 A 
ATOM     87  F   UNL A   1      45.426  33.259  26.412  1.00  0.00    -0.203 F 
ATOM     88  C   UNL A   1      46.359  34.807  27.920  1.00  0.00     0.198 A 
ATOM     89  C   UNL A   1      46.931  34.121  30.147  1.00  0.00     0.198 A 
ATOM     90  F   UNL A   1      46.605  31.890  30.814  1.00  0.00    -0.203 F 
ATOM     91  F   UNL A   1      46.321  35.752  26.971  1.00  0.00    -0.200 F 
ATOM     92  C   UNL A   1      46.862  35.108  29.177  1.00  0.00     0.200 A 
ATOM     93  F   UNL A   1      47.401  34.414  31.368  1.00  0.00    -0.200 F 
ATOM     94  F   UNL A   1      47.288  36.349  29.450  1.00  0.00    -0.200 F 
ENDBRANCH  61  84
ENDBRANCH  35  36
ENDBRANCH  27  30
ENDBRANCH  25  26
ENDBRANCH  24  25
ENDBRANCH  23  24
ENDBRANCH   1  23
TORSDOF 15
ENDMDL
MODEL 3
REMARK VINA RESULT:     -12.0      5.733     11.258
REMARK SMILES CNC(=O)NC(=O)CCSc1csc(C(=O)NCCCCNC(=O)c2ccc(-c3c4nc(c(-c5c(F)c(F)c(F)c(F)c5F)c5ccc([nH]5)c(-c5c(F)c(F)c(F)c(F)c5F)c5nc(c(-c6c(F)c(F)c(F)c(F)c6F)c6ccc3[nH]6)C=C5)C=C4)cc2)c1
REMARK SMILES IDX 18 1 17 2 15 3 16 4 14 6 11 7 12 8 88 9 13 10 10 11 9 12
REMARK SMILES IDX 8 13 6 14 1 15 2 16 3 17 4 19 5 20 7 22 19 23 20 24 21 25
REMARK SMILES IDX 22 26 23 27 24 29 25 30 26 31 87 32 27 33 86 34 28 35 29 36
REMARK SMILES IDX 30 37 80 38 31 39 85 40 79 41 81 42 32 43 84 44 78 45 77 46
REMARK SMILES IDX 33 48 65 49 45 50 64 51 46 52 49 53 63 54 82 55 47 56 48 57
REMARK SMILES IDX 62 59 83 60 50 61 34 62 35 63 43 64 36 65 37 66 41 67 44 68
REMARK SMILES IDX 38 69 39 70 42 71 40 72 66 73 67 74 75 75 68 76 69 77 73 78
REMARK SMILES IDX 76 79 70 80 71 81 74 82 72 83 51 84 52 85 60 86 53 87 54 88
REMARK SMILES IDX 58 89 61 90 55 91 56 92 59 93 57 94
REMARK H PARENT 17 5 2 18 5 21 22 28 81 47 49 58
REMARK Flexibility Score: inf
ROOT
ATOM      1  C   UNL A   1      35.453  20.983  24.727  1.00  0.00     0.116 C 
ENDROOT
BRANCH   1   2
ATOM      2  N   UNL A   1      35.064  21.076  26.119  1.00  0.00    -0.351 N 
ATOM      3  C   UNL A   1      34.439  22.063  26.842  1.00  0.00     0.261 C 
ATOM      4  O   UNL A   1      34.152  21.745  28.001  1.00  0.00    -0.268 OA
ATOM      5  H   UNL A   1      35.290  20.278  26.650  1.00  0.00     0.163 HD
BRANCH   3   6
ATOM      6  C   UNL A   1      34.115  23.364  26.269  1.00  0.00     0.093 A 
ATOM      7  C   UNL A   1      33.158  25.418  25.677  1.00  0.00     0.019 A 
ATOM      8  C   UNL A   1      34.396  25.539  25.100  1.00  0.00     0.080 A 
ATOM      9  C   UNL A   1      32.959  24.125  26.246  1.00  0.00     0.040 A 
ATOM     10  S   UNL A   1      35.362  24.161  25.378  1.00  0.00    -0.137 S 
BRANCH   7  11
ATOM     11  S   UNL A   1      31.908  26.652  25.725  1.00  0.00    -0.125 SA
BRANCH  11  12
ATOM     12  C   UNL A   1      30.380  25.698  25.449  1.00  0.00     0.085 C 
BRANCH  12  13
ATOM     13  C   UNL A   1      29.905  25.459  24.020  1.00  0.00     0.112 C 
BRANCH  13  14
ATOM     14  C   UNL A   1      30.749  24.567  23.163  1.00  0.00     0.228 C 
ATOM     15  C   UNL A   1      30.776  28.106  22.377  1.00  0.00     0.144 C 
ATOM     16  N   UNL A   1      31.993  27.414  22.052  1.00  0.00    -0.341 N 
ATOM     17  C   UNL A   1      32.271  26.145  21.744  1.00  0.00     0.321 C 
ATOM     18  H   UNL A   1      32.786  27.996  22.056  1.00  0.00     0.165 HD
ATOM     19  O   UNL A   1      33.278  25.949  21.056  1.00  0.00    -0.248 OA
ATOM     20  N   UNL A   1      31.579  25.047  22.165  1.00  0.00    -0.278 N 
ATOM     21  H   UNL A   1      31.725  24.324  21.514  1.00  0.00     0.174 HD
ATOM     22  O   UNL A   1      30.715  23.345  23.342  1.00  0.00    -0.275 OA
ENDBRANCH  13  14
ENDBRANCH  12  13
ENDBRANCH  11  12
ENDBRANCH   7  11
ENDBRANCH   3   6
ENDBRANCH   1   2
BRANCH   1  23
ATOM     23  C   UNL A   1      36.954  21.200  24.549  1.00  0.00     0.023 C 
BRANCH  23  24
ATOM     24  C   UNL A   1      37.818  20.021  25.000  1.00  0.00     0.023 C 
BRANCH  24  25
ATOM     25  C   UNL A   1      39.071  20.397  25.788  1.00  0.00     0.116 C 
BRANCH  25  26
ATOM     26  N   UNL A   1      40.028  19.306  25.899  1.00  0.00    -0.352 N 
ATOM     27  C   UNL A   1      41.385  19.351  26.125  1.00  0.00     0.251 C 
ATOM     28  H   UNL A   1      39.649  18.403  25.797  1.00  0.00     0.163 HD
ATOM     29  O   UNL A   1      42.056  18.332  26.056  1.00  0.00    -0.269 OA
BRANCH  27  30
ATOM     30  C   UNL A   1      42.039  20.647  26.419  1.00  0.00     0.039 A 
ATOM     31  C   UNL A   1      42.458  21.448  25.353  1.00  0.00     0.014 A 
ATOM     32  C   UNL A   1      42.227  21.077  27.735  1.00  0.00     0.014 A 
ATOM     33  C   UNL A   1      42.991  22.714  25.607  1.00  0.00     0.010 A 
ATOM     34  C   UNL A   1      42.684  22.369  27.983  1.00  0.00     0.010 A 
ATOM     35  C   UNL A   1      43.067  23.204  26.921  1.00  0.00    -0.014 A 
BRANCH  35  36
ATOM     36  C   UNL A   1      43.528  24.589  27.203  1.00  0.00     0.031 A 
ATOM     37  C   UNL A   1      42.566  25.616  27.734  1.00  0.00     0.074 A 
ATOM     38  C   UNL A   1      44.797  24.941  26.916  1.00  0.00     0.049 A 
ATOM     39  N   UNL A   1      42.763  26.889  27.975  1.00  0.00    -0.248 NA
ATOM     40  C   UNL A   1      41.195  25.161  28.006  1.00  0.00     0.031 C 
ATOM     41  C   UNL A   1      45.813  24.051  26.351  1.00  0.00     0.029 A 
ATOM     42  N   UNL A   1      45.447  26.144  27.048  1.00  0.00    -0.354 N 
ATOM     43  C   UNL A   1      41.542  27.385  28.413  1.00  0.00     0.074 A 
ATOM     44  C   UNL A   1      40.596  26.292  28.351  1.00  0.00     0.031 C 
ATOM     45  C   UNL A   1      46.962  24.731  26.207  1.00  0.00     0.029 A 
ATOM     46  C   UNL A   1      46.754  26.113  26.627  1.00  0.00     0.049 A 
ATOM     47  H   UNL A   1      45.016  26.951  27.410  1.00  0.00     0.167 HD
ATOM     48  C   UNL A   1      41.242  28.631  28.850  1.00  0.00     0.037 A 
ATOM     49  C   UNL A   1      47.679  27.092  26.575  1.00  0.00     0.037 A 
ATOM     50  C   UNL A   1      42.190  29.712  28.928  1.00  0.00     0.049 A 
ATOM     51  C   UNL A   1      47.314  28.473  27.050  1.00  0.00     0.074 A 
ATOM     52  C   UNL A   1      41.998  30.994  29.412  1.00  0.00     0.029 A 
ATOM     53  N   UNL A   1      43.510  29.640  28.505  1.00  0.00    -0.354 N 
ATOM     54  N   UNL A   1      46.176  28.910  27.532  1.00  0.00    -0.248 NA
ATOM     55  C   UNL A   1      48.366  29.497  26.980  1.00  0.00     0.031 C 
ATOM     56  C   UNL A   1      43.183  31.713  29.230  1.00  0.00     0.029 A 
ATOM     57  C   UNL A   1      44.135  30.862  28.692  1.00  0.00     0.049 A 
ATOM     58  H   UNL A   1      43.939  28.837  28.128  1.00  0.00     0.167 HD
ATOM     59  C   UNL A   1      46.383  30.245  27.853  1.00  0.00     0.074 A 
ATOM     60  C   UNL A   1      47.762  30.543  27.524  1.00  0.00     0.031 C 
ATOM     61  C   UNL A   1      45.510  31.144  28.372  1.00  0.00     0.037 A 
BRANCH  48  62
ATOM     62  C   UNL A   1      39.827  28.897  29.280  1.00  0.00     0.064 A 
ATOM     63  C   UNL A   1      38.861  29.369  28.379  1.00  0.00     0.173 A 
ATOM     64  C   UNL A   1      39.422  28.636  30.597  1.00  0.00     0.173 A 
ATOM     65  F   UNL A   1      39.196  29.644  27.110  1.00  0.00    -0.203 F 
ATOM     66  C   UNL A   1      37.549  29.597  28.788  1.00  0.00     0.198 A 
ATOM     67  C   UNL A   1      38.101  28.832  30.994  1.00  0.00     0.198 A 
ATOM     68  F   UNL A   1      40.303  28.176  31.498  1.00  0.00    -0.203 F 
ATOM     69  F   UNL A   1      36.655  30.096  27.922  1.00  0.00    -0.200 F 
ATOM     70  C   UNL A   1      37.168  29.320  30.093  1.00  0.00     0.200 A 
ATOM     71  F   UNL A   1      37.732  28.549  32.251  1.00  0.00    -0.200 F 
ATOM     72  F   UNL A   1      35.903  29.530  30.482  1.00  0.00    -0.200 F 
ENDBRANCH  48  62
BRANCH  49  73
ATOM     73  C   UNL A   1      49.046  26.800  26.069  1.00  0.00     0.064 A 
ATOM     74  C   UNL A   1      49.380  27.019  24.724  1.00  0.00     0.173 A 
ATOM     75  C   UNL A   1      50.042  26.280  26.909  1.00  0.00     0.173 A 
ATOM     76  F   UNL A   1      48.457  27.495  23.875  1.00  0.00    -0.203 F 
ATOM     77  C   UNL A   1      50.646  26.706  24.235  1.00  0.00     0.198 A 
ATOM     78  C   UNL A   1      51.318  25.998  26.426  1.00  0.00     0.198 A 
ATOM     79  F   UNL A   1      49.777  26.055  28.205  1.00  0.00    -0.203 F 
ATOM     80  F   UNL A   1      50.920  26.875  22.934  1.00  0.00    -0.200 F 
ATOM     81  C   UNL A   1      51.616  26.200  25.087  1.00  0.00     0.200 A 
ATOM     82  F   UNL A   1      52.257  25.524  27.257  1.00  0.00    -0.200 F 
ATOM     83  F   UNL A   1      52.835  25.902  24.616  1.00  0.00    -0.200 F 
ENDBRANCH  49  73
BRANCH  61  84
ATOM     84  C   UNL A   1      46.029  32.525  28.659  1.00  0.00     0.064 A 
ATOM     85  C   UNL A   1      46.632  32.850  29.882  1.00  0.00     0.173 A 
ATOM     86  C   UNL A   1      45.956  33.525  27.677  1.00  0.00     0.173 A 
ATOM     87  F   UNL A   1      46.715  31.934  30.859  1.00  0.00    -0.203 F 
ATOM     88  C   UNL A   1      47.116  34.133  30.122  1.00  0.00     0.198 A 
ATOM     89  C   UNL A   1      46.472  34.797  27.908  1.00  0.00     0.198 A 
ATOM     90  F   UNL A   1      45.395  33.266  26.486  1.00  0.00    -0.203 F 
ATOM     91  F   UNL A   1      47.641  34.436  31.318  1.00  0.00    -0.200 F 
ATOM     92  C   UNL A   1      47.044  35.103  29.133  1.00  0.00     0.200 A 
ATOM     93  F   UNL A   1      46.416  35.727  26.945  1.00  0.00    -0.200 F 
ATOM     94  F   UNL A   1      47.519  36.334  29.364  1.00  0.00    -0.200 F 
ENDBRANCH  61  84
ENDBRANCH  35  36
ENDBRANCH  27  30
ENDBRANCH  25  26
ENDBRANCH  24  25
ENDBRANCH  23  24
ENDBRANCH   1  23
TORSDOF 15
ENDMDL
