MODEL 1
REMARK VINA RESULT:     -11.2      0.000      0.000
REMARK SMILES CCN1C(=O)N(CC)[C@H]2NC(=O)N(CCCC(=O)NCCCCNC(=O)c3ccc(-c4c5nc(c(-c6c(F)c(F)c(F)c(F)c6F)c6ccc([nH]6)c(-c6c(F)c(F)c(F)c(F)c6F)c6nc(c(-c7c(F)c(F)c(F)c(F)c7F)c7ccc4[nH]7)C=C6)C=C5)cc3)[C@@H]21
REMARK SMILES IDX 20 1 19 2 17 3 18 4 16 6 15 7 14 8 13 9 3 10 4 11 90 12 5 13
REMARK SMILES IDX 6 14 9 15 10 16 11 17 12 19 2 20 1 21 7 22 8 23 21 24 22 25
REMARK SMILES IDX 23 26 24 27 25 28 26 30 27 31 28 32 89 33 29 34 88 35 30 36
REMARK SMILES IDX 31 37 32 38 82 39 33 40 87 41 81 42 83 43 34 44 86 45 80 46
REMARK SMILES IDX 79 47 35 49 67 50 47 51 66 52 48 53 51 54 65 55 84 56 49 57
REMARK SMILES IDX 50 58 64 60 85 61 52 62 36 63 37 64 45 65 38 66 39 67 43 68
REMARK SMILES IDX 46 69 40 70 41 71 44 72 42 73 68 74 69 75 77 76 70 77 71 78
REMARK SMILES IDX 75 79 78 80 72 81 73 82 76 83 74 84 53 85 54 86 62 87 55 88
REMARK SMILES IDX 56 89 60 90 63 91 57 92 58 93 61 94 59 95
REMARK H PARENT 19 5 10 18 24 29 83 48 51 59
REMARK Flexibility Score: inf
ROOT
ATOM      1  C   UNL A   1      40.189  22.570  27.461  1.00  0.00     0.116 C 
ENDROOT
BRANCH   1   2
ATOM      2  N   UNL A   1      39.208  22.064  26.473  1.00  0.00    -0.356 N 
ATOM      3  C   UNL A   1      38.127  22.244  25.706  1.00  0.00     0.220 C 
ATOM      4  O   UNL A   1      38.006  21.206  25.003  1.00  0.00    -0.275 OA
ATOM      5  H   UNL A   1      39.492  21.139  26.290  1.00  0.00     0.163 HD
BRANCH   3   6
ATOM      6  C   UNL A   1      37.088  23.357  25.299  1.00  0.00     0.102 C 
BRANCH   6   7
ATOM      7  C   UNL A   1      35.642  23.937  25.088  1.00  0.00     0.031 C 
BRANCH   7   8
ATOM      8  C   UNL A   1      34.188  23.521  25.401  1.00  0.00     0.124 C 
BRANCH   8   9
ATOM      9  N   UNL A   1      33.793  22.141  25.716  1.00  0.00    -0.300 N 
ATOM     10  N   UNL A   1      32.957  20.898  23.623  1.00  0.00    -0.300 N 
ATOM     11  C   UNL A   1      32.560  19.540  23.505  1.00  0.00     0.323 C 
ATOM     12  C   UNL A   1      33.656  21.016  24.854  1.00  0.00     0.231 C 
ATOM     13  O   UNL A   1      32.125  19.017  22.494  1.00  0.00    -0.248 OA
ATOM     14  N   UNL A   1      32.663  18.981  24.803  1.00  0.00    -0.300 N 
ATOM     15  C   UNL A   1      32.763  20.097  25.682  1.00  0.00     0.228 C 
ATOM     16  N   UNL A   1      33.276  20.266  26.976  1.00  0.00    -0.314 N 
ATOM     17  C   UNL A   1      33.672  21.633  27.046  1.00  0.00     0.320 C 
ATOM     18  H   UNL A   1      33.348  19.585  27.684  1.00  0.00     0.167 HD
ATOM     19  O   UNL A   1      33.813  22.257  28.083  1.00  0.00    -0.249 OA
BRANCH  10  20
ATOM     20  C   UNL A   1      32.130  21.914  23.076  1.00  0.00     0.120 C 
ATOM     21  C   UNL A   1      32.873  22.799  22.085  1.00  0.00     0.027 C 
ENDBRANCH  10  20
BRANCH  14  22
ATOM     22  C   UNL A   1      32.596  17.583  25.147  1.00  0.00     0.120 C 
ATOM     23  C   UNL A   1      33.742  16.738  24.608  1.00  0.00     0.027 C 
ENDBRANCH  14  22
ENDBRANCH   8   9
ENDBRANCH   7   8
ENDBRANCH   6   7
ENDBRANCH   3   6
ENDBRANCH   1   2
BRANCH   1  24
ATOM     24  C   UNL A   1      41.665  22.311  27.106  1.00  0.00     0.023 C 
BRANCH  24  25
ATOM     25  C   UNL A   1      41.900  21.285  25.991  1.00  0.00     0.023 C 
BRANCH  25  26
ATOM     26  C   UNL A   1      42.759  20.063  26.307  1.00  0.00     0.116 C 
BRANCH  26  27
ATOM     27  N   UNL A   1      43.271  19.322  25.157  1.00  0.00    -0.352 N 
ATOM     28  C   UNL A   1      44.302  19.697  24.307  1.00  0.00     0.251 C 
ATOM     29  H   UNL A   1      42.836  18.461  24.963  1.00  0.00     0.163 HD
ATOM     30  O   UNL A   1      44.654  18.988  23.373  1.00  0.00    -0.269 OA
BRANCH  28  31
ATOM     31  C   UNL A   1      44.929  21.022  24.519  1.00  0.00     0.039 A 
ATOM     32  C   UNL A   1      44.606  22.073  23.657  1.00  0.00     0.014 A 
ATOM     33  C   UNL A   1      45.643  21.259  25.694  1.00  0.00     0.014 A 
ATOM     34  C   UNL A   1      44.877  23.387  24.049  1.00  0.00     0.010 A 
ATOM     35  C   UNL A   1      45.809  22.569  26.128  1.00  0.00     0.010 A 
ATOM     36  C   UNL A   1      45.408  23.650  25.322  1.00  0.00    -0.014 A 
BRANCH  36  37
ATOM     37  C   UNL A   1      45.536  25.039  25.847  1.00  0.00     0.031 A 
ATOM     38  C   UNL A   1      46.877  25.719  25.837  1.00  0.00     0.074 A 
ATOM     39  C   UNL A   1      44.478  25.654  26.416  1.00  0.00     0.049 A 
ATOM     40  N   UNL A   1      47.225  26.879  26.333  1.00  0.00    -0.248 NA
ATOM     41  C   UNL A   1      47.989  24.974  25.225  1.00  0.00     0.031 C 
ATOM     42  C   UNL A   1      43.136  25.086  26.556  1.00  0.00     0.029 A 
ATOM     43  N   UNL A   1      44.369  26.896  26.998  1.00  0.00    -0.354 N 
ATOM     44  C   UNL A   1      48.592  26.985  26.119  1.00  0.00     0.074 A 
ATOM     45  C   UNL A   1      49.024  25.746  25.513  1.00  0.00     0.031 C 
ATOM     46  C   UNL A   1      42.331  25.989  27.144  1.00  0.00     0.029 A 
ATOM     47  C   UNL A   1      43.106  27.184  27.462  1.00  0.00     0.049 A 
ATOM     48  H   UNL A   1      45.125  27.522  27.074  1.00  0.00     0.167 HD
ATOM     49  C   UNL A   1      49.412  28.033  26.369  1.00  0.00     0.037 A 
ATOM     50  C   UNL A   1      42.629  28.286  28.074  1.00  0.00     0.037 A 
ATOM     51  C   UNL A   1      48.974  29.286  26.925  1.00  0.00     0.049 A 
ATOM     52  C   UNL A   1      43.559  29.444  28.332  1.00  0.00     0.074 A 
ATOM     53  C   UNL A   1      49.710  30.437  27.138  1.00  0.00     0.029 A 
ATOM     54  N   UNL A   1      47.682  29.547  27.356  1.00  0.00    -0.354 N 
ATOM     55  N   UNL A   1      44.832  29.566  28.042  1.00  0.00    -0.248 NA
ATOM     56  C   UNL A   1      42.983  30.622  28.997  1.00  0.00     0.031 C 
ATOM     57  C   UNL A   1      48.874  31.382  27.742  1.00  0.00     0.029 A 
ATOM     58  C   UNL A   1      47.605  30.836  27.856  1.00  0.00     0.049 A 
ATOM     59  H   UNL A   1      46.932  28.911  27.312  1.00  0.00     0.167 HD
ATOM     60  C   UNL A   1      45.199  30.840  28.456  1.00  0.00     0.074 A 
ATOM     61  C   UNL A   1      44.012  31.458  29.007  1.00  0.00     0.031 C 
ATOM     62  C   UNL A   1      46.410  31.443  28.385  1.00  0.00     0.037 A 
BRANCH  49  63
ATOM     63  C   UNL A   1      50.865  27.870  26.027  1.00  0.00     0.064 A 
ATOM     64  C   UNL A   1      51.347  28.089  24.727  1.00  0.00     0.173 A 
ATOM     65  C   UNL A   1      51.791  27.503  27.015  1.00  0.00     0.173 A 
ATOM     66  F   UNL A   1      50.501  28.429  23.742  1.00  0.00    -0.203 F 
ATOM     67  C   UNL A   1      52.692  27.907  24.420  1.00  0.00     0.198 A 
ATOM     68  C   UNL A   1      53.142  27.356  26.712  1.00  0.00     0.198 A 
ATOM     69  F   UNL A   1      51.386  27.286  28.276  1.00  0.00    -0.203 F 
ATOM     70  F   UNL A   1      53.115  28.059  23.157  1.00  0.00    -0.200 F 
ATOM     71  C   UNL A   1      53.590  27.547  25.413  1.00  0.00     0.200 A 
ATOM     72  F   UNL A   1      54.011  27.021  27.676  1.00  0.00    -0.200 F 
ATOM     73  F   UNL A   1      54.885  27.375  25.117  1.00  0.00    -0.200 F 
ENDBRANCH  49  63
BRANCH  50  74
ATOM     74  C   UNL A   1      41.193  28.375  28.452  1.00  0.00     0.064 A 
ATOM     75  C   UNL A   1      40.252  28.926  27.569  1.00  0.00     0.173 A 
ATOM     76  C   UNL A   1      40.733  27.939  29.702  1.00  0.00     0.173 A 
ATOM     77  F   UNL A   1      40.645  29.380  26.370  1.00  0.00    -0.203 F 
ATOM     78  C   UNL A   1      38.912  29.059  27.931  1.00  0.00     0.198 A 
ATOM     79  C   UNL A   1      39.387  28.046  30.053  1.00  0.00     0.198 A 
ATOM     80  F   UNL A   1      41.589  27.403  30.584  1.00  0.00    -0.203 F 
ATOM     81  F   UNL A   1      38.045  29.636  27.087  1.00  0.00    -0.200 F 
ATOM     82  C   UNL A   1      38.479  28.614  29.171  1.00  0.00     0.200 A 
ATOM     83  F   UNL A   1      38.970  27.604  31.247  1.00  0.00    -0.200 F 
ATOM     84  F   UNL A   1      37.191  28.741  29.520  1.00  0.00    -0.200 F 
ENDBRANCH  50  74
BRANCH  62  85
ATOM     85  C   UNL A   1      46.509  32.859  28.873  1.00  0.00     0.064 A 
ATOM     86  C   UNL A   1      46.865  33.162  30.195  1.00  0.00     0.173 A 
ATOM     87  C   UNL A   1      46.298  33.928  27.988  1.00  0.00     0.173 A 
ATOM     88  F   UNL A   1      47.063  32.176  31.083  1.00  0.00    -0.203 F 
ATOM     89  C   UNL A   1      46.984  34.482  30.619  1.00  0.00     0.198 A 
ATOM     90  C   UNL A   1      46.449  35.246  28.407  1.00  0.00     0.198 A 
ATOM     91  F   UNL A   1      45.964  33.693  26.710  1.00  0.00    -0.203 F 
ATOM     92  F   UNL A   1      47.282  34.749  31.898  1.00  0.00    -0.200 F 
ATOM     93  C   UNL A   1      46.786  35.523  29.723  1.00  0.00     0.200 A 
ATOM     94  F   UNL A   1      46.273  36.250  27.535  1.00  0.00    -0.200 F 
ATOM     95  F   UNL A   1      46.914  36.793  30.131  1.00  0.00    -0.200 F 
ENDBRANCH  62  85
ENDBRANCH  36  37
ENDBRANCH  28  31
ENDBRANCH  26  27
ENDBRANCH  25  26
ENDBRANCH  24  25
ENDBRANCH   1  24
TORSDOF 16
ENDMDL
MODEL 2
REMARK VINA RESULT:     -11.2      6.265     11.487
REMARK SMILES CCN1C(=O)N(CC)[C@H]2NC(=O)N(CCCC(=O)NCCCCNC(=O)c3ccc(-c4c5nc(c(-c6c(F)c(F)c(F)c(F)c6F)c6ccc([nH]6)c(-c6c(F)c(F)c(F)c(F)c6F)c6nc(c(-c7c(F)c(F)c(F)c(F)c7F)c7ccc4[nH]7)C=C6)C=C5)cc3)[C@@H]21
REMARK SMILES IDX 20 1 19 2 17 3 18 4 16 6 15 7 14 8 13 9 3 10 4 11 90 12 5 13
REMARK SMILES IDX 6 14 9 15 10 16 11 17 12 19 2 20 1 21 7 22 8 23 21 24 22 25
REMARK SMILES IDX 23 26 24 27 25 28 26 30 27 31 28 32 89 33 29 34 88 35 30 36
REMARK SMILES IDX 31 37 32 38 82 39 33 40 87 41 81 42 83 43 34 44 86 45 80 46
REMARK SMILES IDX 79 47 35 49 67 50 47 51 66 52 48 53 51 54 65 55 84 56 49 57
REMARK SMILES IDX 50 58 64 60 85 61 52 62 36 63 37 64 45 65 38 66 39 67 43 68
REMARK SMILES IDX 46 69 40 70 41 71 44 72 42 73 68 74 69 75 77 76 70 77 71 78
REMARK SMILES IDX 75 79 78 80 72 81 73 82 76 83 74 84 53 85 54 86 62 87 55 88
REMARK SMILES IDX 56 89 60 90 63 91 57 92 58 93 61 94 59 95
REMARK H PARENT 19 5 10 18 24 29 83 48 51 59
REMARK Flexibility Score: inf
ROOT
ATOM      1  C   UNL A   1      34.120  29.651  26.413  1.00  0.00     0.116 C 
ENDROOT
BRANCH   1   2
ATOM      2  N   UNL A   1      33.880  29.336  24.984  1.00  0.00    -0.356 N 
ATOM      3  C   UNL A   1      33.057  28.983  23.991  1.00  0.00     0.220 C 
ATOM      4  O   UNL A   1      33.729  29.042  22.928  1.00  0.00    -0.275 OA
ATOM      5  H   UNL A   1      34.760  29.437  24.555  1.00  0.00     0.163 HD
BRANCH   3   6
ATOM      6  C   UNL A   1      31.535  28.683  23.713  1.00  0.00     0.102 C 
BRANCH   6   7
ATOM      7  C   UNL A   1      30.220  27.826  23.805  1.00  0.00     0.031 C 
BRANCH   7   8
ATOM      8  C   UNL A   1      29.811  26.406  24.255  1.00  0.00     0.124 C 
BRANCH   8   9
ATOM      9  N   UNL A   1      30.653  25.556  25.108  1.00  0.00    -0.300 N 
ATOM     10  N   UNL A   1      32.865  24.947  23.942  1.00  0.00    -0.300 N 
ATOM     11  C   UNL A   1      33.961  24.210  24.463  1.00  0.00     0.323 C 
ATOM     12  C   UNL A   1      32.055  25.315  25.049  1.00  0.00     0.231 C 
ATOM     13  O   UNL A   1      34.968  23.910  23.845  1.00  0.00    -0.248 OA
ATOM     14  N   UNL A   1      33.588  23.812  25.770  1.00  0.00    -0.300 N 
ATOM     15  C   UNL A   1      32.180  24.012  25.833  1.00  0.00     0.228 C 
ATOM     16  N   UNL A   1      31.276  24.208  26.887  1.00  0.00    -0.314 N 
ATOM     17  C   UNL A   1      30.203  24.958  26.326  1.00  0.00     0.320 C 
ATOM     18  H   UNL A   1      31.365  23.895  27.816  1.00  0.00     0.167 HD
ATOM     19  O   UNL A   1      29.080  25.011  26.795  1.00  0.00    -0.249 OA
BRANCH  10  20
ATOM     20  C   UNL A   1      32.358  24.623  22.656  1.00  0.00     0.120 C 
ATOM     21  C   UNL A   1      32.734  25.655  21.604  1.00  0.00     0.027 C 
ENDBRANCH  10  20
BRANCH  14  22
ATOM     22  C   UNL A   1      34.451  23.252  26.780  1.00  0.00     0.120 C 
ATOM     23  C   UNL A   1      34.084  21.841  27.220  1.00  0.00     0.027 C 
ENDBRANCH  14  22
ENDBRANCH   8   9
ENDBRANCH   7   8
ENDBRANCH   6   7
ENDBRANCH   3   6
ENDBRANCH   1   2
BRANCH   1  24
ATOM     24  C   UNL A   1      32.850  29.876  27.253  1.00  0.00     0.023 C 
BRANCH  24  25
ATOM     25  C   UNL A   1      32.272  31.295  27.201  1.00  0.00     0.023 C 
BRANCH  25  26
ATOM     26  C   UNL A   1      33.223  32.468  27.426  1.00  0.00     0.116 C 
BRANCH  26  27
ATOM     27  N   UNL A   1      32.598  33.770  27.640  1.00  0.00    -0.352 N 
ATOM     28  C   UNL A   1      33.017  34.772  28.505  1.00  0.00     0.251 C 
ATOM     29  H   UNL A   1      31.788  33.958  27.114  1.00  0.00     0.163 HD
ATOM     30  O   UNL A   1      32.414  35.834  28.597  1.00  0.00    -0.269 OA
BRANCH  28  31
ATOM     31  C   UNL A   1      34.186  34.496  29.371  1.00  0.00     0.039 A 
ATOM     32  C   UNL A   1      33.984  33.876  30.607  1.00  0.00     0.014 A 
ATOM     33  C   UNL A   1      35.472  34.648  28.851  1.00  0.00     0.014 A 
ATOM     34  C   UNL A   1      35.068  33.277  31.256  1.00  0.00     0.010 A 
ATOM     35  C   UNL A   1      36.522  33.956  29.444  1.00  0.00     0.010 A 
ATOM     36  C   UNL A   1      36.330  33.243  30.641  1.00  0.00    -0.014 A 
BRANCH  36  37
ATOM     37  C   UNL A   1      37.460  32.456  31.211  1.00  0.00     0.031 A 
ATOM     38  C   UNL A   1      37.997  32.802  32.572  1.00  0.00     0.074 A 
ATOM     39  C   UNL A   1      38.064  31.499  30.476  1.00  0.00     0.049 A 
ATOM     40  N   UNL A   1      39.032  32.311  33.206  1.00  0.00    -0.248 NA
ATOM     41  C   UNL A   1      37.304  33.876  33.301  1.00  0.00     0.031 C 
ATOM     42  C   UNL A   1      37.692  31.106  29.115  1.00  0.00     0.029 A 
ATOM     43  N   UNL A   1      39.134  30.685  30.769  1.00  0.00    -0.354 N 
ATOM     44  C   UNL A   1      39.126  33.036  34.387  1.00  0.00     0.074 A 
ATOM     45  C   UNL A   1      38.091  34.044  34.351  1.00  0.00     0.031 C 
ATOM     46  C   UNL A   1      38.491  30.104  28.708  1.00  0.00     0.029 A 
ATOM     47  C   UNL A   1      39.459  29.808  29.760  1.00  0.00     0.049 A 
ATOM     48  H   UNL A   1      39.622  30.725  31.623  1.00  0.00     0.167 HD
ATOM     49  C   UNL A   1      39.974  32.856  35.427  1.00  0.00     0.037 A 
ATOM     50  C   UNL A   1      40.427  28.873  29.691  1.00  0.00     0.037 A 
ATOM     51  C   UNL A   1      40.971  31.821  35.487  1.00  0.00     0.049 A 
ATOM     52  C   UNL A   1      41.352  28.685  30.867  1.00  0.00     0.074 A 
ATOM     53  C   UNL A   1      41.822  31.503  36.530  1.00  0.00     0.029 A 
ATOM     54  N   UNL A   1      41.250  30.936  34.456  1.00  0.00    -0.354 N 
ATOM     55  N   UNL A   1      41.373  29.318  32.015  1.00  0.00    -0.248 NA
ATOM     56  C   UNL A   1      42.386  27.647  30.737  1.00  0.00     0.031 C 
ATOM     57  C   UNL A   1      42.649  30.455  36.113  1.00  0.00     0.029 A 
ATOM     58  C   UNL A   1      42.276  30.086  34.831  1.00  0.00     0.049 A 
ATOM     59  H   UNL A   1      40.786  30.915  33.588  1.00  0.00     0.167 HD
ATOM     60  C   UNL A   1      42.392  28.734  32.755  1.00  0.00     0.074 A 
ATOM     61  C   UNL A   1      42.961  27.688  31.932  1.00  0.00     0.031 C 
ATOM     62  C   UNL A   1      42.819  29.037  34.005  1.00  0.00     0.037 A 
BRANCH  49  63
ATOM     63  C   UNL A   1      39.846  33.795  36.592  1.00  0.00     0.064 A 
ATOM     64  C   UNL A   1      40.571  34.995  36.656  1.00  0.00     0.173 A 
ATOM     65  C   UNL A   1      38.977  33.497  37.653  1.00  0.00     0.173 A 
ATOM     66  F   UNL A   1      41.425  35.321  35.674  1.00  0.00    -0.203 F 
ATOM     67  C   UNL A   1      40.461  35.842  37.755  1.00  0.00     0.198 A 
ATOM     68  C   UNL A   1      38.844  34.365  38.735  1.00  0.00     0.198 A 
ATOM     69  F   UNL A   1      38.256  32.367  37.641  1.00  0.00    -0.203 F 
ATOM     70  F   UNL A   1      41.214  36.949  37.822  1.00  0.00    -0.200 F 
ATOM     71  C   UNL A   1      39.594  35.530  38.790  1.00  0.00     0.200 A 
ATOM     72  F   UNL A   1      37.995  34.068  39.728  1.00  0.00    -0.200 F 
ATOM     73  F   UNL A   1      39.488  36.347  39.847  1.00  0.00    -0.200 F 
ENDBRANCH  49  63
BRANCH  50  74
ATOM     74  C   UNL A   1      40.555  28.008  28.487  1.00  0.00     0.064 A 
ATOM     75  C   UNL A   1      39.933  26.751  28.438  1.00  0.00     0.173 A 
ATOM     76  C   UNL A   1      41.314  28.401  27.375  1.00  0.00     0.173 A 
ATOM     77  F   UNL A   1      39.216  26.318  29.485  1.00  0.00    -0.203 F 
ATOM     78  C   UNL A   1      40.085  25.912  27.334  1.00  0.00     0.198 A 
ATOM     79  C   UNL A   1      41.442  27.574  26.260  1.00  0.00     0.198 A 
ATOM     80  F   UNL A   1      41.928  29.593  27.369  1.00  0.00    -0.203 F 
ATOM     81  F   UNL A   1      39.522  24.696  27.337  1.00  0.00    -0.200 F 
ATOM     82  C   UNL A   1      40.835  26.326  26.244  1.00  0.00     0.200 A 
ATOM     83  F   UNL A   1      42.157  27.982  25.203  1.00  0.00    -0.200 F 
ATOM     84  F   UNL A   1      40.981  25.520  25.183  1.00  0.00    -0.200 F 
ENDBRANCH  50  74
BRANCH  62  85
ATOM     85  C   UNL A   1      43.925  28.202  34.582  1.00  0.00     0.064 A 
ATOM     86  C   UNL A   1      43.669  26.994  35.247  1.00  0.00     0.173 A 
ATOM     87  C   UNL A   1      45.264  28.590  34.418  1.00  0.00     0.173 A 
ATOM     88  F   UNL A   1      42.406  26.586  35.441  1.00  0.00    -0.203 F 
ATOM     89  C   UNL A   1      44.710  26.217  35.744  1.00  0.00     0.198 A 
ATOM     90  C   UNL A   1      46.304  27.796  34.889  1.00  0.00     0.198 A 
ATOM     91  F   UNL A   1      45.563  29.733  33.783  1.00  0.00    -0.203 F 
ATOM     92  F   UNL A   1      44.440  25.088  36.415  1.00  0.00    -0.200 F 
ATOM     93  C   UNL A   1      46.027  26.613  35.558  1.00  0.00     0.200 A 
ATOM     94  F   UNL A   1      47.576  28.172  34.694  1.00  0.00    -0.200 F 
ATOM     95  F   UNL A   1      47.028  25.856  36.028  1.00  0.00    -0.200 F 
ENDBRANCH  62  85
ENDBRANCH  36  37
ENDBRANCH  28  31
ENDBRANCH  26  27
ENDBRANCH  25  26
ENDBRANCH  24  25
ENDBRANCH   1  24
TORSDOF 16
ENDMDL
MODEL 3
REMARK VINA RESULT:     -11.1      4.347      7.053
REMARK SMILES CCN1C(=O)N(CC)[C@H]2NC(=O)N(CCCC(=O)NCCCCNC(=O)c3ccc(-c4c5nc(c(-c6c(F)c(F)c(F)c(F)c6F)c6ccc([nH]6)c(-c6c(F)c(F)c(F)c(F)c6F)c6nc(c(-c7c(F)c(F)c(F)c(F)c7F)c7ccc4[nH]7)C=C6)C=C5)cc3)[C@@H]21
REMARK SMILES IDX 20 1 19 2 17 3 18 4 16 6 15 7 14 8 13 9 3 10 4 11 90 12 5 13
REMARK SMILES IDX 6 14 9 15 10 16 11 17 12 19 2 20 1 21 7 22 8 23 21 24 22 25
REMARK SMILES IDX 23 26 24 27 25 28 26 30 27 31 28 32 89 33 29 34 88 35 30 36
REMARK SMILES IDX 31 37 32 38 82 39 33 40 87 41 81 42 83 43 34 44 86 45 80 46
REMARK SMILES IDX 79 47 35 49 67 50 47 51 66 52 48 53 51 54 65 55 84 56 49 57
REMARK SMILES IDX 50 58 64 60 85 61 52 62 36 63 37 64 45 65 38 66 39 67 43 68
REMARK SMILES IDX 46 69 40 70 41 71 44 72 42 73 68 74 69 75 77 76 70 77 71 78
REMARK SMILES IDX 75 79 78 80 72 81 73 82 76 83 74 84 53 85 54 86 62 87 55 88
REMARK SMILES IDX 56 89 60 90 63 91 57 92 58 93 61 94 59 95
REMARK H PARENT 19 5 10 18 24 29 83 48 51 59
REMARK Flexibility Score: inf
ROOT
ATOM      1  C   UNL A   1      34.610  20.573  25.061  1.00  0.00     0.116 C 
ENDROOT
BRANCH   1   2
ATOM      2  N   UNL A   1      33.877  21.790  25.485  1.00  0.00    -0.356 N 
ATOM      3  C   UNL A   1      33.129  22.860  25.196  1.00  0.00     0.220 C 
ATOM      4  O   UNL A   1      32.815  23.389  26.295  1.00  0.00    -0.275 OA
ATOM      5  H   UNL A   1      34.004  21.831  26.460  1.00  0.00     0.163 HD
BRANCH   3   6
ATOM      6  C   UNL A   1      32.407  23.555  23.979  1.00  0.00     0.102 C 
BRANCH   6   7
ATOM      7  C   UNL A   1      32.340  24.495  22.720  1.00  0.00     0.031 C 
BRANCH   7   8
ATOM      8  C   UNL A   1      32.356  26.011  22.425  1.00  0.00     0.124 C 
BRANCH   8   9
ATOM      9  N   UNL A   1      33.001  26.997  23.303  1.00  0.00    -0.300 N 
ATOM     10  N   UNL A   1      31.996  26.948  25.672  1.00  0.00    -0.300 N 
ATOM     11  C   UNL A   1      32.397  27.692  26.814  1.00  0.00     0.323 C 
ATOM     12  C   UNL A   1      33.050  27.052  24.725  1.00  0.00     0.231 C 
ATOM     13  O   UNL A   1      31.850  27.662  27.903  1.00  0.00    -0.248 OA
ATOM     14  N   UNL A   1      33.454  28.534  26.390  1.00  0.00    -0.300 N 
ATOM     15  C   UNL A   1      33.394  28.519  24.968  1.00  0.00     0.228 C 
ATOM     16  N   UNL A   1      34.332  28.777  23.957  1.00  0.00    -0.314 N 
ATOM     17  C   UNL A   1      33.901  28.005  22.840  1.00  0.00     0.320 C 
ATOM     18  H   UNL A   1      35.119  29.366  24.009  1.00  0.00     0.167 HD
ATOM     19  O   UNL A   1      34.215  28.231  21.684  1.00  0.00    -0.249 OA
BRANCH  10  20
ATOM     20  C   UNL A   1      30.620  26.886  25.330  1.00  0.00     0.120 C 
ATOM     21  C   UNL A   1      29.953  25.610  25.825  1.00  0.00     0.027 C 
ENDBRANCH  10  20
BRANCH  14  22
ATOM     22  C   UNL A   1      34.339  29.297  27.233  1.00  0.00     0.120 C 
ATOM     23  C   UNL A   1      34.013  30.782  27.320  1.00  0.00     0.027 C 
ENDBRANCH  14  22
ENDBRANCH   8   9
ENDBRANCH   7   8
ENDBRANCH   6   7
ENDBRANCH   3   6
ENDBRANCH   1   2
BRANCH   1  24
ATOM     24  C   UNL A   1      36.139  20.730  24.975  1.00  0.00     0.023 C 
BRANCH  24  25
ATOM     25  C   UNL A   1      36.633  22.121  24.560  1.00  0.00     0.023 C 
BRANCH  25  26
ATOM     26  C   UNL A   1      37.552  22.874  25.519  1.00  0.00     0.116 C 
BRANCH  26  27
ATOM     27  N   UNL A   1      38.892  22.321  25.692  1.00  0.00    -0.352 N 
ATOM     28  C   UNL A   1      39.971  22.916  26.332  1.00  0.00     0.251 C 
ATOM     29  H   UNL A   1      39.049  21.427  25.312  1.00  0.00     0.163 HD
ATOM     30  O   UNL A   1      41.054  22.352  26.424  1.00  0.00    -0.269 OA
BRANCH  28  31
ATOM     31  C   UNL A   1      39.798  24.293  26.849  1.00  0.00     0.039 A 
ATOM     32  C   UNL A   1      39.278  24.476  28.133  1.00  0.00     0.014 A 
ATOM     33  C   UNL A   1      40.361  25.361  26.149  1.00  0.00     0.014 A 
ATOM     34  C   UNL A   1      39.455  25.706  28.773  1.00  0.00     0.010 A 
ATOM     35  C   UNL A   1      40.632  26.543  26.830  1.00  0.00     0.010 A 
ATOM     36  C   UNL A   1      40.203  26.723  28.157  1.00  0.00    -0.014 A 
BRANCH  36  37
ATOM     37  C   UNL A   1      40.571  27.973  28.879  1.00  0.00     0.031 A 
ATOM     38  C   UNL A   1      41.953  28.123  29.453  1.00  0.00     0.074 A 
ATOM     39  C   UNL A   1      39.646  28.931  29.102  1.00  0.00     0.049 A 
ATOM     40  N   UNL A   1      42.444  29.082  30.198  1.00  0.00    -0.248 NA
ATOM     41  C   UNL A   1      42.898  27.026  29.193  1.00  0.00     0.031 C 
ATOM     42  C   UNL A   1      38.251  28.887  28.662  1.00  0.00     0.029 A 
ATOM     43  N   UNL A   1      39.740  30.130  29.770  1.00  0.00    -0.354 N 
ATOM     44  C   UNL A   1      43.737  28.686  30.514  1.00  0.00     0.074 A 
ATOM     45  C   UNL A   1      43.931  27.372  29.943  1.00  0.00     0.031 C 
ATOM     46  C   UNL A   1      37.632  30.020  29.035  1.00  0.00     0.029 A 
ATOM     47  C   UNL A   1      38.571  30.856  29.776  1.00  0.00     0.049 A 
ATOM     48  H   UNL A   1      40.568  30.441  30.202  1.00  0.00     0.167 HD
ATOM     49  C   UNL A   1      44.692  29.368  31.189  1.00  0.00     0.037 A 
ATOM     50  C   UNL A   1      38.291  32.058  30.317  1.00  0.00     0.037 A 
ATOM     51  C   UNL A   1      44.517  30.696  31.714  1.00  0.00     0.049 A 
ATOM     52  C   UNL A   1      39.375  32.803  31.054  1.00  0.00     0.074 A 
ATOM     53  C   UNL A   1      45.449  31.505  32.338  1.00  0.00     0.029 A 
ATOM     54  N   UNL A   1      43.328  31.407  31.675  1.00  0.00    -0.354 N 
ATOM     55  N   UNL A   1      40.621  32.456  31.269  1.00  0.00    -0.248 NA
ATOM     56  C   UNL A   1      39.013  34.112  31.620  1.00  0.00     0.031 C 
ATOM     57  C   UNL A   1      44.811  32.689  32.720  1.00  0.00     0.029 A 
ATOM     58  C   UNL A   1      43.496  32.639  32.286  1.00  0.00     0.049 A 
ATOM     59  H   UNL A   1      42.489  31.085  31.273  1.00  0.00     0.167 HD
ATOM     60  C   UNL A   1      41.199  33.513  31.960  1.00  0.00     0.074 A 
ATOM     61  C   UNL A   1      40.171  34.520  32.120  1.00  0.00     0.031 C 
ATOM     62  C   UNL A   1      42.467  33.638  32.421  1.00  0.00     0.037 A 
BRANCH  49  63
ATOM     63  C   UNL A   1      46.018  28.690  31.382  1.00  0.00     0.064 A 
ATOM     64  C   UNL A   1      46.292  27.916  32.520  1.00  0.00     0.173 A 
ATOM     65  C   UNL A   1      47.024  28.805  30.410  1.00  0.00     0.173 A 
ATOM     66  F   UNL A   1      45.370  27.785  33.485  1.00  0.00    -0.203 F 
ATOM     67  C   UNL A   1      47.536  27.316  32.697  1.00  0.00     0.198 A 
ATOM     68  C   UNL A   1      48.254  28.175  30.574  1.00  0.00     0.198 A 
ATOM     69  F   UNL A   1      46.814  29.529  29.300  1.00  0.00    -0.203 F 
ATOM     70  F   UNL A   1      47.795  26.637  33.823  1.00  0.00    -0.200 F 
ATOM     71  C   UNL A   1      48.514  27.441  31.722  1.00  0.00     0.200 A 
ATOM     72  F   UNL A   1      49.194  28.284  29.625  1.00  0.00    -0.200 F 
ATOM     73  F   UNL A   1      49.709  26.860  31.893  1.00  0.00    -0.200 F 
ENDBRANCH  49  63
BRANCH  50  74
ATOM     74  C   UNL A   1      36.940  32.661  30.154  1.00  0.00     0.064 A 
ATOM     75  C   UNL A   1      35.971  32.534  31.161  1.00  0.00     0.173 A 
ATOM     76  C   UNL A   1      36.579  33.352  28.989  1.00  0.00     0.173 A 
ATOM     77  F   UNL A   1      36.259  31.861  32.285  1.00  0.00    -0.203 F 
ATOM     78  C   UNL A   1      34.688  33.053  30.998  1.00  0.00     0.198 A 
ATOM     79  C   UNL A   1      35.304  33.896  28.839  1.00  0.00     0.198 A 
ATOM     80  F   UNL A   1      37.467  33.505  27.995  1.00  0.00    -0.203 F 
ATOM     81  F   UNL A   1      33.767  32.871  31.955  1.00  0.00    -0.200 F 
ATOM     82  C   UNL A   1      34.356  33.739  29.840  1.00  0.00     0.200 A 
ATOM     83  F   UNL A   1      34.990  34.568  27.723  1.00  0.00    -0.200 F 
ATOM     84  F   UNL A   1      33.122  34.238  29.683  1.00  0.00    -0.200 F 
ENDBRANCH  50  74
BRANCH  62  85
ATOM     85  C   UNL A   1      42.834  34.924  33.102  1.00  0.00     0.064 A 
ATOM     86  C   UNL A   1      42.663  35.104  34.482  1.00  0.00     0.173 A 
ATOM     87  C   UNL A   1      43.415  35.971  32.370  1.00  0.00     0.173 A 
ATOM     88  F   UNL A   1      42.098  34.140  35.224  1.00  0.00    -0.203 F 
ATOM     89  C   UNL A   1      43.041  36.293  35.101  1.00  0.00     0.198 A 
ATOM     90  C   UNL A   1      43.821  37.145  32.996  1.00  0.00     0.198 A 
ATOM     91  F   UNL A   1      43.608  35.846  31.048  1.00  0.00    -0.203 F 
ATOM     92  F   UNL A   1      42.828  36.460  36.413  1.00  0.00    -0.200 F 
ATOM     93  C   UNL A   1      43.628  37.308  34.359  1.00  0.00     0.200 A 
ATOM     94  F   UNL A   1      44.403  38.119  32.281  1.00  0.00    -0.200 F 
ATOM     95  F   UNL A   1      44.002  38.447  34.959  1.00  0.00    -0.200 F 
ENDBRANCH  62  85
ENDBRANCH  36  37
ENDBRANCH  28  31
ENDBRANCH  26  27
ENDBRANCH  25  26
ENDBRANCH  24  25
ENDBRANCH   1  24
TORSDOF 16
ENDMDL
