MODEL 1
REMARK VINA RESULT:     -14.5      0.000      0.000
REMARK SMILES O=C(NCCCCNC(=O)c1ccc(-c2c3nc(c(-c4c(F)c(F)c(F)c(F)c4F)c4ccc([nH]4)c(-c4c(F)c(F)c(F)c(F)c4F)c4nc(c(-c5c(F)c(F)c(F)c(F)c5F)c5ccc2[nH]5)C=C4)C=C3)cc1)C1=Cc2cc(S(F)(F)(F)(F)F)ccc2O[C@@H]1C(F)(F)F
REMARK SMILES IDX 6 1 5 2 4 3 3 4 1 5 2 6 74 8 75 9 89 10 76 11 88 12 77 13
REMARK SMILES IDX 87 14 78 15 86 16 85 17 90 18 91 19 92 20 93 21 79 22 80 23
REMARK SMILES IDX 81 24 82 25 83 26 84 27 7 28 8 29 9 30 10 32 11 33 12 34
REMARK SMILES IDX 73 35 13 36 72 37 14 38 15 39 16 40 66 41 17 42 71 43 65 44
REMARK SMILES IDX 67 45 18 46 70 47 64 48 63 49 19 51 51 52 31 53 50 54 32 55
REMARK SMILES IDX 35 56 49 57 68 58 33 59 34 60 48 62 69 63 36 64 20 65 21 66
REMARK SMILES IDX 29 67 22 68 23 69 27 70 30 71 24 72 25 73 28 74 26 75 52 76
REMARK SMILES IDX 53 77 61 78 54 79 55 80 59 81 62 82 56 83 57 84 60 85 58 86
REMARK SMILES IDX 37 87 38 88 46 89 39 90 40 91 44 92 47 93 41 94 42 95 45 96
REMARK SMILES IDX 43 97
REMARK H PARENT 3 7 8 31 67 50 35 61
REMARK Flexibility Score: inf
ROOT
ATOM      1  C   UNL A   1      39.235  22.444  26.127  1.00  0.00     0.023 C 
ENDROOT
BRANCH   1   2
ATOM      2  C   UNL A   1      38.643  23.793  26.501  1.00  0.00     0.023 C 
BRANCH   2   3
ATOM      3  C   UNL A   1      37.194  23.855  26.046  1.00  0.00     0.116 C 
BRANCH   3   4
ATOM      4  N   UNL A   1      37.132  23.703  24.585  1.00  0.00    -0.352 N 
ATOM      5  O   UNL A   1      36.050  22.715  22.715  1.00  0.00    -0.270 OA
ATOM      6  C   UNL A   1      36.103  22.847  23.978  1.00  0.00     0.251 C 
ATOM      7  H   UNL A   1      37.780  24.175  24.014  1.00  0.00     0.163 HD
BRANCH   6   8
ATOM      8  C   UNL A   1      35.102  22.118  24.861  1.00  0.00     0.067 C 
ATOM      9  C   UNL A   1      34.061  22.798  25.412  1.00  0.00     0.025 C 
ATOM     10  C   UNL A   1      35.265  20.631  25.128  1.00  0.00     0.314 C 
ATOM     11  C   UNL A   1      33.898  24.286  25.145  1.00  0.00     0.019 A 
ATOM     12  O   UNL A   1      34.640  23.810  22.937  1.00  0.00    -0.475 OA
ATOM     13  C   UNL A   1      33.476  25.162  26.131  1.00  0.00     0.036 A 
ATOM     14  C   UNL A   1      34.054  24.687  23.888  1.00  0.00     0.128 A 
ATOM     15  C   UNL A   1      32.962  26.383  25.632  1.00  0.00     0.107 A 
ATOM     16  C   UNL A   1      33.655  25.942  23.500  1.00  0.00     0.048 A 
ATOM     17  C   UNL A   1      33.173  26.841  24.411  1.00  0.00     0.028 A 
BRANCH  10  18
ATOM     18  C   UNL A   1      34.037  19.889  24.628  1.00  0.00     0.429 C 
ATOM     19  F   UNL A   1      34.393  18.685  24.191  1.00  0.00    -0.167 F 
ATOM     20  F   UNL A   1      33.163  19.759  25.622  1.00  0.00    -0.167 F 
ATOM     21  F   UNL A   1      33.479  20.575  23.634  1.00  0.00    -0.167 F 
ENDBRANCH  10  18
BRANCH  15  22
ATOM     22  S   UNL A   1      31.947  27.387  26.745  1.00  0.00     0.310 S 
ATOM     23  F   UNL A   1      31.733  28.508  25.643  1.00  0.00    -0.094 F 
ATOM     24  F   UNL A   1      33.248  28.161  27.182  1.00  0.00    -0.094 F 
ATOM     25  F   UNL A   1      31.078  28.248  27.703  1.00  0.00    -0.094 F 
ATOM     26  F   UNL A   1      30.638  26.697  26.192  1.00  0.00    -0.094 F 
ATOM     27  F   UNL A   1      32.801  26.582  25.685  1.00  0.00    -0.094 F 
ENDBRANCH  15  22
ENDBRANCH   6   8
ENDBRANCH   3   4
ENDBRANCH   2   3
ENDBRANCH   1   2
BRANCH   1  28
ATOM     28  C   UNL A   1      40.621  22.315  26.736  1.00  0.00     0.116 C 
BRANCH  28  29
ATOM     29  N   UNL A   1      41.634  22.415  25.675  1.00  0.00    -0.352 N 
ATOM     30  C   UNL A   1      42.473  23.618  25.571  1.00  0.00     0.251 C 
ATOM     31  H   UNL A   1      41.751  21.676  25.035  1.00  0.00     0.163 HD
ATOM     32  O   UNL A   1      43.348  23.705  24.654  1.00  0.00    -0.269 OA
BRANCH  30  33
ATOM     33  C   UNL A   1      42.292  24.758  26.559  1.00  0.00     0.039 A 
ATOM     34  C   UNL A   1      41.945  24.417  27.856  1.00  0.00     0.014 A 
ATOM     35  C   UNL A   1      42.334  26.027  26.169  1.00  0.00     0.014 A 
ATOM     36  C   UNL A   1      41.376  25.479  28.596  1.00  0.00     0.010 A 
ATOM     37  C   UNL A   1      41.887  27.029  26.997  1.00  0.00     0.010 A 
ATOM     38  C   UNL A   1      41.474  26.756  28.272  1.00  0.00    -0.014 A 
BRANCH  38  39
ATOM     39  C   UNL A   1      41.146  27.862  29.260  1.00  0.00     0.031 A 
ATOM     40  C   UNL A   1      40.076  28.731  29.038  1.00  0.00     0.074 A 
ATOM     41  C   UNL A   1      41.884  27.828  30.432  1.00  0.00     0.049 A 
ATOM     42  N   UNL A   1      39.566  29.628  29.883  1.00  0.00    -0.248 NA
ATOM     43  C   UNL A   1      39.313  28.792  27.783  1.00  0.00     0.031 C 
ATOM     44  C   UNL A   1      42.959  26.948  30.667  1.00  0.00     0.029 A 
ATOM     45  N   UNL A   1      41.728  28.613  31.552  1.00  0.00    -0.354 N 
ATOM     46  C   UNL A   1      38.535  30.260  29.318  1.00  0.00     0.074 A 
ATOM     47  C   UNL A   1      38.361  29.736  27.957  1.00  0.00     0.031 C 
ATOM     48  C   UNL A   1      43.450  27.206  31.908  1.00  0.00     0.029 A 
ATOM     49  C   UNL A   1      42.690  28.251  32.469  1.00  0.00     0.049 A 
ATOM     50  H   UNL A   1      41.045  29.311  31.677  1.00  0.00     0.167 HD
ATOM     51  C   UNL A   1      37.732  31.251  29.886  1.00  0.00     0.037 A 
ATOM     52  C   UNL A   1      42.911  28.791  33.726  1.00  0.00     0.037 A 
ATOM     53  C   UNL A   1      37.927  31.760  31.160  1.00  0.00     0.049 A 
ATOM     54  C   UNL A   1      42.144  29.823  34.272  1.00  0.00     0.074 A 
ATOM     55  C   UNL A   1      37.122  32.753  31.750  1.00  0.00     0.029 A 
ATOM     56  N   UNL A   1      38.904  31.415  32.067  1.00  0.00    -0.354 N 
ATOM     57  N   UNL A   1      41.089  30.427  33.722  1.00  0.00    -0.248 NA
ATOM     58  C   UNL A   1      42.389  30.424  35.589  1.00  0.00     0.031 C 
ATOM     59  C   UNL A   1      37.613  33.012  32.992  1.00  0.00     0.029 A 
ATOM     60  C   UNL A   1      38.733  32.184  33.197  1.00  0.00     0.049 A 
ATOM     61  H   UNL A   1      39.605  30.738  31.930  1.00  0.00     0.167 HD
ATOM     62  C   UNL A   1      40.605  31.352  34.553  1.00  0.00     0.074 A 
ATOM     63  C   UNL A   1      41.438  31.370  35.762  1.00  0.00     0.031 C 
ATOM     64  C   UNL A   1      39.499  32.181  34.352  1.00  0.00     0.037 A 
BRANCH  51  65
ATOM     65  C   UNL A   1      36.581  31.801  29.060  1.00  0.00     0.064 A 
ATOM     66  C   UNL A   1      36.589  33.100  28.579  1.00  0.00     0.173 A 
ATOM     67  C   UNL A   1      35.532  31.006  28.882  1.00  0.00     0.173 A 
ATOM     68  F   UNL A   1      37.692  33.840  28.509  1.00  0.00    -0.203 F 
ATOM     69  C   UNL A   1      35.318  33.567  28.170  1.00  0.00     0.198 A 
ATOM     70  C   UNL A   1      34.364  31.499  28.351  1.00  0.00     0.198 A 
ATOM     71  F   UNL A   1      35.612  29.723  29.221  1.00  0.00    -0.203 F 
ATOM     72  F   UNL A   1      35.154  34.880  28.040  1.00  0.00    -0.200 F 
ATOM     73  C   UNL A   1      34.283  32.791  27.909  1.00  0.00     0.200 A 
ATOM     74  F   UNL A   1      33.299  30.708  28.265  1.00  0.00    -0.200 F 
ATOM     75  F   UNL A   1      33.217  33.239  27.251  1.00  0.00    -0.200 F 
ENDBRANCH  51  65
BRANCH  52  76
ATOM     76  C   UNL A   1      44.051  28.228  34.558  1.00  0.00     0.064 A 
ATOM     77  C   UNL A   1      43.751  27.148  35.371  1.00  0.00     0.173 A 
ATOM     78  C   UNL A   1      45.287  28.708  34.479  1.00  0.00     0.173 A 
ATOM     79  F   UNL A   1      42.604  26.479  35.295  1.00  0.00    -0.203 F 
ATOM     80  C   UNL A   1      44.775  26.819  36.291  1.00  0.00     0.198 A 
ATOM     81  C   UNL A   1      46.272  28.245  35.317  1.00  0.00     0.198 A 
ATOM     82  F   UNL A   1      45.574  29.645  33.580  1.00  0.00    -0.203 F 
ATOM     83  F   UNL A   1      44.452  26.057  37.331  1.00  0.00    -0.200 F 
ATOM     84  C   UNL A   1      46.030  27.219  36.188  1.00  0.00     0.200 A 
ATOM     85  F   UNL A   1      47.480  28.803  35.281  1.00  0.00    -0.200 F 
ATOM     86  F   UNL A   1      47.006  26.653  36.893  1.00  0.00    -0.200 F 
ENDBRANCH  52  76
BRANCH  64  87
ATOM     87  C   UNL A   1      39.112  33.138  35.468  1.00  0.00     0.064 A 
ATOM     88  C   UNL A   1      39.658  34.411  35.453  1.00  0.00     0.173 A 
ATOM     89  C   UNL A   1      38.414  32.699  36.509  1.00  0.00     0.173 A 
ATOM     90  F   UNL A   1      40.140  34.981  34.353  1.00  0.00    -0.203 F 
ATOM     91  C   UNL A   1      39.655  35.051  36.716  1.00  0.00     0.198 A 
ATOM     92  C   UNL A   1      38.342  33.440  37.664  1.00  0.00     0.198 A 
ATOM     93  F   UNL A   1      37.778  31.534  36.432  1.00  0.00    -0.203 F 
ATOM     94  F   UNL A   1      40.460  36.095  36.881  1.00  0.00    -0.200 F 
ATOM     95  C   UNL A   1      38.908  34.682  37.739  1.00  0.00     0.200 A 
ATOM     96  F   UNL A   1      37.711  32.941  38.724  1.00  0.00    -0.200 F 
ATOM     97  F   UNL A   1      38.716  35.476  38.789  1.00  0.00    -0.200 F 
ENDBRANCH  64  87
ENDBRANCH  38  39
ENDBRANCH  30  33
ENDBRANCH  28  29
ENDBRANCH   1  28
TORSDOF 13
ENDMDL
MODEL 2
REMARK VINA RESULT:     -14.1      4.045      8.356
REMARK SMILES O=C(NCCCCNC(=O)c1ccc(-c2c3nc(c(-c4c(F)c(F)c(F)c(F)c4F)c4ccc([nH]4)c(-c4c(F)c(F)c(F)c(F)c4F)c4nc(c(-c5c(F)c(F)c(F)c(F)c5F)c5ccc2[nH]5)C=C4)C=C3)cc1)C1=Cc2cc(S(F)(F)(F)(F)F)ccc2O[C@@H]1C(F)(F)F
REMARK SMILES IDX 6 1 5 2 4 3 3 4 1 5 2 6 74 8 75 9 89 10 76 11 88 12 77 13
REMARK SMILES IDX 87 14 78 15 86 16 85 17 90 18 91 19 92 20 93 21 79 22 80 23
REMARK SMILES IDX 81 24 82 25 83 26 84 27 7 28 8 29 9 30 10 32 11 33 12 34
REMARK SMILES IDX 73 35 13 36 72 37 14 38 15 39 16 40 66 41 17 42 71 43 65 44
REMARK SMILES IDX 67 45 18 46 70 47 64 48 63 49 19 51 51 52 31 53 50 54 32 55
REMARK SMILES IDX 35 56 49 57 68 58 33 59 34 60 48 62 69 63 36 64 20 65 21 66
REMARK SMILES IDX 29 67 22 68 23 69 27 70 30 71 24 72 25 73 28 74 26 75 52 76
REMARK SMILES IDX 53 77 61 78 54 79 55 80 59 81 62 82 56 83 57 84 60 85 58 86
REMARK SMILES IDX 37 87 38 88 46 89 39 90 40 91 44 92 47 93 41 94 42 95 45 96
REMARK SMILES IDX 43 97
REMARK H PARENT 3 7 8 31 67 50 35 61
REMARK Flexibility Score: inf
ROOT
ATOM      1  C   UNL A   1      38.987  21.309  25.623  1.00  0.00     0.023 C 
ENDROOT
BRANCH   1   2
ATOM      2  C   UNL A   1      38.975  22.736  26.148  1.00  0.00     0.023 C 
BRANCH   2   3
ATOM      3  C   UNL A   1      37.616  23.363  25.881  1.00  0.00     0.116 C 
BRANCH   3   4
ATOM      4  N   UNL A   1      37.373  23.407  24.432  1.00  0.00    -0.352 N 
ATOM      5  O   UNL A   1      35.946  22.839  22.619  1.00  0.00    -0.270 OA
ATOM      6  C   UNL A   1      36.156  22.801  23.872  1.00  0.00     0.251 C 
ATOM      7  H   UNL A   1      38.026  23.841  23.837  1.00  0.00     0.163 HD
BRANCH   6   8
ATOM      8  C   UNL A   1      35.148  22.131  24.792  1.00  0.00     0.067 C 
ATOM      9  C   UNL A   1      34.179  22.871  25.394  1.00  0.00     0.025 C 
ATOM     10  C   UNL A   1      35.223  20.633  25.039  1.00  0.00     0.314 C 
ATOM     11  C   UNL A   1      34.105  24.370  25.147  1.00  0.00     0.019 A 
ATOM     12  O   UNL A   1      34.716  23.871  22.906  1.00  0.00    -0.475 OA
ATOM     13  C   UNL A   1      33.785  25.261  26.159  1.00  0.00     0.036 A 
ATOM     14  C   UNL A   1      34.232  24.774  23.889  1.00  0.00     0.128 A 
ATOM     15  C   UNL A   1      33.332  26.518  25.693  1.00  0.00     0.107 A 
ATOM     16  C   UNL A   1      33.900  26.057  23.530  1.00  0.00     0.048 A 
ATOM     17  C   UNL A   1      33.519  26.975  24.469  1.00  0.00     0.028 A 
BRANCH  10  18
ATOM     18  C   UNL A   1      33.928  19.980  24.588  1.00  0.00     0.429 C 
ATOM     19  F   UNL A   1      33.091  19.896  25.617  1.00  0.00    -0.167 F 
ATOM     20  F   UNL A   1      33.375  20.711  23.624  1.00  0.00    -0.167 F 
ATOM     21  F   UNL A   1      34.185  18.759  24.125  1.00  0.00    -0.167 F 
ENDBRANCH  10  18
BRANCH  15  22
ATOM     22  S   UNL A   1      32.435  27.574  26.859  1.00  0.00     0.310 S 
ATOM     23  F   UNL A   1      32.273  28.731  25.786  1.00  0.00    -0.094 F 
ATOM     24  F   UNL A   1      33.806  28.236  27.265  1.00  0.00    -0.094 F 
ATOM     25  F   UNL A   1      31.668  28.480  27.862  1.00  0.00    -0.094 F 
ATOM     26  F   UNL A   1      31.058  26.999  26.339  1.00  0.00    -0.094 F 
ATOM     27  F   UNL A   1      33.188  26.728  25.756  1.00  0.00    -0.094 F 
ENDBRANCH  15  22
ENDBRANCH   6   8
ENDBRANCH   3   4
ENDBRANCH   2   3
ENDBRANCH   1   2
BRANCH   1  28
ATOM     28  C   UNL A   1      39.646  20.399  26.646  1.00  0.00     0.116 C 
BRANCH  28  29
ATOM     29  N   UNL A   1      40.551  19.465  25.960  1.00  0.00    -0.352 N 
ATOM     30  C   UNL A   1      41.972  19.806  25.796  1.00  0.00     0.251 C 
ATOM     31  H   UNL A   1      40.205  18.612  25.611  1.00  0.00     0.163 HD
ATOM     32  O   UNL A   1      42.754  18.998  25.203  1.00  0.00    -0.269 OA
BRANCH  30  33
ATOM     33  C   UNL A   1      42.505  21.123  26.334  1.00  0.00     0.039 A 
ATOM     34  C   UNL A   1      42.600  21.247  27.711  1.00  0.00     0.014 A 
ATOM     35  C   UNL A   1      42.745  22.154  25.532  1.00  0.00     0.014 A 
ATOM     36  C   UNL A   1      42.674  22.585  28.162  1.00  0.00     0.010 A 
ATOM     37  C   UNL A   1      42.943  23.412  26.050  1.00  0.00     0.010 A 
ATOM     38  C   UNL A   1      42.990  23.617  27.400  1.00  0.00    -0.014 A 
BRANCH  38  39
ATOM     39  C   UNL A   1      43.384  24.960  27.992  1.00  0.00     0.031 A 
ATOM     40  C   UNL A   1      44.726  25.315  28.139  1.00  0.00     0.074 A 
ATOM     41  C   UNL A   1      42.325  25.824  28.220  1.00  0.00     0.049 A 
ATOM     42  N   UNL A   1      45.220  26.507  28.478  1.00  0.00    -0.248 NA
ATOM     43  C   UNL A   1      45.850  24.390  27.932  1.00  0.00     0.031 C 
ATOM     44  C   UNL A   1      40.969  25.475  28.065  1.00  0.00     0.029 A 
ATOM     45  N   UNL A   1      42.380  27.138  28.626  1.00  0.00    -0.354 N 
ATOM     46  C   UNL A   1      46.554  26.464  28.498  1.00  0.00     0.074 A 
ATOM     47  C   UNL A   1      46.978  25.100  28.153  1.00  0.00     0.031 C 
ATOM     48  C   UNL A   1      40.217  26.561  28.384  1.00  0.00     0.029 A 
ATOM     49  C   UNL A   1      41.090  27.606  28.743  1.00  0.00     0.049 A 
ATOM     50  H   UNL A   1      43.199  27.654  28.802  1.00  0.00     0.167 HD
ATOM     51  C   UNL A   1      47.433  27.509  28.788  1.00  0.00     0.037 A 
ATOM     52  C   UNL A   1      40.677  28.868  29.141  1.00  0.00     0.037 A 
ATOM     53  C   UNL A   1      47.020  28.783  29.143  1.00  0.00     0.049 A 
ATOM     54  C   UNL A   1      41.556  29.897  29.488  1.00  0.00     0.074 A 
ATOM     55  C   UNL A   1      47.893  29.850  29.431  1.00  0.00     0.029 A 
ATOM     56  N   UNL A   1      45.730  29.245  29.285  1.00  0.00    -0.354 N 
ATOM     57  N   UNL A   1      42.889  29.865  29.470  1.00  0.00    -0.248 NA
ATOM     58  C   UNL A   1      41.129  31.227  29.942  1.00  0.00     0.031 C 
ATOM     59  C   UNL A   1      47.140  30.937  29.751  1.00  0.00     0.029 A 
ATOM     60  C   UNL A   1      45.784  30.566  29.669  1.00  0.00     0.049 A 
ATOM     61  H   UNL A   1      44.910  28.719  29.137  1.00  0.00     0.167 HD
ATOM     62  C   UNL A   1      43.382  31.046  29.848  1.00  0.00     0.074 A 
ATOM     63  C   UNL A   1      42.258  31.937  30.165  1.00  0.00     0.031 C 
ATOM     64  C   UNL A   1      44.725  31.417  29.939  1.00  0.00     0.037 A 
BRANCH  51  65
ATOM     65  C   UNL A   1      48.925  27.234  28.708  1.00  0.00     0.064 A 
ATOM     66  C   UNL A   1      49.634  27.412  27.532  1.00  0.00     0.173 A 
ATOM     67  C   UNL A   1      49.507  26.744  29.796  1.00  0.00     0.173 A 
ATOM     68  F   UNL A   1      49.173  28.124  26.508  1.00  0.00    -0.203 F 
ATOM     69  C   UNL A   1      50.893  26.768  27.519  1.00  0.00     0.198 A 
ATOM     70  C   UNL A   1      50.790  26.254  29.743  1.00  0.00     0.198 A 
ATOM     71  F   UNL A   1      48.843  26.726  30.948  1.00  0.00    -0.203 F 
ATOM     72  F   UNL A   1      51.478  26.575  26.340  1.00  0.00    -0.200 F 
ATOM     73  C   UNL A   1      51.529  26.343  28.595  1.00  0.00     0.200 A 
ATOM     74  F   UNL A   1      51.321  25.686  30.822  1.00  0.00    -0.200 F 
ATOM     75  F   UNL A   1      52.820  26.021  28.567  1.00  0.00    -0.200 F 
ENDBRANCH  51  65
BRANCH  52  76
ATOM     76  C   UNL A   1      39.184  29.148  29.204  1.00  0.00     0.064 A 
ATOM     77  C   UNL A   1      38.583  29.565  28.029  1.00  0.00     0.173 A 
ATOM     78  C   UNL A   1      38.476  28.956  30.311  1.00  0.00     0.173 A 
ATOM     79  F   UNL A   1      39.193  29.527  26.848  1.00  0.00    -0.203 F 
ATOM     80  C   UNL A   1      37.259  30.036  28.197  1.00  0.00     0.198 A 
ATOM     81  C   UNL A   1      37.150  29.314  30.363  1.00  0.00     0.198 A 
ATOM     82  F   UNL A   1      39.054  28.413  31.378  1.00  0.00    -0.203 F 
ATOM     83  F   UNL A   1      36.737  30.778  27.225  1.00  0.00    -0.200 F 
ATOM     84  C   UNL A   1      36.505  29.790  29.255  1.00  0.00     0.200 A 
ATOM     85  F   UNL A   1      36.484  29.197  31.508  1.00  0.00    -0.200 F 
ATOM     86  F   UNL A   1      35.191  29.993  29.242  1.00  0.00    -0.200 F 
ENDBRANCH  52  76
BRANCH  64  87
ATOM     87  C   UNL A   1      45.044  32.843  30.360  1.00  0.00     0.064 A 
ATOM     88  C   UNL A   1      45.124  33.120  31.714  1.00  0.00     0.173 A 
ATOM     89  C   UNL A   1      45.069  33.814  29.454  1.00  0.00     0.173 A 
ATOM     90  F   UNL A   1      45.356  32.187  32.633  1.00  0.00    -0.203 F 
ATOM     91  C   UNL A   1      44.939  34.487  32.032  1.00  0.00     0.198 A 
ATOM     92  C   UNL A   1      45.022  35.132  29.842  1.00  0.00     0.198 A 
ATOM     93  F   UNL A   1      45.142  33.509  28.162  1.00  0.00    -0.203 F 
ATOM     94  F   UNL A   1      44.642  34.794  33.291  1.00  0.00    -0.200 F 
ATOM     95  C   UNL A   1      45.039  35.477  31.165  1.00  0.00     0.200 A 
ATOM     96  F   UNL A   1      44.958  36.085  28.916  1.00  0.00    -0.200 F 
ATOM     97  F   UNL A   1      45.152  36.743  31.557  1.00  0.00    -0.200 F 
ENDBRANCH  64  87
ENDBRANCH  38  39
ENDBRANCH  30  33
ENDBRANCH  28  29
ENDBRANCH   1  28
TORSDOF 13
ENDMDL
MODEL 3
REMARK VINA RESULT:     -14.1      4.094      8.385
REMARK SMILES O=C(NCCCCNC(=O)c1ccc(-c2c3nc(c(-c4c(F)c(F)c(F)c(F)c4F)c4ccc([nH]4)c(-c4c(F)c(F)c(F)c(F)c4F)c4nc(c(-c5c(F)c(F)c(F)c(F)c5F)c5ccc2[nH]5)C=C4)C=C3)cc1)C1=Cc2cc(S(F)(F)(F)(F)F)ccc2O[C@@H]1C(F)(F)F
REMARK SMILES IDX 6 1 5 2 4 3 3 4 1 5 2 6 74 8 75 9 89 10 76 11 88 12 77 13
REMARK SMILES IDX 87 14 78 15 86 16 85 17 90 18 91 19 92 20 93 21 79 22 80 23
REMARK SMILES IDX 81 24 82 25 83 26 84 27 7 28 8 29 9 30 10 32 11 33 12 34
REMARK SMILES IDX 73 35 13 36 72 37 14 38 15 39 16 40 66 41 17 42 71 43 65 44
REMARK SMILES IDX 67 45 18 46 70 47 64 48 63 49 19 51 51 52 31 53 50 54 32 55
REMARK SMILES IDX 35 56 49 57 68 58 33 59 34 60 48 62 69 63 36 64 20 65 21 66
REMARK SMILES IDX 29 67 22 68 23 69 27 70 30 71 24 72 25 73 28 74 26 75 52 76
REMARK SMILES IDX 53 77 61 78 54 79 55 80 59 81 62 82 56 83 57 84 60 85 58 86
REMARK SMILES IDX 37 87 38 88 46 89 39 90 40 91 44 92 47 93 41 94 42 95 45 96
REMARK SMILES IDX 43 97
REMARK H PARENT 3 7 8 31 67 50 35 61
REMARK Flexibility Score: inf
ROOT
ATOM      1  C   UNL A   1      38.944  21.263  25.646  1.00  0.00     0.023 C 
ENDROOT
BRANCH   1   2
ATOM      2  C   UNL A   1      38.972  22.705  26.128  1.00  0.00     0.023 C 
BRANCH   2   3
ATOM      3  C   UNL A   1      37.624  23.354  25.864  1.00  0.00     0.116 C 
BRANCH   3   4
ATOM      4  N   UNL A   1      37.377  23.399  24.415  1.00  0.00    -0.352 N 
ATOM      5  O   UNL A   1      35.946  22.832  22.606  1.00  0.00    -0.270 OA
ATOM      6  C   UNL A   1      36.159  22.793  23.858  1.00  0.00     0.251 C 
ATOM      7  H   UNL A   1      38.028  23.835  23.819  1.00  0.00     0.163 HD
BRANCH   6   8
ATOM      8  C   UNL A   1      35.154  22.121  24.780  1.00  0.00     0.067 C 
ATOM      9  C   UNL A   1      34.185  22.860  25.383  1.00  0.00     0.025 C 
ATOM     10  C   UNL A   1      35.233  20.623  25.027  1.00  0.00     0.314 C 
ATOM     11  C   UNL A   1      34.107  24.358  25.136  1.00  0.00     0.019 A 
ATOM     12  O   UNL A   1      34.716  23.860  22.894  1.00  0.00    -0.475 OA
ATOM     13  C   UNL A   1      33.787  25.249  26.149  1.00  0.00     0.036 A 
ATOM     14  C   UNL A   1      34.232  24.762  23.878  1.00  0.00     0.128 A 
ATOM     15  C   UNL A   1      33.331  26.505  25.683  1.00  0.00     0.107 A 
ATOM     16  C   UNL A   1      33.897  26.045  23.518  1.00  0.00     0.048 A 
ATOM     17  C   UNL A   1      33.516  26.962  24.458  1.00  0.00     0.028 A 
BRANCH  10  18
ATOM     18  C   UNL A   1      33.938  19.967  24.578  1.00  0.00     0.429 C 
ATOM     19  F   UNL A   1      33.100  19.888  25.608  1.00  0.00    -0.167 F 
ATOM     20  F   UNL A   1      33.385  20.694  23.611  1.00  0.00    -0.167 F 
ATOM     21  F   UNL A   1      34.196  18.745  24.122  1.00  0.00    -0.167 F 
ENDBRANCH  10  18
BRANCH  15  22
ATOM     22  S   UNL A   1      32.434  27.560  26.850  1.00  0.00     0.310 S 
ATOM     23  F   UNL A   1      32.259  28.712  25.773  1.00  0.00    -0.094 F 
ATOM     24  F   UNL A   1      33.804  28.231  27.246  1.00  0.00    -0.094 F 
ATOM     25  F   UNL A   1      31.667  28.464  27.854  1.00  0.00    -0.094 F 
ATOM     26  F   UNL A   1      31.059  26.975  26.339  1.00  0.00    -0.094 F 
ATOM     27  F   UNL A   1      33.187  26.715  25.745  1.00  0.00    -0.094 F 
ENDBRANCH  15  22
ENDBRANCH   6   8
ENDBRANCH   3   4
ENDBRANCH   2   3
ENDBRANCH   1   2
BRANCH   1  28
ATOM     28  C   UNL A   1      39.643  20.376  26.663  1.00  0.00     0.116 C 
BRANCH  28  29
ATOM     29  N   UNL A   1      40.545  19.448  25.966  1.00  0.00    -0.352 N 
ATOM     30  C   UNL A   1      41.964  19.793  25.792  1.00  0.00     0.251 C 
ATOM     31  H   UNL A   1      40.199  18.596  25.615  1.00  0.00     0.163 HD
ATOM     32  O   UNL A   1      42.744  18.991  25.189  1.00  0.00    -0.269 OA
BRANCH  30  33
ATOM     33  C   UNL A   1      42.498  21.110  26.333  1.00  0.00     0.039 A 
ATOM     34  C   UNL A   1      42.588  21.232  27.710  1.00  0.00     0.014 A 
ATOM     35  C   UNL A   1      42.741  22.141  25.532  1.00  0.00     0.014 A 
ATOM     36  C   UNL A   1      42.662  22.571  28.163  1.00  0.00     0.010 A 
ATOM     37  C   UNL A   1      42.940  23.398  26.051  1.00  0.00     0.010 A 
ATOM     38  C   UNL A   1      42.983  23.602  27.402  1.00  0.00    -0.014 A 
BRANCH  38  39
ATOM     39  C   UNL A   1      43.376  24.944  27.996  1.00  0.00     0.031 A 
ATOM     40  C   UNL A   1      44.719  25.297  28.148  1.00  0.00     0.074 A 
ATOM     41  C   UNL A   1      42.319  25.810  28.220  1.00  0.00     0.049 A 
ATOM     42  N   UNL A   1      45.214  26.488  28.489  1.00  0.00    -0.248 NA
ATOM     43  C   UNL A   1      45.842  24.370  27.945  1.00  0.00     0.031 C 
ATOM     44  C   UNL A   1      40.963  25.464  28.060  1.00  0.00     0.029 A 
ATOM     45  N   UNL A   1      42.374  27.124  28.628  1.00  0.00    -0.354 N 
ATOM     46  C   UNL A   1      46.547  26.443  28.514  1.00  0.00     0.074 A 
ATOM     47  C   UNL A   1      46.970  25.078  28.170  1.00  0.00     0.031 C 
ATOM     48  C   UNL A   1      40.211  26.550  28.377  1.00  0.00     0.029 A 
ATOM     49  C   UNL A   1      41.084  27.594  28.740  1.00  0.00     0.049 A 
ATOM     50  H   UNL A   1      43.194  27.639  28.807  1.00  0.00     0.167 HD
ATOM     51  C   UNL A   1      47.427  27.486  28.808  1.00  0.00     0.037 A 
ATOM     52  C   UNL A   1      40.672  28.856  29.137  1.00  0.00     0.037 A 
ATOM     53  C   UNL A   1      47.015  28.761  29.163  1.00  0.00     0.049 A 
ATOM     54  C   UNL A   1      41.552  29.884  29.488  1.00  0.00     0.074 A 
ATOM     55  C   UNL A   1      47.888  29.826  29.454  1.00  0.00     0.029 A 
ATOM     56  N   UNL A   1      45.725  29.224  29.299  1.00  0.00    -0.354 N 
ATOM     57  N   UNL A   1      42.885  29.850  29.474  1.00  0.00    -0.248 NA
ATOM     58  C   UNL A   1      41.125  31.215  29.941  1.00  0.00     0.031 C 
ATOM     59  C   UNL A   1      47.137  30.914  29.772  1.00  0.00     0.029 A 
ATOM     60  C   UNL A   1      45.781  30.545  29.684  1.00  0.00     0.049 A 
ATOM     61  H   UNL A   1      44.905  28.700  29.149  1.00  0.00     0.167 HD
ATOM     62  C   UNL A   1      43.379  31.030  29.855  1.00  0.00     0.074 A 
ATOM     63  C   UNL A   1      42.255  31.922  30.168  1.00  0.00     0.031 C 
ATOM     64  C   UNL A   1      44.722  31.398  29.951  1.00  0.00     0.037 A 
BRANCH  51  65
ATOM     65  C   UNL A   1      48.920  27.208  28.734  1.00  0.00     0.064 A 
ATOM     66  C   UNL A   1      49.624  27.343  27.549  1.00  0.00     0.173 A 
ATOM     67  C   UNL A   1      49.505  26.759  29.837  1.00  0.00     0.173 A 
ATOM     68  F   UNL A   1      49.159  28.017  26.501  1.00  0.00    -0.203 F 
ATOM     69  C   UNL A   1      50.884  26.699  27.556  1.00  0.00     0.198 A 
ATOM     70  C   UNL A   1      50.788  26.268  29.798  1.00  0.00     0.198 A 
ATOM     71  F   UNL A   1      48.844  26.783  30.991  1.00  0.00    -0.203 F 
ATOM     72  F   UNL A   1      51.464  26.463  26.383  1.00  0.00    -0.200 F 
ATOM     73  C   UNL A   1      51.523  26.315  28.645  1.00  0.00     0.200 A 
ATOM     74  F   UNL A   1      51.322  25.740  30.895  1.00  0.00    -0.200 F 
ATOM     75  F   UNL A   1      52.814  25.991  28.624  1.00  0.00    -0.200 F 
ENDBRANCH  51  65
BRANCH  52  76
ATOM     76  C   UNL A   1      39.180  29.139  29.194  1.00  0.00     0.064 A 
ATOM     77  C   UNL A   1      38.584  29.559  28.018  1.00  0.00     0.173 A 
ATOM     78  C   UNL A   1      38.467  28.947  30.299  1.00  0.00     0.173 A 
ATOM     79  F   UNL A   1      39.198  29.522  26.839  1.00  0.00    -0.203 F 
ATOM     80  C   UNL A   1      37.260  30.032  28.182  1.00  0.00     0.198 A 
ATOM     81  C   UNL A   1      37.142  29.307  30.346  1.00  0.00     0.198 A 
ATOM     82  F   UNL A   1      39.040  28.402  31.367  1.00  0.00    -0.203 F 
ATOM     83  F   UNL A   1      36.743  30.776  27.209  1.00  0.00    -0.200 F 
ATOM     84  C   UNL A   1      36.502  29.786  29.236  1.00  0.00     0.200 A 
ATOM     85  F   UNL A   1      36.471  29.190  31.489  1.00  0.00    -0.200 F 
ATOM     86  F   UNL A   1      35.189  29.991  29.218  1.00  0.00    -0.200 F 
ENDBRANCH  52  76
BRANCH  64  87
ATOM     87  C   UNL A   1      45.042  32.824  30.373  1.00  0.00     0.064 A 
ATOM     88  C   UNL A   1      45.198  33.777  29.381  1.00  0.00     0.173 A 
ATOM     89  C   UNL A   1      45.331  33.093  31.641  1.00  0.00     0.173 A 
ATOM     90  F   UNL A   1      44.692  33.643  28.159  1.00  0.00    -0.203 F 
ATOM     91  C   UNL A   1      45.946  34.909  29.786  1.00  0.00     0.198 A 
ATOM     92  C   UNL A   1      45.939  34.277  31.982  1.00  0.00     0.198 A 
ATOM     93  F   UNL A   1      45.029  32.210  32.588  1.00  0.00    -0.203 F 
ATOM     94  F   UNL A   1      46.450  35.690  28.836  1.00  0.00    -0.200 F 
ATOM     95  C   UNL A   1      46.177  35.242  31.043  1.00  0.00     0.200 A 
ATOM     96  F   UNL A   1      46.301  34.488  33.245  1.00  0.00    -0.200 F 
ATOM     97  F   UNL A   1      46.619  36.451  31.377  1.00  0.00    -0.200 F 
ENDBRANCH  64  87
ENDBRANCH  38  39
ENDBRANCH  30  33
ENDBRANCH  28  29
ENDBRANCH   1  28
TORSDOF 13
ENDMDL
