MODEL 1
REMARK VINA RESULT:     -12.8      0.000      0.000
REMARK SMILES O=C(NCCCCNC(=O)c1c(S(=O)(=O)N2CCO[C@@H](CCO)C2)sc2c1CC[NH2+]C2)c1ccc(-c2c3nc(c(-c4c(F)c(F)c(F)c(F)c4F)c4ccc([nH]4)c(-c4c(F)c(F)c(F)c(F)c4F)c4nc(c(-c5c(F)c(F)c(F)c(F)c5F)c5ccc2[nH]5)C=C4)C=C3)cc1
REMARK SMILES IDX 7 1 6 2 5 3 4 4 3 5 1 6 2 7 32 9 33 10 94 11 34 12 93 13
REMARK SMILES IDX 35 14 36 15 37 16 87 17 38 18 92 19 86 20 88 21 39 22 91 23
REMARK SMILES IDX 85 24 84 25 40 27 72 28 52 29 71 30 53 31 56 32 70 33 89 34
REMARK SMILES IDX 54 35 55 36 69 38 90 39 57 40 41 41 42 42 50 43 43 44 44 45
REMARK SMILES IDX 48 46 51 47 45 48 46 49 49 50 47 51 73 52 74 53 82 54 75 55
REMARK SMILES IDX 76 56 80 57 83 58 77 59 78 60 81 61 79 62 58 63 59 64 67 65
REMARK SMILES IDX 60 66 61 67 65 68 68 69 62 70 63 71 66 72 64 73 8 74 9 75
REMARK SMILES IDX 10 77 11 78 12 79 27 80 25 81 26 82 28 83 31 84 29 85 30 86
REMARK SMILES IDX 13 89 14 90 15 91 16 92 17 93 24 94 18 95 20 96 19 97 21 98
REMARK SMILES IDX 22 99 23 100
REMARK H PARENT 3 8 88 26 56 37 8 76 30 87 30 88 23 101
REMARK Flexibility Score: inf
ROOT
ATOM      1  C   UNL A   1      36.707  21.297  24.821  1.00  0.00     0.116 C 
ENDROOT
BRANCH   1   2
ATOM      2  C   UNL A   1      38.114  21.047  25.343  1.00  0.00     0.023 C 
BRANCH   2   3
ATOM      3  C   UNL A   1      38.767  22.187  26.120  1.00  0.00     0.023 C 
BRANCH   3   4
ATOM      4  C   UNL A   1      40.170  21.922  26.672  1.00  0.00     0.116 C 
BRANCH   4   5
ATOM      5  N   UNL A   1      41.267  22.238  25.778  1.00  0.00    -0.352 N 
ATOM      6  O   UNL A   1      43.065  23.120  24.839  1.00  0.00    -0.269 OA
ATOM      7  C   UNL A   1      42.144  23.280  25.644  1.00  0.00     0.251 C 
ATOM      8  H   UNL A   1      41.419  21.533  25.107  1.00  0.00     0.163 HD
BRANCH   7   9
ATOM      9  C   UNL A   1      42.047  24.586  26.353  1.00  0.00     0.039 A 
ATOM     10  C   UNL A   1      42.717  24.924  27.527  1.00  0.00     0.014 A 
ATOM     11  C   UNL A   1      41.202  25.552  25.773  1.00  0.00     0.014 A 
ATOM     12  C   UNL A   1      42.492  26.154  28.149  1.00  0.00     0.010 A 
ATOM     13  C   UNL A   1      41.001  26.799  26.371  1.00  0.00     0.010 A 
ATOM     14  C   UNL A   1      41.625  27.094  27.582  1.00  0.00    -0.014 A 
BRANCH  14  15
ATOM     15  C   UNL A   1      41.485  28.388  28.259  1.00  0.00     0.031 A 
ATOM     16  C   UNL A   1      42.569  29.397  28.049  1.00  0.00     0.074 A 
ATOM     17  C   UNL A   1      40.386  28.793  28.925  1.00  0.00     0.049 A 
ATOM     18  N   UNL A   1      43.247  30.060  28.937  1.00  0.00    -0.248 NA
ATOM     19  C   UNL A   1      42.923  29.723  26.660  1.00  0.00     0.031 C 
ATOM     20  C   UNL A   1      39.072  28.152  28.980  1.00  0.00     0.029 A 
ATOM     21  N   UNL A   1      40.203  29.956  29.625  1.00  0.00    -0.354 N 
ATOM     22  C   UNL A   1      44.022  30.977  28.229  1.00  0.00     0.074 A 
ATOM     23  C   UNL A   1      43.819  30.697  26.828  1.00  0.00     0.031 C 
ATOM     24  C   UNL A   1      38.180  29.023  29.502  1.00  0.00     0.029 A 
ATOM     25  C   UNL A   1      38.882  30.221  29.935  1.00  0.00     0.049 A 
ATOM     26  H   UNL A   1      40.945  30.547  29.886  1.00  0.00     0.167 HD
ATOM     27  C   UNL A   1      44.702  31.999  28.818  1.00  0.00     0.037 A 
ATOM     28  C   UNL A   1      38.381  31.363  30.456  1.00  0.00     0.037 A 
ATOM     29  C   UNL A   1      44.888  31.816  30.226  1.00  0.00     0.049 A 
ATOM     30  C   UNL A   1      39.480  32.130  31.087  1.00  0.00     0.074 A 
ATOM     31  C   UNL A   1      45.545  30.894  31.015  1.00  0.00     0.029 A 
ATOM     32  N   UNL A   1      44.144  32.574  31.093  1.00  0.00    -0.354 N 
ATOM     33  N   UNL A   1      40.079  31.805  32.197  1.00  0.00    -0.248 NA
ATOM     34  C   UNL A   1      40.118  33.193  30.323  1.00  0.00     0.031 C 
ATOM     35  C   UNL A   1      44.823  30.857  32.244  1.00  0.00     0.029 A 
ATOM     36  C   UNL A   1      43.753  31.741  32.109  1.00  0.00     0.049 A 
ATOM     37  H   UNL A   1      43.932  33.530  31.003  1.00  0.00     0.167 HD
ATOM     38  C   UNL A   1      41.352  32.335  32.079  1.00  0.00     0.074 A 
ATOM     39  C   UNL A   1      41.263  33.304  30.997  1.00  0.00     0.031 C 
ATOM     40  C   UNL A   1      42.423  31.732  32.671  1.00  0.00     0.037 A 
BRANCH  27  41
ATOM     41  C   UNL A   1      45.036  33.293  28.131  1.00  0.00     0.064 A 
ATOM     42  C   UNL A   1      46.374  33.645  27.876  1.00  0.00     0.173 A 
ATOM     43  C   UNL A   1      44.082  34.313  27.940  1.00  0.00     0.173 A 
ATOM     44  F   UNL A   1      47.363  32.763  28.084  1.00  0.00    -0.203 F 
ATOM     45  C   UNL A   1      46.731  34.931  27.460  1.00  0.00     0.198 A 
ATOM     46  C   UNL A   1      44.435  35.583  27.482  1.00  0.00     0.198 A 
ATOM     47  F   UNL A   1      42.797  34.133  28.277  1.00  0.00    -0.203 F 
ATOM     48  F   UNL A   1      48.024  35.247  27.303  1.00  0.00    -0.200 F 
ATOM     49  C   UNL A   1      45.761  35.896  27.257  1.00  0.00     0.200 A 
ATOM     50  F   UNL A   1      43.486  36.515  27.317  1.00  0.00    -0.200 F 
ATOM     51  F   UNL A   1      46.104  37.138  26.888  1.00  0.00    -0.200 F 
ENDBRANCH  27  41
BRANCH  28  52
ATOM     52  C   UNL A   1      37.026  31.929  30.293  1.00  0.00     0.064 A 
ATOM     53  C   UNL A   1      36.104  31.934  31.350  1.00  0.00     0.173 A 
ATOM     54  C   UNL A   1      36.690  32.691  29.158  1.00  0.00     0.173 A 
ATOM     55  F   UNL A   1      36.374  31.277  32.487  1.00  0.00    -0.203 F 
ATOM     56  C   UNL A   1      34.914  32.662  31.277  1.00  0.00     0.198 A 
ATOM     57  C   UNL A   1      35.495  33.406  29.080  1.00  0.00     0.198 A 
ATOM     58  F   UNL A   1      37.552  32.825  28.141  1.00  0.00    -0.203 F 
ATOM     59  F   UNL A   1      34.081  32.687  32.326  1.00  0.00    -0.200 F 
ATOM     60  C   UNL A   1      34.612  33.400  30.144  1.00  0.00     0.200 A 
ATOM     61  F   UNL A   1      35.232  34.144  27.993  1.00  0.00    -0.200 F 
ATOM     62  F   UNL A   1      33.492  34.133  30.091  1.00  0.00    -0.200 F 
ENDBRANCH  28  52
BRANCH  40  63
ATOM     63  C   UNL A   1      42.142  30.733  33.753  1.00  0.00     0.064 A 
ATOM     64  C   UNL A   1      41.805  29.393  33.497  1.00  0.00     0.173 A 
ATOM     65  C   UNL A   1      42.338  31.110  35.088  1.00  0.00     0.173 A 
ATOM     66  F   UNL A   1      41.712  28.935  32.241  1.00  0.00    -0.203 F 
ATOM     67  C   UNL A   1      41.612  28.488  34.538  1.00  0.00     0.198 A 
ATOM     68  C   UNL A   1      42.180  30.194  36.125  1.00  0.00     0.198 A 
ATOM     69  F   UNL A   1      42.725  32.360  35.386  1.00  0.00    -0.203 F 
ATOM     70  F   UNL A   1      41.272  27.219  34.271  1.00  0.00    -0.200 F 
ATOM     71  C   UNL A   1      41.804  28.888  35.851  1.00  0.00     0.200 A 
ATOM     72  F   UNL A   1      42.417  30.569  37.390  1.00  0.00    -0.200 F 
ATOM     73  F   UNL A   1      41.655  28.007  36.850  1.00  0.00    -0.200 F 
ENDBRANCH  40  63
ENDBRANCH  14  15
ENDBRANCH   7   9
ENDBRANCH   4   5
ENDBRANCH   3   4
ENDBRANCH   2   3
ENDBRANCH   1   2
BRANCH   1  74
ATOM     74  N   UNL A   1      35.804  21.931  25.761  1.00  0.00    -0.352 N 
ATOM     75  C   UNL A   1      34.430  21.971  25.770  1.00  0.00     0.253 C 
ATOM     76  H   UNL A   1      36.242  22.405  26.506  1.00  0.00     0.163 HD
ATOM     77  O   UNL A   1      33.876  22.558  26.698  1.00  0.00    -0.269 OA
BRANCH  75  78
ATOM     78  C   UNL A   1      33.672  21.450  24.636  1.00  0.00     0.074 A 
ATOM     79  C   UNL A   1      33.329  22.160  23.484  1.00  0.00     0.148 A 
ATOM     80  C   UNL A   1      33.291  20.057  24.484  1.00  0.00    -0.009 A 
ATOM     81  S   UNL A   1      32.157  21.300  22.584  1.00  0.00    -0.120 S 
ATOM     82  C   UNL A   1      32.566  19.846  23.330  1.00  0.00     0.064 A 
ATOM     83  C   UNL A   1      33.582  18.896  25.398  1.00  0.00     0.099 C 
ATOM     84  C   UNL A   1      32.158  18.510  22.794  1.00  0.00     0.308 C 
ATOM     85  C   UNL A   1      33.322  17.543  24.688  1.00  0.00     0.265 C 
ATOM     86  N   UNL A   1      32.082  17.519  23.881  1.00  0.00    -0.342 N 
ATOM     87  H   UNL A   1      31.286  17.737  24.480  1.00  0.00     0.346 HD
ATOM     88  H   UNL A   1      31.971  16.590  23.473  1.00  0.00     0.346 HD
BRANCH  79  89
ATOM     89  S   UNL A   1      33.776  23.764  22.837  1.00  0.00     0.253 S 
ATOM     90  O   UNL A   1      35.189  23.900  23.142  1.00  0.00    -0.206 OA
ATOM     91  O   UNL A   1      33.314  23.724  21.469  1.00  0.00    -0.206 OA
BRANCH  89  92
ATOM     92  N   UNL A   1      32.979  25.016  23.620  1.00  0.00    -0.192 NA
ATOM     93  C   UNL A   1      33.707  26.164  24.205  1.00  0.00     0.131 C 
ATOM     94  C   UNL A   1      31.621  24.826  24.168  1.00  0.00     0.134 C 
ATOM     95  C   UNL A   1      33.544  26.261  25.731  1.00  0.00     0.177 C 
ATOM     96  C   UNL A   1      31.690  24.766  25.699  1.00  0.00     0.135 C 
ATOM     97  O   UNL A   1      32.208  26.021  26.194  1.00  0.00    -0.375 OA
BRANCH  96  98
ATOM     98  C   UNL A   1      30.347  24.511  26.390  1.00  0.00     0.061 C 
BRANCH  98  99
ATOM     99  C   UNL A   1      30.123  23.067  26.822  1.00  0.00     0.159 C 
BRANCH  99 100
ATOM    100  O   UNL A   1      31.209  22.620  27.618  1.00  0.00    -0.396 OA
ATOM    101  H   UNL A   1      30.879  22.034  28.316  1.00  0.00     0.210 HD
ENDBRANCH  99 100
ENDBRANCH  98  99
ENDBRANCH  96  98
ENDBRANCH  89  92
ENDBRANCH  79  89
ENDBRANCH  75  78
ENDBRANCH   1  74
TORSDOF 16
ENDMDL
MODEL 2
REMARK VINA RESULT:     -12.7      1.202      3.244
REMARK SMILES O=C(NCCCCNC(=O)c1c(S(=O)(=O)N2CCO[C@@H](CCO)C2)sc2c1CC[NH2+]C2)c1ccc(-c2c3nc(c(-c4c(F)c(F)c(F)c(F)c4F)c4ccc([nH]4)c(-c4c(F)c(F)c(F)c(F)c4F)c4nc(c(-c5c(F)c(F)c(F)c(F)c5F)c5ccc2[nH]5)C=C4)C=C3)cc1
REMARK SMILES IDX 7 1 6 2 5 3 4 4 3 5 1 6 2 7 32 9 33 10 94 11 34 12 93 13
REMARK SMILES IDX 35 14 36 15 37 16 87 17 38 18 92 19 86 20 88 21 39 22 91 23
REMARK SMILES IDX 85 24 84 25 40 27 72 28 52 29 71 30 53 31 56 32 70 33 89 34
REMARK SMILES IDX 54 35 55 36 69 38 90 39 57 40 41 41 42 42 50 43 43 44 44 45
REMARK SMILES IDX 48 46 51 47 45 48 46 49 49 50 47 51 73 52 74 53 82 54 75 55
REMARK SMILES IDX 76 56 80 57 83 58 77 59 78 60 81 61 79 62 58 63 59 64 67 65
REMARK SMILES IDX 60 66 61 67 65 68 68 69 62 70 63 71 66 72 64 73 8 74 9 75
REMARK SMILES IDX 10 77 11 78 12 79 27 80 25 81 26 82 28 83 31 84 29 85 30 86
REMARK SMILES IDX 13 89 14 90 15 91 16 92 17 93 24 94 18 95 20 96 19 97 21 98
REMARK SMILES IDX 22 99 23 100
REMARK H PARENT 3 8 88 26 56 37 8 76 30 87 30 88 23 101
REMARK Flexibility Score: inf
ROOT
ATOM      1  C   UNL A   1      36.558  24.054  25.264  1.00  0.00     0.116 C 
ENDROOT
BRANCH   1   2
ATOM      2  C   UNL A   1      37.560  22.912  25.346  1.00  0.00     0.023 C 
BRANCH   2   3
ATOM      3  C   UNL A   1      38.642  23.028  26.417  1.00  0.00     0.023 C 
BRANCH   3   4
ATOM      4  C   UNL A   1      39.665  21.892  26.480  1.00  0.00     0.116 C 
BRANCH   4   5
ATOM      5  N   UNL A   1      40.886  22.102  25.726  1.00  0.00    -0.352 N 
ATOM      6  O   UNL A   1      42.860  22.806  25.019  1.00  0.00    -0.269 OA
ATOM      7  C   UNL A   1      41.872  23.052  25.714  1.00  0.00     0.251 C 
ATOM      8  H   UNL A   1      41.045  21.390  25.065  1.00  0.00     0.163 HD
BRANCH   7   9
ATOM      9  C   UNL A   1      41.821  24.357  26.431  1.00  0.00     0.039 A 
ATOM     10  C   UNL A   1      42.274  24.588  27.728  1.00  0.00     0.014 A 
ATOM     11  C   UNL A   1      41.265  25.440  25.722  1.00  0.00     0.014 A 
ATOM     12  C   UNL A   1      42.107  25.837  28.330  1.00  0.00     0.010 A 
ATOM     13  C   UNL A   1      41.129  26.701  26.307  1.00  0.00     0.010 A 
ATOM     14  C   UNL A   1      41.523  26.897  27.630  1.00  0.00    -0.014 A 
BRANCH  14  15
ATOM     15  C   UNL A   1      41.436  28.196  28.305  1.00  0.00     0.031 A 
ATOM     16  C   UNL A   1      42.557  29.164  28.088  1.00  0.00     0.074 A 
ATOM     17  C   UNL A   1      40.357  28.644  28.978  1.00  0.00     0.049 A 
ATOM     18  N   UNL A   1      43.264  29.801  28.971  1.00  0.00    -0.248 NA
ATOM     19  C   UNL A   1      42.914  29.475  26.696  1.00  0.00     0.031 C 
ATOM     20  C   UNL A   1      39.021  28.052  29.041  1.00  0.00     0.029 A 
ATOM     21  N   UNL A   1      40.223  29.813  29.677  1.00  0.00    -0.354 N 
ATOM     22  C   UNL A   1      44.070  30.687  28.257  1.00  0.00     0.074 A 
ATOM     23  C   UNL A   1      43.848  30.414  26.858  1.00  0.00     0.031 C 
ATOM     24  C   UNL A   1      38.165  28.957  29.567  1.00  0.00     0.029 A 
ATOM     25  C   UNL A   1      38.915  30.128  29.994  1.00  0.00     0.049 A 
ATOM     26  H   UNL A   1      40.989  30.376  29.933  1.00  0.00     0.167 HD
ATOM     27  C   UNL A   1      44.791  31.683  28.841  1.00  0.00     0.037 A 
ATOM     28  C   UNL A   1      38.461  31.289  30.517  1.00  0.00     0.037 A 
ATOM     29  C   UNL A   1      44.978  31.495  30.248  1.00  0.00     0.049 A 
ATOM     30  C   UNL A   1      39.592  32.014  31.140  1.00  0.00     0.074 A 
ATOM     31  C   UNL A   1      45.605  30.549  31.035  1.00  0.00     0.029 A 
ATOM     32  N   UNL A   1      44.269  32.281  31.118  1.00  0.00    -0.354 N 
ATOM     33  N   UNL A   1      40.184  31.669  32.247  1.00  0.00    -0.248 NA
ATOM     34  C   UNL A   1      40.265  33.052  30.371  1.00  0.00     0.031 C 
ATOM     35  C   UNL A   1      44.889  30.541  32.267  1.00  0.00     0.029 A 
ATOM     36  C   UNL A   1      43.852  31.465  32.138  1.00  0.00     0.049 A 
ATOM     37  H   UNL A   1      44.093  33.245  31.028  1.00  0.00     0.167 HD
ATOM     38  C   UNL A   1      41.476  32.149  32.121  1.00  0.00     0.074 A 
ATOM     39  C   UNL A   1      41.417  33.120  31.039  1.00  0.00     0.031 C 
ATOM     40  C   UNL A   1      42.526  31.507  32.707  1.00  0.00     0.037 A 
BRANCH  27  41
ATOM     41  C   UNL A   1      45.170  32.963  28.151  1.00  0.00     0.064 A 
ATOM     42  C   UNL A   1      44.200  33.943  27.874  1.00  0.00     0.173 A 
ATOM     43  C   UNL A   1      46.424  33.143  27.533  1.00  0.00     0.173 A 
ATOM     44  F   UNL A   1      42.957  33.832  28.367  1.00  0.00    -0.203 F 
ATOM     45  C   UNL A   1      44.467  35.028  27.032  1.00  0.00     0.198 A 
ATOM     46  C   UNL A   1      46.704  34.250  26.729  1.00  0.00     0.198 A 
ATOM     47  F   UNL A   1      47.381  32.208  27.618  1.00  0.00    -0.203 F 
ATOM     48  F   UNL A   1      43.492  35.896  26.732  1.00  0.00    -0.200 F 
ATOM     49  C   UNL A   1      45.720  35.183  26.467  1.00  0.00     0.200 A 
ATOM     50  F   UNL A   1      47.914  34.371  26.167  1.00  0.00    -0.200 F 
ATOM     51  F   UNL A   1      45.969  36.204  25.636  1.00  0.00    -0.200 F 
ENDBRANCH  27  41
BRANCH  28  52
ATOM     52  C   UNL A   1      37.127  31.905  30.361  1.00  0.00     0.064 A 
ATOM     53  C   UNL A   1      36.164  31.831  31.378  1.00  0.00     0.173 A 
ATOM     54  C   UNL A   1      36.854  32.786  29.297  1.00  0.00     0.173 A 
ATOM     55  F   UNL A   1      36.372  31.058  32.453  1.00  0.00    -0.203 F 
ATOM     56  C   UNL A   1      34.995  32.596  31.334  1.00  0.00     0.198 A 
ATOM     57  C   UNL A   1      35.681  33.538  29.246  1.00  0.00     0.198 A 
ATOM     58  F   UNL A   1      37.759  32.996  28.330  1.00  0.00    -0.203 F 
ATOM     59  F   UNL A   1      34.122  32.540  32.349  1.00  0.00    -0.200 F 
ATOM     60  C   UNL A   1      34.757  33.451  30.270  1.00  0.00     0.200 A 
ATOM     61  F   UNL A   1      35.479  34.387  28.229  1.00  0.00    -0.200 F 
ATOM     62  F   UNL A   1      33.657  34.217  30.249  1.00  0.00    -0.200 F 
ENDBRANCH  28  52
BRANCH  40  63
ATOM     63  C   UNL A   1      42.214  30.520  33.792  1.00  0.00     0.064 A 
ATOM     64  C   UNL A   1      41.803  29.200  33.540  1.00  0.00     0.173 A 
ATOM     65  C   UNL A   1      42.454  30.882  35.124  1.00  0.00     0.173 A 
ATOM     66  F   UNL A   1      41.663  28.752  32.285  1.00  0.00    -0.203 F 
ATOM     67  C   UNL A   1      41.583  28.304  34.583  1.00  0.00     0.198 A 
ATOM     68  C   UNL A   1      42.268  29.972  36.162  1.00  0.00     0.198 A 
ATOM     69  F   UNL A   1      42.912  32.110  35.418  1.00  0.00    -0.203 F 
ATOM     70  F   UNL A   1      41.172  27.055  34.319  1.00  0.00    -0.200 F 
ATOM     71  C   UNL A   1      41.819  28.689  35.892  1.00  0.00     0.200 A 
ATOM     72  F   UNL A   1      42.549  30.331  37.423  1.00  0.00    -0.200 F 
ATOM     73  F   UNL A   1      41.644  27.814  36.892  1.00  0.00    -0.200 F 
ENDBRANCH  40  63
ENDBRANCH  14  15
ENDBRANCH   7   9
ENDBRANCH   4   5
ENDBRANCH   3   4
ENDBRANCH   2   3
ENDBRANCH   1   2
BRANCH   1  74
ATOM     74  N   UNL A   1      35.388  23.908  26.107  1.00  0.00    -0.352 N 
ATOM     75  C   UNL A   1      34.123  24.423  25.950  1.00  0.00     0.253 C 
ATOM     76  H   UNL A   1      35.519  23.358  26.912  1.00  0.00     0.163 HD
ATOM     77  O   UNL A   1      33.275  24.140  26.795  1.00  0.00    -0.269 OA
BRANCH  75  78
ATOM     78  C   UNL A   1      33.847  25.387  24.887  1.00  0.00     0.074 A 
ATOM     79  C   UNL A   1      33.698  25.089  23.531  1.00  0.00     0.148 A 
ATOM     80  C   UNL A   1      33.539  26.786  25.118  1.00  0.00    -0.009 A 
ATOM     81  S   UNL A   1      33.738  26.523  22.602  1.00  0.00    -0.120 S 
ATOM     82  C   UNL A   1      33.339  27.469  23.937  1.00  0.00     0.064 A 
ATOM     83  C   UNL A   1      33.429  27.523  26.427  1.00  0.00     0.099 C 
ATOM     84  C   UNL A   1      32.852  28.879  23.822  1.00  0.00     0.308 C 
ATOM     85  C   UNL A   1      32.727  28.893  26.243  1.00  0.00     0.265 C 
ATOM     86  N   UNL A   1      33.172  29.637  25.044  1.00  0.00    -0.342 N 
ATOM     87  H   UNL A   1      34.180  29.785  25.094  1.00  0.00     0.346 HD
ATOM     88  H   UNL A   1      32.687  30.534  25.013  1.00  0.00     0.346 HD
BRANCH  79  89
ATOM     89  S   UNL A   1      33.576  23.568  22.601  1.00  0.00     0.253 S 
ATOM     90  O   UNL A   1      33.247  23.990  21.252  1.00  0.00    -0.206 OA
ATOM     91  O   UNL A   1      34.821  22.893  22.883  1.00  0.00    -0.206 OA
BRANCH  89  92
ATOM     92  N   UNL A   1      32.320  22.591  23.134  1.00  0.00    -0.192 NA
ATOM     93  C   UNL A   1      31.387  23.024  24.197  1.00  0.00     0.131 C 
ATOM     94  C   UNL A   1      32.356  21.128  22.928  1.00  0.00     0.134 C 
ATOM     95  C   UNL A   1      31.456  22.138  25.453  1.00  0.00     0.177 C 
ATOM     96  C   UNL A   1      32.618  20.429  24.268  1.00  0.00     0.135 C 
ATOM     97  O   UNL A   1      31.534  20.733  25.174  1.00  0.00    -0.375 OA
BRANCH  96  98
ATOM     98  C   UNL A   1      32.738  18.905  24.181  1.00  0.00     0.061 C 
BRANCH  98  99
ATOM     99  C   UNL A   1      32.433  18.171  25.480  1.00  0.00     0.159 C 
BRANCH  99 100
ATOM    100  O   UNL A   1      33.003  18.866  26.579  1.00  0.00    -0.396 OA
ATOM    101  H   UNL A   1      32.824  18.378  27.398  1.00  0.00     0.210 HD
ENDBRANCH  99 100
ENDBRANCH  98  99
ENDBRANCH  96  98
ENDBRANCH  89  92
ENDBRANCH  79  89
ENDBRANCH  75  78
ENDBRANCH   1  74
TORSDOF 16
ENDMDL
MODEL 3
REMARK VINA RESULT:     -12.6      3.954      9.006
REMARK SMILES O=C(NCCCCNC(=O)c1c(S(=O)(=O)N2CCO[C@@H](CCO)C2)sc2c1CC[NH2+]C2)c1ccc(-c2c3nc(c(-c4c(F)c(F)c(F)c(F)c4F)c4ccc([nH]4)c(-c4c(F)c(F)c(F)c(F)c4F)c4nc(c(-c5c(F)c(F)c(F)c(F)c5F)c5ccc2[nH]5)C=C4)C=C3)cc1
REMARK SMILES IDX 7 1 6 2 5 3 4 4 3 5 1 6 2 7 32 9 33 10 94 11 34 12 93 13
REMARK SMILES IDX 35 14 36 15 37 16 87 17 38 18 92 19 86 20 88 21 39 22 91 23
REMARK SMILES IDX 85 24 84 25 40 27 72 28 52 29 71 30 53 31 56 32 70 33 89 34
REMARK SMILES IDX 54 35 55 36 69 38 90 39 57 40 41 41 42 42 50 43 43 44 44 45
REMARK SMILES IDX 48 46 51 47 45 48 46 49 49 50 47 51 73 52 74 53 82 54 75 55
REMARK SMILES IDX 76 56 80 57 83 58 77 59 78 60 81 61 79 62 58 63 59 64 67 65
REMARK SMILES IDX 60 66 61 67 65 68 68 69 62 70 63 71 66 72 64 73 8 74 9 75
REMARK SMILES IDX 10 77 11 78 12 79 27 80 25 81 26 82 28 83 31 84 29 85 30 86
REMARK SMILES IDX 13 89 14 90 15 91 16 92 17 93 24 94 18 95 20 96 19 97 21 98
REMARK SMILES IDX 22 99 23 100
REMARK H PARENT 3 8 88 26 56 37 8 76 30 87 30 88 23 101
REMARK Flexibility Score: inf
ROOT
ATOM      1  C   UNL A   1      32.207  27.986  26.763  1.00  0.00     0.116 C 
ENDROOT
BRANCH   1   2
ATOM      2  C   UNL A   1      31.877  29.344  27.365  1.00  0.00     0.023 C 
BRANCH   2   3
ATOM      3  C   UNL A   1      32.687  30.533  26.852  1.00  0.00     0.023 C 
BRANCH   3   4
ATOM      4  C   UNL A   1      34.095  30.699  27.427  1.00  0.00     0.116 C 
BRANCH   4   5
ATOM      5  N   UNL A   1      34.199  31.546  28.601  1.00  0.00    -0.352 N 
ATOM      6  O   UNL A   1      34.940  32.736  30.312  1.00  0.00    -0.269 OA
ATOM      7  C   UNL A   1      35.175  31.819  29.521  1.00  0.00     0.251 C 
ATOM      8  H   UNL A   1      33.369  32.044  28.777  1.00  0.00     0.163 HD
BRANCH   7   9
ATOM      9  C   UNL A   1      36.459  31.077  29.663  1.00  0.00     0.039 A 
ATOM     10  C   UNL A   1      37.733  31.634  29.568  1.00  0.00     0.014 A 
ATOM     11  C   UNL A   1      36.359  29.695  29.915  1.00  0.00     0.014 A 
ATOM     12  C   UNL A   1      38.871  30.828  29.642  1.00  0.00     0.010 A 
ATOM     13  C   UNL A   1      37.495  28.890  30.027  1.00  0.00     0.010 A 
ATOM     14  C   UNL A   1      38.760  29.452  29.860  1.00  0.00    -0.014 A 
BRANCH  14  15
ATOM     15  C   UNL A   1      40.000  28.679  29.988  1.00  0.00     0.031 A 
ATOM     16  C   UNL A   1      40.587  28.536  31.357  1.00  0.00     0.074 A 
ATOM     17  C   UNL A   1      40.565  27.960  28.997  1.00  0.00     0.049 A 
ATOM     18  N   UNL A   1      41.799  28.783  31.752  1.00  0.00    -0.248 NA
ATOM     19  C   UNL A   1      39.703  28.027  32.415  1.00  0.00     0.031 C 
ATOM     20  C   UNL A   1      40.014  27.647  27.679  1.00  0.00     0.029 A 
ATOM     21  N   UNL A   1      41.744  27.264  29.025  1.00  0.00    -0.354 N 
ATOM     22  C   UNL A   1      41.872  28.344  33.074  1.00  0.00     0.074 A 
ATOM     23  C   UNL A   1      40.543  27.929  33.447  1.00  0.00     0.031 C 
ATOM     24  C   UNL A   1      40.757  26.669  27.114  1.00  0.00     0.029 A 
ATOM     25  C   UNL A   1      41.901  26.387  27.968  1.00  0.00     0.049 A 
ATOM     26  H   UNL A   1      42.419  27.380  29.732  1.00  0.00     0.167 HD
ATOM     27  C   UNL A   1      43.041  28.230  33.763  1.00  0.00     0.037 A 
ATOM     28  C   UNL A   1      42.865  25.450  27.823  1.00  0.00     0.037 A 
ATOM     29  C   UNL A   1      44.118  28.969  33.175  1.00  0.00     0.049 A 
ATOM     30  C   UNL A   1      44.003  25.787  28.710  1.00  0.00     0.074 A 
ATOM     31  C   UNL A   1      44.369  30.303  32.926  1.00  0.00     0.029 A 
ATOM     32  N   UNL A   1      45.106  28.283  32.517  1.00  0.00    -0.354 N 
ATOM     33  N   UNL A   1      44.835  26.770  28.521  1.00  0.00    -0.248 NA
ATOM     34  C   UNL A   1      44.087  25.141  30.013  1.00  0.00     0.031 C 
ATOM     35  C   UNL A   1      45.215  30.326  31.779  1.00  0.00     0.029 A 
ATOM     36  C   UNL A   1      45.399  29.001  31.387  1.00  0.00     0.049 A 
ATOM     37  H   UNL A   1      45.524  27.438  32.802  1.00  0.00     0.167 HD
ATOM     38  C   UNL A   1      45.264  27.117  29.790  1.00  0.00     0.074 A 
ATOM     39  C   UNL A   1      44.906  25.989  30.635  1.00  0.00     0.031 C 
ATOM     40  C   UNL A   1      45.607  28.403  30.090  1.00  0.00     0.037 A 
BRANCH  27  41
ATOM     41  C   UNL A   1      43.261  27.263  34.892  1.00  0.00     0.064 A 
ATOM     42  C   UNL A   1      43.574  27.728  36.183  1.00  0.00     0.173 A 
ATOM     43  C   UNL A   1      43.413  25.878  34.680  1.00  0.00     0.173 A 
ATOM     44  F   UNL A   1      43.517  29.037  36.470  1.00  0.00    -0.203 F 
ATOM     45  C   UNL A   1      44.014  26.863  37.190  1.00  0.00     0.198 A 
ATOM     46  C   UNL A   1      43.809  25.010  35.698  1.00  0.00     0.198 A 
ATOM     47  F   UNL A   1      43.271  25.343  33.459  1.00  0.00    -0.203 F 
ATOM     48  F   UNL A   1      44.378  27.356  38.381  1.00  0.00    -0.200 F 
ATOM     49  C   UNL A   1      44.125  25.505  36.948  1.00  0.00     0.200 A 
ATOM     50  F   UNL A   1      43.938  23.701  35.441  1.00  0.00    -0.200 F 
ATOM     51  F   UNL A   1      44.575  24.679  37.903  1.00  0.00    -0.200 F 
ENDBRANCH  27  41
BRANCH  28  52
ATOM     52  C   UNL A   1      42.797  24.171  27.088  1.00  0.00     0.064 A 
ATOM     53  C   UNL A   1      43.311  24.047  25.788  1.00  0.00     0.173 A 
ATOM     54  C   UNL A   1      42.436  22.977  27.740  1.00  0.00     0.173 A 
ATOM     55  F   UNL A   1      43.729  25.131  25.119  1.00  0.00    -0.203 F 
ATOM     56  C   UNL A   1      43.456  22.799  25.176  1.00  0.00     0.198 A 
ATOM     57  C   UNL A   1      42.569  21.733  27.123  1.00  0.00     0.198 A 
ATOM     58  F   UNL A   1      42.029  22.988  29.017  1.00  0.00    -0.203 F 
ATOM     59  F   UNL A   1      44.001  22.714  23.955  1.00  0.00    -0.200 F 
ATOM     60  C   UNL A   1      43.089  21.643  25.846  1.00  0.00     0.200 A 
ATOM     61  F   UNL A   1      42.241  20.620  27.795  1.00  0.00    -0.200 F 
ATOM     62  F   UNL A   1      43.269  20.444  25.276  1.00  0.00    -0.200 F 
ENDBRANCH  28  52
BRANCH  40  63
ATOM     63  C   UNL A   1      45.882  29.330  28.944  1.00  0.00     0.064 A 
ATOM     64  C   UNL A   1      44.872  30.000  28.234  1.00  0.00     0.173 A 
ATOM     65  C   UNL A   1      47.212  29.644  28.632  1.00  0.00     0.173 A 
ATOM     66  F   UNL A   1      43.581  29.833  28.553  1.00  0.00    -0.203 F 
ATOM     67  C   UNL A   1      45.182  30.897  27.214  1.00  0.00     0.198 A 
ATOM     68  C   UNL A   1      47.519  30.569  27.638  1.00  0.00     0.198 A 
ATOM     69  F   UNL A   1      48.217  29.083  29.324  1.00  0.00    -0.203 F 
ATOM     70  F   UNL A   1      44.200  31.510  26.537  1.00  0.00    -0.200 F 
ATOM     71  C   UNL A   1      46.505  31.184  26.921  1.00  0.00     0.200 A 
ATOM     72  F   UNL A   1      48.799  30.885  27.392  1.00  0.00    -0.200 F 
ATOM     73  F   UNL A   1      46.803  32.077  25.966  1.00  0.00    -0.200 F 
ENDBRANCH  40  63
ENDBRANCH  14  15
ENDBRANCH   7   9
ENDBRANCH   4   5
ENDBRANCH   3   4
ENDBRANCH   2   3
ENDBRANCH   1   2
BRANCH   1  74
ATOM     74  N   UNL A   1      31.078  27.091  26.605  1.00  0.00    -0.352 N 
ATOM     75  C   UNL A   1      30.946  25.974  25.815  1.00  0.00     0.253 C 
ATOM     76  H   UNL A   1      30.287  27.318  27.145  1.00  0.00     0.163 HD
ATOM     77  O   UNL A   1      29.886  25.353  25.866  1.00  0.00    -0.269 OA
BRANCH  75  78
ATOM     78  C   UNL A   1      31.986  25.629  24.848  1.00  0.00     0.074 A 
ATOM     79  C   UNL A   1      32.183  26.236  23.606  1.00  0.00     0.148 A 
ATOM     80  C   UNL A   1      33.064  24.694  25.113  1.00  0.00    -0.009 A 
ATOM     81  S   UNL A   1      33.264  25.310  22.659  1.00  0.00    -0.120 S 
ATOM     82  C   UNL A   1      33.892  24.543  24.021  1.00  0.00     0.064 A 
ATOM     83  C   UNL A   1      33.350  23.919  26.372  1.00  0.00     0.099 C 
ATOM     84  C   UNL A   1      35.180  23.782  24.008  1.00  0.00     0.308 C 
ATOM     85  C   UNL A   1      34.785  23.334  26.357  1.00  0.00     0.265 C 
ATOM     86  N   UNL A   1      35.179  22.748  25.057  1.00  0.00    -0.342 N 
ATOM     87  H   UNL A   1      34.519  22.013  24.805  1.00  0.00     0.346 HD
ATOM     88  H   UNL A   1      36.120  22.361  25.140  1.00  0.00     0.346 HD
BRANCH  79  89
ATOM     89  S   UNL A   1      31.488  27.673  22.803  1.00  0.00     0.253 S 
ATOM     90  O   UNL A   1      32.521  28.687  22.911  1.00  0.00    -0.206 OA
ATOM     91  O   UNL A   1      31.069  27.176  21.514  1.00  0.00    -0.206 OA
BRANCH  89  92
ATOM     92  N   UNL A   1      30.133  28.260  23.601  1.00  0.00    -0.192 NA
ATOM     93  C   UNL A   1      28.789  27.676  23.396  1.00  0.00     0.131 C 
ATOM     94  C   UNL A   1      30.113  29.627  24.158  1.00  0.00     0.134 C 
ATOM     95  C   UNL A   1      27.790  28.672  22.782  1.00  0.00     0.177 C 
ATOM     96  C   UNL A   1      29.205  30.518  23.301  1.00  0.00     0.135 C 
ATOM     97  O   UNL A   1      27.860  29.991  23.342  1.00  0.00    -0.375 OA
BRANCH  96  98
ATOM     98  C   UNL A   1      29.146  31.983  23.741  1.00  0.00     0.061 C 
BRANCH  98  99
ATOM     99  C   UNL A   1      28.821  32.966  22.624  1.00  0.00     0.159 C 
BRANCH  99 100
ATOM    100  O   UNL A   1      27.682  32.526  21.900  1.00  0.00    -0.396 OA
ATOM    101  H   UNL A   1      27.410  33.214  21.275  1.00  0.00     0.210 HD
ENDBRANCH  99 100
ENDBRANCH  98  99
ENDBRANCH  96  98
ENDBRANCH  89  92
ENDBRANCH  79  89
ENDBRANCH  75  78
ENDBRANCH   1  74
TORSDOF 16
ENDMDL
