MODEL 1
REMARK VINA RESULT:     -11.6      0.000      0.000
REMARK SMILES C#CC[N@@H+](CC(=O)NCCCCNC(=O)c1ccc(-c2c3nc(c(-c4c(F)c(F)c(F)c(F)c4F)c4ccc([nH]4)c(-c4c(F)c(F)c(F)c(F)c4F)c4nc(c(-c5c(F)c(F)c(F)c(F)c5F)c5ccc2[nH]5)C=C4)C=C3)cc1)CC(=O)Nc1c(Cl)cccc1Cl
REMARK SMILES IDX 9 1 8 2 6 3 7 4 5 6 4 7 3 9 2 10 1 11 79 12 80 13 81 14
REMARK SMILES IDX 82 15 83 17 84 18 89 19 85 20 86 21 88 22 90 23 87 24 10 25
REMARK SMILES IDX 11 26 12 27 13 28 14 29 15 31 16 32 17 33 78 34 18 35 77 36
REMARK SMILES IDX 19 37 20 38 21 39 71 40 22 41 76 42 70 43 72 44 23 45 75 46
REMARK SMILES IDX 69 47 68 48 24 50 56 51 36 52 55 53 37 54 40 55 54 56 73 57
REMARK SMILES IDX 38 58 39 59 53 61 74 62 41 63 25 64 26 65 34 66 27 67 28 68
REMARK SMILES IDX 32 69 35 70 29 71 30 72 33 73 31 74 57 75 58 76 66 77 59 78
REMARK SMILES IDX 60 79 64 80 67 81 61 82 62 83 65 84 63 85 42 86 43 87 51 88
REMARK SMILES IDX 44 89 45 90 49 91 52 92 46 93 47 94 50 95 48 96
REMARK H PARENT 8 5 4 8 82 16 13 30 72 49 40 60
REMARK Flexibility Score: inf
ROOT
ATOM      1  C   UNL A   1      32.514  29.903  25.707  1.00  0.00     0.116 C 
ENDROOT
BRANCH   1   2
ATOM      2  N   UNL A   1      31.487  29.729  24.707  1.00  0.00    -0.351 N 
ATOM      3  C   UNL A   1      30.830  28.630  24.244  1.00  0.00     0.275 C 
ATOM      4  O   UNL A   1      30.051  28.871  23.321  1.00  0.00    -0.269 OA
ATOM      5  H   UNL A   1      31.206  30.569  24.275  1.00  0.00     0.163 HD
BRANCH   3   6
ATOM      6  C   UNL A   1      31.081  27.188  24.814  1.00  0.00     0.364 C 
BRANCH   6   7
ATOM      7  N   UNL A   1      31.466  26.144  23.807  1.00  0.00    -0.309 N 
ATOM      8  H   UNL A   1      31.193  26.353  22.847  1.00  0.00     0.349 HD
BRANCH   7   9
ATOM      9  C   UNL A   1      30.759  24.964  24.242  1.00  0.00     0.354 C 
BRANCH   9  10
ATOM     10  C   UNL A   1      30.885  24.082  25.474  1.00  0.00    -0.047 C 
ATOM     11  C   UNL A   1      30.994  23.326  26.531  1.00  0.00     0.010 C 
ENDBRANCH   9  10
ENDBRANCH   7   9
BRANCH   7  12
ATOM     12  C   UNL A   1      32.945  26.041  23.658  1.00  0.00     0.365 C 
BRANCH  12  13
ATOM     13  C   UNL A   1      33.499  25.141  22.543  1.00  0.00     0.279 C 
ATOM     14  O   UNL A   1      33.640  25.609  21.403  1.00  0.00    -0.268 OA
ATOM     15  N   UNL A   1      33.981  23.872  22.748  1.00  0.00    -0.319 N 
ATOM     16  H   UNL A   1      34.420  23.521  21.939  1.00  0.00     0.170 HD
BRANCH  15  17
ATOM     17  C   UNL A   1      34.019  22.923  23.810  1.00  0.00     0.079 A 
ATOM     18  C   UNL A   1      33.155  21.815  23.709  1.00  0.00     0.066 A 
ATOM     19  C   UNL A   1      34.783  22.977  24.987  1.00  0.00     0.066 A 
ATOM     20  Cl  UNL A   1      31.942  21.730  22.475  1.00  0.00    -0.082 Cl
ATOM     21  C   UNL A   1      33.240  20.736  24.602  1.00  0.00     0.023 A 
ATOM     22  C   UNL A   1      35.033  21.825  25.749  1.00  0.00     0.023 A 
ATOM     23  Cl  UNL A   1      34.510  24.297  26.124  1.00  0.00    -0.082 Cl
ATOM     24  C   UNL A   1      34.233  20.709  25.575  1.00  0.00     0.003 A 
ENDBRANCH  15  17
ENDBRANCH  12  13
ENDBRANCH   7  12
ENDBRANCH   6   7
ENDBRANCH   3   6
ENDBRANCH   1   2
BRANCH   1  25
ATOM     25  C   UNL A   1      31.985  30.611  26.969  1.00  0.00     0.023 C 
BRANCH  25  26
ATOM     26  C   UNL A   1      31.798  32.110  26.841  1.00  0.00     0.023 C 
BRANCH  26  27
ATOM     27  C   UNL A   1      32.913  32.869  27.504  1.00  0.00     0.116 C 
BRANCH  27  28
ATOM     28  N   UNL A   1      32.554  34.262  27.774  1.00  0.00    -0.352 N 
ATOM     29  C   UNL A   1      33.094  35.079  28.726  1.00  0.00     0.251 C 
ATOM     30  H   UNL A   1      31.847  34.652  27.208  1.00  0.00     0.163 HD
ATOM     31  O   UNL A   1      32.684  36.211  28.937  1.00  0.00    -0.269 OA
BRANCH  29  32
ATOM     32  C   UNL A   1      34.183  34.490  29.501  1.00  0.00     0.039 A 
ATOM     33  C   UNL A   1      33.867  33.604  30.530  1.00  0.00     0.014 A 
ATOM     34  C   UNL A   1      35.477  34.607  28.983  1.00  0.00     0.014 A 
ATOM     35  C   UNL A   1      34.873  32.793  31.039  1.00  0.00     0.010 A 
ATOM     36  C   UNL A   1      36.439  33.717  29.410  1.00  0.00     0.010 A 
ATOM     37  C   UNL A   1      36.152  32.832  30.464  1.00  0.00    -0.014 A 
BRANCH  37  38
ATOM     38  C   UNL A   1      37.276  32.054  31.015  1.00  0.00     0.031 A 
ATOM     39  C   UNL A   1      37.741  32.404  32.398  1.00  0.00     0.074 A 
ATOM     40  C   UNL A   1      37.914  31.138  30.265  1.00  0.00     0.049 A 
ATOM     41  N   UNL A   1      38.828  32.047  33.024  1.00  0.00    -0.248 NA
ATOM     42  C   UNL A   1      36.891  33.344  33.154  1.00  0.00     0.031 C 
ATOM     43  C   UNL A   1      37.556  30.752  28.899  1.00  0.00     0.029 A 
ATOM     44  N   UNL A   1      39.015  30.375  30.551  1.00  0.00    -0.354 N 
ATOM     45  C   UNL A   1      38.814  32.759  34.216  1.00  0.00     0.074 A 
ATOM     46  C   UNL A   1      37.654  33.618  34.197  1.00  0.00     0.031 C 
ATOM     47  C   UNL A   1      38.411  29.806  28.474  1.00  0.00     0.029 A 
ATOM     48  C   UNL A   1      39.397  29.553  29.521  1.00  0.00     0.049 A 
ATOM     49  H   UNL A   1      39.487  30.413  31.414  1.00  0.00     0.167 HD
ATOM     50  C   UNL A   1      39.680  32.675  35.250  1.00  0.00     0.037 A 
ATOM     51  C   UNL A   1      40.437  28.704  29.443  1.00  0.00     0.037 A 
ATOM     52  C   UNL A   1      40.783  31.757  35.277  1.00  0.00     0.049 A 
ATOM     53  C   UNL A   1      41.364  28.594  30.627  1.00  0.00     0.074 A 
ATOM     54  C   UNL A   1      41.699  31.536  36.286  1.00  0.00     0.029 A 
ATOM     55  N   UNL A   1      41.098  30.887  34.242  1.00  0.00    -0.354 N 
ATOM     56  N   UNL A   1      41.334  29.248  31.765  1.00  0.00    -0.248 NA
ATOM     57  C   UNL A   1      42.466  27.630  30.520  1.00  0.00     0.031 C 
ATOM     58  C   UNL A   1      42.581  30.541  35.854  1.00  0.00     0.029 A 
ATOM     59  C   UNL A   1      42.192  30.119  34.591  1.00  0.00     0.049 A 
ATOM     60  H   UNL A   1      40.614  30.827  33.386  1.00  0.00     0.167 HD
ATOM     61  C   UNL A   1      42.383  28.747  32.522  1.00  0.00     0.074 A 
ATOM     62  C   UNL A   1      43.031  27.734  31.714  1.00  0.00     0.031 C 
ATOM     63  C   UNL A   1      42.777  29.090  33.772  1.00  0.00     0.037 A 
BRANCH  50  64
ATOM     64  C   UNL A   1      39.444  33.577  36.422  1.00  0.00     0.064 A 
ATOM     65  C   UNL A   1      39.974  34.877  36.468  1.00  0.00     0.173 A 
ATOM     66  C   UNL A   1      38.689  33.138  37.518  1.00  0.00     0.173 A 
ATOM     67  F   UNL A   1      40.725  35.337  35.455  1.00  0.00    -0.203 F 
ATOM     68  C   UNL A   1      39.788  35.688  37.583  1.00  0.00     0.198 A 
ATOM     69  C   UNL A   1      38.475  33.966  38.618  1.00  0.00     0.198 A 
ATOM     70  F   UNL A   1      38.163  31.904  37.527  1.00  0.00    -0.203 F 
ATOM     71  F   UNL A   1      40.360  36.899  37.632  1.00  0.00    -0.200 F 
ATOM     72  C   UNL A   1      39.033  35.235  38.654  1.00  0.00     0.200 A 
ATOM     73  F   UNL A   1      37.739  33.530  39.649  1.00  0.00    -0.200 F 
ATOM     74  F   UNL A   1      38.853  36.017  39.727  1.00  0.00    -0.200 F 
ENDBRANCH  50  64
BRANCH  51  75
ATOM     75  C   UNL A   1      40.635  27.867  28.233  1.00  0.00     0.064 A 
ATOM     76  C   UNL A   1      40.076  26.583  28.154  1.00  0.00     0.173 A 
ATOM     77  C   UNL A   1      41.382  28.319  27.137  1.00  0.00     0.173 A 
ATOM     78  F   UNL A   1      39.365  26.099  29.184  1.00  0.00    -0.203 F 
ATOM     79  C   UNL A   1      40.277  25.775  27.037  1.00  0.00     0.198 A 
ATOM     80  C   UNL A   1      41.562  27.520  26.009  1.00  0.00     0.198 A 
ATOM     81  F   UNL A   1      41.931  29.542  27.157  1.00  0.00    -0.203 F 
ATOM     82  F   UNL A   1      39.769  24.536  27.009  1.00  0.00    -0.200 F 
ATOM     83  C   UNL A   1      41.017  26.245  25.964  1.00  0.00     0.200 A 
ATOM     84  F   UNL A   1      42.268  27.982  24.967  1.00  0.00    -0.200 F 
ATOM     85  F   UNL A   1      41.212  25.468  24.890  1.00  0.00    -0.200 F 
ENDBRANCH  51  75
BRANCH  63  86
ATOM     86  C   UNL A   1      43.913  28.320  34.372  1.00  0.00     0.064 A 
ATOM     87  C   UNL A   1      45.232  28.790  34.309  1.00  0.00     0.173 A 
ATOM     88  C   UNL A   1      43.659  27.148  35.097  1.00  0.00     0.173 A 
ATOM     89  F   UNL A   1      45.520  29.902  33.617  1.00  0.00    -0.203 F 
ATOM     90  C   UNL A   1      46.261  28.104  34.946  1.00  0.00     0.198 A 
ATOM     91  C   UNL A   1      44.685  26.478  35.753  1.00  0.00     0.198 A 
ATOM     92  F   UNL A   1      42.409  26.668  35.191  1.00  0.00    -0.203 F 
ATOM     93  F   UNL A   1      47.519  28.553  34.855  1.00  0.00    -0.200 F 
ATOM     94  C   UNL A   1      45.985  26.956  35.677  1.00  0.00     0.200 A 
ATOM     95  F   UNL A   1      44.415  25.379  36.470  1.00  0.00    -0.200 F 
ATOM     96  F   UNL A   1      46.975  26.308  36.306  1.00  0.00    -0.200 F 
ENDBRANCH  63  86
ENDBRANCH  37  38
ENDBRANCH  29  32
ENDBRANCH  27  28
ENDBRANCH  26  27
ENDBRANCH  25  26
ENDBRANCH   1  25
TORSDOF 17
ENDMDL
MODEL 2
REMARK VINA RESULT:     -11.5      5.402     10.951
REMARK SMILES C#CC[N@@H+](CC(=O)NCCCCNC(=O)c1ccc(-c2c3nc(c(-c4c(F)c(F)c(F)c(F)c4F)c4ccc([nH]4)c(-c4c(F)c(F)c(F)c(F)c4F)c4nc(c(-c5c(F)c(F)c(F)c(F)c5F)c5ccc2[nH]5)C=C4)C=C3)cc1)CC(=O)Nc1c(Cl)cccc1Cl
REMARK SMILES IDX 9 1 8 2 6 3 7 4 5 6 4 7 3 9 2 10 1 11 79 12 80 13 81 14
REMARK SMILES IDX 82 15 83 17 84 18 89 19 85 20 86 21 88 22 90 23 87 24 10 25
REMARK SMILES IDX 11 26 12 27 13 28 14 29 15 31 16 32 17 33 78 34 18 35 77 36
REMARK SMILES IDX 19 37 20 38 21 39 71 40 22 41 76 42 70 43 72 44 23 45 75 46
REMARK SMILES IDX 69 47 68 48 24 50 56 51 36 52 55 53 37 54 40 55 54 56 73 57
REMARK SMILES IDX 38 58 39 59 53 61 74 62 41 63 25 64 26 65 34 66 27 67 28 68
REMARK SMILES IDX 32 69 35 70 29 71 30 72 33 73 31 74 57 75 58 76 66 77 59 78
REMARK SMILES IDX 60 79 64 80 67 81 61 82 62 83 65 84 63 85 42 86 43 87 51 88
REMARK SMILES IDX 44 89 45 90 49 91 52 92 46 93 47 94 50 95 48 96
REMARK H PARENT 8 5 4 8 82 16 13 30 72 49 40 60
REMARK Flexibility Score: inf
ROOT
ATOM      1  C   UNL A   1      36.168  20.858  24.780  1.00  0.00     0.116 C 
ENDROOT
BRANCH   1   2
ATOM      2  N   UNL A   1      35.306  20.860  25.938  1.00  0.00    -0.351 N 
ATOM      3  C   UNL A   1      34.658  21.857  26.600  1.00  0.00     0.275 C 
ATOM      4  O   UNL A   1      34.056  21.475  27.605  1.00  0.00    -0.269 OA
ATOM      5  H   UNL A   1      35.157  19.967  26.325  1.00  0.00     0.163 HD
BRANCH   3   6
ATOM      6  C   UNL A   1      34.713  23.358  26.141  1.00  0.00     0.364 C 
BRANCH   6   7
ATOM      7  N   UNL A   1      34.068  23.663  24.820  1.00  0.00    -0.309 N 
ATOM      8  H   UNL A   1      34.471  23.171  24.023  1.00  0.00     0.349 HD
BRANCH   7   9
ATOM      9  C   UNL A   1      34.283  25.079  24.647  1.00  0.00     0.354 C 
BRANCH   9  10
ATOM     10  C   UNL A   1      33.661  26.303  25.300  1.00  0.00    -0.047 C 
ATOM     11  C   UNL A   1      33.128  27.353  25.860  1.00  0.00     0.010 C 
ENDBRANCH   9  10
ENDBRANCH   7   9
BRANCH   7  12
ATOM     12  C   UNL A   1      32.663  23.171  24.766  1.00  0.00     0.365 C 
BRANCH  12  13
ATOM     13  C   UNL A   1      32.012  22.992  23.386  1.00  0.00     0.279 C 
ATOM     14  O   UNL A   1      32.111  21.899  22.808  1.00  0.00    -0.268 OA
ATOM     15  N   UNL A   1      31.202  23.928  22.790  1.00  0.00    -0.319 N 
ATOM     16  H   UNL A   1      30.772  23.566  21.982  1.00  0.00     0.170 HD
BRANCH  15  17
ATOM     17  C   UNL A   1      30.815  25.279  23.022  1.00  0.00     0.079 A 
ATOM     18  C   UNL A   1      31.517  26.275  22.315  1.00  0.00     0.066 A 
ATOM     19  C   UNL A   1      29.843  25.757  23.915  1.00  0.00     0.066 A 
ATOM     20  Cl  UNL A   1      32.932  25.894  21.390  1.00  0.00    -0.082 Cl
ATOM     21  C   UNL A   1      31.101  27.615  22.330  1.00  0.00     0.023 A 
ATOM     22  C   UNL A   1      29.283  27.035  23.771  1.00  0.00     0.023 A 
ATOM     23  Cl  UNL A   1      30.061  25.482  25.644  1.00  0.00    -0.082 Cl
ATOM     24  C   UNL A   1      29.937  27.979  22.997  1.00  0.00     0.003 A 
ENDBRANCH  15  17
ENDBRANCH  12  13
ENDBRANCH   7  12
ENDBRANCH   6   7
ENDBRANCH   3   6
ENDBRANCH   1   2
BRANCH   1  25
ATOM     25  C   UNL A   1      37.638  21.138  25.146  1.00  0.00     0.023 C 
BRANCH  25  26
ATOM     26  C   UNL A   1      38.510  19.910  25.311  1.00  0.00     0.023 C 
BRANCH  26  27
ATOM     27  C   UNL A   1      39.765  20.216  26.079  1.00  0.00     0.116 C 
BRANCH  27  28
ATOM     28  N   UNL A   1      40.700  19.090  26.088  1.00  0.00    -0.352 N 
ATOM     29  C   UNL A   1      42.060  19.155  26.198  1.00  0.00     0.251 C 
ATOM     30  H   UNL A   1      40.307  18.190  26.006  1.00  0.00     0.163 HD
ATOM     31  O   UNL A   1      42.779  18.168  26.121  1.00  0.00    -0.269 OA
BRANCH  29  32
ATOM     32  C   UNL A   1      42.603  20.498  26.385  1.00  0.00     0.039 A 
ATOM     33  C   UNL A   1      42.784  21.307  25.264  1.00  0.00     0.014 A 
ATOM     34  C   UNL A   1      42.629  21.005  27.687  1.00  0.00     0.014 A 
ATOM     35  C   UNL A   1      42.971  22.670  25.453  1.00  0.00     0.010 A 
ATOM     36  C   UNL A   1      42.694  22.371  27.860  1.00  0.00     0.010 A 
ATOM     37  C   UNL A   1      42.902  23.206  26.747  1.00  0.00    -0.014 A 
BRANCH  37  38
ATOM     38  C   UNL A   1      43.173  24.630  27.014  1.00  0.00     0.031 A 
ATOM     39  C   UNL A   1      44.557  25.132  26.725  1.00  0.00     0.074 A 
ATOM     40  C   UNL A   1      42.241  25.413  27.584  1.00  0.00     0.049 A 
ATOM     41  N   UNL A   1      45.123  26.255  27.072  1.00  0.00    -0.248 NA
ATOM     42  C   UNL A   1      45.449  24.206  26.000  1.00  0.00     0.031 C 
ATOM     43  C   UNL A   1      40.878  25.007  27.932  1.00  0.00     0.029 A 
ATOM     44  N   UNL A   1      42.313  26.721  27.985  1.00  0.00    -0.354 N 
ATOM     45  C   UNL A   1      46.442  26.143  26.657  1.00  0.00     0.074 A 
ATOM     46  C   UNL A   1      46.613  24.823  26.097  1.00  0.00     0.031 C 
ATOM     47  C   UNL A   1      40.235  26.055  28.474  1.00  0.00     0.029 A 
ATOM     48  C   UNL A   1      41.152  27.187  28.551  1.00  0.00     0.049 A 
ATOM     49  H   UNL A   1      43.121  27.274  27.878  1.00  0.00     0.167 HD
ATOM     50  C   UNL A   1      47.417  27.077  26.709  1.00  0.00     0.037 A 
ATOM     51  C   UNL A   1      40.881  28.396  29.076  1.00  0.00     0.037 A 
ATOM     52  C   UNL A   1      47.202  28.409  27.200  1.00  0.00     0.049 A 
ATOM     53  C   UNL A   1      41.971  29.437  29.082  1.00  0.00     0.074 A 
ATOM     54  C   UNL A   1      48.091  29.464  27.254  1.00  0.00     0.029 A 
ATOM     55  N   UNL A   1      45.991  28.869  27.700  1.00  0.00    -0.354 N 
ATOM     56  N   UNL A   1      43.211  29.339  28.663  1.00  0.00    -0.248 NA
ATOM     57  C   UNL A   1      41.626  30.755  29.630  1.00  0.00     0.031 C 
ATOM     58  C   UNL A   1      47.421  30.561  27.805  1.00  0.00     0.029 A 
ATOM     59  C   UNL A   1      46.106  30.198  28.059  1.00  0.00     0.049 A 
ATOM     60  H   UNL A   1      45.172  28.328  27.786  1.00  0.00     0.167 HD
ATOM     61  C   UNL A   1      43.780  30.589  28.858  1.00  0.00     0.074 A 
ATOM     62  C   UNL A   1      42.750  31.429  29.434  1.00  0.00     0.031 C 
ATOM     63  C   UNL A   1      45.040  31.008  28.587  1.00  0.00     0.037 A 
BRANCH  50  64
ATOM     64  C   UNL A   1      48.773  26.689  26.204  1.00  0.00     0.064 A 
ATOM     65  C   UNL A   1      49.701  26.025  27.024  1.00  0.00     0.173 A 
ATOM     66  C   UNL A   1      49.157  26.991  24.891  1.00  0.00     0.173 A 
ATOM     67  F   UNL A   1      49.391  25.735  28.297  1.00  0.00    -0.203 F 
ATOM     68  C   UNL A   1      50.974  25.712  26.558  1.00  0.00     0.198 A 
ATOM     69  C   UNL A   1      50.421  26.645  24.417  1.00  0.00     0.198 A 
ATOM     70  F   UNL A   1      48.311  27.627  24.067  1.00  0.00    -0.203 F 
ATOM     71  F   UNL A   1      51.864  25.140  27.380  1.00  0.00    -0.200 F 
ATOM     72  C   UNL A   1      51.330  26.016  25.253  1.00  0.00     0.200 A 
ATOM     73  F   UNL A   1      50.761  26.932  23.153  1.00  0.00    -0.200 F 
ATOM     74  F   UNL A   1      52.556  25.713  24.804  1.00  0.00    -0.200 F 
ENDBRANCH  50  64
BRANCH  51  75
ATOM     75  C   UNL A   1      39.525  28.701  29.596  1.00  0.00     0.064 A 
ATOM     76  C   UNL A   1      38.556  29.284  28.766  1.00  0.00     0.173 A 
ATOM     77  C   UNL A   1      39.163  28.426  30.922  1.00  0.00     0.173 A 
ATOM     78  F   UNL A   1      38.858  29.579  27.492  1.00  0.00    -0.203 F 
ATOM     79  C   UNL A   1      37.288  29.602  29.248  1.00  0.00     0.198 A 
ATOM     80  C   UNL A   1      37.887  28.722  31.397  1.00  0.00     0.198 A 
ATOM     81  F   UNL A   1      40.049  27.862  31.756  1.00  0.00    -0.203 F 
ATOM     82  F   UNL A   1      36.399  30.200  28.443  1.00  0.00    -0.200 F 
ATOM     83  C   UNL A   1      36.954  29.318  30.562  1.00  0.00     0.200 A 
ATOM     84  F   UNL A   1      37.561  28.435  32.665  1.00  0.00    -0.200 F 
ATOM     85  F   UNL A   1      35.734  29.626  31.026  1.00  0.00    -0.200 F 
ENDBRANCH  51  75
BRANCH  63  86
ATOM     86  C   UNL A   1      45.356  32.450  28.839  1.00  0.00     0.064 A 
ATOM     87  C   UNL A   1      45.932  32.876  30.043  1.00  0.00     0.173 A 
ATOM     88  C   UNL A   1      45.163  33.397  27.823  1.00  0.00     0.173 A 
ATOM     89  F   UNL A   1      46.124  32.005  31.045  1.00  0.00    -0.203 F 
ATOM     90  C   UNL A   1      46.297  34.206  30.225  1.00  0.00     0.198 A 
ATOM     91  C   UNL A   1      45.551  34.720  27.999  1.00  0.00     0.198 A 
ATOM     92  F   UNL A   1      44.623  33.031  26.651  1.00  0.00    -0.203 F 
ATOM     93  F   UNL A   1      46.823  34.601  31.392  1.00  0.00    -0.200 F 
ATOM     94  C   UNL A   1      46.117  35.124  29.200  1.00  0.00     0.200 A 
ATOM     95  F   UNL A   1      45.391  35.602  27.002  1.00  0.00    -0.200 F 
ATOM     96  F   UNL A   1      46.487  36.400  29.370  1.00  0.00    -0.200 F 
ENDBRANCH  63  86
ENDBRANCH  37  38
ENDBRANCH  29  32
ENDBRANCH  27  28
ENDBRANCH  26  27
ENDBRANCH  25  26
ENDBRANCH   1  25
TORSDOF 17
ENDMDL
MODEL 3
REMARK VINA RESULT:     -11.5      1.161      7.521
REMARK SMILES C#CC[N@@H+](CC(=O)NCCCCNC(=O)c1ccc(-c2c3nc(c(-c4c(F)c(F)c(F)c(F)c4F)c4ccc([nH]4)c(-c4c(F)c(F)c(F)c(F)c4F)c4nc(c(-c5c(F)c(F)c(F)c(F)c5F)c5ccc2[nH]5)C=C4)C=C3)cc1)CC(=O)Nc1c(Cl)cccc1Cl
REMARK SMILES IDX 9 1 8 2 6 3 7 4 5 6 4 7 3 9 2 10 1 11 79 12 80 13 81 14
REMARK SMILES IDX 82 15 83 17 84 18 89 19 85 20 86 21 88 22 90 23 87 24 10 25
REMARK SMILES IDX 11 26 12 27 13 28 14 29 15 31 16 32 17 33 78 34 18 35 77 36
REMARK SMILES IDX 19 37 20 38 21 39 71 40 22 41 76 42 70 43 72 44 23 45 75 46
REMARK SMILES IDX 69 47 68 48 24 50 56 51 36 52 55 53 37 54 40 55 54 56 73 57
REMARK SMILES IDX 38 58 39 59 53 61 74 62 41 63 25 64 26 65 34 66 27 67 28 68
REMARK SMILES IDX 32 69 35 70 29 71 30 72 33 73 31 74 57 75 58 76 66 77 59 78
REMARK SMILES IDX 60 79 64 80 67 81 61 82 62 83 65 84 63 85 42 86 43 87 51 88
REMARK SMILES IDX 44 89 45 90 49 91 52 92 46 93 47 94 50 95 48 96
REMARK H PARENT 8 5 4 8 82 16 13 30 72 49 40 60
REMARK Flexibility Score: inf
ROOT
ATOM      1  C   UNL A   1      31.536  29.816  25.391  1.00  0.00     0.116 C 
ENDROOT
BRANCH   1   2
ATOM      2  N   UNL A   1      32.635  29.521  24.502  1.00  0.00    -0.351 N 
ATOM      3  C   UNL A   1      33.541  28.506  24.466  1.00  0.00     0.275 C 
ATOM      4  O   UNL A   1      34.388  28.629  23.580  1.00  0.00    -0.269 OA
ATOM      5  H   UNL A   1      32.753  30.182  23.782  1.00  0.00     0.163 HD
BRANCH   3   6
ATOM      6  C   UNL A   1      33.522  27.313  25.488  1.00  0.00     0.364 C 
BRANCH   6   7
ATOM      7  N   UNL A   1      32.962  26.019  24.974  1.00  0.00    -0.309 N 
ATOM      8  H   UNL A   1      32.468  25.460  25.670  1.00  0.00     0.349 HD
BRANCH   7   9
ATOM      9  C   UNL A   1      34.124  25.287  24.533  1.00  0.00     0.354 C 
BRANCH   9  10
ATOM     10  C   UNL A   1      35.179  24.483  25.276  1.00  0.00    -0.047 C 
ATOM     11  C   UNL A   1      36.084  23.794  25.914  1.00  0.00     0.010 C 
ENDBRANCH   9  10
ENDBRANCH   7   9
BRANCH   7  12
ATOM     12  C   UNL A   1      31.875  26.245  23.980  1.00  0.00     0.365 C 
BRANCH  12  13
ATOM     13  C   UNL A   1      30.555  25.481  24.166  1.00  0.00     0.279 C 
ATOM     14  O   UNL A   1      29.489  26.117  24.201  1.00  0.00    -0.268 OA
ATOM     15  N   UNL A   1      30.451  24.113  24.164  1.00  0.00    -0.319 N 
ATOM     16  H   UNL A   1      29.508  23.825  24.152  1.00  0.00     0.170 HD
BRANCH  15  17
ATOM     17  C   UNL A   1      31.333  22.994  24.177  1.00  0.00     0.079 A 
ATOM     18  C   UNL A   1      31.713  22.494  25.439  1.00  0.00     0.066 A 
ATOM     19  C   UNL A   1      31.921  22.347  23.079  1.00  0.00     0.066 A 
ATOM     20  Cl  UNL A   1      31.316  23.340  26.898  1.00  0.00    -0.082 Cl
ATOM     21  C   UNL A   1      32.427  21.294  25.566  1.00  0.00     0.023 A 
ATOM     22  C   UNL A   1      32.436  21.046  23.187  1.00  0.00     0.023 A 
ATOM     23  Cl  UNL A   1      33.023  23.253  22.042  1.00  0.00    -0.082 Cl
ATOM     24  C   UNL A   1      32.721  20.531  24.440  1.00  0.00     0.003 A 
ENDBRANCH  15  17
ENDBRANCH  12  13
ENDBRANCH   7  12
ENDBRANCH   6   7
ENDBRANCH   3   6
ENDBRANCH   1   2
BRANCH   1  25
ATOM     25  C   UNL A   1      31.996  30.547  26.666  1.00  0.00     0.023 C 
BRANCH  25  26
ATOM     26  C   UNL A   1      31.584  32.003  26.764  1.00  0.00     0.023 C 
BRANCH  26  27
ATOM     27  C   UNL A   1      32.765  32.902  27.002  1.00  0.00     0.116 C 
BRANCH  27  28
ATOM     28  N   UNL A   1      32.392  34.139  27.689  1.00  0.00    -0.352 N 
ATOM     29  C   UNL A   1      33.031  34.710  28.753  1.00  0.00     0.251 C 
ATOM     30  H   UNL A   1      31.595  34.609  27.349  1.00  0.00     0.163 HD
ATOM     31  O   UNL A   1      32.610  35.709  29.320  1.00  0.00    -0.269 OA
BRANCH  29  32
ATOM     32  C   UNL A   1      34.244  34.023  29.188  1.00  0.00     0.039 A 
ATOM     33  C   UNL A   1      35.480  34.561  28.832  1.00  0.00     0.014 A 
ATOM     34  C   UNL A   1      34.109  33.047  30.180  1.00  0.00     0.014 A 
ATOM     35  C   UNL A   1      36.612  34.124  29.507  1.00  0.00     0.010 A 
ATOM     36  C   UNL A   1      35.218  32.708  30.925  1.00  0.00     0.010 A 
ATOM     37  C   UNL A   1      36.480  33.217  30.569  1.00  0.00    -0.014 A 
BRANCH  37  38
ATOM     38  C   UNL A   1      37.652  32.660  31.267  1.00  0.00     0.031 A 
ATOM     39  C   UNL A   1      38.408  31.565  30.573  1.00  0.00     0.074 A 
ATOM     40  C   UNL A   1      37.965  33.055  32.512  1.00  0.00     0.049 A 
ATOM     41  N   UNL A   1      39.318  30.756  31.042  1.00  0.00    -0.248 NA
ATOM     42  C   UNL A   1      38.034  31.302  29.169  1.00  0.00     0.031 C 
ATOM     43  C   UNL A   1      37.271  34.089  33.282  1.00  0.00     0.029 A 
ATOM     44  N   UNL A   1      38.949  32.613  33.358  1.00  0.00    -0.354 N 
ATOM     45  C   UNL A   1      39.579  29.863  30.013  1.00  0.00     0.074 A 
ATOM     46  C   UNL A   1      38.689  30.181  28.922  1.00  0.00     0.031 C 
ATOM     47  C   UNL A   1      37.867  34.218  34.479  1.00  0.00     0.029 A 
ATOM     48  C   UNL A   1      38.953  33.247  34.575  1.00  0.00     0.049 A 
ATOM     49  H   UNL A   1      39.591  31.908  33.115  1.00  0.00     0.167 HD
ATOM     50  C   UNL A   1      40.509  28.884  29.973  1.00  0.00     0.037 A 
ATOM     51  C   UNL A   1      39.748  33.047  35.642  1.00  0.00     0.037 A 
ATOM     52  C   UNL A   1      41.435  28.637  31.041  1.00  0.00     0.049 A 
ATOM     53  C   UNL A   1      40.807  31.979  35.558  1.00  0.00     0.074 A 
ATOM     54  C   UNL A   1      42.459  27.712  31.101  1.00  0.00     0.029 A 
ATOM     55  N   UNL A   1      41.457  29.348  32.233  1.00  0.00    -0.354 N 
ATOM     56  N   UNL A   1      41.073  31.153  34.572  1.00  0.00    -0.248 NA
ATOM     57  C   UNL A   1      41.679  31.814  36.728  1.00  0.00     0.031 C 
ATOM     58  C   UNL A   1      43.092  27.853  32.340  1.00  0.00     0.029 A 
ATOM     59  C   UNL A   1      42.484  28.888  33.035  1.00  0.00     0.049 A 
ATOM     60  H   UNL A   1      40.833  30.072  32.472  1.00  0.00     0.167 HD
ATOM     61  C   UNL A   1      42.163  30.402  34.987  1.00  0.00     0.074 A 
ATOM     62  C   UNL A   1      42.511  30.870  36.312  1.00  0.00     0.031 C 
ATOM     63  C   UNL A   1      42.822  29.415  34.331  1.00  0.00     0.037 A 
BRANCH  50  64
ATOM     64  C   UNL A   1      40.572  28.042  28.735  1.00  0.00     0.064 A 
ATOM     65  C   UNL A   1      39.877  26.825  28.636  1.00  0.00     0.173 A 
ATOM     66  C   UNL A   1      41.342  28.448  27.636  1.00  0.00     0.173 A 
ATOM     67  F   UNL A   1      39.145  26.380  29.670  1.00  0.00    -0.203 F 
ATOM     68  C   UNL A   1      39.982  26.030  27.500  1.00  0.00     0.198 A 
ATOM     69  C   UNL A   1      41.416  27.666  26.486  1.00  0.00     0.198 A 
ATOM     70  F   UNL A   1      42.028  29.599  27.679  1.00  0.00    -0.203 F 
ATOM     71  F   UNL A   1      39.364  24.842  27.456  1.00  0.00    -0.200 F 
ATOM     72  C   UNL A   1      40.745  26.454  26.423  1.00  0.00     0.200 A 
ATOM     73  F   UNL A   1      42.148  28.080  25.443  1.00  0.00    -0.200 F 
ATOM     74  F   UNL A   1      40.844  25.688  25.327  1.00  0.00    -0.200 F 
ENDBRANCH  50  64
BRANCH  51  75
ATOM     75  C   UNL A   1      39.604  33.892  36.854  1.00  0.00     0.064 A 
ATOM     76  C   UNL A   1      38.849  33.447  37.949  1.00  0.00     0.173 A 
ATOM     77  C   UNL A   1      40.207  35.154  36.950  1.00  0.00     0.173 A 
ATOM     78  F   UNL A   1      38.241  32.253  37.900  1.00  0.00    -0.203 F 
ATOM     79  C   UNL A   1      38.682  34.242  39.082  1.00  0.00     0.198 A 
ATOM     80  C   UNL A   1      40.060  35.938  38.093  1.00  0.00     0.198 A 
ATOM     81  F   UNL A   1      40.946  35.624  35.935  1.00  0.00    -0.203 F 
ATOM     82  F   UNL A   1      37.918  33.809  40.093  1.00  0.00    -0.200 F 
ATOM     83  C   UNL A   1      39.290  35.485  39.154  1.00  0.00     0.200 A 
ATOM     84  F   UNL A   1      40.659  37.134  38.166  1.00  0.00    -0.200 F 
ATOM     85  F   UNL A   1      39.128  36.249  40.243  1.00  0.00    -0.200 F 
ENDBRANCH  51  75
BRANCH  63  86
ATOM     86  C   UNL A   1      44.022  28.824  35.003  1.00  0.00     0.064 A 
ATOM     87  C   UNL A   1      45.297  29.387  34.858  1.00  0.00     0.173 A 
ATOM     88  C   UNL A   1      43.872  27.738  35.877  1.00  0.00     0.173 A 
ATOM     89  F   UNL A   1      45.487  30.421  34.024  1.00  0.00    -0.203 F 
ATOM     90  C   UNL A   1      46.384  28.875  35.559  1.00  0.00     0.198 A 
ATOM     91  C   UNL A   1      44.955  27.244  36.595  1.00  0.00     0.198 A 
ATOM     92  F   UNL A   1      42.667  27.174  36.053  1.00  0.00    -0.203 F 
ATOM     93  F   UNL A   1      47.600  29.410  35.388  1.00  0.00    -0.200 F 
ATOM     94  C   UNL A   1      46.211  27.812  36.434  1.00  0.00     0.200 A 
ATOM     95  F   UNL A   1      44.782  26.227  37.451  1.00  0.00    -0.200 F 
ATOM     96  F   UNL A   1      47.255  27.333  37.123  1.00  0.00    -0.200 F 
ENDBRANCH  63  86
ENDBRANCH  37  38
ENDBRANCH  29  32
ENDBRANCH  27  28
ENDBRANCH  26  27
ENDBRANCH  25  26
ENDBRANCH   1  25
TORSDOF 17
ENDMDL
