MODEL 1
REMARK VINA RESULT:     -12.6      0.000      0.000
REMARK SMILES C[C@H](CN(Cc1ccccc1)C(=O)c1cc2ccccc2oc1=O)C(=O)NCCCCNC(=O)c1ccc(-c2c3nc(c(-c4c(F)c(F)c(F)c(F)c4F)c4ccc([nH]4)c(-c4c(F)c(F)c(F)c(F)c4F)c4nc(c(-c5c(F)c(F)c(F)c(F)c5F)c5ccc2[nH]5)C=C4)C=C3)cc1
REMARK SMILES IDX 28 1 27 2 25 3 26 4 2 6 1 7 3 8 4 9 5 10 6 11 7 12 11 13
REMARK SMILES IDX 8 14 10 15 9 16 12 17 13 18 14 19 15 20 23 21 16 22 22 23
REMARK SMILES IDX 24 24 17 25 21 26 18 27 20 28 19 29 29 30 30 31 31 32 32 33
REMARK SMILES IDX 33 34 34 36 35 37 36 38 97 39 37 40 96 41 38 42 39 43 40 44
REMARK SMILES IDX 90 45 41 46 95 47 89 48 91 49 42 50 94 51 88 52 87 53 43 55
REMARK SMILES IDX 75 56 55 57 74 58 56 59 59 60 73 61 92 62 57 63 58 64 72 66
REMARK SMILES IDX 93 67 60 68 44 69 45 70 53 71 46 72 47 73 51 74 54 75 48 76
REMARK SMILES IDX 49 77 52 78 50 79 76 80 77 81 85 82 78 83 79 84 83 85 86 86
REMARK SMILES IDX 80 87 81 88 84 89 82 90 61 91 62 92 70 93 63 94 64 95 68 96
REMARK SMILES IDX 71 97 65 98 66 99 69 100 67 101
REMARK H PARENT 27 5 32 35 91 54 59 65
REMARK Flexibility Score: inf
ROOT
ATOM      1  C   UNL A   1      32.588  29.931  25.697  1.00  0.00     0.116 C 
ENDROOT
BRANCH   1   2
ATOM      2  N   UNL A   1      31.722  29.727  24.550  1.00  0.00    -0.356 N 
ATOM      3  C   UNL A   1      31.887  29.023  23.400  1.00  0.00     0.224 C 
ATOM      4  O   UNL A   1      31.027  29.188  22.528  1.00  0.00    -0.275 OA
ATOM      5  H   UNL A   1      30.852  30.186  24.618  1.00  0.00     0.163 HD
BRANCH   3   6
ATOM      6  C   UNL A   1      32.984  27.974  23.194  1.00  0.00     0.095 C 
ATOM      7  C   UNL A   1      34.078  28.592  22.331  1.00  0.00     0.020 C 
BRANCH   6   8
ATOM      8  C   UNL A   1      32.500  26.545  22.842  1.00  0.00     0.133 C 
BRANCH   8   9
ATOM      9  N   UNL A   1      32.424  25.600  23.973  1.00  0.00    -0.333 N 
BRANCH   9  10
ATOM     10  C   UNL A   1      33.499  25.613  24.978  1.00  0.00     0.155 C 
BRANCH  10  11
ATOM     11  C   UNL A   1      34.571  24.557  24.735  1.00  0.00    -0.029 A 
ATOM     12  C   UNL A   1      34.734  23.963  23.477  1.00  0.00     0.005 A 
ATOM     13  C   UNL A   1      35.412  24.129  25.780  1.00  0.00     0.005 A 
ATOM     14  C   UNL A   1      35.725  22.993  23.271  1.00  0.00     0.000 A 
ATOM     15  C   UNL A   1      36.420  23.187  25.565  1.00  0.00     0.000 A 
ATOM     16  C   UNL A   1      36.575  22.616  24.310  1.00  0.00     0.000 A 
ENDBRANCH  10  11
ENDBRANCH   9  10
BRANCH   9  17
ATOM     17  C   UNL A   1      31.177  25.199  24.408  1.00  0.00     0.261 C 
ATOM     18  O   UNL A   1      30.170  25.869  24.173  1.00  0.00    -0.269 OA
BRANCH  17  19
ATOM     19  C   UNL A   1      31.036  23.828  24.975  1.00  0.00     0.126 A 
ATOM     20  C   UNL A   1      31.299  22.843  24.103  1.00  0.00     0.033 A 
ATOM     21  C   UNL A   1      31.027  23.536  26.424  1.00  0.00     0.349 A 
ATOM     22  C   UNL A   1      32.061  21.698  24.582  1.00  0.00     0.018 A 
ATOM     23  O   UNL A   1      31.975  22.599  26.837  1.00  0.00    -0.422 OA
ATOM     24  O   UNL A   1      30.285  24.086  27.210  1.00  0.00    -0.246 OA
ATOM     25  C   UNL A   1      32.576  20.762  23.688  1.00  0.00     0.012 A 
ATOM     26  C   UNL A   1      32.530  21.719  25.894  1.00  0.00     0.138 A 
ATOM     27  C   UNL A   1      33.611  19.917  24.091  1.00  0.00     0.001 A 
ATOM     28  C   UNL A   1      33.566  20.890  26.306  1.00  0.00     0.048 A 
ATOM     29  C   UNL A   1      34.125  20.003  25.387  1.00  0.00     0.004 A 
ENDBRANCH  17  19
ENDBRANCH   9  17
ENDBRANCH   8   9
ENDBRANCH   6   8
ENDBRANCH   3   6
ENDBRANCH   1   2
BRANCH   1  30
ATOM     30  C   UNL A   1      31.778  30.460  26.886  1.00  0.00     0.023 C 
BRANCH  30  31
ATOM     31  C   UNL A   1      31.336  31.919  26.786  1.00  0.00     0.023 C 
BRANCH  31  32
ATOM     32  C   UNL A   1      32.453  32.955  26.700  1.00  0.00     0.116 C 
BRANCH  32  33
ATOM     33  N   UNL A   1      32.358  34.050  27.652  1.00  0.00    -0.352 N 
ATOM     34  C   UNL A   1      33.239  34.393  28.656  1.00  0.00     0.251 C 
ATOM     35  H   UNL A   1      31.560  34.620  27.569  1.00  0.00     0.163 HD
ATOM     36  O   UNL A   1      33.005  35.348  29.389  1.00  0.00    -0.269 OA
BRANCH  34  37
ATOM     37  C   UNL A   1      34.460  33.579  28.892  1.00  0.00     0.039 A 
ATOM     38  C   UNL A   1      35.710  34.181  28.708  1.00  0.00     0.014 A 
ATOM     39  C   UNL A   1      34.388  32.259  29.344  1.00  0.00     0.014 A 
ATOM     40  C   UNL A   1      36.871  33.515  29.110  1.00  0.00     0.010 A 
ATOM     41  C   UNL A   1      35.536  31.618  29.803  1.00  0.00     0.010 A 
ATOM     42  C   UNL A   1      36.781  32.260  29.731  1.00  0.00    -0.014 A 
BRANCH  42  43
ATOM     43  C   UNL A   1      37.939  31.663  30.443  1.00  0.00     0.031 A 
ATOM     44  C   UNL A   1      38.797  30.619  29.794  1.00  0.00     0.074 A 
ATOM     45  C   UNL A   1      38.118  31.971  31.743  1.00  0.00     0.049 A 
ATOM     46  N   UNL A   1      39.772  29.914  30.311  1.00  0.00    -0.248 NA
ATOM     47  C   UNL A   1      38.503  30.304  28.390  1.00  0.00     0.031 C 
ATOM     48  C   UNL A   1      37.289  32.905  32.511  1.00  0.00     0.029 A 
ATOM     49  N   UNL A   1      39.032  31.512  32.659  1.00  0.00    -0.354 N 
ATOM     50  C   UNL A   1      40.197  29.061  29.303  1.00  0.00     0.074 A 
ATOM     51  C   UNL A   1      39.351  29.312  28.154  1.00  0.00     0.031 C 
ATOM     52  C   UNL A   1      37.733  32.951  33.776  1.00  0.00     0.029 A 
ATOM     53  C   UNL A   1      38.860  32.036  33.917  1.00  0.00     0.049 A 
ATOM     54  H   UNL A   1      39.743  30.869  32.435  1.00  0.00     0.167 HD
ATOM     55  C   UNL A   1      41.210  28.161  29.332  1.00  0.00     0.037 A 
ATOM     56  C   UNL A   1      39.529  31.800  35.059  1.00  0.00     0.037 A 
ATOM     57  C   UNL A   1      42.061  27.929  30.469  1.00  0.00     0.049 A 
ATOM     58  C   UNL A   1      40.682  30.841  35.050  1.00  0.00     0.074 A 
ATOM     59  C   UNL A   1      43.157  27.090  30.574  1.00  0.00     0.029 A 
ATOM     60  N   UNL A   1      41.906  28.538  31.707  1.00  0.00    -0.354 N 
ATOM     61  N   UNL A   1      41.129  30.100  34.066  1.00  0.00    -0.248 NA
ATOM     62  C   UNL A   1      41.433  30.693  36.304  1.00  0.00     0.031 C 
ATOM     63  C   UNL A   1      43.652  27.175  31.881  1.00  0.00     0.029 A 
ATOM     64  C   UNL A   1      42.882  28.088  32.582  1.00  0.00     0.049 A 
ATOM     65  H   UNL A   1      41.207  29.194  31.930  1.00  0.00     0.167 HD
ATOM     66  C   UNL A   1      42.223  29.415  34.572  1.00  0.00     0.074 A 
ATOM     67  C   UNL A   1      42.379  29.834  35.950  1.00  0.00     0.031 C 
ATOM     68  C   UNL A   1      43.025  28.520  33.947  1.00  0.00     0.037 A 
BRANCH  55  69
ATOM     69  C   UNL A   1      41.459  27.363  28.087  1.00  0.00     0.064 A 
ATOM     70  C   UNL A   1      42.332  27.823  27.088  1.00  0.00     0.173 A 
ATOM     71  C   UNL A   1      40.849  26.113  27.903  1.00  0.00     0.173 A 
ATOM     72  F   UNL A   1      42.929  29.017  27.213  1.00  0.00    -0.203 F 
ATOM     73  C   UNL A   1      42.565  27.071  25.941  1.00  0.00     0.198 A 
ATOM     74  C   UNL A   1      41.104  25.354  26.764  1.00  0.00     0.198 A 
ATOM     75  F   UNL A   1      40.010  25.628  28.831  1.00  0.00    -0.203 F 
ATOM     76  F   UNL A   1      43.370  27.548  24.981  1.00  0.00    -0.200 F 
ATOM     77  C   UNL A   1      41.955  25.835  25.781  1.00  0.00     0.200 A 
ATOM     78  F   UNL A   1      40.519  24.157  26.614  1.00  0.00    -0.200 F 
ATOM     79  F   UNL A   1      42.182  25.112  24.677  1.00  0.00    -0.200 F 
ENDBRANCH  55  69
BRANCH  56  80
ATOM     80  C   UNL A   1      39.145  32.527  36.293  1.00  0.00     0.064 A 
ATOM     81  C   UNL A   1      38.285  31.938  37.231  1.00  0.00     0.173 A 
ATOM     82  C   UNL A   1      39.654  33.802  36.579  1.00  0.00     0.173 A 
ATOM     83  F   UNL A   1      37.764  30.727  36.989  1.00  0.00    -0.203 F 
ATOM     84  C   UNL A   1      37.942  32.602  38.406  1.00  0.00     0.198 A 
ATOM     85  C   UNL A   1      39.325  34.457  37.764  1.00  0.00     0.198 A 
ATOM     86  F   UNL A   1      40.487  34.401  35.715  1.00  0.00    -0.203 F 
ATOM     87  F   UNL A   1      37.100  32.027  39.275  1.00  0.00    -0.200 F 
ATOM     88  C   UNL A   1      38.467  33.858  38.675  1.00  0.00     0.200 A 
ATOM     89  F   UNL A   1      39.842  35.664  38.027  1.00  0.00    -0.200 F 
ATOM     90  F   UNL A   1      38.144  34.490  39.811  1.00  0.00    -0.200 F 
ENDBRANCH  56  80
BRANCH  68  91
ATOM     91  C   UNL A   1      44.159  27.955  34.745  1.00  0.00     0.064 A 
ATOM     92  C   UNL A   1      45.399  28.605  34.815  1.00  0.00     0.173 A 
ATOM     93  C   UNL A   1      43.994  26.765  35.469  1.00  0.00     0.173 A 
ATOM     94  F   UNL A   1      45.608  29.736  34.124  1.00  0.00    -0.203 F 
ATOM     95  C   UNL A   1      46.441  28.075  35.569  1.00  0.00     0.198 A 
ATOM     96  C   UNL A   1      45.032  26.247  36.237  1.00  0.00     0.198 A 
ATOM     97  F   UNL A   1      42.825  26.108  35.432  1.00  0.00    -0.203 F 
ATOM     98  F   UNL A   1      47.630  28.692  35.595  1.00  0.00    -0.200 F 
ATOM     99  C   UNL A   1      46.255  26.899  36.284  1.00  0.00     0.200 A 
ATOM    100  F   UNL A   1      44.851  25.115  36.930  1.00  0.00    -0.200 F 
ATOM    101  F   UNL A   1      47.260  26.390  37.010  1.00  0.00    -0.200 F 
ENDBRANCH  68  91
ENDBRANCH  42  43
ENDBRANCH  34  37
ENDBRANCH  32  33
ENDBRANCH  31  32
ENDBRANCH  30  31
ENDBRANCH   1  30
TORSDOF 17
ENDMDL
MODEL 2
REMARK VINA RESULT:     -12.6      1.522      3.006
REMARK SMILES C[C@H](CN(Cc1ccccc1)C(=O)c1cc2ccccc2oc1=O)C(=O)NCCCCNC(=O)c1ccc(-c2c3nc(c(-c4c(F)c(F)c(F)c(F)c4F)c4ccc([nH]4)c(-c4c(F)c(F)c(F)c(F)c4F)c4nc(c(-c5c(F)c(F)c(F)c(F)c5F)c5ccc2[nH]5)C=C4)C=C3)cc1
REMARK SMILES IDX 28 1 27 2 25 3 26 4 2 6 1 7 3 8 4 9 5 10 6 11 7 12 11 13
REMARK SMILES IDX 8 14 10 15 9 16 12 17 13 18 14 19 15 20 23 21 16 22 22 23
REMARK SMILES IDX 24 24 17 25 21 26 18 27 20 28 19 29 29 30 30 31 31 32 32 33
REMARK SMILES IDX 33 34 34 36 35 37 36 38 97 39 37 40 96 41 38 42 39 43 40 44
REMARK SMILES IDX 90 45 41 46 95 47 89 48 91 49 42 50 94 51 88 52 87 53 43 55
REMARK SMILES IDX 75 56 55 57 74 58 56 59 59 60 73 61 92 62 57 63 58 64 72 66
REMARK SMILES IDX 93 67 60 68 44 69 45 70 53 71 46 72 47 73 51 74 54 75 48 76
REMARK SMILES IDX 49 77 52 78 50 79 76 80 77 81 85 82 78 83 79 84 83 85 86 86
REMARK SMILES IDX 80 87 81 88 84 89 82 90 61 91 62 92 70 93 63 94 64 95 68 96
REMARK SMILES IDX 71 97 65 98 66 99 69 100 67 101
REMARK H PARENT 27 5 32 35 91 54 59 65
REMARK Flexibility Score: inf
ROOT
ATOM      1  C   UNL A   1      34.390  29.165  27.064  1.00  0.00     0.116 C 
ENDROOT
BRANCH   1   2
ATOM      2  N   UNL A   1      33.206  28.522  27.602  1.00  0.00    -0.356 N 
ATOM      3  C   UNL A   1      31.954  28.356  27.102  1.00  0.00     0.224 C 
ATOM      4  O   UNL A   1      31.105  27.913  27.883  1.00  0.00    -0.275 OA
ATOM      5  H   UNL A   1      33.334  28.134  28.499  1.00  0.00     0.163 HD
BRANCH   3   6
ATOM      6  C   UNL A   1      31.592  28.566  25.629  1.00  0.00     0.095 C 
ATOM      7  C   UNL A   1      31.472  30.065  25.376  1.00  0.00     0.020 C 
BRANCH   6   8
ATOM      8  C   UNL A   1      30.483  27.643  25.063  1.00  0.00     0.133 C 
BRANCH   8   9
ATOM      9  N   UNL A   1      30.952  26.512  24.240  1.00  0.00    -0.333 N 
BRANCH   9  10
ATOM     10  C   UNL A   1      30.220  25.237  24.310  1.00  0.00     0.155 C 
BRANCH  10  11
ATOM     11  C   UNL A   1      30.942  24.164  25.117  1.00  0.00    -0.029 A 
ATOM     12  C   UNL A   1      31.090  22.861  24.625  1.00  0.00     0.005 A 
ATOM     13  C   UNL A   1      31.459  24.448  26.396  1.00  0.00     0.005 A 
ATOM     14  C   UNL A   1      31.756  21.886  25.379  1.00  0.00     0.000 A 
ATOM     15  C   UNL A   1      32.151  23.485  27.132  1.00  0.00     0.000 A 
ATOM     16  C   UNL A   1      32.297  22.202  26.625  1.00  0.00     0.000 A 
ENDBRANCH  10  11
ENDBRANCH   9  10
BRANCH   9  17
ATOM     17  C   UNL A   1      31.596  26.789  23.052  1.00  0.00     0.261 C 
ATOM     18  O   UNL A   1      31.168  27.645  22.274  1.00  0.00    -0.269 OA
BRANCH  17  19
ATOM     19  C   UNL A   1      32.943  26.194  22.825  1.00  0.00     0.126 A 
ATOM     20  C   UNL A   1      33.723  26.168  23.917  1.00  0.00     0.033 A 
ATOM     21  C   UNL A   1      33.278  25.337  21.669  1.00  0.00     0.349 A 
ATOM     22  C   UNL A   1      34.522  24.974  24.151  1.00  0.00     0.018 A 
ATOM     23  O   UNL A   1      33.812  24.091  22.001  1.00  0.00    -0.422 OA
ATOM     24  O   UNL A   1      33.077  25.661  20.518  1.00  0.00    -0.246 OA
ATOM     25  C   UNL A   1      35.161  24.774  25.373  1.00  0.00     0.012 A 
ATOM     26  C   UNL A   1      34.382  23.902  23.270  1.00  0.00     0.138 A 
ATOM     27  C   UNL A   1      35.577  23.491  25.734  1.00  0.00     0.001 A 
ATOM     28  C   UNL A   1      34.783  22.619  23.621  1.00  0.00     0.048 A 
ATOM     29  C   UNL A   1      35.360  22.412  24.873  1.00  0.00     0.004 A 
ENDBRANCH  17  19
ENDBRANCH   9  17
ENDBRANCH   8   9
ENDBRANCH   6   8
ENDBRANCH   3   6
ENDBRANCH   1   2
BRANCH   1  30
ATOM     30  C   UNL A   1      34.766  30.385  27.913  1.00  0.00     0.023 C 
BRANCH  30  31
ATOM     31  C   UNL A   1      33.654  31.413  28.117  1.00  0.00     0.023 C 
BRANCH  31  32
ATOM     32  C   UNL A   1      33.663  32.609  27.170  1.00  0.00     0.116 C 
BRANCH  32  33
ATOM     33  N   UNL A   1      32.938  33.778  27.640  1.00  0.00    -0.352 N 
ATOM     34  C   UNL A   1      33.260  34.626  28.679  1.00  0.00     0.251 C 
ATOM     35  H   UNL A   1      32.109  33.991  27.154  1.00  0.00     0.163 HD
ATOM     36  O   UNL A   1      32.528  35.570  28.960  1.00  0.00    -0.269 OA
BRANCH  34  37
ATOM     37  C   UNL A   1      34.471  34.377  29.504  1.00  0.00     0.039 A 
ATOM     38  C   UNL A   1      34.305  33.875  30.799  1.00  0.00     0.014 A 
ATOM     39  C   UNL A   1      35.759  34.578  28.999  1.00  0.00     0.014 A 
ATOM     40  C   UNL A   1      35.417  33.442  31.527  1.00  0.00     0.010 A 
ATOM     41  C   UNL A   1      36.861  34.091  29.696  1.00  0.00     0.010 A 
ATOM     42  C   UNL A   1      36.694  33.478  30.946  1.00  0.00    -0.014 A 
BRANCH  42  43
ATOM     43  C   UNL A   1      37.841  32.755  31.551  1.00  0.00     0.031 A 
ATOM     44  C   UNL A   1      38.460  31.571  30.871  1.00  0.00     0.074 A 
ATOM     45  C   UNL A   1      38.224  33.093  32.798  1.00  0.00     0.049 A 
ATOM     46  N   UNL A   1      39.387  30.758  31.311  1.00  0.00    -0.248 NA
ATOM     47  C   UNL A   1      37.950  31.237  29.534  1.00  0.00     0.031 C 
ATOM     48  C   UNL A   1      37.635  34.170  33.599  1.00  0.00     0.029 A 
ATOM     49  N   UNL A   1      39.176  32.551  33.625  1.00  0.00    -0.354 N 
ATOM     50  C   UNL A   1      39.561  29.808  30.314  1.00  0.00     0.074 A 
ATOM     51  C   UNL A   1      38.618  30.125  29.261  1.00  0.00     0.031 C 
ATOM     52  C   UNL A   1      38.238  34.209  34.797  1.00  0.00     0.029 A 
ATOM     53  C   UNL A   1      39.238  33.150  34.859  1.00  0.00     0.049 A 
ATOM     54  H   UNL A   1      39.758  31.803  33.359  1.00  0.00     0.167 HD
ATOM     55  C   UNL A   1      40.437  28.775  30.279  1.00  0.00     0.037 A 
ATOM     56  C   UNL A   1      40.009  32.874  35.926  1.00  0.00     0.037 A 
ATOM     57  C   UNL A   1      41.386  28.476  31.319  1.00  0.00     0.049 A 
ATOM     58  C   UNL A   1      41.010  31.760  35.840  1.00  0.00     0.074 A 
ATOM     59  C   UNL A   1      42.363  27.495  31.344  1.00  0.00     0.029 A 
ATOM     60  N   UNL A   1      41.475  29.156  32.525  1.00  0.00    -0.354 N 
ATOM     61  N   UNL A   1      41.223  30.920  34.858  1.00  0.00    -0.248 NA
ATOM     62  C   UNL A   1      41.886  31.564  37.002  1.00  0.00     0.031 C 
ATOM     63  C   UNL A   1      43.027  27.567  32.575  1.00  0.00     0.029 A 
ATOM     64  C   UNL A   1      42.483  28.612  33.305  1.00  0.00     0.049 A 
ATOM     65  H   UNL A   1      40.905  29.915  32.788  1.00  0.00     0.167 HD
ATOM     66  C   UNL A   1      42.269  30.108  35.271  1.00  0.00     0.074 A 
ATOM     67  C   UNL A   1      42.654  30.564  36.592  1.00  0.00     0.031 C 
ATOM     68  C   UNL A   1      42.856  29.081  34.613  1.00  0.00     0.037 A 
BRANCH  55  69
ATOM     69  C   UNL A   1      40.416  27.894  29.065  1.00  0.00     0.064 A 
ATOM     70  C   UNL A   1      41.183  28.197  27.930  1.00  0.00     0.173 A 
ATOM     71  C   UNL A   1      39.650  26.719  29.048  1.00  0.00     0.173 A 
ATOM     72  F   UNL A   1      41.922  29.315  27.895  1.00  0.00    -0.203 F 
ATOM     73  C   UNL A   1      41.165  27.368  26.812  1.00  0.00     0.198 A 
ATOM     74  C   UNL A   1      39.653  25.880  27.936  1.00  0.00     0.198 A 
ATOM     75  F   UNL A   1      38.903  26.382  30.110  1.00  0.00    -0.203 F 
ATOM     76  F   UNL A   1      41.872  27.699  25.723  1.00  0.00    -0.200 F 
ATOM     77  C   UNL A   1      40.404  26.208  26.817  1.00  0.00     0.200 A 
ATOM     78  F   UNL A   1      38.923  24.756  27.944  1.00  0.00    -0.200 F 
ATOM     79  F   UNL A   1      40.389  25.411  25.741  1.00  0.00    -0.200 F 
ENDBRANCH  55  69
BRANCH  56  80
ATOM     80  C   UNL A   1      39.887  33.703  37.149  1.00  0.00     0.064 A 
ATOM     81  C   UNL A   1      40.630  34.883  37.290  1.00  0.00     0.173 A 
ATOM     82  C   UNL A   1      39.002  33.357  38.180  1.00  0.00     0.173 A 
ATOM     83  F   UNL A   1      41.500  35.242  36.334  1.00  0.00    -0.203 F 
ATOM     84  C   UNL A   1      40.500  35.683  38.422  1.00  0.00     0.198 A 
ATOM     85  C   UNL A   1      38.858  34.169  39.304  1.00  0.00     0.198 A 
ATOM     86  F   UNL A   1      38.263  32.242  38.085  1.00  0.00    -0.203 F 
ATOM     87  F   UNL A   1      41.240  36.793  38.544  1.00  0.00    -0.200 F 
ATOM     88  C   UNL A   1      39.610  35.329  39.426  1.00  0.00     0.200 A 
ATOM     89  F   UNL A   1      37.990  33.831  40.266  1.00  0.00    -0.200 F 
ATOM     90  F   UNL A   1      39.478  36.105  40.510  1.00  0.00    -0.200 F 
ENDBRANCH  56  80
BRANCH  68  91
ATOM     91  C   UNL A   1      43.995  28.396  35.304  1.00  0.00     0.064 A 
ATOM     92  C   UNL A   1      43.782  27.298  36.150  1.00  0.00     0.173 A 
ATOM     93  C   UNL A   1      45.313  28.827  35.097  1.00  0.00     0.173 A 
ATOM     94  F   UNL A   1      42.537  26.864  36.391  1.00  0.00    -0.203 F 
ATOM     95  C   UNL A   1      44.851  26.665  36.776  1.00  0.00     0.198 A 
ATOM     96  C   UNL A   1      46.380  28.180  35.711  1.00  0.00     0.198 A 
ATOM     97  F   UNL A   1      45.564  29.874  34.296  1.00  0.00    -0.203 F 
ATOM     98  F   UNL A   1      44.625  25.639  37.609  1.00  0.00    -0.200 F 
ATOM     99  C   UNL A   1      46.149  27.102  36.553  1.00  0.00     0.200 A 
ATOM    100  F   UNL A   1      47.633  28.600  35.491  1.00  0.00    -0.200 F 
ATOM    101  F   UNL A   1      47.177  26.490  37.158  1.00  0.00    -0.200 F 
ENDBRANCH  68  91
ENDBRANCH  42  43
ENDBRANCH  34  37
ENDBRANCH  32  33
ENDBRANCH  31  32
ENDBRANCH  30  31
ENDBRANCH   1  30
TORSDOF 17
ENDMDL
MODEL 3
REMARK VINA RESULT:     -12.5      1.060      7.068
REMARK SMILES C[C@H](CN(Cc1ccccc1)C(=O)c1cc2ccccc2oc1=O)C(=O)NCCCCNC(=O)c1ccc(-c2c3nc(c(-c4c(F)c(F)c(F)c(F)c4F)c4ccc([nH]4)c(-c4c(F)c(F)c(F)c(F)c4F)c4nc(c(-c5c(F)c(F)c(F)c(F)c5F)c5ccc2[nH]5)C=C4)C=C3)cc1
REMARK SMILES IDX 28 1 27 2 25 3 26 4 2 6 1 7 3 8 4 9 5 10 6 11 7 12 11 13
REMARK SMILES IDX 8 14 10 15 9 16 12 17 13 18 14 19 15 20 23 21 16 22 22 23
REMARK SMILES IDX 24 24 17 25 21 26 18 27 20 28 19 29 29 30 30 31 31 32 32 33
REMARK SMILES IDX 33 34 34 36 35 37 36 38 97 39 37 40 96 41 38 42 39 43 40 44
REMARK SMILES IDX 90 45 41 46 95 47 89 48 91 49 42 50 94 51 88 52 87 53 43 55
REMARK SMILES IDX 75 56 55 57 74 58 56 59 59 60 73 61 92 62 57 63 58 64 72 66
REMARK SMILES IDX 93 67 60 68 44 69 45 70 53 71 46 72 47 73 51 74 54 75 48 76
REMARK SMILES IDX 49 77 52 78 50 79 76 80 77 81 85 82 78 83 79 84 83 85 86 86
REMARK SMILES IDX 80 87 81 88 84 89 82 90 61 91 62 92 70 93 63 94 64 95 68 96
REMARK SMILES IDX 71 97 65 98 66 99 69 100 67 101
REMARK H PARENT 27 5 32 35 91 54 59 65
REMARK Flexibility Score: inf
ROOT
ATOM      1  C   UNL A   1      32.919  29.613  25.687  1.00  0.00     0.116 C 
ENDROOT
BRANCH   1   2
ATOM      2  N   UNL A   1      32.008  29.601  24.557  1.00  0.00    -0.356 N 
ATOM      3  C   UNL A   1      32.069  28.986  23.347  1.00  0.00     0.224 C 
ATOM      4  O   UNL A   1      31.211  29.315  22.521  1.00  0.00    -0.275 OA
ATOM      5  H   UNL A   1      31.194  30.139  24.693  1.00  0.00     0.163 HD
BRANCH   3   6
ATOM      6  C   UNL A   1      33.044  27.853  23.016  1.00  0.00     0.095 C 
ATOM      7  C   UNL A   1      34.057  28.375  22.004  1.00  0.00     0.020 C 
BRANCH   6   8
ATOM      8  C   UNL A   1      32.408  26.464  22.758  1.00  0.00     0.133 C 
BRANCH   8   9
ATOM      9  N   UNL A   1      32.364  25.555  23.920  1.00  0.00    -0.333 N 
BRANCH   9  10
ATOM     10  C   UNL A   1      33.453  25.619  24.908  1.00  0.00     0.155 C 
BRANCH  10  11
ATOM     11  C   UNL A   1      34.542  24.578  24.681  1.00  0.00    -0.029 A 
ATOM     12  C   UNL A   1      34.700  23.949  23.440  1.00  0.00     0.005 A 
ATOM     13  C   UNL A   1      35.407  24.198  25.726  1.00  0.00     0.005 A 
ATOM     14  C   UNL A   1      35.707  22.993  23.248  1.00  0.00     0.000 A 
ATOM     15  C   UNL A   1      36.430  23.270  25.525  1.00  0.00     0.000 A 
ATOM     16  C   UNL A   1      36.579  22.665  24.285  1.00  0.00     0.000 A 
ENDBRANCH  10  11
ENDBRANCH   9  10
BRANCH   9  17
ATOM     17  C   UNL A   1      31.131  25.147  24.386  1.00  0.00     0.261 C 
ATOM     18  O   UNL A   1      30.110  25.797  24.152  1.00  0.00    -0.269 OA
BRANCH  17  19
ATOM     19  C   UNL A   1      31.020  23.789  24.989  1.00  0.00     0.126 A 
ATOM     20  C   UNL A   1      31.308  22.787  24.144  1.00  0.00     0.033 A 
ATOM     21  C   UNL A   1      31.012  23.535  26.444  1.00  0.00     0.349 A 
ATOM     22  C   UNL A   1      32.095  21.674  24.655  1.00  0.00     0.018 A 
ATOM     23  O   UNL A   1      31.979  22.632  26.886  1.00  0.00    -0.422 OA
ATOM     24  O   UNL A   1      30.254  24.089  27.213  1.00  0.00    -0.246 OA
ATOM     25  C   UNL A   1      32.635  20.727  23.789  1.00  0.00     0.012 A 
ATOM     26  C   UNL A   1      32.558  21.741  25.969  1.00  0.00     0.138 A 
ATOM     27  C   UNL A   1      33.688  19.917  24.218  1.00  0.00     0.001 A 
ATOM     28  C   UNL A   1      33.612  20.947  26.406  1.00  0.00     0.048 A 
ATOM     29  C   UNL A   1      34.195  20.049  25.513  1.00  0.00     0.004 A 
ENDBRANCH  17  19
ENDBRANCH   9  17
ENDBRANCH   8   9
ENDBRANCH   6   8
ENDBRANCH   3   6
ENDBRANCH   1   2
BRANCH   1  30
ATOM     30  C   UNL A   1      32.232  30.220  26.916  1.00  0.00     0.023 C 
BRANCH  30  31
ATOM     31  C   UNL A   1      31.947  31.719  26.840  1.00  0.00     0.023 C 
BRANCH  31  32
ATOM     32  C   UNL A   1      32.975  32.632  27.500  1.00  0.00     0.116 C 
BRANCH  32  33
ATOM     33  N   UNL A   1      32.528  33.994  27.744  1.00  0.00    -0.352 N 
ATOM     34  C   UNL A   1      33.065  34.933  28.600  1.00  0.00     0.251 C 
ATOM     35  H   UNL A   1      31.738  34.283  27.232  1.00  0.00     0.163 HD
ATOM     36  O   UNL A   1      32.556  36.045  28.701  1.00  0.00    -0.269 OA
BRANCH  34  37
ATOM     37  C   UNL A   1      34.237  34.591  29.447  1.00  0.00     0.039 A 
ATOM     38  C   UNL A   1      34.013  34.200  30.772  1.00  0.00     0.014 A 
ATOM     39  C   UNL A   1      35.539  34.599  28.939  1.00  0.00     0.014 A 
ATOM     40  C   UNL A   1      35.064  33.683  31.534  1.00  0.00     0.010 A 
ATOM     41  C   UNL A   1      36.574  34.027  29.674  1.00  0.00     0.010 A 
ATOM     42  C   UNL A   1      36.335  33.523  30.961  1.00  0.00    -0.014 A 
BRANCH  42  43
ATOM     43  C   UNL A   1      37.385  32.706  31.619  1.00  0.00     0.031 A 
ATOM     44  C   UNL A   1      37.917  33.068  32.972  1.00  0.00     0.074 A 
ATOM     45  C   UNL A   1      37.957  31.711  30.913  1.00  0.00     0.049 A 
ATOM     46  N   UNL A   1      38.910  32.534  33.639  1.00  0.00    -0.248 NA
ATOM     47  C   UNL A   1      37.272  34.198  33.654  1.00  0.00     0.031 C 
ATOM     48  C   UNL A   1      37.587  31.322  29.549  1.00  0.00     0.029 A 
ATOM     49  N   UNL A   1      38.992  30.865  31.227  1.00  0.00    -0.354 N 
ATOM     50  C   UNL A   1      39.019  33.271  34.810  1.00  0.00     0.074 A 
ATOM     51  C   UNL A   1      38.014  34.313  34.747  1.00  0.00     0.031 C 
ATOM     52  C   UNL A   1      38.378  30.317  29.146  1.00  0.00     0.029 A 
ATOM     53  C   UNL A   1      39.326  30.004  30.210  1.00  0.00     0.049 A 
ATOM     54  H   UNL A   1      39.452  30.875  32.097  1.00  0.00     0.167 HD
ATOM     55  C   UNL A   1      39.872  33.085  35.846  1.00  0.00     0.037 A 
ATOM     56  C   UNL A   1      40.292  29.071  30.138  1.00  0.00     0.037 A 
ATOM     57  C   UNL A   1      40.856  32.036  35.913  1.00  0.00     0.049 A 
ATOM     58  C   UNL A   1      41.186  28.847  31.321  1.00  0.00     0.074 A 
ATOM     59  C   UNL A   1      41.717  31.722  36.950  1.00  0.00     0.029 A 
ATOM     60  N   UNL A   1      41.112  31.129  34.894  1.00  0.00    -0.354 N 
ATOM     61  N   UNL A   1      41.224  29.497  32.458  1.00  0.00    -0.248 NA
ATOM     62  C   UNL A   1      42.162  27.754  31.218  1.00  0.00     0.031 C 
ATOM     63  C   UNL A   1      42.510  30.639  36.550  1.00  0.00     0.029 A 
ATOM     64  C   UNL A   1      42.123  30.261  35.275  1.00  0.00     0.049 A 
ATOM     65  H   UNL A   1      40.643  31.106  34.028  1.00  0.00     0.167 HD
ATOM     66  C   UNL A   1      42.210  28.882  33.215  1.00  0.00     0.074 A 
ATOM     67  C   UNL A   1      42.740  27.800  32.410  1.00  0.00     0.031 C 
ATOM     68  C   UNL A   1      42.634  29.187  34.464  1.00  0.00     0.037 A 
BRANCH  55  69
ATOM     69  C   UNL A   1      39.771  34.035  37.002  1.00  0.00     0.064 A 
ATOM     70  C   UNL A   1      38.957  33.753  38.110  1.00  0.00     0.173 A 
ATOM     71  C   UNL A   1      40.519  35.222  37.020  1.00  0.00     0.173 A 
ATOM     72  F   UNL A   1      38.214  32.637  38.133  1.00  0.00    -0.203 F 
ATOM     73  C   UNL A   1      38.877  34.636  39.183  1.00  0.00     0.198 A 
ATOM     74  C   UNL A   1      40.454  36.091  38.106  1.00  0.00     0.198 A 
ATOM     75  F   UNL A   1      41.315  35.535  35.987  1.00  0.00    -0.203 F 
ATOM     76  F   UNL A   1      38.061  34.367  40.211  1.00  0.00    -0.200 F 
ATOM     77  C   UNL A   1      39.629  35.802  39.183  1.00  0.00     0.200 A 
ATOM     78  F   UNL A   1      41.186  37.214  38.108  1.00  0.00    -0.200 F 
ATOM     79  F   UNL A   1      39.552  36.650  40.217  1.00  0.00    -0.200 F 
ENDBRANCH  55  69
BRANCH  56  80
ATOM     80  C   UNL A   1      40.424  28.251  28.909  1.00  0.00     0.064 A 
ATOM     81  C   UNL A   1      39.727  27.043  28.778  1.00  0.00     0.173 A 
ATOM     82  C   UNL A   1      41.216  28.673  27.832  1.00  0.00     0.173 A 
ATOM     83  F   UNL A   1      38.971  26.595  29.791  1.00  0.00    -0.203 F 
ATOM     84  C   UNL A   1      39.823  26.281  27.616  1.00  0.00     0.198 A 
ATOM     85  C   UNL A   1      41.296  27.920  26.663  1.00  0.00     0.198 A 
ATOM     86  F   UNL A   1      41.895  29.827  27.909  1.00  0.00    -0.203 F 
ATOM     87  F   UNL A   1      39.165  25.118  27.524  1.00  0.00    -0.200 F 
ATOM     88  C   UNL A   1      40.602  26.723  26.557  1.00  0.00     0.200 A 
ATOM     89  F   UNL A   1      42.040  28.354  25.637  1.00  0.00    -0.200 F 
ATOM     90  F   UNL A   1      40.686  25.994  25.436  1.00  0.00    -0.200 F 
ENDBRANCH  56  80
BRANCH  68  91
ATOM     91  C   UNL A   1      43.708  28.322  35.046  1.00  0.00     0.064 A 
ATOM     92  C   UNL A   1      45.066  28.635  34.886  1.00  0.00     0.173 A 
ATOM     93  C   UNL A   1      43.375  27.182  35.792  1.00  0.00     0.173 A 
ATOM     94  F   UNL A   1      45.430  29.705  34.164  1.00  0.00    -0.203 F 
ATOM     95  C   UNL A   1      46.054  27.828  35.441  1.00  0.00     0.198 A 
ATOM     96  C   UNL A   1      44.365  26.387  36.360  1.00  0.00     0.198 A 
ATOM     97  F   UNL A   1      42.090  26.843  35.971  1.00  0.00    -0.203 F 
ATOM     98  F   UNL A   1      47.346  28.124  35.248  1.00  0.00    -0.200 F 
ATOM     99  C   UNL A   1      45.703  26.707  36.182  1.00  0.00     0.200 A 
ATOM    100  F   UNL A   1      44.027  25.308  37.080  1.00  0.00    -0.200 F 
ATOM    101  F   UNL A   1      46.656  25.931  36.716  1.00  0.00    -0.200 F 
ENDBRANCH  68  91
ENDBRANCH  42  43
ENDBRANCH  34  37
ENDBRANCH  32  33
ENDBRANCH  31  32
ENDBRANCH  30  31
ENDBRANCH   1  30
TORSDOF 17
ENDMDL
