MODEL 1
REMARK VINA RESULT:     -12.8      0.000      0.000
REMARK SMILES Cc1cc(C(=O)N[C@@H](Cc2ccccc2)C(=O)NCCCCNC(=O)c2ccc(-c3c4nc(c(-c5c(F)c(F)c(F)c(F)c5F)c5ccc([nH]5)c(-c5c(F)c(F)c(F)c(F)c5F)c5nc(c(-c6c(F)c(F)c(F)c(F)c6F)c6ccc3[nH]6)C=C5)C=C4)cc2)c(C)o1
REMARK SMILES IDX 20 1 19 2 18 3 16 4 17 5 8 7 7 8 5 9 6 10 4 12 1 13 2 14
REMARK SMILES IDX 3 15 91 16 89 17 90 18 9 19 10 20 11 21 15 22 12 23 14 24
REMARK SMILES IDX 13 25 21 26 22 27 23 28 24 29 25 31 26 32 27 33 88 34 28 35
REMARK SMILES IDX 87 36 29 37 30 38 31 39 81 40 32 41 86 42 80 43 82 44 33 45
REMARK SMILES IDX 85 46 79 47 78 48 34 50 66 51 46 52 65 53 47 54 50 55 64 56
REMARK SMILES IDX 83 57 48 58 49 59 63 61 84 62 51 63 35 64 36 65 44 66 37 67
REMARK SMILES IDX 38 68 42 69 45 70 39 71 40 72 43 73 41 74 67 75 68 76 76 77
REMARK SMILES IDX 69 78 70 79 74 80 77 81 71 82 72 83 75 84 73 85 52 86 53 87
REMARK SMILES IDX 61 88 54 89 55 90 59 91 62 92 56 93 57 94 60 95 58 96
REMARK H PARENT 18 6 7 11 23 30 82 49 50 60
REMARK Flexibility Score: inf
ROOT
ATOM      1  C   UNL A   1      31.814  30.481  26.754  1.00  0.00     0.023 C 
ENDROOT
BRANCH   1   2
ATOM      2  C   UNL A   1      31.709  29.834  25.381  1.00  0.00     0.116 C 
BRANCH   2   3
ATOM      3  N   UNL A   1      32.952  29.736  24.646  1.00  0.00    -0.354 N 
ATOM      4  C   UNL A   1      33.473  28.664  23.973  1.00  0.00     0.242 C 
ATOM      5  O   UNL A   1      34.314  28.909  23.099  1.00  0.00    -0.273 OA
ATOM      6  H   UNL A   1      33.499  30.553  24.628  1.00  0.00     0.163 HD
BRANCH   4   7
ATOM      7  C   UNL A   1      33.010  27.201  24.204  1.00  0.00     0.176 C 
BRANCH   7   8
ATOM      8  N   UNL A   1      32.477  26.595  22.986  1.00  0.00    -0.340 N 
ATOM      9  C   UNL A   1      31.447  26.920  22.143  1.00  0.00     0.255 C 
ATOM     10  O   UNL A   1      31.413  26.266  21.098  1.00  0.00    -0.269 OA
ATOM     11  H   UNL A   1      32.959  25.780  22.714  1.00  0.00     0.164 HD
BRANCH   9  12
ATOM     12  C   UNL A   1      30.416  27.904  22.466  1.00  0.00     0.081 A 
ATOM     13  C   UNL A   1      28.439  31.042  22.864  1.00  0.00     0.087 C 
ATOM     14  C   UNL A   1      29.108  29.730  22.769  1.00  0.00     0.101 A 
ATOM     15  C   UNL A   1      30.209  29.267  22.084  1.00  0.00     0.059 A 
ATOM     16  O   UNL A   1      28.554  28.722  23.483  1.00  0.00    -0.466 OA
ATOM     17  C   UNL A   1      29.321  27.615  23.282  1.00  0.00     0.113 A 
ATOM     18  C   UNL A   1      28.817  26.403  23.971  1.00  0.00     0.088 C 
ENDBRANCH   9  12
ENDBRANCH   7   8
BRANCH   7  19
ATOM     19  C   UNL A   1      33.984  26.308  25.003  1.00  0.00     0.070 C 
BRANCH  19  20
ATOM     20  C   UNL A   1      33.439  25.128  25.767  1.00  0.00    -0.045 A 
ATOM     21  C   UNL A   1      34.271  24.035  26.057  1.00  0.00     0.004 A 
ATOM     22  C   UNL A   1      32.106  25.098  26.203  1.00  0.00     0.004 A 
ATOM     23  C   UNL A   1      33.766  22.915  26.721  1.00  0.00     0.000 A 
ATOM     24  C   UNL A   1      31.599  23.966  26.845  1.00  0.00     0.000 A 
ATOM     25  C   UNL A   1      32.426  22.873  27.097  1.00  0.00     0.000 A 
ENDBRANCH  19  20
ENDBRANCH   7  19
ENDBRANCH   4   7
ENDBRANCH   2   3
ENDBRANCH   1   2
BRANCH   1  26
ATOM     26  C   UNL A   1      31.553  31.983  26.803  1.00  0.00     0.023 C 
BRANCH  26  27
ATOM     27  C   UNL A   1      32.730  32.869  27.206  1.00  0.00     0.116 C 
BRANCH  27  28
ATOM     28  N   UNL A   1      32.366  34.210  27.638  1.00  0.00    -0.352 N 
ATOM     29  C   UNL A   1      32.957  35.006  28.595  1.00  0.00     0.251 C 
ATOM     30  H   UNL A   1      31.587  34.603  27.183  1.00  0.00     0.163 HD
ATOM     31  O   UNL A   1      32.500  36.115  28.845  1.00  0.00    -0.269 OA
BRANCH  29  32
ATOM     32  C   UNL A   1      34.125  34.502  29.355  1.00  0.00     0.039 A 
ATOM     33  C   UNL A   1      33.912  33.906  30.601  1.00  0.00     0.014 A 
ATOM     34  C   UNL A   1      35.419  34.593  28.835  1.00  0.00     0.014 A 
ATOM     35  C   UNL A   1      34.986  33.331  31.288  1.00  0.00     0.010 A 
ATOM     36  C   UNL A   1      36.472  33.949  29.481  1.00  0.00     0.010 A 
ATOM     37  C   UNL A   1      36.268  33.313  30.715  1.00  0.00    -0.014 A 
BRANCH  37  38
ATOM     38  C   UNL A   1      37.405  32.643  31.398  1.00  0.00     0.031 A 
ATOM     39  C   UNL A   1      38.118  31.498  30.733  1.00  0.00     0.074 A 
ATOM     40  C   UNL A   1      37.754  33.019  32.644  1.00  0.00     0.049 A 
ATOM     41  N   UNL A   1      39.103  30.760  31.182  1.00  0.00    -0.248 NA
ATOM     42  C   UNL A   1      37.640  31.106  29.397  1.00  0.00     0.031 C 
ATOM     43  C   UNL A   1      37.094  34.063  33.432  1.00  0.00     0.029 A 
ATOM     44  N   UNL A   1      38.749  32.560  33.471  1.00  0.00    -0.354 N 
ATOM     45  C   UNL A   1      39.343  29.809  30.199  1.00  0.00     0.074 A 
ATOM     46  C   UNL A   1      38.368  30.028  29.152  1.00  0.00     0.031 C 
ATOM     47  C   UNL A   1      37.717  34.179  34.616  1.00  0.00     0.029 A 
ATOM     48  C   UNL A   1      38.806  33.210  34.680  1.00  0.00     0.049 A 
ATOM     49  H   UNL A   1      39.364  31.833  33.222  1.00  0.00     0.167 HD
ATOM     50  C   UNL A   1      40.305  28.857  30.159  1.00  0.00     0.037 A 
ATOM     51  C   UNL A   1      39.648  33.046  35.719  1.00  0.00     0.037 A 
ATOM     52  C   UNL A   1      41.303  28.669  31.177  1.00  0.00     0.049 A 
ATOM     53  C   UNL A   1      40.752  32.030  35.617  1.00  0.00     0.074 A 
ATOM     54  C   UNL A   1      42.360  27.775  31.198  1.00  0.00     0.029 A 
ATOM     55  N   UNL A   1      41.373  29.398  32.355  1.00  0.00    -0.354 N 
ATOM     56  N   UNL A   1      41.018  31.191  34.646  1.00  0.00    -0.248 NA
ATOM     57  C   UNL A   1      41.687  31.952  36.748  1.00  0.00     0.031 C 
ATOM     58  C   UNL A   1      43.054  27.946  32.402  1.00  0.00     0.029 A 
ATOM     59  C   UNL A   1      42.453  28.973  33.111  1.00  0.00     0.049 A 
ATOM     60  H   UNL A   1      40.747  30.112  32.615  1.00  0.00     0.167 HD
ATOM     61  C   UNL A   1      42.166  30.512  35.033  1.00  0.00     0.074 A 
ATOM     62  C   UNL A   1      42.555  31.047  36.320  1.00  0.00     0.031 C 
ATOM     63  C   UNL A   1      42.838  29.531  34.380  1.00  0.00     0.037 A 
BRANCH  50  64
ATOM     64  C   UNL A   1      40.334  27.954  28.961  1.00  0.00     0.064 A 
ATOM     65  C   UNL A   1      41.078  28.280  27.816  1.00  0.00     0.173 A 
ATOM     66  C   UNL A   1      39.641  26.735  28.968  1.00  0.00     0.173 A 
ATOM     67  F   UNL A   1      41.747  29.441  27.753  1.00  0.00    -0.203 F 
ATOM     68  C   UNL A   1      41.102  27.432  26.711  1.00  0.00     0.198 A 
ATOM     69  C   UNL A   1      39.691  25.876  27.873  1.00  0.00     0.198 A 
ATOM     70  F   UNL A   1      38.920  26.374  30.039  1.00  0.00    -0.203 F 
ATOM     71  F   UNL A   1      41.778  27.787  25.611  1.00  0.00    -0.200 F 
ATOM     72  C   UNL A   1      40.414  26.228  26.744  1.00  0.00     0.200 A 
ATOM     73  F   UNL A   1      39.035  24.708  27.910  1.00  0.00    -0.200 F 
ATOM     74  F   UNL A   1      40.444  25.410  25.682  1.00  0.00    -0.200 F 
ENDBRANCH  50  64
BRANCH  51  75
ATOM     75  C   UNL A   1      39.517  33.901  36.927  1.00  0.00     0.064 A 
ATOM     76  C   UNL A   1      38.798  33.458  38.046  1.00  0.00     0.173 A 
ATOM     77  C   UNL A   1      40.085  35.181  36.982  1.00  0.00     0.173 A 
ATOM     78  F   UNL A   1      38.219  32.248  38.033  1.00  0.00    -0.203 F 
ATOM     79  C   UNL A   1      38.628  34.273  39.163  1.00  0.00     0.198 A 
ATOM     80  C   UNL A   1      39.936  35.986  38.109  1.00  0.00     0.198 A 
ATOM     81  F   UNL A   1      40.787  35.650  35.940  1.00  0.00    -0.203 F 
ATOM     82  F   UNL A   1      37.891  33.844  40.197  1.00  0.00    -0.200 F 
ATOM     83  C   UNL A   1      39.200  35.535  39.195  1.00  0.00     0.200 A 
ATOM     84  F   UNL A   1      40.500  37.202  38.142  1.00  0.00    -0.200 F 
ATOM     85  F   UNL A   1      39.033  36.321  40.267  1.00  0.00    -0.200 F 
ENDBRANCH  51  75
BRANCH  63  86
ATOM     86  C   UNL A   1      44.086  29.009  35.026  1.00  0.00     0.064 A 
ATOM     87  C   UNL A   1      44.058  27.927  35.918  1.00  0.00     0.173 A 
ATOM     88  C   UNL A   1      45.330  29.588  34.731  1.00  0.00     0.173 A 
ATOM     89  F   UNL A   1      42.892  27.350  36.243  1.00  0.00    -0.203 F 
ATOM     90  C   UNL A   1      45.227  27.464  36.515  1.00  0.00     0.198 A 
ATOM     91  C   UNL A   1      46.500  29.104  35.309  1.00  0.00     0.198 A 
ATOM     92  F   UNL A   1      45.410  30.621  33.879  1.00  0.00    -0.203 F 
ATOM     93  F   UNL A   1      45.171  26.463  37.404  1.00  0.00    -0.200 F 
ATOM     94  C   UNL A   1      46.446  28.049  36.207  1.00  0.00     0.200 A 
ATOM     95  F   UNL A   1      47.678  29.662  35.002  1.00  0.00    -0.200 F 
ATOM     96  F   UNL A   1      47.570  27.601  36.783  1.00  0.00    -0.200 F 
ENDBRANCH  63  86
ENDBRANCH  37  38
ENDBRANCH  29  32
ENDBRANCH  27  28
ENDBRANCH  26  27
ENDBRANCH   1  26
TORSDOF 15
ENDMDL
MODEL 2
REMARK VINA RESULT:     -12.8      2.581      8.346
REMARK SMILES Cc1cc(C(=O)N[C@@H](Cc2ccccc2)C(=O)NCCCCNC(=O)c2ccc(-c3c4nc(c(-c5c(F)c(F)c(F)c(F)c5F)c5ccc([nH]5)c(-c5c(F)c(F)c(F)c(F)c5F)c5nc(c(-c6c(F)c(F)c(F)c(F)c6F)c6ccc3[nH]6)C=C5)C=C4)cc2)c(C)o1
REMARK SMILES IDX 20 1 19 2 18 3 16 4 17 5 8 7 7 8 5 9 6 10 4 12 1 13 2 14
REMARK SMILES IDX 3 15 91 16 89 17 90 18 9 19 10 20 11 21 15 22 12 23 14 24
REMARK SMILES IDX 13 25 21 26 22 27 23 28 24 29 25 31 26 32 27 33 88 34 28 35
REMARK SMILES IDX 87 36 29 37 30 38 31 39 81 40 32 41 86 42 80 43 82 44 33 45
REMARK SMILES IDX 85 46 79 47 78 48 34 50 66 51 46 52 65 53 47 54 50 55 64 56
REMARK SMILES IDX 83 57 48 58 49 59 63 61 84 62 51 63 35 64 36 65 44 66 37 67
REMARK SMILES IDX 38 68 42 69 45 70 39 71 40 72 43 73 41 74 67 75 68 76 76 77
REMARK SMILES IDX 69 78 70 79 74 80 77 81 71 82 72 83 75 84 73 85 52 86 53 87
REMARK SMILES IDX 61 88 54 89 55 90 59 91 62 92 56 93 57 94 60 95 58 96
REMARK H PARENT 18 6 7 11 23 30 82 49 50 60
REMARK Flexibility Score: inf
ROOT
ATOM      1  C   UNL A   1      33.022  26.701  24.868  1.00  0.00     0.023 C 
ENDROOT
BRANCH   1   2
ATOM      2  C   UNL A   1      34.006  25.541  24.810  1.00  0.00     0.116 C 
BRANCH   2   3
ATOM      3  N   UNL A   1      34.117  24.887  23.525  1.00  0.00    -0.354 N 
ATOM      4  C   UNL A   1      34.307  23.560  23.245  1.00  0.00     0.242 C 
ATOM      5  O   UNL A   1      33.969  23.173  22.120  1.00  0.00    -0.273 OA
ATOM      6  H   UNL A   1      34.048  25.478  22.741  1.00  0.00     0.163 HD
BRANCH   4   7
ATOM      7  C   UNL A   1      34.844  22.537  24.280  1.00  0.00     0.176 C 
BRANCH   7   8
ATOM      8  N   UNL A   1      33.906  21.441  24.508  1.00  0.00    -0.340 N 
ATOM      9  C   UNL A   1      32.608  21.384  24.945  1.00  0.00     0.255 C 
ATOM     10  O   UNL A   1      32.076  20.278  24.831  1.00  0.00    -0.269 OA
ATOM     11  H   UNL A   1      34.285  20.555  24.303  1.00  0.00     0.164 HD
BRANCH   9  12
ATOM     12  C   UNL A   1      31.917  22.508  25.572  1.00  0.00     0.081 A 
ATOM     13  C   UNL A   1      29.819  25.520  26.237  1.00  0.00     0.087 C 
ATOM     14  C   UNL A   1      30.679  24.327  26.118  1.00  0.00     0.101 A 
ATOM     15  C   UNL A   1      30.879  23.389  25.130  1.00  0.00     0.059 A 
ATOM     16  O   UNL A   1      31.454  24.038  27.189  1.00  0.00    -0.466 OA
ATOM     17  C   UNL A   1      32.179  22.930  26.877  1.00  0.00     0.113 A 
ATOM     18  C   UNL A   1      33.056  22.457  27.974  1.00  0.00     0.088 C 
ENDBRANCH   9  12
ENDBRANCH   7   8
BRANCH   7  19
ATOM     19  C   UNL A   1      36.316  22.106  24.095  1.00  0.00     0.070 C 
BRANCH  19  20
ATOM     20  C   UNL A   1      37.344  22.552  25.104  1.00  0.00    -0.045 A 
ATOM     21  C   UNL A   1      37.277  23.844  25.651  1.00  0.00     0.004 A 
ATOM     22  C   UNL A   1      38.375  21.696  25.517  1.00  0.00     0.004 A 
ATOM     23  C   UNL A   1      38.251  24.286  26.550  1.00  0.00     0.000 A 
ATOM     24  C   UNL A   1      39.360  22.150  26.397  1.00  0.00     0.000 A 
ATOM     25  C   UNL A   1      39.302  23.445  26.907  1.00  0.00     0.000 A 
ENDBRANCH  19  20
ENDBRANCH   7  19
ENDBRANCH   4   7
ENDBRANCH   2   3
ENDBRANCH   1   2
BRANCH   1  26
ATOM     26  C   UNL A   1      33.347  27.800  25.873  1.00  0.00     0.023 C 
BRANCH  26  27
ATOM     27  C   UNL A   1      33.738  29.160  25.299  1.00  0.00     0.116 C 
BRANCH  27  28
ATOM     28  N   UNL A   1      33.172  30.304  25.996  1.00  0.00    -0.352 N 
ATOM     29  C   UNL A   1      33.673  31.002  27.074  1.00  0.00     0.251 C 
ATOM     30  H   UNL A   1      32.308  30.625  25.651  1.00  0.00     0.163 HD
ATOM     31  O   UNL A   1      33.045  31.939  27.550  1.00  0.00    -0.269 OA
BRANCH  29  32
ATOM     32  C   UNL A   1      34.959  30.590  27.686  1.00  0.00     0.039 A 
ATOM     33  C   UNL A   1      35.995  31.524  27.769  1.00  0.00     0.014 A 
ATOM     34  C   UNL A   1      35.135  29.302  28.198  1.00  0.00     0.014 A 
ATOM     35  C   UNL A   1      37.178  31.190  28.435  1.00  0.00     0.010 A 
ATOM     36  C   UNL A   1      36.280  28.999  28.931  1.00  0.00     0.010 A 
ATOM     37  C   UNL A   1      37.315  29.937  29.056  1.00  0.00    -0.014 A 
BRANCH  37  38
ATOM     38  C   UNL A   1      38.536  29.593  29.829  1.00  0.00     0.031 A 
ATOM     39  C   UNL A   1      38.764  30.193  31.189  1.00  0.00     0.074 A 
ATOM     40  C   UNL A   1      39.474  28.794  29.282  1.00  0.00     0.049 A 
ATOM     41  N   UNL A   1      39.783  30.048  32.001  1.00  0.00    -0.248 NA
ATOM     42  C   UNL A   1      37.724  31.103  31.694  1.00  0.00     0.031 C 
ATOM     43  C   UNL A   1      39.412  28.210  27.940  1.00  0.00     0.029 A 
ATOM     44  N   UNL A   1      40.667  28.340  29.786  1.00  0.00    -0.354 N 
ATOM     45  C   UNL A   1      39.517  30.863  33.092  1.00  0.00     0.074 A 
ATOM     46  C   UNL A   1      38.267  31.541  32.820  1.00  0.00     0.031 C 
ATOM     47  C   UNL A   1      40.506  27.457  27.738  1.00  0.00     0.029 A 
ATOM     48  C   UNL A   1      41.354  27.519  28.924  1.00  0.00     0.049 A 
ATOM     49  H   UNL A   1      41.001  28.580  30.679  1.00  0.00     0.167 HD
ATOM     50  C   UNL A   1      40.233  31.014  34.231  1.00  0.00     0.037 A 
ATOM     51  C   UNL A   1      42.530  26.882  29.079  1.00  0.00     0.037 A 
ATOM     52  C   UNL A   1      41.451  30.307  34.523  1.00  0.00     0.049 A 
ATOM     53  C   UNL A   1      43.270  27.011  30.383  1.00  0.00     0.074 A 
ATOM     54  C   UNL A   1      42.217  30.341  35.675  1.00  0.00     0.029 A 
ATOM     55  N   UNL A   1      42.076  29.425  33.654  1.00  0.00    -0.354 N 
ATOM     56  N   UNL A   1      42.966  27.722  31.441  1.00  0.00    -0.248 NA
ATOM     57  C   UNL A   1      44.507  26.230  30.523  1.00  0.00     0.031 C 
ATOM     58  C   UNL A   1      43.320  29.500  35.494  1.00  0.00     0.029 A 
ATOM     59  C   UNL A   1      43.220  28.911  34.244  1.00  0.00     0.049 A 
ATOM     60  H   UNL A   1      41.755  29.198  32.752  1.00  0.00     0.167 HD
ATOM     61  C   UNL A   1      43.952  27.450  32.379  1.00  0.00     0.074 A 
ATOM     62  C   UNL A   1      44.855  26.497  31.773  1.00  0.00     0.031 C 
ATOM     63  C   UNL A   1      44.097  27.947  33.633  1.00  0.00     0.037 A 
BRANCH  50  64
ATOM     64  C   UNL A   1      39.706  31.972  35.258  1.00  0.00     0.064 A 
ATOM     65  C   UNL A   1      38.794  31.563  36.244  1.00  0.00     0.173 A 
ATOM     66  C   UNL A   1      40.141  33.306  35.281  1.00  0.00     0.173 A 
ATOM     67  F   UNL A   1      38.337  30.302  36.257  1.00  0.00    -0.203 F 
ATOM     68  C   UNL A   1      38.315  32.459  37.195  1.00  0.00     0.198 A 
ATOM     69  C   UNL A   1      39.681  34.192  36.251  1.00  0.00     0.198 A 
ATOM     70  F   UNL A   1      41.015  33.748  34.365  1.00  0.00    -0.203 F 
ATOM     71  F   UNL A   1      37.408  32.058  38.095  1.00  0.00    -0.200 F 
ATOM     72  C   UNL A   1      38.764  33.771  37.202  1.00  0.00     0.200 A 
ATOM     73  F   UNL A   1      40.124  35.458  36.264  1.00  0.00    -0.200 F 
ATOM     74  F   UNL A   1      38.307  34.632  38.122  1.00  0.00    -0.200 F 
ENDBRANCH  50  64
BRANCH  51  75
ATOM     75  C   UNL A   1      43.060  26.019  27.992  1.00  0.00     0.064 A 
ATOM     76  C   UNL A   1      43.891  26.549  26.994  1.00  0.00     0.173 A 
ATOM     77  C   UNL A   1      42.733  24.659  27.914  1.00  0.00     0.173 A 
ATOM     78  F   UNL A   1      44.215  27.851  27.016  1.00  0.00    -0.203 F 
ATOM     79  C   UNL A   1      44.351  25.759  25.944  1.00  0.00     0.198 A 
ATOM     80  C   UNL A   1      43.214  23.862  26.876  1.00  0.00     0.198 A 
ATOM     81  F   UNL A   1      41.947  24.102  28.847  1.00  0.00    -0.203 F 
ATOM     82  F   UNL A   1      45.100  26.304  24.975  1.00  0.00    -0.200 F 
ATOM     83  C   UNL A   1      44.014  24.415  25.888  1.00  0.00     0.200 A 
ATOM     84  F   UNL A   1      42.898  22.561  26.831  1.00  0.00    -0.200 F 
ATOM     85  F   UNL A   1      44.454  23.655  24.875  1.00  0.00    -0.200 F 
ENDBRANCH  51  75
BRANCH  63  86
ATOM     86  C   UNL A   1      45.246  27.432  34.445  1.00  0.00     0.064 A 
ATOM     87  C   UNL A   1      46.499  28.061  34.432  1.00  0.00     0.173 A 
ATOM     88  C   UNL A   1      45.085  26.304  35.264  1.00  0.00     0.173 A 
ATOM     89  F   UNL A   1      46.708  29.134  33.654  1.00  0.00    -0.203 F 
ATOM     90  C   UNL A   1      47.557  27.561  35.186  1.00  0.00     0.198 A 
ATOM     91  C   UNL A   1      46.136  25.823  36.038  1.00  0.00     0.198 A 
ATOM     92  F   UNL A   1      43.903  25.670  35.317  1.00  0.00    -0.203 F 
ATOM     93  F   UNL A   1      48.761  28.148  35.119  1.00  0.00    -0.200 F 
ATOM     94  C   UNL A   1      47.374  26.447  35.991  1.00  0.00     0.200 A 
ATOM     95  F   UNL A   1      45.956  24.754  36.824  1.00  0.00    -0.200 F 
ATOM     96  F   UNL A   1      48.395  25.968  36.716  1.00  0.00    -0.200 F 
ENDBRANCH  63  86
ENDBRANCH  37  38
ENDBRANCH  29  32
ENDBRANCH  27  28
ENDBRANCH  26  27
ENDBRANCH   1  26
TORSDOF 15
ENDMDL
MODEL 3
REMARK VINA RESULT:     -12.8      5.639     10.960
REMARK SMILES Cc1cc(C(=O)N[C@@H](Cc2ccccc2)C(=O)NCCCCNC(=O)c2ccc(-c3c4nc(c(-c5c(F)c(F)c(F)c(F)c5F)c5ccc([nH]5)c(-c5c(F)c(F)c(F)c(F)c5F)c5nc(c(-c6c(F)c(F)c(F)c(F)c6F)c6ccc3[nH]6)C=C5)C=C4)cc2)c(C)o1
REMARK SMILES IDX 20 1 19 2 18 3 16 4 17 5 8 7 7 8 5 9 6 10 4 12 1 13 2 14
REMARK SMILES IDX 3 15 91 16 89 17 90 18 9 19 10 20 11 21 15 22 12 23 14 24
REMARK SMILES IDX 13 25 21 26 22 27 23 28 24 29 25 31 26 32 27 33 88 34 28 35
REMARK SMILES IDX 87 36 29 37 30 38 31 39 81 40 32 41 86 42 80 43 82 44 33 45
REMARK SMILES IDX 85 46 79 47 78 48 34 50 66 51 46 52 65 53 47 54 50 55 64 56
REMARK SMILES IDX 83 57 48 58 49 59 63 61 84 62 51 63 35 64 36 65 44 66 37 67
REMARK SMILES IDX 38 68 42 69 45 70 39 71 40 72 43 73 41 74 67 75 68 76 76 77
REMARK SMILES IDX 69 78 70 79 74 80 77 81 71 82 72 83 75 84 73 85 52 86 53 87
REMARK SMILES IDX 61 88 54 89 55 90 59 91 62 92 56 93 57 94 60 95 58 96
REMARK H PARENT 18 6 7 11 23 30 82 49 50 60
REMARK Flexibility Score: inf
ROOT
ATOM      1  C   UNL A   1      37.027  21.015  24.685  1.00  0.00     0.023 C 
ENDROOT
BRANCH   1   2
ATOM      2  C   UNL A   1      36.156  21.491  25.838  1.00  0.00     0.116 C 
BRANCH   2   3
ATOM      3  N   UNL A   1      34.996  20.672  26.117  1.00  0.00    -0.354 N 
ATOM      4  C   UNL A   1      33.701  20.842  25.705  1.00  0.00     0.242 C 
ATOM      5  O   UNL A   1      32.977  19.840  25.710  1.00  0.00    -0.273 OA
ATOM      6  H   UNL A   1      35.159  19.883  26.681  1.00  0.00     0.163 HD
BRANCH   4   7
ATOM      7  C   UNL A   1      33.143  22.189  25.175  1.00  0.00     0.176 C 
BRANCH   7   8
ATOM      8  N   UNL A   1      33.791  22.602  23.932  1.00  0.00    -0.340 N 
ATOM      9  C   UNL A   1      34.308  23.791  23.488  1.00  0.00     0.255 C 
ATOM     10  O   UNL A   1      34.951  23.710  22.439  1.00  0.00    -0.269 OA
ATOM     11  H   UNL A   1      33.874  21.873  23.276  1.00  0.00     0.164 HD
BRANCH   9  12
ATOM     12  C   UNL A   1      34.065  25.074  24.142  1.00  0.00     0.081 A 
ATOM     13  C   UNL A   1      33.615  27.808  26.640  1.00  0.00     0.087 C 
ATOM     14  C   UNL A   1      33.769  26.827  25.548  1.00  0.00     0.101 A 
ATOM     15  C   UNL A   1      34.263  25.544  25.479  1.00  0.00     0.059 A 
ATOM     16  O   UNL A   1      33.361  27.229  24.321  1.00  0.00    -0.466 OA
ATOM     17  C   UNL A   1      33.563  26.188  23.467  1.00  0.00     0.113 A 
ATOM     18  C   UNL A   1      33.201  26.486  22.061  1.00  0.00     0.088 C 
ENDBRANCH   9  12
ENDBRANCH   7   8
BRANCH   7  19
ATOM     19  C   UNL A   1      31.604  22.327  25.183  1.00  0.00     0.070 C 
BRANCH  19  20
ATOM     20  C   UNL A   1      30.988  23.686  24.968  1.00  0.00    -0.045 A 
ATOM     21  C   UNL A   1      30.813  24.558  26.054  1.00  0.00     0.004 A 
ATOM     22  C   UNL A   1      30.583  24.105  23.692  1.00  0.00     0.004 A 
ATOM     23  C   UNL A   1      30.199  25.800  25.876  1.00  0.00     0.000 A 
ATOM     24  C   UNL A   1      29.947  25.337  23.523  1.00  0.00     0.000 A 
ATOM     25  C   UNL A   1      29.749  26.180  24.615  1.00  0.00     0.000 A 
ENDBRANCH  19  20
ENDBRANCH   7  19
ENDBRANCH   4   7
ENDBRANCH   2   3
ENDBRANCH   1   2
BRANCH   1  26
ATOM     26  C   UNL A   1      37.957  19.846  24.992  1.00  0.00     0.023 C 
BRANCH  26  27
ATOM     27  C   UNL A   1      39.213  20.165  25.799  1.00  0.00     0.116 C 
BRANCH  27  28
ATOM     28  N   UNL A   1      40.210  19.105  25.825  1.00  0.00    -0.352 N 
ATOM     29  C   UNL A   1      41.557  19.185  26.101  1.00  0.00     0.251 C 
ATOM     30  H   UNL A   1      39.874  18.205  25.614  1.00  0.00     0.163 HD
ATOM     31  O   UNL A   1      42.257  18.181  26.057  1.00  0.00    -0.269 OA
BRANCH  29  32
ATOM     32  C   UNL A   1      42.170  20.498  26.412  1.00  0.00     0.039 A 
ATOM     33  C   UNL A   1      42.671  21.273  25.362  1.00  0.00     0.014 A 
ATOM     34  C   UNL A   1      42.231  20.974  27.724  1.00  0.00     0.014 A 
ATOM     35  C   UNL A   1      43.158  22.558  25.620  1.00  0.00     0.010 A 
ATOM     36  C   UNL A   1      42.640  22.283  27.968  1.00  0.00     0.010 A 
ATOM     37  C   UNL A   1      43.111  23.089  26.920  1.00  0.00    -0.014 A 
BRANCH  37  38
ATOM     38  C   UNL A   1      43.557  24.478  27.199  1.00  0.00     0.031 A 
ATOM     39  C   UNL A   1      42.580  25.497  27.715  1.00  0.00     0.074 A 
ATOM     40  C   UNL A   1      44.826  24.843  26.924  1.00  0.00     0.049 A 
ATOM     41  N   UNL A   1      42.766  26.767  27.981  1.00  0.00    -0.248 NA
ATOM     42  C   UNL A   1      41.198  25.039  27.933  1.00  0.00     0.031 C 
ATOM     43  C   UNL A   1      45.853  23.972  26.348  1.00  0.00     0.029 A 
ATOM     44  N   UNL A   1      45.466  26.046  27.088  1.00  0.00    -0.354 N 
ATOM     45  C   UNL A   1      41.528  27.259  28.370  1.00  0.00     0.074 A 
ATOM     46  C   UNL A   1      40.585  26.167  28.258  1.00  0.00     0.031 C 
ATOM     47  C   UNL A   1      46.998  24.663  26.229  1.00  0.00     0.029 A 
ATOM     48  C   UNL A   1      46.784  26.026  26.702  1.00  0.00     0.049 A 
ATOM     49  H   UNL A   1      45.023  26.847  27.448  1.00  0.00     0.167 HD
ATOM     50  C   UNL A   1      41.209  28.499  28.808  1.00  0.00     0.037 A 
ATOM     51  C   UNL A   1      47.716  26.999  26.735  1.00  0.00     0.037 A 
ATOM     52  C   UNL A   1      42.154  29.573  28.964  1.00  0.00     0.049 A 
ATOM     53  C   UNL A   1      47.352  28.347  27.293  1.00  0.00     0.074 A 
ATOM     54  C   UNL A   1      41.943  30.847  29.461  1.00  0.00     0.029 A 
ATOM     55  N   UNL A   1      43.498  29.491  28.631  1.00  0.00    -0.354 N 
ATOM     56  N   UNL A   1      46.196  28.776  27.735  1.00  0.00    -0.248 NA
ATOM     57  C   UNL A   1      48.431  29.342  27.378  1.00  0.00     0.031 C 
ATOM     58  C   UNL A   1      43.154  31.546  29.406  1.00  0.00     0.029 A 
ATOM     59  C   UNL A   1      44.128  30.694  28.911  1.00  0.00     0.049 A 
ATOM     60  H   UNL A   1      43.939  28.697  28.253  1.00  0.00     0.167 HD
ATOM     61  C   UNL A   1      46.413  30.073  28.179  1.00  0.00     0.074 A 
ATOM     62  C   UNL A   1      47.817  30.357  27.967  1.00  0.00     0.031 C 
ATOM     63  C   UNL A   1      45.530  30.952  28.713  1.00  0.00     0.037 A 
BRANCH  50  64
ATOM     64  C   UNL A   1      39.776  28.759  29.168  1.00  0.00     0.064 A 
ATOM     65  C   UNL A   1      39.298  28.551  30.472  1.00  0.00     0.173 A 
ATOM     66  C   UNL A   1      38.877  29.253  28.211  1.00  0.00     0.173 A 
ATOM     67  F   UNL A   1      40.114  28.067  31.420  1.00  0.00    -0.203 F 
ATOM     68  C   UNL A   1      37.967  28.800  30.796  1.00  0.00     0.198 A 
ATOM     69  C   UNL A   1      37.554  29.527  28.546  1.00  0.00     0.198 A 
ATOM     70  F   UNL A   1      39.283  29.473  26.952  1.00  0.00    -0.203 F 
ATOM     71  F   UNL A   1      37.523  28.547  32.034  1.00  0.00    -0.200 F 
ATOM     72  C   UNL A   1      37.098  29.294  29.835  1.00  0.00     0.200 A 
ATOM     73  F   UNL A   1      36.717  30.015  27.619  1.00  0.00    -0.200 F 
ATOM     74  F   UNL A   1      35.819  29.539  30.150  1.00  0.00    -0.200 F 
ENDBRANCH  50  64
BRANCH  51  75
ATOM     75  C   UNL A   1      49.101  26.720  26.275  1.00  0.00     0.064 A 
ATOM     76  C   UNL A   1      49.478  26.959  24.946  1.00  0.00     0.173 A 
ATOM     77  C   UNL A   1      50.067  26.192  27.142  1.00  0.00     0.173 A 
ATOM     78  F   UNL A   1      48.583  27.446  24.074  1.00  0.00    -0.203 F 
ATOM     79  C   UNL A   1      50.760  26.654  24.494  1.00  0.00     0.198 A 
ATOM     80  C   UNL A   1      51.357  25.910  26.696  1.00  0.00     0.198 A 
ATOM     81  F   UNL A   1      49.759  25.951  28.425  1.00  0.00    -0.203 F 
ATOM     82  F   UNL A   1      51.077  26.843  23.205  1.00  0.00    -0.200 F 
ATOM     83  C   UNL A   1      51.699  26.132  25.370  1.00  0.00     0.200 A 
ATOM     84  F   UNL A   1      52.267  25.417  27.548  1.00  0.00    -0.200 F 
ATOM     85  F   UNL A   1      52.931  25.835  24.935  1.00  0.00    -0.200 F 
ENDBRANCH  51  75
BRANCH  63  86
ATOM     86  C   UNL A   1      46.065  32.283  29.149  1.00  0.00     0.064 A 
ATOM     87  C   UNL A   1      46.084  33.388  28.286  1.00  0.00     0.173 A 
ATOM     88  C   UNL A   1      46.547  32.459  30.455  1.00  0.00     0.173 A 
ATOM     89  F   UNL A   1      45.648  33.267  27.023  1.00  0.00    -0.203 F 
ATOM     90  C   UNL A   1      46.595  34.613  28.706  1.00  0.00     0.198 A 
ATOM     91  C   UNL A   1      47.031  33.692  30.880  1.00  0.00     0.198 A 
ATOM     92  F   UNL A   1      46.543  31.434  31.321  1.00  0.00    -0.203 F 
ATOM     93  F   UNL A   1      46.651  35.642  27.849  1.00  0.00    -0.200 F 
ATOM     94  C   UNL A   1      47.063  34.765  30.003  1.00  0.00     0.200 A 
ATOM     95  F   UNL A   1      47.472  33.841  32.136  1.00  0.00    -0.200 F 
ATOM     96  F   UNL A   1      47.554  35.946  30.405  1.00  0.00    -0.200 F 
ENDBRANCH  63  86
ENDBRANCH  37  38
ENDBRANCH  29  32
ENDBRANCH  27  28
ENDBRANCH  26  27
ENDBRANCH   1  26
TORSDOF 15
ENDMDL
