MODEL 1
REMARK VINA RESULT:     -12.9      0.000      0.000
REMARK SMILES CCCC(=O)Nc1cccc(C(=O)N[C@@H](C(=O)NCCCCNC(=O)c2ccc(-c3c4nc(c(-c5c(F)c(F)c(F)c(F)c5F)c5ccc([nH]5)c(-c5c(F)c(F)c(F)c(F)c5F)c5nc(c(-c6c(F)c(F)c(F)c(F)c6F)c6ccc3[nH]6)C=C5)C=C4)cc2)C2=C(C)N=N[C@@H]2C)c1
REMARK SMILES IDX 19 1 18 2 16 3 17 4 15 6 14 7 12 8 13 9 11 11 7 12 8 13
REMARK SMILES IDX 96 14 9 15 10 16 6 17 4 18 5 19 3 21 2 22 1 23 89 24 90 25
REMARK SMILES IDX 94 26 91 27 92 28 93 29 95 30 20 31 21 32 22 33 23 34 24 35
REMARK SMILES IDX 25 37 26 38 27 39 88 40 28 41 87 42 29 43 30 44 31 45 81 46
REMARK SMILES IDX 32 47 86 48 80 49 82 50 33 51 85 52 79 53 78 54 34 56 66 57
REMARK SMILES IDX 46 58 65 59 47 60 50 61 64 62 83 63 48 64 49 65 63 67 84 68
REMARK SMILES IDX 51 69 35 70 36 71 44 72 37 73 38 74 42 75 45 76 39 77 40 78
REMARK SMILES IDX 43 79 41 80 67 81 68 82 76 83 69 84 70 85 74 86 77 87 71 88
REMARK SMILES IDX 72 89 75 90 73 91 52 92 53 93 61 94 54 95 55 96 59 97 62 98
REMARK SMILES IDX 56 99 57 100 60 101 58 102
REMARK H PARENT 18 5 14 10 6 20 23 36 82 55 50 66
REMARK Flexibility Score: inf
ROOT
ATOM      1  C   UNL A   1      36.455  21.250  25.606  1.00  0.00     0.116 C 
ENDROOT
BRANCH   1   2
ATOM      2  N   UNL A   1      35.398  20.291  25.412  1.00  0.00    -0.354 N 
ATOM      3  C   UNL A   1      34.049  20.481  25.342  1.00  0.00     0.247 C 
ATOM      4  O   UNL A   1      33.393  19.488  25.012  1.00  0.00    -0.272 OA
ATOM      5  H   UNL A   1      35.694  19.358  25.315  1.00  0.00     0.163 HD
BRANCH   3   6
ATOM      6  C   UNL A   1      33.407  21.906  25.485  1.00  0.00     0.202 C 
BRANCH   6   7
ATOM      7  N   UNL A   1      31.970  21.910  25.790  1.00  0.00    -0.337 N 
ATOM      8  C   UNL A   1      30.956  22.820  25.970  1.00  0.00     0.252 C 
ATOM      9  O   UNL A   1      29.891  22.338  26.368  1.00  0.00    -0.269 OA
ATOM     10  H   UNL A   1      31.635  20.991  25.896  1.00  0.00     0.165 HD
BRANCH   8  11
ATOM     11  C   UNL A   1      30.999  24.306  25.749  1.00  0.00     0.041 A 
ATOM     12  C   UNL A   1      30.505  26.381  24.569  1.00  0.00     0.041 A 
ATOM     13  C   UNL A   1      31.172  27.134  25.523  1.00  0.00     0.026 A 
ATOM     14  C   UNL A   1      30.468  24.983  24.654  1.00  0.00     0.040 A 
ATOM     15  C   UNL A   1      31.725  26.483  26.621  1.00  0.00     0.003 A 
ATOM     16  C   UNL A   1      31.632  25.088  26.734  1.00  0.00     0.014 A 
BRANCH  12  17
ATOM     17  N   UNL A   1      29.894  27.009  23.479  1.00  0.00    -0.326 N 
ATOM     18  C   UNL A   1      30.578  27.614  22.451  1.00  0.00     0.224 C 
ATOM     19  O   UNL A   1      30.137  28.632  21.922  1.00  0.00    -0.275 OA
ATOM     20  H   UNL A   1      28.911  27.019  23.445  1.00  0.00     0.169 HD
BRANCH  18  21
ATOM     21  C   UNL A   1      31.826  26.905  21.931  1.00  0.00     0.100 C 
BRANCH  21  22
ATOM     22  C   UNL A   1      33.150  27.465  22.432  1.00  0.00     0.006 C 
ATOM     23  C   UNL A   1      33.080  28.910  22.924  1.00  0.00     0.004 C 
ENDBRANCH  21  22
ENDBRANCH  18  21
ENDBRANCH  12  17
ENDBRANCH   8  11
ENDBRANCH   6   7
BRANCH   6  24
ATOM     24  C   UNL A   1      33.666  22.673  24.220  1.00  0.00     0.011 C 
ATOM     25  C   UNL A   1      34.140  23.901  23.971  1.00  0.00     0.064 C 
ATOM     26  C   UNL A   1      33.228  22.168  22.881  1.00  0.00     0.156 C 
ATOM     27  C   UNL A   1      34.619  24.944  24.918  1.00  0.00     0.069 C 
ATOM     28  N   UNL A   1      34.078  24.232  22.639  1.00  0.00    -0.160 NA
ATOM     29  N   UNL A   1      33.543  23.303  21.978  1.00  0.00    -0.181 NA
ATOM     30  C   UNL A   1      31.750  21.820  22.754  1.00  0.00     0.040 C 
ENDBRANCH   6  24
ENDBRANCH   3   6
ENDBRANCH   1   2
BRANCH   1  31
ATOM     31  C   UNL A   1      37.626  21.008  24.663  1.00  0.00     0.023 C 
BRANCH  31  32
ATOM     32  C   UNL A   1      38.428  19.753  25.003  1.00  0.00     0.023 C 
BRANCH  32  33
ATOM     33  C   UNL A   1      39.609  19.990  25.935  1.00  0.00     0.116 C 
BRANCH  33  34
ATOM     34  N   UNL A   1      40.580  18.906  25.929  1.00  0.00    -0.352 N 
ATOM     35  C   UNL A   1      41.946  19.005  26.089  1.00  0.00     0.251 C 
ATOM     36  H   UNL A   1      40.222  17.999  25.796  1.00  0.00     0.163 HD
ATOM     37  O   UNL A   1      42.674  18.036  25.961  1.00  0.00    -0.269 OA
BRANCH  35  38
ATOM     38  C   UNL A   1      42.510  20.339  26.375  1.00  0.00     0.039 A 
ATOM     39  C   UNL A   1      42.959  21.125  25.314  1.00  0.00     0.014 A 
ATOM     40  C   UNL A   1      42.487  20.840  27.680  1.00  0.00     0.014 A 
ATOM     41  C   UNL A   1      43.327  22.449  25.554  1.00  0.00     0.010 A 
ATOM     42  C   UNL A   1      42.778  22.179  27.902  1.00  0.00     0.010 A 
ATOM     43  C   UNL A   1      43.201  22.997  26.842  1.00  0.00    -0.014 A 
BRANCH  43  44
ATOM     44  C   UNL A   1      43.511  24.424  27.104  1.00  0.00     0.031 A 
ATOM     45  C   UNL A   1      44.899  24.945  26.859  1.00  0.00     0.074 A 
ATOM     46  C   UNL A   1      42.564  25.231  27.622  1.00  0.00     0.049 A 
ATOM     47  N   UNL A   1      45.388  26.138  27.082  1.00  0.00    -0.248 NA
ATOM     48  C   UNL A   1      45.878  23.987  26.321  1.00  0.00     0.031 C 
ATOM     49  C   UNL A   1      41.196  24.831  27.952  1.00  0.00     0.029 A 
ATOM     50  N   UNL A   1      42.613  26.559  27.970  1.00  0.00    -0.354 N 
ATOM     51  C   UNL A   1      46.728  26.067  26.731  1.00  0.00     0.074 A 
ATOM     52  C   UNL A   1      46.993  24.702  26.333  1.00  0.00     0.031 C 
ATOM     53  C   UNL A   1      40.528  25.894  28.426  1.00  0.00     0.029 A 
ATOM     54  C   UNL A   1      41.428  27.041  28.471  1.00  0.00     0.049 A 
ATOM     55  H   UNL A   1      43.421  27.112  27.872  1.00  0.00     0.167 HD
ATOM     56  C   UNL A   1      47.651  27.059  26.716  1.00  0.00     0.037 A 
ATOM     57  C   UNL A   1      41.109  28.271  28.916  1.00  0.00     0.037 A 
ATOM     58  C   UNL A   1      47.374  28.423  27.079  1.00  0.00     0.049 A 
ATOM     59  C   UNL A   1      42.155  29.354  28.891  1.00  0.00     0.074 A 
ATOM     60  C   UNL A   1      48.219  29.517  27.026  1.00  0.00     0.029 A 
ATOM     61  N   UNL A   1      46.157  28.879  27.567  1.00  0.00    -0.354 N 
ATOM     62  N   UNL A   1      43.398  29.296  28.478  1.00  0.00    -0.248 NA
ATOM     63  C   UNL A   1      41.750  30.676  29.389  1.00  0.00     0.031 C 
ATOM     64  C   UNL A   1      47.530  30.625  27.528  1.00  0.00     0.029 A 
ATOM     65  C   UNL A   1      46.238  30.234  27.842  1.00  0.00     0.049 A 
ATOM     66  H   UNL A   1      45.356  28.321  27.696  1.00  0.00     0.167 HD
ATOM     67  C   UNL A   1      43.912  30.577  28.634  1.00  0.00     0.074 A 
ATOM     68  C   UNL A   1      42.843  31.394  29.167  1.00  0.00     0.031 C 
ATOM     69  C   UNL A   1      45.159  31.035  28.359  1.00  0.00     0.037 A 
BRANCH  56  70
ATOM     70  C   UNL A   1      49.046  26.705  26.290  1.00  0.00     0.064 A 
ATOM     71  C   UNL A   1      49.476  26.871  24.965  1.00  0.00     0.173 A 
ATOM     72  C   UNL A   1      49.976  26.230  27.226  1.00  0.00     0.173 A 
ATOM     73  F   UNL A   1      48.622  27.308  24.027  1.00  0.00    -0.203 F 
ATOM     74  C   UNL A   1      50.777  26.548  24.588  1.00  0.00     0.198 A 
ATOM     75  C   UNL A   1      51.285  25.939  26.852  1.00  0.00     0.198 A 
ATOM     76  F   UNL A   1      49.618  26.057  28.508  1.00  0.00    -0.203 F 
ATOM     77  F   UNL A   1      51.150  26.667  23.306  1.00  0.00    -0.200 F 
ATOM     78  C   UNL A   1      51.683  26.091  25.532  1.00  0.00     0.200 A 
ATOM     79  F   UNL A   1      52.163  25.510  27.769  1.00  0.00    -0.200 F 
ATOM     80  F   UNL A   1      52.937  25.790  25.170  1.00  0.00    -0.200 F 
ENDBRANCH  56  70
BRANCH  57  81
ATOM     81  C   UNL A   1      39.732  28.559  29.398  1.00  0.00     0.064 A 
ATOM     82  C   UNL A   1      38.761  29.078  28.528  1.00  0.00     0.173 A 
ATOM     83  C   UNL A   1      39.361  28.343  30.733  1.00  0.00     0.173 A 
ATOM     84  F   UNL A   1      39.074  29.322  27.247  1.00  0.00    -0.203 F 
ATOM     85  C   UNL A   1      37.482  29.394  28.981  1.00  0.00     0.198 A 
ATOM     86  C   UNL A   1      38.073  28.632  31.178  1.00  0.00     0.198 A 
ATOM     87  F   UNL A   1      40.250  27.844  31.605  1.00  0.00    -0.203 F 
ATOM     88  F   UNL A   1      36.591  29.937  28.141  1.00  0.00    -0.200 F 
ATOM     89  C   UNL A   1      37.137  29.166  30.304  1.00  0.00     0.200 A 
ATOM     90  F   UNL A   1      37.738  28.397  32.455  1.00  0.00    -0.200 F 
ATOM     91  F   UNL A   1      35.907  29.470  30.740  1.00  0.00    -0.200 F 
ENDBRANCH  57  81
BRANCH  69  92
ATOM     92  C   UNL A   1      45.422  32.494  28.590  1.00  0.00     0.064 A 
ATOM     93  C   UNL A   1      45.962  32.967  29.794  1.00  0.00     0.173 A 
ATOM     94  C   UNL A   1      45.171  33.427  27.571  1.00  0.00     0.173 A 
ATOM     95  F   UNL A   1      46.205  32.117  30.804  1.00  0.00    -0.203 F 
ATOM     96  C   UNL A   1      46.215  34.324  29.982  1.00  0.00     0.198 A 
ATOM     97  C   UNL A   1      45.456  34.778  27.751  1.00  0.00     0.198 A 
ATOM     98  F   UNL A   1      44.662  33.027  26.396  1.00  0.00    -0.203 F 
ATOM     99  F   UNL A   1      46.683  34.758  31.159  1.00  0.00    -0.200 F 
ATOM    100  C   UNL A   1      45.970  35.226  28.958  1.00  0.00     0.200 A 
ATOM    101  F   UNL A   1      45.233  35.646  26.754  1.00  0.00    -0.200 F 
ATOM    102  F   UNL A   1      46.224  36.529  29.137  1.00  0.00    -0.200 F 
ENDBRANCH  69  92
ENDBRANCH  43  44
ENDBRANCH  35  38
ENDBRANCH  33  34
ENDBRANCH  32  33
ENDBRANCH  31  32
ENDBRANCH   1  31
TORSDOF 17
ENDMDL
MODEL 2
REMARK VINA RESULT:     -12.5      1.031      7.155
REMARK SMILES CCCC(=O)Nc1cccc(C(=O)N[C@@H](C(=O)NCCCCNC(=O)c2ccc(-c3c4nc(c(-c5c(F)c(F)c(F)c(F)c5F)c5ccc([nH]5)c(-c5c(F)c(F)c(F)c(F)c5F)c5nc(c(-c6c(F)c(F)c(F)c(F)c6F)c6ccc3[nH]6)C=C5)C=C4)cc2)C2=C(C)N=N[C@@H]2C)c1
REMARK SMILES IDX 19 1 18 2 16 3 17 4 15 6 14 7 12 8 13 9 11 11 7 12 8 13
REMARK SMILES IDX 96 14 9 15 10 16 6 17 4 18 5 19 3 21 2 22 1 23 89 24 90 25
REMARK SMILES IDX 94 26 91 27 92 28 93 29 95 30 20 31 21 32 22 33 23 34 24 35
REMARK SMILES IDX 25 37 26 38 27 39 88 40 28 41 87 42 29 43 30 44 31 45 81 46
REMARK SMILES IDX 32 47 86 48 80 49 82 50 33 51 85 52 79 53 78 54 34 56 66 57
REMARK SMILES IDX 46 58 65 59 47 60 50 61 64 62 83 63 48 64 49 65 63 67 84 68
REMARK SMILES IDX 51 69 35 70 36 71 44 72 37 73 38 74 42 75 45 76 39 77 40 78
REMARK SMILES IDX 43 79 41 80 67 81 68 82 76 83 69 84 70 85 74 86 77 87 71 88
REMARK SMILES IDX 72 89 75 90 73 91 52 92 53 93 61 94 54 95 55 96 59 97 62 98
REMARK SMILES IDX 56 99 57 100 60 101 58 102
REMARK H PARENT 18 5 14 10 6 20 23 36 82 55 50 66
REMARK Flexibility Score: inf
ROOT
ATOM      1  C   UNL A   1      36.496  21.745  25.770  1.00  0.00     0.116 C 
ENDROOT
BRANCH   1   2
ATOM      2  N   UNL A   1      35.521  20.702  25.577  1.00  0.00    -0.354 N 
ATOM      3  C   UNL A   1      34.170  20.790  25.415  1.00  0.00     0.247 C 
ATOM      4  O   UNL A   1      33.605  19.733  25.112  1.00  0.00    -0.272 OA
ATOM      5  H   UNL A   1      35.886  19.788  25.560  1.00  0.00     0.163 HD
BRANCH   3   6
ATOM      6  C   UNL A   1      33.425  22.171  25.423  1.00  0.00     0.202 C 
BRANCH   6   7
ATOM      7  N   UNL A   1      31.997  22.102  25.761  1.00  0.00    -0.337 N 
ATOM      8  C   UNL A   1      30.915  22.945  25.846  1.00  0.00     0.252 C 
ATOM      9  O   UNL A   1      29.898  22.437  26.329  1.00  0.00    -0.269 OA
ATOM     10  H   UNL A   1      31.739  21.182  25.995  1.00  0.00     0.165 HD
BRANCH   8  11
ATOM     11  C   UNL A   1      30.833  24.387  25.431  1.00  0.00     0.041 A 
ATOM     12  C   UNL A   1      31.100  26.792  25.727  1.00  0.00     0.041 A 
ATOM     13  C   UNL A   1      30.623  27.047  24.451  1.00  0.00     0.026 A 
ATOM     14  C   UNL A   1      31.152  25.484  26.227  1.00  0.00     0.040 A 
ATOM     15  C   UNL A   1      30.281  25.970  23.638  1.00  0.00     0.003 A 
ATOM     16  C   UNL A   1      30.393  24.658  24.120  1.00  0.00     0.014 A 
BRANCH  12  17
ATOM     17  N   UNL A   1      31.498  27.848  26.552  1.00  0.00    -0.326 N 
ATOM     18  C   UNL A   1      32.804  28.232  26.743  1.00  0.00     0.224 C 
ATOM     19  O   UNL A   1      33.181  28.639  27.840  1.00  0.00    -0.275 OA
ATOM     20  H   UNL A   1      30.798  28.349  27.029  1.00  0.00     0.169 HD
BRANCH  18  21
ATOM     21  C   UNL A   1      33.714  28.241  25.518  1.00  0.00     0.100 C 
BRANCH  21  22
ATOM     22  C   UNL A   1      33.406  29.315  24.484  1.00  0.00     0.006 C 
ATOM     23  C   UNL A   1      33.506  28.845  23.033  1.00  0.00     0.004 C 
ENDBRANCH  21  22
ENDBRANCH  18  21
ENDBRANCH  12  17
ENDBRANCH   8  11
ENDBRANCH   6   7
BRANCH   6  24
ATOM     24  C   UNL A   1      33.605  22.816  24.080  1.00  0.00     0.011 C 
ATOM     25  C   UNL A   1      33.949  24.052  23.694  1.00  0.00     0.064 C 
ATOM     26  C   UNL A   1      33.223  22.125  22.808  1.00  0.00     0.156 C 
ATOM     27  C   UNL A   1      34.315  25.237  24.516  1.00  0.00     0.069 C 
ATOM     28  N   UNL A   1      33.854  24.226  22.334  1.00  0.00    -0.160 NA
ATOM     29  N   UNL A   1      33.420  23.181  21.783  1.00  0.00    -0.181 NA
ATOM     30  C   UNL A   1      31.790  21.614  22.735  1.00  0.00     0.040 C 
ENDBRANCH   6  24
ENDBRANCH   3   6
ENDBRANCH   1   2
BRANCH   1  31
ATOM     31  C   UNL A   1      37.705  21.571  24.859  1.00  0.00     0.023 C 
BRANCH  31  32
ATOM     32  C   UNL A   1      38.434  20.245  25.068  1.00  0.00     0.023 C 
BRANCH  32  33
ATOM     33  C   UNL A   1      39.586  20.305  26.062  1.00  0.00     0.116 C 
BRANCH  33  34
ATOM     34  N   UNL A   1      40.468  19.149  26.000  1.00  0.00    -0.352 N 
ATOM     35  C   UNL A   1      41.842  19.138  26.112  1.00  0.00     0.251 C 
ATOM     36  H   UNL A   1      40.035  18.276  25.864  1.00  0.00     0.163 HD
ATOM     37  O   UNL A   1      42.487  18.118  25.940  1.00  0.00    -0.269 OA
BRANCH  35  38
ATOM     38  C   UNL A   1      42.519  20.417  26.404  1.00  0.00     0.039 A 
ATOM     39  C   UNL A   1      43.088  21.135  25.353  1.00  0.00     0.014 A 
ATOM     40  C   UNL A   1      42.487  20.943  27.698  1.00  0.00     0.014 A 
ATOM     41  C   UNL A   1      43.571  22.422  25.589  1.00  0.00     0.010 A 
ATOM     42  C   UNL A   1      42.896  22.253  27.913  1.00  0.00     0.010 A 
ATOM     43  C   UNL A   1      43.443  23.005  26.861  1.00  0.00    -0.014 A 
BRANCH  43  44
ATOM     44  C   UNL A   1      43.877  24.401  27.115  1.00  0.00     0.031 A 
ATOM     45  C   UNL A   1      42.876  25.422  27.579  1.00  0.00     0.074 A 
ATOM     46  C   UNL A   1      45.151  24.762  26.867  1.00  0.00     0.049 A 
ATOM     47  N   UNL A   1      43.039  26.702  27.797  1.00  0.00    -0.248 NA
ATOM     48  C   UNL A   1      41.501  24.947  27.797  1.00  0.00     0.031 C 
ATOM     49  C   UNL A   1      46.202  23.876  26.365  1.00  0.00     0.029 A 
ATOM     50  N   UNL A   1      45.777  25.978  26.995  1.00  0.00    -0.354 N 
ATOM     51  C   UNL A   1      41.789  27.184  28.156  1.00  0.00     0.074 A 
ATOM     52  C   UNL A   1      40.865  26.075  28.074  1.00  0.00     0.031 C 
ATOM     53  C   UNL A   1      47.347  24.568  26.256  1.00  0.00     0.029 A 
ATOM     54  C   UNL A   1      47.105  25.954  26.642  1.00  0.00     0.049 A 
ATOM     55  H   UNL A   1      45.318  26.790  27.309  1.00  0.00     0.167 HD
ATOM     56  C   UNL A   1      41.446  28.435  28.546  1.00  0.00     0.037 A 
ATOM     57  C   UNL A   1      48.020  26.942  26.631  1.00  0.00     0.037 A 
ATOM     58  C   UNL A   1      42.376  29.527  28.660  1.00  0.00     0.049 A 
ATOM     59  C   UNL A   1      47.611  28.324  27.067  1.00  0.00     0.074 A 
ATOM     60  C   UNL A   1      42.145  30.812  29.118  1.00  0.00     0.029 A 
ATOM     61  N   UNL A   1      43.717  29.461  28.309  1.00  0.00    -0.354 N 
ATOM     62  N   UNL A   1      46.443  28.749  27.485  1.00  0.00    -0.248 NA
ATOM     63  C   UNL A   1      48.651  29.362  27.035  1.00  0.00     0.031 C 
ATOM     64  C   UNL A   1      43.333  31.539  28.997  1.00  0.00     0.029 A 
ATOM     65  C   UNL A   1      44.319  30.691  28.517  1.00  0.00     0.049 A 
ATOM     66  H   UNL A   1      44.173  28.659  27.965  1.00  0.00     0.167 HD
ATOM     67  C   UNL A   1      46.616  30.092  27.797  1.00  0.00     0.074 A 
ATOM     68  C   UNL A   1      48.004  30.407  27.533  1.00  0.00     0.031 C 
ATOM     69  C   UNL A   1      45.706  30.983  28.261  1.00  0.00     0.037 A 
BRANCH  56  70
ATOM     70  C   UNL A   1      40.005  28.690  28.882  1.00  0.00     0.064 A 
ATOM     71  C   UNL A   1      39.097  29.158  27.922  1.00  0.00     0.173 A 
ATOM     72  C   UNL A   1      39.520  28.426  30.172  1.00  0.00     0.173 A 
ATOM     73  F   UNL A   1      39.513  29.440  26.678  1.00  0.00    -0.203 F 
ATOM     74  C   UNL A   1      37.761  29.380  28.247  1.00  0.00     0.198 A 
ATOM     75  C   UNL A   1      38.177  28.618  30.484  1.00  0.00     0.198 A 
ATOM     76  F   UNL A   1      40.346  27.973  31.127  1.00  0.00    -0.203 F 
ATOM     77  F   UNL A   1      36.922  29.876  27.327  1.00  0.00    -0.200 F 
ATOM     78  C   UNL A   1      37.300  29.102  29.525  1.00  0.00     0.200 A 
ATOM     79  F   UNL A   1      37.730  28.336  31.716  1.00  0.00    -0.200 F 
ATOM     80  F   UNL A   1      36.013  29.306  29.835  1.00  0.00    -0.200 F 
ENDBRANCH  56  70
BRANCH  57  81
ATOM     81  C   UNL A   1      49.421  26.660  26.222  1.00  0.00     0.064 A 
ATOM     82  C   UNL A   1      50.368  26.220  27.159  1.00  0.00     0.173 A 
ATOM     83  C   UNL A   1      49.850  26.841  24.900  1.00  0.00     0.173 A 
ATOM     84  F   UNL A   1      50.011  26.052  28.441  1.00  0.00    -0.203 F 
ATOM     85  C   UNL A   1      51.694  25.997  26.794  1.00  0.00     0.198 A 
ATOM     86  C   UNL A   1      51.170  26.590  24.530  1.00  0.00     0.198 A 
ATOM     87  F   UNL A   1      48.984  27.257  23.963  1.00  0.00    -0.203 F 
ATOM     88  F   UNL A   1      52.588  25.627  27.721  1.00  0.00    -0.200 F 
ATOM     89  C   UNL A   1      52.093  26.177  25.479  1.00  0.00     0.200 A 
ATOM     90  F   UNL A   1      51.549  26.752  23.254  1.00  0.00    -0.200 F 
ATOM     91  F   UNL A   1      53.368  25.964  25.129  1.00  0.00    -0.200 F 
ENDBRANCH  57  81
BRANCH  69  92
ATOM     92  C   UNL A   1      46.191  32.373  28.555  1.00  0.00     0.064 A 
ATOM     93  C   UNL A   1      46.715  32.725  29.807  1.00  0.00     0.173 A 
ATOM     94  C   UNL A   1      46.170  33.355  27.552  1.00  0.00     0.173 A 
ATOM     95  F   UNL A   1      46.742  31.826  30.803  1.00  0.00    -0.203 F 
ATOM     96  C   UNL A   1      47.175  34.015  30.054  1.00  0.00     0.198 A 
ATOM     97  C   UNL A   1      46.661  34.636  27.793  1.00  0.00     0.198 A 
ATOM     98  F   UNL A   1      45.686  33.070  26.334  1.00  0.00    -0.203 F 
ATOM     99  F   UNL A   1      47.625  34.341  31.273  1.00  0.00    -0.200 F 
ATOM    100  C   UNL A   1      47.156  34.966  29.045  1.00  0.00     0.200 A 
ATOM    101  F   UNL A   1      46.656  35.549  26.812  1.00  0.00    -0.200 F 
ATOM    102  F   UNL A   1      47.609  36.205  29.282  1.00  0.00    -0.200 F 
ENDBRANCH  69  92
ENDBRANCH  43  44
ENDBRANCH  35  38
ENDBRANCH  33  34
ENDBRANCH  32  33
ENDBRANCH  31  32
ENDBRANCH   1  31
TORSDOF 17
ENDMDL
MODEL 3
REMARK VINA RESULT:     -12.5      1.021      7.348
REMARK SMILES CCCC(=O)Nc1cccc(C(=O)N[C@@H](C(=O)NCCCCNC(=O)c2ccc(-c3c4nc(c(-c5c(F)c(F)c(F)c(F)c5F)c5ccc([nH]5)c(-c5c(F)c(F)c(F)c(F)c5F)c5nc(c(-c6c(F)c(F)c(F)c(F)c6F)c6ccc3[nH]6)C=C5)C=C4)cc2)C2=C(C)N=N[C@@H]2C)c1
REMARK SMILES IDX 19 1 18 2 16 3 17 4 15 6 14 7 12 8 13 9 11 11 7 12 8 13
REMARK SMILES IDX 96 14 9 15 10 16 6 17 4 18 5 19 3 21 2 22 1 23 89 24 90 25
REMARK SMILES IDX 94 26 91 27 92 28 93 29 95 30 20 31 21 32 22 33 23 34 24 35
REMARK SMILES IDX 25 37 26 38 27 39 88 40 28 41 87 42 29 43 30 44 31 45 81 46
REMARK SMILES IDX 32 47 86 48 80 49 82 50 33 51 85 52 79 53 78 54 34 56 66 57
REMARK SMILES IDX 46 58 65 59 47 60 50 61 64 62 83 63 48 64 49 65 63 67 84 68
REMARK SMILES IDX 51 69 35 70 36 71 44 72 37 73 38 74 42 75 45 76 39 77 40 78
REMARK SMILES IDX 43 79 41 80 67 81 68 82 76 83 69 84 70 85 74 86 77 87 71 88
REMARK SMILES IDX 72 89 75 90 73 91 52 92 53 93 61 94 54 95 55 96 59 97 62 98
REMARK SMILES IDX 56 99 57 100 60 101 58 102
REMARK H PARENT 18 5 14 10 6 20 23 36 82 55 50 66
REMARK Flexibility Score: inf
ROOT
ATOM      1  C   UNL A   1      36.379  21.820  25.814  1.00  0.00     0.116 C 
ENDROOT
BRANCH   1   2
ATOM      2  N   UNL A   1      35.330  20.843  25.957  1.00  0.00    -0.354 N 
ATOM      3  C   UNL A   1      33.979  21.016  26.016  1.00  0.00     0.247 C 
ATOM      4  O   UNL A   1      33.312  19.976  25.984  1.00  0.00    -0.272 OA
ATOM      5  H   UNL A   1      35.636  19.909  26.022  1.00  0.00     0.163 HD
BRANCH   3   6
ATOM      6  C   UNL A   1      33.323  22.440  25.934  1.00  0.00     0.202 C 
BRANCH   6   7
ATOM      7  N   UNL A   1      31.999  22.548  26.560  1.00  0.00    -0.337 N 
ATOM      8  C   UNL A   1      30.991  23.473  26.688  1.00  0.00     0.252 C 
ATOM      9  O   UNL A   1      30.083  23.149  27.460  1.00  0.00    -0.269 OA
ATOM     10  H   UNL A   1      31.764  21.713  27.025  1.00  0.00     0.165 HD
BRANCH   8  11
ATOM     11  C   UNL A   1      30.874  24.810  26.012  1.00  0.00     0.041 A 
ATOM     12  C   UNL A   1      31.362  27.177  25.693  1.00  0.00     0.041 A 
ATOM     13  C   UNL A   1      30.536  27.244  24.581  1.00  0.00     0.026 A 
ATOM     14  C   UNL A   1      31.483  25.991  26.429  1.00  0.00     0.040 A 
ATOM     15  C   UNL A   1      29.901  26.082  24.151  1.00  0.00     0.003 A 
ATOM     16  C   UNL A   1      30.075  24.881  24.854  1.00  0.00     0.014 A 
BRANCH  12  17
ATOM     17  N   UNL A   1      32.053  28.314  26.123  1.00  0.00    -0.326 N 
ATOM     18  C   UNL A   1      33.406  28.501  25.973  1.00  0.00     0.224 C 
ATOM     19  O   UNL A   1      34.056  29.085  26.837  1.00  0.00    -0.275 OA
ATOM     20  H   UNL A   1      31.538  29.027  26.564  1.00  0.00     0.169 HD
BRANCH  18  21
ATOM     21  C   UNL A   1      34.028  28.060  24.650  1.00  0.00     0.100 C 
BRANCH  21  22
ATOM     22  C   UNL A   1      33.610  28.872  23.431  1.00  0.00     0.006 C 
ATOM     23  C   UNL A   1      34.157  28.348  22.104  1.00  0.00     0.004 C 
ENDBRANCH  21  22
ENDBRANCH  18  21
ENDBRANCH  12  17
ENDBRANCH   8  11
ENDBRANCH   6   7
BRANCH   6  24
ATOM     24  C   UNL A   1      33.244  22.844  24.491  1.00  0.00     0.011 C 
ATOM     25  C   UNL A   1      32.867  22.202  23.377  1.00  0.00     0.064 C 
ATOM     26  C   UNL A   1      33.797  24.145  23.999  1.00  0.00     0.156 C 
ATOM     27  C   UNL A   1      32.347  20.819  23.208  1.00  0.00     0.069 C 
ATOM     28  N   UNL A   1      33.092  22.941  22.240  1.00  0.00    -0.160 NA
ATOM     29  N   UNL A   1      33.643  24.036  22.526  1.00  0.00    -0.181 NA
ATOM     30  C   UNL A   1      35.259  24.415  24.333  1.00  0.00     0.040 C 
ENDBRANCH   6  24
ENDBRANCH   3   6
ENDBRANCH   1   2
BRANCH   1  31
ATOM     31  C   UNL A   1      37.411  21.401  24.775  1.00  0.00     0.023 C 
BRANCH  31  32
ATOM     32  C   UNL A   1      38.165  20.127  25.151  1.00  0.00     0.023 C 
BRANCH  32  33
ATOM     33  C   UNL A   1      39.482  20.362  25.881  1.00  0.00     0.116 C 
BRANCH  33  34
ATOM     34  N   UNL A   1      40.343  19.190  25.919  1.00  0.00    -0.352 N 
ATOM     35  C   UNL A   1      41.705  19.159  26.127  1.00  0.00     0.251 C 
ATOM     36  H   UNL A   1      39.903  18.320  25.781  1.00  0.00     0.163 HD
ATOM     37  O   UNL A   1      42.340  18.122  26.034  1.00  0.00    -0.269 OA
BRANCH  35  38
ATOM     38  C   UNL A   1      42.385  20.435  26.423  1.00  0.00     0.039 A 
ATOM     39  C   UNL A   1      42.925  21.174  25.370  1.00  0.00     0.014 A 
ATOM     40  C   UNL A   1      42.385  20.939  27.727  1.00  0.00     0.014 A 
ATOM     41  C   UNL A   1      43.409  22.458  25.616  1.00  0.00     0.010 A 
ATOM     42  C   UNL A   1      42.795  22.246  27.953  1.00  0.00     0.010 A 
ATOM     43  C   UNL A   1      43.312  23.019  26.900  1.00  0.00    -0.014 A 
BRANCH  43  44
ATOM     44  C   UNL A   1      43.748  24.411  27.167  1.00  0.00     0.031 A 
ATOM     45  C   UNL A   1      42.749  25.429  27.643  1.00  0.00     0.074 A 
ATOM     46  C   UNL A   1      45.021  24.774  26.919  1.00  0.00     0.049 A 
ATOM     47  N   UNL A   1      42.914  26.706  27.873  1.00  0.00    -0.248 NA
ATOM     48  C   UNL A   1      41.374  24.953  27.859  1.00  0.00     0.031 C 
ATOM     49  C   UNL A   1      46.071  23.892  26.406  1.00  0.00     0.029 A 
ATOM     50  N   UNL A   1      45.649  25.988  27.058  1.00  0.00    -0.354 N 
ATOM     51  C   UNL A   1      41.665  27.186  28.240  1.00  0.00     0.074 A 
ATOM     52  C   UNL A   1      40.740  26.079  28.149  1.00  0.00     0.031 C 
ATOM     53  C   UNL A   1      47.216  24.583  26.302  1.00  0.00     0.029 A 
ATOM     54  C   UNL A   1      46.976  25.966  26.702  1.00  0.00     0.049 A 
ATOM     55  H   UNL A   1      45.191  26.797  27.381  1.00  0.00     0.167 HD
ATOM     56  C   UNL A   1      41.324  28.434  28.643  1.00  0.00     0.037 A 
ATOM     57  C   UNL A   1      47.892  26.953  26.699  1.00  0.00     0.037 A 
ATOM     58  C   UNL A   1      42.256  29.524  28.766  1.00  0.00     0.049 A 
ATOM     59  C   UNL A   1      47.485  28.332  27.149  1.00  0.00     0.074 A 
ATOM     60  C   UNL A   1      42.026  30.804  29.237  1.00  0.00     0.029 A 
ATOM     61  N   UNL A   1      43.596  29.460  28.411  1.00  0.00    -0.354 N 
ATOM     62  N   UNL A   1      46.319  28.754  27.573  1.00  0.00    -0.248 NA
ATOM     63  C   UNL A   1      48.526  29.369  27.125  1.00  0.00     0.031 C 
ATOM     64  C   UNL A   1      43.215  31.531  29.120  1.00  0.00     0.029 A 
ATOM     65  C   UNL A   1      44.199  30.687  28.629  1.00  0.00     0.049 A 
ATOM     66  H   UNL A   1      44.050  28.661  28.058  1.00  0.00     0.167 HD
ATOM     67  C   UNL A   1      46.494  30.093  27.899  1.00  0.00     0.074 A 
ATOM     68  C   UNL A   1      47.881  30.410  27.634  1.00  0.00     0.031 C 
ATOM     69  C   UNL A   1      45.586  30.981  28.373  1.00  0.00     0.037 A 
BRANCH  56  70
ATOM     70  C   UNL A   1      39.884  28.687  28.985  1.00  0.00     0.064 A 
ATOM     71  C   UNL A   1      39.372  28.416  30.262  1.00  0.00     0.173 A 
ATOM     72  C   UNL A   1      39.016  29.242  28.034  1.00  0.00     0.173 A 
ATOM     73  F   UNL A   1      40.157  27.871  31.204  1.00  0.00    -0.203 F 
ATOM     74  C   UNL A   1      38.036  28.666  30.566  1.00  0.00     0.198 A 
ATOM     75  C   UNL A   1      37.689  29.521  28.351  1.00  0.00     0.198 A 
ATOM     76  F   UNL A   1      39.456  29.524  26.798  1.00  0.00    -0.203 F 
ATOM     77  F   UNL A   1      37.556  28.352  31.778  1.00  0.00    -0.200 F 
ATOM     78  C   UNL A   1      37.198  29.226  29.614  1.00  0.00     0.200 A 
ATOM     79  F   UNL A   1      36.884  30.074  27.434  1.00  0.00    -0.200 F 
ATOM     80  F   UNL A   1      35.916  29.475  29.910  1.00  0.00    -0.200 F 
ENDBRANCH  56  70
BRANCH  57  81
ATOM     81  C   UNL A   1      49.292  26.674  26.283  1.00  0.00     0.064 A 
ATOM     82  C   UNL A   1      50.247  26.249  27.219  1.00  0.00     0.173 A 
ATOM     83  C   UNL A   1      49.712  26.843  24.956  1.00  0.00     0.173 A 
ATOM     84  F   UNL A   1      49.900  26.094  28.505  1.00  0.00    -0.203 F 
ATOM     85  C   UNL A   1      51.572  26.030  26.848  1.00  0.00     0.198 A 
ATOM     86  C   UNL A   1      51.030  26.595  24.580  1.00  0.00     0.198 A 
ATOM     87  F   UNL A   1      48.837  27.243  24.021  1.00  0.00    -0.203 F 
ATOM     88  F   UNL A   1      52.474  25.675  27.773  1.00  0.00    -0.200 F 
ATOM     89  C   UNL A   1      51.962  26.197  25.528  1.00  0.00     0.200 A 
ATOM     90  F   UNL A   1      51.400  26.744  23.300  1.00  0.00    -0.200 F 
ATOM     91  F   UNL A   1      53.236  25.987  25.171  1.00  0.00    -0.200 F 
ENDBRANCH  57  81
BRANCH  69  92
ATOM     92  C   UNL A   1      46.073  32.367  28.679  1.00  0.00     0.064 A 
ATOM     93  C   UNL A   1      46.030  33.393  27.724  1.00  0.00     0.173 A 
ATOM     94  C   UNL A   1      46.548  32.683  29.962  1.00  0.00     0.173 A 
ATOM     95  F   UNL A   1      45.599  33.138  26.479  1.00  0.00    -0.203 F 
ATOM     96  C   UNL A   1      46.471  34.677  28.033  1.00  0.00     0.198 A 
ATOM     97  C   UNL A   1      46.958  33.976  30.276  1.00  0.00     0.198 A 
ATOM     98  F   UNL A   1      46.602  31.740  30.915  1.00  0.00    -0.203 F 
ATOM     99  F   UNL A   1      46.468  35.628  27.089  1.00  0.00    -0.200 F 
ATOM    100  C   UNL A   1      46.926  34.969  29.310  1.00  0.00     0.200 A 
ATOM    101  F   UNL A   1      47.382  34.260  31.516  1.00  0.00    -0.200 F 
ATOM    102  F   UNL A   1      47.340  36.208  29.607  1.00  0.00    -0.200 F 
ENDBRANCH  69  92
ENDBRANCH  43  44
ENDBRANCH  35  38
ENDBRANCH  33  34
ENDBRANCH  32  33
ENDBRANCH  31  32
ENDBRANCH   1  31
TORSDOF 17
ENDMDL
