MODEL 1
REMARK VINA RESULT:     -12.6      0.000      0.000
REMARK SMILES O=C(COc1ccc(C(=O)NCCCCNC(=O)c2ccc(-c3c4nc(c(-c5c(F)c(F)c(F)c(F)c5F)c5ccc([nH]5)c(-c5c(F)c(F)c(F)c(F)c5F)c5nc(c(-c6c(F)c(F)c(F)c(F)c6F)c6ccc3[nH]6)C=C5)C=C4)cc2)nc1)Nc1ccccc1F
REMARK SMILES IDX 12 1 11 2 9 3 10 4 8 6 5 7 6 8 83 9 7 10 82 11 4 12 3 13
REMARK SMILES IDX 2 14 1 15 84 16 85 18 86 19 90 20 87 21 89 22 91 23 88 24
REMARK SMILES IDX 13 25 14 26 15 27 16 28 17 29 18 31 19 32 20 33 81 34 21 35
REMARK SMILES IDX 80 36 22 37 23 38 24 39 74 40 25 41 79 42 73 43 75 44 26 45
REMARK SMILES IDX 78 46 72 47 71 48 27 50 59 51 39 52 58 53 40 54 43 55 57 56
REMARK SMILES IDX 76 57 41 58 42 59 56 61 77 62 44 63 28 64 29 65 37 66 30 67
REMARK SMILES IDX 31 68 35 69 38 70 32 71 33 72 36 73 34 74 60 75 61 76 69 77
REMARK SMILES IDX 62 78 63 79 67 80 70 81 64 82 65 83 68 84 66 85 45 86 46 87
REMARK SMILES IDX 54 88 47 89 48 90 52 91 55 92 49 93 50 94 53 95 51 96
REMARK H PARENT 11 5 84 17 16 30 75 49 43 60
REMARK Flexibility Score: inf
ROOT
ATOM      1  C   UNL A   1      32.262  29.727  25.394  1.00  0.00     0.116 C 
ENDROOT
BRANCH   1   2
ATOM      2  N   UNL A   1      31.116  30.048  24.567  1.00  0.00    -0.351 N 
ATOM      3  C   UNL A   1      30.316  29.273  23.750  1.00  0.00     0.269 C 
ATOM      4  O   UNL A   1      29.342  29.837  23.247  1.00  0.00    -0.268 OA
ATOM      5  H   UNL A   1      30.858  30.999  24.593  1.00  0.00     0.163 HD
BRANCH   3   6
ATOM      6  C   UNL A   1      30.580  27.816  23.455  1.00  0.00     0.128 A 
ATOM      7  C   UNL A   1      31.250  25.200  22.859  1.00  0.00     0.138 A 
ATOM      8  C   UNL A   1      30.405  25.467  23.923  1.00  0.00     0.050 A 
ATOM      9  C   UNL A   1      31.761  26.281  22.160  1.00  0.00     0.158 A 
ATOM     10  C   UNL A   1      30.074  26.783  24.229  1.00  0.00     0.038 A 
ATOM     11  N   UNL A   1      31.434  27.572  22.422  1.00  0.00    -0.247 NA
BRANCH   7  12
ATOM     12  O   UNL A   1      31.672  23.927  22.605  1.00  0.00    -0.482 OA
BRANCH  12  13
ATOM     13  C   UNL A   1      32.259  23.311  23.757  1.00  0.00     0.329 C 
BRANCH  13  14
ATOM     14  C   UNL A   1      33.791  23.194  23.727  1.00  0.00     0.262 C 
ATOM     15  O   UNL A   1      34.418  23.467  22.710  1.00  0.00    -0.271 OA
ATOM     16  N   UNL A   1      34.305  22.689  24.914  1.00  0.00    -0.321 N 
ATOM     17  H   UNL A   1      33.677  22.583  25.664  1.00  0.00     0.170 HD
BRANCH  16  18
ATOM     18  C   UNL A   1      35.649  22.312  25.145  1.00  0.00     0.077 A 
ATOM     19  C   UNL A   1      35.981  20.977  24.872  1.00  0.00     0.029 A 
ATOM     20  C   UNL A   1      36.660  23.171  25.590  1.00  0.00     0.146 A 
ATOM     21  C   UNL A   1      37.305  20.536  24.972  1.00  0.00     0.002 A 
ATOM     22  C   UNL A   1      37.978  22.730  25.704  1.00  0.00     0.041 A 
ATOM     23  F   UNL A   1      36.393  24.417  26.001  1.00  0.00    -0.205 F 
ATOM     24  C   UNL A   1      38.306  21.415  25.381  1.00  0.00     0.003 A 
ENDBRANCH  16  18
ENDBRANCH  13  14
ENDBRANCH  12  13
ENDBRANCH   7  12
ENDBRANCH   3   6
ENDBRANCH   1   2
BRANCH   1  25
ATOM     25  C   UNL A   1      32.133  30.337  26.794  1.00  0.00     0.023 C 
BRANCH  25  26
ATOM     26  C   UNL A   1      31.806  31.830  26.824  1.00  0.00     0.023 C 
BRANCH  26  27
ATOM     27  C   UNL A   1      32.905  32.723  27.387  1.00  0.00     0.116 C 
BRANCH  27  28
ATOM     28  N   UNL A   1      32.467  34.080  27.674  1.00  0.00    -0.352 N 
ATOM     29  C   UNL A   1      32.989  34.977  28.581  1.00  0.00     0.251 C 
ATOM     30  H   UNL A   1      31.696  34.400  27.152  1.00  0.00     0.163 HD
ATOM     31  O   UNL A   1      32.457  36.055  28.768  1.00  0.00    -0.269 OA
BRANCH  29  32
ATOM     32  C   UNL A   1      34.178  34.582  29.368  1.00  0.00     0.039 A 
ATOM     33  C   UNL A   1      33.990  34.099  30.664  1.00  0.00     0.014 A 
ATOM     34  C   UNL A   1      35.457  34.633  28.807  1.00  0.00     0.014 A 
ATOM     35  C   UNL A   1      35.076  33.577  31.367  1.00  0.00     0.010 A 
ATOM     36  C   UNL A   1      36.526  34.055  29.484  1.00  0.00     0.010 A 
ATOM     37  C   UNL A   1      36.341  33.506  30.762  1.00  0.00    -0.014 A 
BRANCH  37  38
ATOM     38  C   UNL A   1      37.471  32.814  31.427  1.00  0.00     0.031 A 
ATOM     39  C   UNL A   1      38.119  31.624  30.784  1.00  0.00     0.074 A 
ATOM     40  C   UNL A   1      37.852  33.212  32.658  1.00  0.00     0.049 A 
ATOM     41  N   UNL A   1      39.064  30.846  31.247  1.00  0.00    -0.248 NA
ATOM     42  C   UNL A   1      37.621  31.241  29.454  1.00  0.00     0.031 C 
ATOM     43  C   UNL A   1      37.257  34.318  33.410  1.00  0.00     0.029 A 
ATOM     44  N   UNL A   1      38.819  32.722  33.498  1.00  0.00    -0.354 N 
ATOM     45  C   UNL A   1      39.264  29.876  30.275  1.00  0.00     0.074 A 
ATOM     46  C   UNL A   1      38.313  30.135  29.216  1.00  0.00     0.031 C 
ATOM     47  C   UNL A   1      37.881  34.431  34.594  1.00  0.00     0.029 A 
ATOM     48  C   UNL A   1      38.896  33.387  34.697  1.00  0.00     0.049 A 
ATOM     49  H   UNL A   1      39.403  31.964  33.264  1.00  0.00     0.167 HD
ATOM     50  C   UNL A   1      40.175  28.874  30.260  1.00  0.00     0.037 A 
ATOM     51  C   UNL A   1      39.689  33.173  35.763  1.00  0.00     0.037 A 
ATOM     52  C   UNL A   1      41.136  28.637  31.304  1.00  0.00     0.049 A 
ATOM     53  C   UNL A   1      40.692  32.053  35.719  1.00  0.00     0.074 A 
ATOM     54  C   UNL A   1      42.155  27.701  31.343  1.00  0.00     0.029 A 
ATOM     55  N   UNL A   1      41.196  29.342  32.498  1.00  0.00    -0.354 N 
ATOM     56  N   UNL A   1      40.928  31.194  34.759  1.00  0.00    -0.248 NA
ATOM     57  C   UNL A   1      41.538  31.875  36.908  1.00  0.00     0.031 C 
ATOM     58  C   UNL A   1      42.803  27.810  32.578  1.00  0.00     0.029 A 
ATOM     59  C   UNL A   1      42.215  28.842  33.292  1.00  0.00     0.049 A 
ATOM     60  H   UNL A   1      40.600  30.087  32.744  1.00  0.00     0.167 HD
ATOM     61  C   UNL A   1      41.959  30.384  35.217  1.00  0.00     0.074 A 
ATOM     62  C   UNL A   1      42.317  30.869  36.535  1.00  0.00     0.031 C 
ATOM     63  C   UNL A   1      42.553  29.333  34.604  1.00  0.00     0.037 A 
BRANCH  50  64
ATOM     64  C   UNL A   1      40.180  27.961  29.071  1.00  0.00     0.064 A 
ATOM     65  C   UNL A   1      40.889  28.281  27.903  1.00  0.00     0.173 A 
ATOM     66  C   UNL A   1      39.504  26.732  29.113  1.00  0.00     0.173 A 
ATOM     67  F   UNL A   1      41.542  29.449  27.809  1.00  0.00    -0.203 F 
ATOM     68  C   UNL A   1      40.899  27.416  26.813  1.00  0.00     0.198 A 
ATOM     69  C   UNL A   1      39.538  25.858  28.030  1.00  0.00     0.198 A 
ATOM     70  F   UNL A   1      38.815  26.377  30.208  1.00  0.00    -0.203 F 
ATOM     71  F   UNL A   1      41.548  27.762  25.692  1.00  0.00    -0.200 F 
ATOM     72  C   UNL A   1      40.230  26.203  26.879  1.00  0.00     0.200 A 
ATOM     73  F   UNL A   1      38.900  24.682  28.100  1.00  0.00    -0.200 F 
ATOM     74  F   UNL A   1      40.248  25.368  25.831  1.00  0.00    -0.200 F 
ENDBRANCH  50  64
BRANCH  51  75
ATOM     75  C   UNL A   1      39.579  34.050  36.957  1.00  0.00     0.064 A 
ATOM     76  C   UNL A   1      40.249  35.279  37.009  1.00  0.00     0.173 A 
ATOM     77  C   UNL A   1      38.804  33.680  38.066  1.00  0.00     0.173 A 
ATOM     78  F   UNL A   1      41.018  35.665  35.981  1.00  0.00    -0.203 F 
ATOM     79  C   UNL A   1      40.163  36.099  38.133  1.00  0.00     0.198 A 
ATOM     80  C   UNL A   1      38.698  34.511  39.179  1.00  0.00     0.198 A 
ATOM     81  F   UNL A   1      38.139  32.515  38.062  1.00  0.00    -0.203 F 
ATOM     82  F   UNL A   1      40.847  37.250  38.173  1.00  0.00    -0.200 F 
ATOM     83  C   UNL A   1      39.384  35.717  39.214  1.00  0.00     0.200 A 
ATOM     84  F   UNL A   1      37.934  34.145  40.216  1.00  0.00    -0.200 F 
ATOM     85  F   UNL A   1      39.299  36.507  40.293  1.00  0.00    -0.200 F 
ENDBRANCH  51  75
BRANCH  63  86
ATOM     86  C   UNL A   1      43.657  28.642  35.347  1.00  0.00     0.064 A 
ATOM     87  C   UNL A   1      44.995  29.035  35.198  1.00  0.00     0.173 A 
ATOM     88  C   UNL A   1      43.371  27.602  36.243  1.00  0.00     0.173 A 
ATOM     89  F   UNL A   1      45.319  30.013  34.340  1.00  0.00    -0.203 F 
ATOM     90  C   UNL A   1      46.010  28.396  35.905  1.00  0.00     0.198 A 
ATOM     91  C   UNL A   1      44.385  26.983  36.968  1.00  0.00     0.198 A 
ATOM     92  F   UNL A   1      42.106  27.193  36.423  1.00  0.00    -0.203 F 
ATOM     93  F   UNL A   1      47.286  28.758  35.716  1.00  0.00    -0.200 F 
ATOM     94  C   UNL A   1      45.703  27.376  36.794  1.00  0.00     0.200 A 
ATOM     95  F   UNL A   1      44.087  26.005  37.835  1.00  0.00    -0.200 F 
ATOM     96  F   UNL A   1      46.682  26.766  37.478  1.00  0.00    -0.200 F 
ENDBRANCH  63  86
ENDBRANCH  37  38
ENDBRANCH  29  32
ENDBRANCH  27  28
ENDBRANCH  26  27
ENDBRANCH  25  26
ENDBRANCH   1  25
TORSDOF 15
ENDMDL
MODEL 2
REMARK VINA RESULT:     -12.6      1.617      2.334
REMARK SMILES O=C(COc1ccc(C(=O)NCCCCNC(=O)c2ccc(-c3c4nc(c(-c5c(F)c(F)c(F)c(F)c5F)c5ccc([nH]5)c(-c5c(F)c(F)c(F)c(F)c5F)c5nc(c(-c6c(F)c(F)c(F)c(F)c6F)c6ccc3[nH]6)C=C5)C=C4)cc2)nc1)Nc1ccccc1F
REMARK SMILES IDX 12 1 11 2 9 3 10 4 8 6 5 7 6 8 83 9 7 10 82 11 4 12 3 13
REMARK SMILES IDX 2 14 1 15 84 16 85 18 86 19 90 20 87 21 89 22 91 23 88 24
REMARK SMILES IDX 13 25 14 26 15 27 16 28 17 29 18 31 19 32 20 33 81 34 21 35
REMARK SMILES IDX 80 36 22 37 23 38 24 39 74 40 25 41 79 42 73 43 75 44 26 45
REMARK SMILES IDX 78 46 72 47 71 48 27 50 59 51 39 52 58 53 40 54 43 55 57 56
REMARK SMILES IDX 76 57 41 58 42 59 56 61 77 62 44 63 28 64 29 65 37 66 30 67
REMARK SMILES IDX 31 68 35 69 38 70 32 71 33 72 36 73 34 74 60 75 61 76 69 77
REMARK SMILES IDX 62 78 63 79 67 80 70 81 64 82 65 83 68 84 66 85 45 86 46 87
REMARK SMILES IDX 54 88 47 89 48 90 52 91 55 92 49 93 50 94 53 95 51 96
REMARK H PARENT 11 5 84 17 16 30 75 49 43 60
REMARK Flexibility Score: inf
ROOT
ATOM      1  C   UNL A   1      32.719  29.511  25.642  1.00  0.00     0.116 C 
ENDROOT
BRANCH   1   2
ATOM      2  N   UNL A   1      31.734  28.889  24.779  1.00  0.00    -0.351 N 
ATOM      3  C   UNL A   1      31.380  27.569  24.578  1.00  0.00     0.269 C 
ATOM      4  O   UNL A   1      30.419  27.370  23.831  1.00  0.00    -0.268 OA
ATOM      5  H   UNL A   1      31.221  29.527  24.232  1.00  0.00     0.163 HD
BRANCH   3   6
ATOM      6  C   UNL A   1      32.099  26.401  25.208  1.00  0.00     0.128 A 
ATOM      7  C   UNL A   1      33.246  24.155  26.344  1.00  0.00     0.138 A 
ATOM      8  C   UNL A   1      34.011  24.988  25.546  1.00  0.00     0.050 A 
ATOM      9  C   UNL A   1      31.907  24.471  26.501  1.00  0.00     0.158 A 
ATOM     10  C   UNL A   1      33.434  26.114  24.967  1.00  0.00     0.038 A 
ATOM     11  N   UNL A   1      31.326  25.577  25.969  1.00  0.00    -0.247 NA
BRANCH   7  12
ATOM     12  O   UNL A   1      33.763  22.991  26.835  1.00  0.00    -0.482 OA
BRANCH  12  13
ATOM     13  C   UNL A   1      34.999  22.637  26.205  1.00  0.00     0.329 C 
BRANCH  13  14
ATOM     14  C   UNL A   1      34.880  21.629  25.052  1.00  0.00     0.262 C 
ATOM     15  O   UNL A   1      35.136  21.964  23.901  1.00  0.00    -0.271 OA
ATOM     16  N   UNL A   1      34.396  20.398  25.475  1.00  0.00    -0.321 N 
ATOM     17  H   UNL A   1      34.304  20.264  26.445  1.00  0.00     0.170 HD
BRANCH  16  18
ATOM     18  C   UNL A   1      34.023  19.319  24.640  1.00  0.00     0.077 A 
ATOM     19  C   UNL A   1      34.884  18.211  24.625  1.00  0.00     0.029 A 
ATOM     20  C   UNL A   1      32.859  19.266  23.866  1.00  0.00     0.146 A 
ATOM     21  C   UNL A   1      34.549  17.056  23.910  1.00  0.00     0.002 A 
ATOM     22  C   UNL A   1      32.529  18.120  23.142  1.00  0.00     0.041 A 
ATOM     23  F   UNL A   1      32.062  20.332  23.722  1.00  0.00    -0.205 F 
ATOM     24  C   UNL A   1      33.366  17.007  23.175  1.00  0.00     0.003 A 
ENDBRANCH  16  18
ENDBRANCH  13  14
ENDBRANCH  12  13
ENDBRANCH   7  12
ENDBRANCH   3   6
ENDBRANCH   1   2
BRANCH   1  25
ATOM     25  C   UNL A   1      32.065  30.143  26.875  1.00  0.00     0.023 C 
BRANCH  25  26
ATOM     26  C   UNL A   1      31.821  31.649  26.779  1.00  0.00     0.023 C 
BRANCH  26  27
ATOM     27  C   UNL A   1      32.918  32.522  27.376  1.00  0.00     0.116 C 
BRANCH  27  28
ATOM     28  N   UNL A   1      32.504  33.894  27.626  1.00  0.00    -0.352 N 
ATOM     29  C   UNL A   1      33.039  34.805  28.510  1.00  0.00     0.251 C 
ATOM     30  H   UNL A   1      31.740  34.214  27.093  1.00  0.00     0.163 HD
ATOM     31  O   UNL A   1      32.526  35.898  28.667  1.00  0.00    -0.269 OA
BRANCH  29  32
ATOM     32  C   UNL A   1      34.219  34.411  29.311  1.00  0.00     0.039 A 
ATOM     33  C   UNL A   1      34.010  33.832  30.564  1.00  0.00     0.014 A 
ATOM     34  C   UNL A   1      35.511  34.555  28.800  1.00  0.00     0.014 A 
ATOM     35  C   UNL A   1      35.096  33.312  31.270  1.00  0.00     0.010 A 
ATOM     36  C   UNL A   1      36.583  33.980  29.475  1.00  0.00     0.010 A 
ATOM     37  C   UNL A   1      36.382  33.338  30.706  1.00  0.00    -0.014 A 
BRANCH  37  38
ATOM     38  C   UNL A   1      37.521  32.652  31.364  1.00  0.00     0.031 A 
ATOM     39  C   UNL A   1      38.196  31.491  30.698  1.00  0.00     0.074 A 
ATOM     40  C   UNL A   1      37.886  33.030  32.606  1.00  0.00     0.049 A 
ATOM     41  N   UNL A   1      39.152  30.720  31.151  1.00  0.00    -0.248 NA
ATOM     42  C   UNL A   1      37.714  31.128  29.356  1.00  0.00     0.031 C 
ATOM     43  C   UNL A   1      37.264  34.106  33.379  1.00  0.00     0.029 A 
ATOM     44  N   UNL A   1      38.856  32.539  33.442  1.00  0.00    -0.354 N 
ATOM     45  C   UNL A   1      39.378  29.777  30.158  1.00  0.00     0.074 A 
ATOM     46  C   UNL A   1      38.429  30.042  29.098  1.00  0.00     0.031 C 
ATOM     47  C   UNL A   1      37.878  34.204  34.569  1.00  0.00     0.029 A 
ATOM     48  C   UNL A   1      38.912  33.177  34.656  1.00  0.00     0.049 A 
ATOM     49  H   UNL A   1      39.457  31.798  33.195  1.00  0.00     0.167 HD
ATOM     50  C   UNL A   1      40.308  28.793  30.127  1.00  0.00     0.037 A 
ATOM     51  C   UNL A   1      39.702  32.954  35.723  1.00  0.00     0.037 A 
ATOM     52  C   UNL A   1      41.267  28.551  31.172  1.00  0.00     0.049 A 
ATOM     53  C   UNL A   1      40.726  31.855  35.661  1.00  0.00     0.074 A 
ATOM     54  C   UNL A   1      42.303  27.633  31.197  1.00  0.00     0.029 A 
ATOM     55  N   UNL A   1      41.305  29.229  32.382  1.00  0.00    -0.354 N 
ATOM     56  N   UNL A   1      40.985  31.023  34.683  1.00  0.00    -0.248 NA
ATOM     57  C   UNL A   1      41.567  31.666  36.851  1.00  0.00     0.031 C 
ATOM     58  C   UNL A   1      42.940  27.726  32.439  1.00  0.00     0.029 A 
ATOM     59  C   UNL A   1      42.328  28.730  33.172  1.00  0.00     0.049 A 
ATOM     60  H   UNL A   1      40.693  29.956  32.641  1.00  0.00     0.167 HD
ATOM     61  C   UNL A   1      42.028  30.223  35.130  1.00  0.00     0.074 A 
ATOM     62  C   UNL A   1      42.368  30.684  36.461  1.00  0.00     0.031 C 
ATOM     63  C   UNL A   1      42.647  29.197  34.497  1.00  0.00     0.037 A 
BRANCH  50  64
ATOM     64  C   UNL A   1      40.339  27.908  28.918  1.00  0.00     0.064 A 
ATOM     65  C   UNL A   1      41.096  28.241  27.783  1.00  0.00     0.173 A 
ATOM     66  C   UNL A   1      39.639  26.692  28.906  1.00  0.00     0.173 A 
ATOM     67  F   UNL A   1      41.773  29.398  27.740  1.00  0.00    -0.203 F 
ATOM     68  C   UNL A   1      41.129  27.402  26.674  1.00  0.00     0.198 A 
ATOM     69  C   UNL A   1      39.697  25.843  27.804  1.00  0.00     0.198 A 
ATOM     70  F   UNL A   1      38.905  26.325  29.967  1.00  0.00    -0.203 F 
ATOM     71  F   UNL A   1      41.823  27.761  25.585  1.00  0.00    -0.200 F 
ATOM     72  C   UNL A   1      40.435  26.200  26.687  1.00  0.00     0.200 A 
ATOM     73  F   UNL A   1      39.034  24.678  27.823  1.00  0.00    -0.200 F 
ATOM     74  F   UNL A   1      40.476  25.390  25.620  1.00  0.00    -0.200 F 
ENDBRANCH  50  64
BRANCH  51  75
ATOM     75  C   UNL A   1      39.566  33.801  36.936  1.00  0.00     0.064 A 
ATOM     76  C   UNL A   1      38.753  33.399  38.004  1.00  0.00     0.173 A 
ATOM     77  C   UNL A   1      40.242  35.024  37.052  1.00  0.00     0.173 A 
ATOM     78  F   UNL A   1      38.071  32.247  37.929  1.00  0.00    -0.203 F 
ATOM     79  C   UNL A   1      38.607  34.197  39.137  1.00  0.00     0.198 A 
ATOM     80  C   UNL A   1      40.116  35.809  38.197  1.00  0.00     0.198 A 
ATOM     81  F   UNL A   1      41.036  35.450  36.059  1.00  0.00    -0.203 F 
ATOM     82  F   UNL A   1      37.792  33.808  40.127  1.00  0.00    -0.200 F 
ATOM     83  C   UNL A   1      39.292  35.398  39.235  1.00  0.00     0.200 A 
ATOM     84  F   UNL A   1      40.790  36.962  38.293  1.00  0.00    -0.200 F 
ATOM     85  F   UNL A   1      39.155  36.163  40.327  1.00  0.00    -0.200 F 
ENDBRANCH  51  75
BRANCH  63  86
ATOM     86  C   UNL A   1      43.759  28.511  35.232  1.00  0.00     0.064 A 
ATOM     87  C   UNL A   1      45.082  28.970  35.151  1.00  0.00     0.173 A 
ATOM     88  C   UNL A   1      43.494  27.405  36.054  1.00  0.00     0.173 A 
ATOM     89  F   UNL A   1      45.386  30.013  34.365  1.00  0.00    -0.203 F 
ATOM     90  C   UNL A   1      46.103  28.334  35.851  1.00  0.00     0.198 A 
ATOM     91  C   UNL A   1      44.514  26.788  36.773  1.00  0.00     0.198 A 
ATOM     92  F   UNL A   1      42.245  26.931  36.167  1.00  0.00    -0.203 F 
ATOM     93  F   UNL A   1      47.366  28.763  35.725  1.00  0.00    -0.200 F 
ATOM     94  C   UNL A   1      45.817  27.248  36.666  1.00  0.00     0.200 A 
ATOM     95  F   UNL A   1      44.235  25.746  37.568  1.00  0.00    -0.200 F 
ATOM     96  F   UNL A   1      46.802  26.641  37.343  1.00  0.00    -0.200 F 
ENDBRANCH  63  86
ENDBRANCH  37  38
ENDBRANCH  29  32
ENDBRANCH  27  28
ENDBRANCH  26  27
ENDBRANCH  25  26
ENDBRANCH   1  25
TORSDOF 15
ENDMDL
MODEL 3
REMARK VINA RESULT:     -12.5      5.664     11.429
REMARK SMILES O=C(COc1ccc(C(=O)NCCCCNC(=O)c2ccc(-c3c4nc(c(-c5c(F)c(F)c(F)c(F)c5F)c5ccc([nH]5)c(-c5c(F)c(F)c(F)c(F)c5F)c5nc(c(-c6c(F)c(F)c(F)c(F)c6F)c6ccc3[nH]6)C=C5)C=C4)cc2)nc1)Nc1ccccc1F
REMARK SMILES IDX 12 1 11 2 9 3 10 4 8 6 5 7 6 8 83 9 7 10 82 11 4 12 3 13
REMARK SMILES IDX 2 14 1 15 84 16 85 18 86 19 90 20 87 21 89 22 91 23 88 24
REMARK SMILES IDX 13 25 14 26 15 27 16 28 17 29 18 31 19 32 20 33 81 34 21 35
REMARK SMILES IDX 80 36 22 37 23 38 24 39 74 40 25 41 79 42 73 43 75 44 26 45
REMARK SMILES IDX 78 46 72 47 71 48 27 50 59 51 39 52 58 53 40 54 43 55 57 56
REMARK SMILES IDX 76 57 41 58 42 59 56 61 77 62 44 63 28 64 29 65 37 66 30 67
REMARK SMILES IDX 31 68 35 69 38 70 32 71 33 72 36 73 34 74 60 75 61 76 69 77
REMARK SMILES IDX 62 78 63 79 67 80 70 81 64 82 65 83 68 84 66 85 45 86 46 87
REMARK SMILES IDX 54 88 47 89 48 90 52 91 55 92 49 93 50 94 53 95 51 96
REMARK H PARENT 11 5 84 17 16 30 75 49 43 60
REMARK Flexibility Score: inf
ROOT
ATOM      1  C   UNL A   1      36.086  21.702  25.169  1.00  0.00     0.116 C 
ENDROOT
BRANCH   1   2
ATOM      2  N   UNL A   1      35.355  20.455  25.061  1.00  0.00    -0.351 N 
ATOM      3  C   UNL A   1      34.022  20.142  25.249  1.00  0.00     0.269 C 
ATOM      4  O   UNL A   1      33.691  18.985  24.981  1.00  0.00    -0.268 OA
ATOM      5  H   UNL A   1      35.913  19.685  24.805  1.00  0.00     0.163 HD
BRANCH   3   6
ATOM      6  C   UNL A   1      32.994  21.123  25.757  1.00  0.00     0.128 A 
ATOM      7  C   UNL A   1      31.261  23.031  26.761  1.00  0.00     0.138 A 
ATOM      8  C   UNL A   1      30.969  22.400  25.563  1.00  0.00     0.050 A 
ATOM      9  C   UNL A   1      32.452  22.699  27.386  1.00  0.00     0.158 A 
ATOM     10  C   UNL A   1      31.843  21.446  25.053  1.00  0.00     0.038 A 
ATOM     11  N   UNL A   1      33.309  21.755  26.922  1.00  0.00    -0.247 NA
BRANCH   7  12
ATOM     12  O   UNL A   1      30.473  24.044  27.228  1.00  0.00    -0.482 OA
BRANCH  12  13
ATOM     13  C   UNL A   1      29.876  24.799  26.167  1.00  0.00     0.329 C 
BRANCH  13  14
ATOM     14  C   UNL A   1      30.622  26.085  25.780  1.00  0.00     0.262 C 
ATOM     15  O   UNL A   1      30.656  26.460  24.614  1.00  0.00    -0.271 OA
ATOM     16  N   UNL A   1      31.270  26.665  26.862  1.00  0.00    -0.321 N 
ATOM     17  H   UNL A   1      31.089  26.281  27.750  1.00  0.00     0.170 HD
BRANCH  16  18
ATOM     18  C   UNL A   1      32.168  27.757  26.808  1.00  0.00     0.077 A 
ATOM     19  C   UNL A   1      31.653  29.011  27.169  1.00  0.00     0.029 A 
ATOM     20  C   UNL A   1      33.519  27.670  26.455  1.00  0.00     0.146 A 
ATOM     21  C   UNL A   1      32.488  30.131  27.244  1.00  0.00     0.002 A 
ATOM     22  C   UNL A   1      34.351  28.789  26.517  1.00  0.00     0.041 A 
ATOM     23  F   UNL A   1      34.047  26.540  25.969  1.00  0.00    -0.205 F 
ATOM     24  C   UNL A   1      33.840  30.019  26.926  1.00  0.00     0.003 A 
ENDBRANCH  16  18
ENDBRANCH  13  14
ENDBRANCH  12  13
ENDBRANCH   7  12
ENDBRANCH   3   6
ENDBRANCH   1   2
BRANCH   1  25
ATOM     25  C   UNL A   1      37.520  21.559  24.648  1.00  0.00     0.023 C 
BRANCH  25  26
ATOM     26  C   UNL A   1      38.215  20.247  25.013  1.00  0.00     0.023 C 
BRANCH  26  27
ATOM     27  C   UNL A   1      39.421  20.387  25.934  1.00  0.00     0.116 C 
BRANCH  27  28
ATOM     28  N   UNL A   1      40.305  19.233  25.922  1.00  0.00    -0.352 N 
ATOM     29  C   UNL A   1      41.666  19.190  26.135  1.00  0.00     0.251 C 
ATOM     30  H   UNL A   1      39.875  18.366  25.736  1.00  0.00     0.163 HD
ATOM     31  O   UNL A   1      42.285  18.150  26.008  1.00  0.00    -0.269 OA
BRANCH  29  32
ATOM     32  C   UNL A   1      42.374  20.446  26.466  1.00  0.00     0.039 A 
ATOM     33  C   UNL A   1      42.971  21.167  25.431  1.00  0.00     0.014 A 
ATOM     34  C   UNL A   1      42.391  20.934  27.776  1.00  0.00     0.014 A 
ATOM     35  C   UNL A   1      43.509  22.428  25.693  1.00  0.00     0.010 A 
ATOM     36  C   UNL A   1      42.870  22.217  28.023  1.00  0.00     0.010 A 
ATOM     37  C   UNL A   1      43.416  22.982  26.981  1.00  0.00    -0.014 A 
BRANCH  37  38
ATOM     38  C   UNL A   1      43.836  24.379  27.246  1.00  0.00     0.031 A 
ATOM     39  C   UNL A   1      42.835  25.401  27.697  1.00  0.00     0.074 A 
ATOM     40  C   UNL A   1      45.110  24.741  26.994  1.00  0.00     0.049 A 
ATOM     41  N   UNL A   1      42.999  26.683  27.903  1.00  0.00    -0.248 NA
ATOM     42  C   UNL A   1      41.461  24.925  27.919  1.00  0.00     0.031 C 
ATOM     43  C   UNL A   1      46.159  23.849  26.496  1.00  0.00     0.029 A 
ATOM     44  N   UNL A   1      45.734  25.957  27.107  1.00  0.00    -0.354 N 
ATOM     45  C   UNL A   1      41.750  27.169  28.266  1.00  0.00     0.074 A 
ATOM     46  C   UNL A   1      40.829  26.054  28.209  1.00  0.00     0.031 C 
ATOM     47  C   UNL A   1      47.299  24.545  26.360  1.00  0.00     0.029 A 
ATOM     48  C   UNL A   1      47.054  25.936  26.728  1.00  0.00     0.049 A 
ATOM     49  H   UNL A   1      45.279  26.769  27.428  1.00  0.00     0.167 HD
ATOM     50  C   UNL A   1      41.410  28.427  28.634  1.00  0.00     0.037 A 
ATOM     51  C   UNL A   1      47.962  26.928  26.677  1.00  0.00     0.037 A 
ATOM     52  C   UNL A   1      42.336  29.525  28.715  1.00  0.00     0.049 A 
ATOM     53  C   UNL A   1      47.557  28.316  27.091  1.00  0.00     0.074 A 
ATOM     54  C   UNL A   1      42.106  30.816  29.158  1.00  0.00     0.029 A 
ATOM     55  N   UNL A   1      43.670  29.463  28.340  1.00  0.00    -0.354 N 
ATOM     56  N   UNL A   1      46.393  28.745  27.512  1.00  0.00    -0.248 NA
ATOM     57  C   UNL A   1      48.594  29.355  27.024  1.00  0.00     0.031 C 
ATOM     58  C   UNL A   1      43.290  31.547  29.010  1.00  0.00     0.029 A 
ATOM     59  C   UNL A   1      44.269  30.701  28.515  1.00  0.00     0.049 A 
ATOM     60  H   UNL A   1      44.124  28.658  27.999  1.00  0.00     0.167 HD
ATOM     61  C   UNL A   1      46.559  30.098  27.776  1.00  0.00     0.074 A 
ATOM     62  C   UNL A   1      47.943  30.413  27.488  1.00  0.00     0.031 C 
ATOM     63  C   UNL A   1      45.647  30.998  28.216  1.00  0.00     0.037 A 
BRANCH  50  64
ATOM     64  C   UNL A   1      39.976  28.681  28.986  1.00  0.00     0.064 A 
ATOM     65  C   UNL A   1      39.476  28.411  30.269  1.00  0.00     0.173 A 
ATOM     66  C   UNL A   1      39.099  29.242  28.044  1.00  0.00     0.173 A 
ATOM     67  F   UNL A   1      40.270  27.864  31.202  1.00  0.00    -0.203 F 
ATOM     68  C   UNL A   1      38.145  28.668  30.587  1.00  0.00     0.198 A 
ATOM     69  C   UNL A   1      37.776  29.521  28.375  1.00  0.00     0.198 A 
ATOM     70  F   UNL A   1      39.529  29.523  26.805  1.00  0.00    -0.203 F 
ATOM     71  F   UNL A   1      37.679  28.361  31.806  1.00  0.00    -0.200 F 
ATOM     72  C   UNL A   1      37.299  29.230  29.643  1.00  0.00     0.200 A 
ATOM     73  F   UNL A   1      36.962  30.074  27.464  1.00  0.00    -0.200 F 
ATOM     74  F   UNL A   1      36.020  29.483  29.955  1.00  0.00    -0.200 F 
ENDBRANCH  50  64
BRANCH  51  75
ATOM     75  C   UNL A   1      49.349  26.641  26.229  1.00  0.00     0.064 A 
ATOM     76  C   UNL A   1      50.304  26.146  27.126  1.00  0.00     0.173 A 
ATOM     77  C   UNL A   1      49.747  26.855  24.901  1.00  0.00     0.173 A 
ATOM     78  F   UNL A   1      49.975  25.946  28.411  1.00  0.00    -0.203 F 
ATOM     79  C   UNL A   1      51.612  25.891  26.717  1.00  0.00     0.198 A 
ATOM     80  C   UNL A   1      51.048  26.575  24.487  1.00  0.00     0.198 A 
ATOM     81  F   UNL A   1      48.868  27.323  24.003  1.00  0.00    -0.203 F 
ATOM     82  F   UNL A   1      52.516  25.456  27.605  1.00  0.00    -0.200 F 
ATOM     83  C   UNL A   1      51.981  26.100  25.397  1.00  0.00     0.200 A 
ATOM     84  F   UNL A   1      51.397  26.766  23.208  1.00  0.00    -0.200 F 
ATOM     85  F   UNL A   1      53.237  25.850  25.003  1.00  0.00    -0.200 F 
ENDBRANCH  51  75
BRANCH  63  86
ATOM     86  C   UNL A   1      46.119  32.407  28.419  1.00  0.00     0.064 A 
ATOM     87  C   UNL A   1      46.011  33.367  27.402  1.00  0.00     0.173 A 
ATOM     88  C   UNL A   1      46.651  32.810  29.653  1.00  0.00     0.173 A 
ATOM     89  F   UNL A   1      45.524  33.024  26.200  1.00  0.00    -0.203 F 
ATOM     90  C   UNL A   1      46.438  34.676  27.608  1.00  0.00     0.198 A 
ATOM     91  C   UNL A   1      47.052  34.125  29.863  1.00  0.00     0.198 A 
ATOM     92  F   UNL A   1      46.771  31.929  30.657  1.00  0.00    -0.203 F 
ATOM     93  F   UNL A   1      46.365  35.566  26.609  1.00  0.00    -0.200 F 
ATOM     94  C   UNL A   1      46.952  35.055  28.839  1.00  0.00     0.200 A 
ATOM     95  F   UNL A   1      47.539  34.494  31.056  1.00  0.00    -0.200 F 
ATOM     96  F   UNL A   1      47.357  36.318  29.036  1.00  0.00    -0.200 F 
ENDBRANCH  63  86
ENDBRANCH  37  38
ENDBRANCH  29  32
ENDBRANCH  27  28
ENDBRANCH  26  27
ENDBRANCH  25  26
ENDBRANCH   1  25
TORSDOF 15
ENDMDL
