MODEL 1
REMARK VINA RESULT:     -10.8      0.000      0.000
REMARK SMILES CCCN(CC(=O)NCCCCNC(=O)c1ccc(-c2c3nc(c(-c4c(F)c(F)c(F)c(F)c4F)c4ccc([nH]4)c(-c4c(F)c(F)c(F)c(F)c4F)c4nc(c(-c5c(F)c(F)c(F)c(F)c5F)c5ccc2[nH]5)C=C4)C=C3)cc1)C(=O)C[C@@H]1CSCC[NH2+]1
REMARK SMILES IDX 9 1 8 2 6 3 7 4 5 6 4 7 3 8 2 9 1 10 79 11 80 12 81 13 82 14
REMARK SMILES IDX 83 15 87 16 84 17 86 18 85 21 10 22 11 23 12 24 13 25 14 26
REMARK SMILES IDX 15 28 16 29 17 30 78 31 18 32 77 33 19 34 20 35 21 36 71 37
REMARK SMILES IDX 22 38 76 39 70 40 72 41 23 42 75 43 69 44 68 45 24 47 56 48
REMARK SMILES IDX 36 49 55 50 37 51 40 52 54 53 73 54 38 55 39 56 53 58 74 59
REMARK SMILES IDX 41 60 25 61 26 62 34 63 27 64 28 65 32 66 35 67 29 68 30 69
REMARK SMILES IDX 33 70 31 71 57 72 58 73 66 74 59 75 60 76 64 77 67 78 61 79
REMARK SMILES IDX 62 80 65 81 63 82 42 83 43 84 51 85 44 86 45 87 49 88 52 89
REMARK SMILES IDX 46 90 47 91 50 92 48 93
REMARK H PARENT 8 5 87 19 87 20 13 27 72 46 40 57
REMARK Flexibility Score: inf
ROOT
ATOM      1  C   UNL A   1      33.010  30.161  26.426  1.00  0.00     0.116 C 
ENDROOT
BRANCH   1   2
ATOM      2  N   UNL A   1      33.638  29.514  25.298  1.00  0.00    -0.355 N 
ATOM      3  C   UNL A   1      33.784  28.179  25.067  1.00  0.00     0.239 C 
ATOM      4  O   UNL A   1      34.102  27.820  23.929  1.00  0.00    -0.273 OA
ATOM      5  H   UNL A   1      34.006  30.113  24.609  1.00  0.00     0.163 HD
BRANCH   3   6
ATOM      6  C   UNL A   1      33.492  27.135  26.158  1.00  0.00     0.219 C 
BRANCH   6   7
ATOM      7  N   UNL A   1      32.191  26.464  26.039  1.00  0.00    -0.333 N 
BRANCH   7   8
ATOM      8  C   UNL A   1      31.105  27.213  25.393  1.00  0.00     0.120 C 
BRANCH   8   9
ATOM      9  C   UNL A   1      30.633  26.647  24.052  1.00  0.00     0.018 C 
ATOM     10  C   UNL A   1      29.127  26.453  23.963  1.00  0.00     0.006 C 
ENDBRANCH   8   9
ENDBRANCH   7   8
BRANCH   7  11
ATOM     11  C   UNL A   1      31.946  25.155  26.450  1.00  0.00     0.229 C 
ATOM     12  O   UNL A   1      30.853  24.831  26.922  1.00  0.00    -0.275 OA
BRANCH  11  13
ATOM     13  C   UNL A   1      33.062  24.115  26.429  1.00  0.00     0.166 C 
BRANCH  13  14
ATOM     14  C   UNL A   1      32.709  22.753  27.064  1.00  0.00     0.201 C 
ATOM     15  C   UNL A   1      33.932  21.808  27.175  1.00  0.00     0.135 C 
ATOM     16  N   UNL A   1      31.577  22.065  26.397  1.00  0.00    -0.342 N 
ATOM     17  S   UNL A   1      34.559  21.207  25.568  1.00  0.00    -0.150 SA
ATOM     18  C   UNL A   1      31.869  21.643  25.019  1.00  0.00     0.271 C 
ATOM     19  H   UNL A   1      30.781  22.702  26.377  1.00  0.00     0.346 HD
ATOM     20  H   UNL A   1      31.386  21.218  26.932  1.00  0.00     0.346 HD
ATOM     21  C   UNL A   1      32.977  20.600  24.902  1.00  0.00     0.131 C 
ENDBRANCH  13  14
ENDBRANCH  11  13
ENDBRANCH   7  11
ENDBRANCH   6   7
ENDBRANCH   3   6
ENDBRANCH   1   2
BRANCH   1  22
ATOM     22  C   UNL A   1      31.637  30.742  26.101  1.00  0.00     0.023 C 
BRANCH  22  23
ATOM     23  C   UNL A   1      31.411  32.175  26.583  1.00  0.00     0.023 C 
BRANCH  23  24
ATOM     24  C   UNL A   1      32.634  32.860  27.174  1.00  0.00     0.116 C 
BRANCH  24  25
ATOM     25  N   UNL A   1      32.370  34.212  27.639  1.00  0.00    -0.352 N 
ATOM     26  C   UNL A   1      32.992  34.911  28.644  1.00  0.00     0.251 C 
ATOM     27  H   UNL A   1      31.650  34.692  27.169  1.00  0.00     0.163 HD
ATOM     28  O   UNL A   1      32.576  36.015  28.980  1.00  0.00    -0.269 OA
BRANCH  26  29
ATOM     29  C   UNL A   1      34.148  34.311  29.342  1.00  0.00     0.039 A 
ATOM     30  C   UNL A   1      33.916  33.508  30.460  1.00  0.00     0.014 A 
ATOM     31  C   UNL A   1      35.450  34.532  28.888  1.00  0.00     0.014 A 
ATOM     32  C   UNL A   1      34.992  32.896  31.104  1.00  0.00     0.010 A 
ATOM     33  C   UNL A   1      36.510  33.849  29.474  1.00  0.00     0.010 A 
ATOM     34  C   UNL A   1      36.296  33.046  30.603  1.00  0.00    -0.014 A 
BRANCH  34  35
ATOM     35  C   UNL A   1      37.454  32.416  31.282  1.00  0.00     0.031 A 
ATOM     36  C   UNL A   1      38.179  31.276  30.622  1.00  0.00     0.074 A 
ATOM     37  C   UNL A   1      37.821  32.832  32.509  1.00  0.00     0.049 A 
ATOM     38  N   UNL A   1      39.191  30.570  31.060  1.00  0.00    -0.248 NA
ATOM     39  C   UNL A   1      37.674  30.848  29.309  1.00  0.00     0.031 C 
ATOM     40  C   UNL A   1      37.158  33.885  33.278  1.00  0.00     0.029 A 
ATOM     41  N   UNL A   1      38.840  32.412  33.326  1.00  0.00    -0.354 N 
ATOM     42  C   UNL A   1      39.427  29.607  30.088  1.00  0.00     0.074 A 
ATOM     43  C   UNL A   1      38.410  29.773  29.072  1.00  0.00     0.031 C 
ATOM     44  C   UNL A   1      37.802  34.047  34.445  1.00  0.00     0.029 A 
ATOM     45  C   UNL A   1      38.904  33.091  34.518  1.00  0.00     0.049 A 
ATOM     46  H   UNL A   1      39.465  31.692  33.081  1.00  0.00     0.167 HD
ATOM     47  C   UNL A   1      40.419  28.687  30.029  1.00  0.00     0.037 A 
ATOM     48  C   UNL A   1      39.758  32.956  35.549  1.00  0.00     0.037 A 
ATOM     49  C   UNL A   1      41.443  28.545  31.031  1.00  0.00     0.049 A 
ATOM     50  C   UNL A   1      40.870  31.947  35.454  1.00  0.00     0.074 A 
ATOM     51  C   UNL A   1      42.530  27.691  31.041  1.00  0.00     0.029 A 
ATOM     52  N   UNL A   1      41.499  29.279  32.209  1.00  0.00    -0.354 N 
ATOM     53  N   UNL A   1      41.135  31.094  34.494  1.00  0.00    -0.248 NA
ATOM     54  C   UNL A   1      41.813  31.898  36.578  1.00  0.00     0.031 C 
ATOM     55  C   UNL A   1      43.214  27.870  32.248  1.00  0.00     0.029 A 
ATOM     56  C   UNL A   1      42.593  28.882  32.961  1.00  0.00     0.049 A 
ATOM     57  H   UNL A   1      40.857  29.977  32.470  1.00  0.00     0.167 HD
ATOM     58  C   UNL A   1      42.292  30.432  34.879  1.00  0.00     0.074 A 
ATOM     59  C   UNL A   1      42.684  30.990  36.156  1.00  0.00     0.031 C 
ATOM     60  C   UNL A   1      42.973  29.453  34.230  1.00  0.00     0.037 A 
BRANCH  47  61
ATOM     61  C   UNL A   1      40.430  27.761  28.845  1.00  0.00     0.064 A 
ATOM     62  C   UNL A   1      41.134  28.070  27.669  1.00  0.00     0.173 A 
ATOM     63  C   UNL A   1      39.720  26.552  28.880  1.00  0.00     0.173 A 
ATOM     64  F   UNL A   1      41.821  29.219  27.575  1.00  0.00    -0.203 F 
ATOM     65  C   UNL A   1      41.084  27.229  26.559  1.00  0.00     0.198 A 
ATOM     66  C   UNL A   1      39.704  25.695  27.782  1.00  0.00     0.198 A 
ATOM     67  F   UNL A   1      39.034  26.201  29.979  1.00  0.00    -0.203 F 
ATOM     68  F   UNL A   1      41.700  27.585  25.423  1.00  0.00    -0.200 F 
ATOM     69  C   UNL A   1      40.373  26.041  26.619  1.00  0.00     0.200 A 
ATOM     70  F   UNL A   1      39.027  24.540  27.846  1.00  0.00    -0.200 F 
ATOM     71  F   UNL A   1      40.322  25.235  25.549  1.00  0.00    -0.200 F 
ENDBRANCH  47  61
BRANCH  48  72
ATOM     72  C   UNL A   1      39.617  33.838  36.737  1.00  0.00     0.064 A 
ATOM     73  C   UNL A   1      40.194  35.115  36.759  1.00  0.00     0.173 A 
ATOM     74  C   UNL A   1      38.884  33.432  37.863  1.00  0.00     0.173 A 
ATOM     75  F   UNL A   1      40.917  35.541  35.714  1.00  0.00    -0.203 F 
ATOM     76  C   UNL A   1      40.056  35.948  37.869  1.00  0.00     0.198 A 
ATOM     77  C   UNL A   1      38.724  34.277  38.959  1.00  0.00     0.198 A 
ATOM     78  F   UNL A   1      38.306  32.223  37.887  1.00  0.00    -0.203 F 
ATOM     79  F   UNL A   1      40.648  37.150  37.879  1.00  0.00    -0.200 F 
ATOM     80  C   UNL A   1      39.315  35.530  38.964  1.00  0.00     0.200 A 
ATOM     81  F   UNL A   1      37.994  33.876  40.009  1.00  0.00    -0.200 F 
ATOM     82  F   UNL A   1      39.174  36.337  40.025  1.00  0.00    -0.200 F 
ENDBRANCH  48  72
BRANCH  60  83
ATOM     83  C   UNL A   1      44.240  28.959  34.867  1.00  0.00     0.064 A 
ATOM     84  C   UNL A   1      45.484  29.557  34.612  1.00  0.00     0.173 A 
ATOM     85  C   UNL A   1      44.204  27.884  35.769  1.00  0.00     0.173 A 
ATOM     86  F   UNL A   1      45.576  30.581  33.750  1.00  0.00    -0.203 F 
ATOM     87  C   UNL A   1      46.647  29.074  35.207  1.00  0.00     0.198 A 
ATOM     88  C   UNL A   1      45.363  27.425  36.388  1.00  0.00     0.198 A 
ATOM     89  F   UNL A   1      43.040  27.281  36.057  1.00  0.00    -0.203 F 
ATOM     90  F   UNL A   1      47.831  29.622  34.902  1.00  0.00    -0.200 F 
ATOM     91  C   UNL A   1      46.584  28.014  36.099  1.00  0.00     0.200 A 
ATOM     92  F   UNL A   1      45.297  26.412  37.264  1.00  0.00    -0.200 F 
ATOM     93  F   UNL A   1      47.705  27.552  36.673  1.00  0.00    -0.200 F 
ENDBRANCH  60  83
ENDBRANCH  34  35
ENDBRANCH  26  29
ENDBRANCH  24  25
ENDBRANCH  23  24
ENDBRANCH  22  23
ENDBRANCH   1  22
TORSDOF 17
ENDMDL
MODEL 2
REMARK VINA RESULT:     -10.7      5.526     10.983
REMARK SMILES CCCN(CC(=O)NCCCCNC(=O)c1ccc(-c2c3nc(c(-c4c(F)c(F)c(F)c(F)c4F)c4ccc([nH]4)c(-c4c(F)c(F)c(F)c(F)c4F)c4nc(c(-c5c(F)c(F)c(F)c(F)c5F)c5ccc2[nH]5)C=C4)C=C3)cc1)C(=O)C[C@@H]1CSCC[NH2+]1
REMARK SMILES IDX 9 1 8 2 6 3 7 4 5 6 4 7 3 8 2 9 1 10 79 11 80 12 81 13 82 14
REMARK SMILES IDX 83 15 87 16 84 17 86 18 85 21 10 22 11 23 12 24 13 25 14 26
REMARK SMILES IDX 15 28 16 29 17 30 78 31 18 32 77 33 19 34 20 35 21 36 71 37
REMARK SMILES IDX 22 38 76 39 70 40 72 41 23 42 75 43 69 44 68 45 24 47 56 48
REMARK SMILES IDX 36 49 55 50 37 51 40 52 54 53 73 54 38 55 39 56 53 58 74 59
REMARK SMILES IDX 41 60 25 61 26 62 34 63 27 64 28 65 32 66 35 67 29 68 30 69
REMARK SMILES IDX 33 70 31 71 57 72 58 73 66 74 59 75 60 76 64 77 67 78 61 79
REMARK SMILES IDX 62 80 65 81 63 82 42 83 43 84 51 85 44 86 45 87 49 88 52 89
REMARK SMILES IDX 46 90 47 91 50 92 48 93
REMARK H PARENT 8 5 87 19 87 20 13 27 72 46 40 57
REMARK Flexibility Score: inf
ROOT
ATOM      1  C   UNL A   1      35.770  20.786  25.090  1.00  0.00     0.116 C 
ENDROOT
BRANCH   1   2
ATOM      2  N   UNL A   1      35.445  21.406  26.354  1.00  0.00    -0.355 N 
ATOM      3  C   UNL A   1      34.212  21.686  26.863  1.00  0.00     0.239 C 
ATOM      4  O   UNL A   1      34.131  21.965  28.063  1.00  0.00    -0.273 OA
ATOM      5  H   UNL A   1      36.210  21.657  26.919  1.00  0.00     0.163 HD
BRANCH   3   6
ATOM      6  C   UNL A   1      32.943  21.587  26.000  1.00  0.00     0.219 C 
BRANCH   6   7
ATOM      7  N   UNL A   1      32.404  22.873  25.541  1.00  0.00    -0.333 N 
BRANCH   7   8
ATOM      8  C   UNL A   1      31.936  22.947  24.150  1.00  0.00     0.120 C 
BRANCH   8   9
ATOM      9  C   UNL A   1      32.905  22.386  23.107  1.00  0.00     0.018 C 
ATOM     10  C   UNL A   1      34.132  23.253  22.879  1.00  0.00     0.006 C 
ENDBRANCH   8   9
ENDBRANCH   7   8
BRANCH   7  11
ATOM     11  C   UNL A   1      32.263  23.997  26.354  1.00  0.00     0.229 C 
ATOM     12  O   UNL A   1      31.365  24.061  27.198  1.00  0.00    -0.275 OA
BRANCH  11  13
ATOM     13  C   UNL A   1      33.146  25.222  26.142  1.00  0.00     0.166 C 
BRANCH  13  14
ATOM     14  C   UNL A   1      32.503  26.370  25.335  1.00  0.00     0.201 C 
ATOM     15  C   UNL A   1      33.502  27.507  25.007  1.00  0.00     0.135 C 
ATOM     16  N   UNL A   1      31.275  26.919  25.961  1.00  0.00    -0.342 N 
ATOM     17  S   UNL A   1      34.044  28.467  26.464  1.00  0.00    -0.150 SA
ATOM     18  C   UNL A   1      31.519  27.604  27.240  1.00  0.00     0.271 C 
ATOM     19  H   UNL A   1      30.627  26.150  26.126  1.00  0.00     0.346 HD
ATOM     20  H   UNL A   1      30.899  27.616  25.319  1.00  0.00     0.346 HD
ATOM     21  C   UNL A   1      32.394  28.849  27.130  1.00  0.00     0.131 C 
ENDBRANCH  13  14
ENDBRANCH  11  13
ENDBRANCH   7  11
ENDBRANCH   6   7
ENDBRANCH   3   6
ENDBRANCH   1   2
BRANCH   1  22
ATOM     22  C   UNL A   1      37.225  20.987  24.678  1.00  0.00     0.023 C 
BRANCH  22  23
ATOM     23  C   UNL A   1      38.141  19.790  24.935  1.00  0.00     0.023 C 
BRANCH  23  24
ATOM     24  C   UNL A   1      39.172  19.990  26.036  1.00  0.00     0.116 C 
BRANCH  24  25
ATOM     25  N   UNL A   1      40.298  19.075  25.945  1.00  0.00    -0.352 N 
ATOM     26  C   UNL A   1      41.640  19.355  26.027  1.00  0.00     0.251 C 
ATOM     27  H   UNL A   1      40.069  18.128  25.806  1.00  0.00     0.163 HD
ATOM     28  O   UNL A   1      42.470  18.474  25.825  1.00  0.00    -0.269 OA
BRANCH  26  29
ATOM     29  C   UNL A   1      42.080  20.732  26.330  1.00  0.00     0.039 A 
ATOM     30  C   UNL A   1      42.332  21.081  27.658  1.00  0.00     0.014 A 
ATOM     31  C   UNL A   1      42.252  21.669  25.309  1.00  0.00     0.014 A 
ATOM     32  C   UNL A   1      42.793  22.363  27.958  1.00  0.00     0.010 A 
ATOM     33  C   UNL A   1      42.797  22.914  25.598  1.00  0.00     0.010 A 
ATOM     34  C   UNL A   1      43.048  23.284  26.928  1.00  0.00    -0.014 A 
BRANCH  34  35
ATOM     35  C   UNL A   1      43.523  24.656  27.227  1.00  0.00     0.031 A 
ATOM     36  C   UNL A   1      42.564  25.678  27.773  1.00  0.00     0.074 A 
ATOM     37  C   UNL A   1      44.798  24.998  26.962  1.00  0.00     0.049 A 
ATOM     38  N   UNL A   1      42.770  26.936  28.070  1.00  0.00    -0.248 NA
ATOM     39  C   UNL A   1      41.176  25.235  27.977  1.00  0.00     0.031 C 
ATOM     40  C   UNL A   1      45.805  24.116  26.374  1.00  0.00     0.029 A 
ATOM     41  N   UNL A   1      45.460  26.186  27.147  1.00  0.00    -0.354 N 
ATOM     42  C   UNL A   1      41.538  27.435  28.473  1.00  0.00     0.074 A 
ATOM     43  C   UNL A   1      40.577  26.365  28.316  1.00  0.00     0.031 C 
ATOM     44  C   UNL A   1      46.966  24.783  26.271  1.00  0.00     0.029 A 
ATOM     45  C   UNL A   1      46.776  26.147  26.757  1.00  0.00     0.049 A 
ATOM     46  H   UNL A   1      45.032  26.988  27.524  1.00  0.00     0.167 HD
ATOM     47  C   UNL A   1      41.239  28.662  28.960  1.00  0.00     0.037 A 
ATOM     48  C   UNL A   1      47.720  27.106  26.790  1.00  0.00     0.037 A 
ATOM     49  C   UNL A   1      42.206  29.714  29.138  1.00  0.00     0.049 A 
ATOM     50  C   UNL A   1      47.375  28.455  27.360  1.00  0.00     0.074 A 
ATOM     51  C   UNL A   1      42.025  30.972  29.682  1.00  0.00     0.029 A 
ATOM     52  N   UNL A   1      43.542  29.625  28.768  1.00  0.00    -0.354 N 
ATOM     53  N   UNL A   1      46.227  28.893  27.816  1.00  0.00    -0.248 NA
ATOM     54  C   UNL A   1      48.466  29.435  27.440  1.00  0.00     0.031 C 
ATOM     55  C   UNL A   1      43.238  31.665  29.591  1.00  0.00     0.029 A 
ATOM     56  C   UNL A   1      44.192  30.815  29.054  1.00  0.00     0.049 A 
ATOM     57  H   UNL A   1      43.964  28.834  28.362  1.00  0.00     0.167 HD
ATOM     58  C   UNL A   1      46.462  30.185  28.268  1.00  0.00     0.074 A 
ATOM     59  C   UNL A   1      47.866  30.454  28.040  1.00  0.00     0.031 C 
ATOM     60  C   UNL A   1      45.594  31.066  28.825  1.00  0.00     0.037 A 
BRANCH  47  61
ATOM     61  C   UNL A   1      39.805  28.929  29.323  1.00  0.00     0.064 A 
ATOM     62  C   UNL A   1      39.314  28.706  30.621  1.00  0.00     0.173 A 
ATOM     63  C   UNL A   1      38.903  29.403  28.359  1.00  0.00     0.173 A 
ATOM     64  F   UNL A   1      40.129  28.240  31.580  1.00  0.00    -0.203 F 
ATOM     65  C   UNL A   1      37.968  28.899  30.924  1.00  0.00     0.198 A 
ATOM     66  C   UNL A   1      37.566  29.633  28.676  1.00  0.00     0.198 A 
ATOM     67  F   UNL A   1      39.316  29.640  27.104  1.00  0.00    -0.203 F 
ATOM     68  F   UNL A   1      37.511  28.605  32.148  1.00  0.00    -0.200 F 
ATOM     69  C   UNL A   1      37.097  29.368  29.953  1.00  0.00     0.200 A 
ATOM     70  F   UNL A   1      36.728  30.099  27.739  1.00  0.00    -0.200 F 
ATOM     71  F   UNL A   1      35.802  29.549  30.245  1.00  0.00    -0.200 F 
ENDBRANCH  47  61
BRANCH  48  72
ATOM     72  C   UNL A   1      49.093  26.798  26.312  1.00  0.00     0.064 A 
ATOM     73  C   UNL A   1      50.056  26.263  27.180  1.00  0.00     0.173 A 
ATOM     74  C   UNL A   1      49.463  27.011  24.976  1.00  0.00     0.173 A 
ATOM     75  F   UNL A   1      49.754  26.059  28.470  1.00  0.00    -0.203 F 
ATOM     76  C   UNL A   1      51.342  25.967  26.732  1.00  0.00     0.198 A 
ATOM     77  C   UNL A   1      50.741  26.687  24.524  1.00  0.00     0.198 A 
ATOM     78  F   UNL A   1      48.576  27.512  24.105  1.00  0.00    -0.203 F 
ATOM     79  F   UNL A   1      52.254  25.491  27.590  1.00  0.00    -0.200 F 
ATOM     80  C   UNL A   1      51.680  26.172  25.403  1.00  0.00     0.200 A 
ATOM     81  F   UNL A   1      51.059  26.871  23.235  1.00  0.00    -0.200 F 
ATOM     82  F   UNL A   1      52.914  25.875  24.971  1.00  0.00    -0.200 F 
ENDBRANCH  48  72
BRANCH  60  83
ATOM     83  C   UNL A   1      46.149  32.387  29.277  1.00  0.00     0.064 A 
ATOM     84  C   UNL A   1      46.679  32.571  30.563  1.00  0.00     0.173 A 
ATOM     85  C   UNL A   1      46.175  33.479  28.395  1.00  0.00     0.173 A 
ATOM     86  F   UNL A   1      46.669  31.563  31.448  1.00  0.00    -0.203 F 
ATOM     87  C   UNL A   1      47.179  33.809  30.961  1.00  0.00     0.198 A 
ATOM     88  C   UNL A   1      46.708  34.705  28.785  1.00  0.00     0.198 A 
ATOM     89  F   UNL A   1      45.691  33.356  27.150  1.00  0.00    -0.203 F 
ATOM     90  F   UNL A   1      47.625  33.978  32.213  1.00  0.00    -0.200 F 
ATOM     91  C   UNL A   1      47.200  34.872  30.070  1.00  0.00     0.200 A 
ATOM     92  F   UNL A   1      46.742  35.725  27.916  1.00  0.00    -0.200 F 
ATOM     93  F   UNL A   1      47.684  36.061  30.454  1.00  0.00    -0.200 F 
ENDBRANCH  60  83
ENDBRANCH  34  35
ENDBRANCH  26  29
ENDBRANCH  24  25
ENDBRANCH  23  24
ENDBRANCH  22  23
ENDBRANCH   1  22
TORSDOF 17
ENDMDL
MODEL 3
REMARK VINA RESULT:     -10.4      5.479      9.763
REMARK SMILES CCCN(CC(=O)NCCCCNC(=O)c1ccc(-c2c3nc(c(-c4c(F)c(F)c(F)c(F)c4F)c4ccc([nH]4)c(-c4c(F)c(F)c(F)c(F)c4F)c4nc(c(-c5c(F)c(F)c(F)c(F)c5F)c5ccc2[nH]5)C=C4)C=C3)cc1)C(=O)C[C@@H]1CSCC[NH2+]1
REMARK SMILES IDX 9 1 8 2 6 3 7 4 5 6 4 7 3 8 2 9 1 10 79 11 80 12 81 13 82 14
REMARK SMILES IDX 83 15 87 16 84 17 86 18 85 21 10 22 11 23 12 24 13 25 14 26
REMARK SMILES IDX 15 28 16 29 17 30 78 31 18 32 77 33 19 34 20 35 21 36 71 37
REMARK SMILES IDX 22 38 76 39 70 40 72 41 23 42 75 43 69 44 68 45 24 47 56 48
REMARK SMILES IDX 36 49 55 50 37 51 40 52 54 53 73 54 38 55 39 56 53 58 74 59
REMARK SMILES IDX 41 60 25 61 26 62 34 63 27 64 28 65 32 66 35 67 29 68 30 69
REMARK SMILES IDX 33 70 31 71 57 72 58 73 66 74 59 75 60 76 64 77 67 78 61 79
REMARK SMILES IDX 62 80 65 81 63 82 42 83 43 84 51 85 44 86 45 87 49 88 52 89
REMARK SMILES IDX 46 90 47 91 50 92 48 93
REMARK H PARENT 8 5 87 19 87 20 13 27 72 46 40 57
REMARK Flexibility Score: inf
ROOT
ATOM      1  C   UNL A   1      35.768  20.711  25.050  1.00  0.00     0.116 C 
ENDROOT
BRANCH   1   2
ATOM      2  N   UNL A   1      35.382  21.328  26.298  1.00  0.00    -0.355 N 
ATOM      3  C   UNL A   1      34.989  22.614  26.516  1.00  0.00     0.239 C 
ATOM      4  O   UNL A   1      34.443  22.878  27.592  1.00  0.00    -0.273 OA
ATOM      5  H   UNL A   1      35.407  20.745  27.091  1.00  0.00     0.163 HD
BRANCH   3   6
ATOM      6  C   UNL A   1      35.141  23.698  25.436  1.00  0.00     0.219 C 
BRANCH   6   7
ATOM      7  N   UNL A   1      33.879  24.184  24.864  1.00  0.00    -0.333 N 
BRANCH   7   8
ATOM      8  C   UNL A   1      32.829  23.188  24.611  1.00  0.00     0.120 C 
BRANCH   8   9
ATOM      9  C   UNL A   1      32.936  22.457  23.270  1.00  0.00     0.018 C 
ATOM     10  C   UNL A   1      32.449  21.017  23.315  1.00  0.00     0.006 C 
ENDBRANCH   8   9
ENDBRANCH   7   8
BRANCH   7  11
ATOM     11  C   UNL A   1      33.604  25.525  24.603  1.00  0.00     0.229 C 
ATOM     12  O   UNL A   1      33.752  25.995  23.471  1.00  0.00    -0.275 OA
BRANCH  11  13
ATOM     13  C   UNL A   1      33.221  26.472  25.735  1.00  0.00     0.166 C 
BRANCH  13  14
ATOM     14  C   UNL A   1      34.013  27.796  25.788  1.00  0.00     0.201 C 
ATOM     15  C   UNL A   1      33.759  28.596  27.089  1.00  0.00     0.135 C 
ATOM     16  N   UNL A   1      33.807  28.657  24.597  1.00  0.00    -0.342 N 
ATOM     17  S   UNL A   1      32.071  29.282  27.226  1.00  0.00    -0.150 SA
ATOM     18  C   UNL A   1      32.437  29.177  24.473  1.00  0.00     0.271 C 
ATOM     19  H   UNL A   1      34.021  28.109  23.764  1.00  0.00     0.346 HD
ATOM     20  H   UNL A   1      34.422  29.463  24.702  1.00  0.00     0.346 HD
ATOM     21  C   UNL A   1      32.013  30.108  25.605  1.00  0.00     0.131 C 
ENDBRANCH  13  14
ENDBRANCH  11  13
ENDBRANCH   7  11
ENDBRANCH   6   7
ENDBRANCH   3   6
ENDBRANCH   1   2
BRANCH   1  22
ATOM     22  C   UNL A   1      37.229  20.953  24.684  1.00  0.00     0.023 C 
BRANCH  22  23
ATOM     23  C   UNL A   1      38.171  19.785  24.976  1.00  0.00     0.023 C 
BRANCH  23  24
ATOM     24  C   UNL A   1      39.241  20.063  26.021  1.00  0.00     0.116 C 
BRANCH  24  25
ATOM     25  N   UNL A   1      40.385  19.170  25.927  1.00  0.00    -0.352 N 
ATOM     26  C   UNL A   1      41.720  19.471  26.040  1.00  0.00     0.251 C 
ATOM     27  H   UNL A   1      40.175  18.223  25.761  1.00  0.00     0.163 HD
ATOM     28  O   UNL A   1      42.569  18.610  25.830  1.00  0.00    -0.269 OA
BRANCH  26  29
ATOM     29  C   UNL A   1      42.130  20.848  26.384  1.00  0.00     0.039 A 
ATOM     30  C   UNL A   1      42.395  21.749  25.351  1.00  0.00     0.014 A 
ATOM     31  C   UNL A   1      42.244  21.248  27.717  1.00  0.00     0.014 A 
ATOM     32  C   UNL A   1      42.739  23.066  25.656  1.00  0.00     0.010 A 
ATOM     33  C   UNL A   1      42.497  22.581  28.018  1.00  0.00     0.010 A 
ATOM     34  C   UNL A   1      42.773  23.497  26.993  1.00  0.00    -0.014 A 
BRANCH  34  35
ATOM     35  C   UNL A   1      43.152  24.889  27.339  1.00  0.00     0.031 A 
ATOM     36  C   UNL A   1      44.561  25.360  27.110  1.00  0.00     0.074 A 
ATOM     37  C   UNL A   1      42.247  25.710  27.904  1.00  0.00     0.049 A 
ATOM     38  N   UNL A   1      45.101  26.523  27.373  1.00  0.00    -0.248 NA
ATOM     39  C   UNL A   1      45.499  24.379  26.543  1.00  0.00     0.031 C 
ATOM     40  C   UNL A   1      40.868  25.350  28.234  1.00  0.00     0.029 A 
ATOM     41  N   UNL A   1      42.357  27.017  28.308  1.00  0.00    -0.354 N 
ATOM     42  C   UNL A   1      46.441  26.404  27.024  1.00  0.00     0.074 A 
ATOM     43  C   UNL A   1      46.647  25.037  26.598  1.00  0.00     0.031 C 
ATOM     44  C   UNL A   1      40.251  26.418  28.765  1.00  0.00     0.029 A 
ATOM     45  C   UNL A   1      41.199  27.527  28.841  1.00  0.00     0.049 A 
ATOM     46  H   UNL A   1      43.187  27.538  28.222  1.00  0.00     0.167 HD
ATOM     47  C   UNL A   1      47.405  27.354  27.028  1.00  0.00     0.037 A 
ATOM     48  C   UNL A   1      40.935  28.752  29.332  1.00  0.00     0.037 A 
ATOM     49  C   UNL A   1      47.187  28.719  27.429  1.00  0.00     0.049 A 
ATOM     50  C   UNL A   1      42.012  29.802  29.302  1.00  0.00     0.074 A 
ATOM     51  C   UNL A   1      48.076  29.778  27.411  1.00  0.00     0.029 A 
ATOM     52  N   UNL A   1      45.987  29.210  27.927  1.00  0.00    -0.354 N 
ATOM     53  N   UNL A   1      43.254  29.704  28.894  1.00  0.00    -0.248 NA
ATOM     54  C   UNL A   1      41.642  31.139  29.782  1.00  0.00     0.031 C 
ATOM     55  C   UNL A   1      47.430  30.898  27.948  1.00  0.00     0.029 A 
ATOM     56  C   UNL A   1      46.120  30.554  28.238  1.00  0.00     0.049 A 
ATOM     57  H   UNL A   1      45.165  28.683  28.041  1.00  0.00     0.167 HD
ATOM     58  C   UNL A   1      43.804  30.970  29.034  1.00  0.00     0.074 A 
ATOM     59  C   UNL A   1      42.756  31.822  29.556  1.00  0.00     0.031 C 
ATOM     60  C   UNL A   1      45.063  31.391  28.752  1.00  0.00     0.037 A 
BRANCH  47  61
ATOM     61  C   UNL A   1      48.783  26.938  26.593  1.00  0.00     0.064 A 
ATOM     62  C   UNL A   1      49.210  27.063  25.260  1.00  0.00     0.173 A 
ATOM     63  C   UNL A   1      49.688  26.396  27.518  1.00  0.00     0.173 A 
ATOM     64  F   UNL A   1      48.381  27.563  24.330  1.00  0.00    -0.203 F 
ATOM     65  C   UNL A   1      50.468  26.616  24.863  1.00  0.00     0.198 A 
ATOM     66  C   UNL A   1      50.960  25.987  27.124  1.00  0.00     0.198 A 
ATOM     67  F   UNL A   1      49.339  26.258  28.806  1.00  0.00    -0.203 F 
ATOM     68  F   UNL A   1      50.820  26.676  23.571  1.00  0.00    -0.200 F 
ATOM     69  C   UNL A   1      51.343  26.084  25.796  1.00  0.00     0.200 A 
ATOM     70  F   UNL A   1      51.810  25.484  28.031  1.00  0.00    -0.200 F 
ATOM     71  F   UNL A   1      52.551  25.650  25.411  1.00  0.00    -0.200 F 
ENDBRANCH  47  61
BRANCH  48  72
ATOM     72  C   UNL A   1      39.574  29.057  29.845  1.00  0.00     0.064 A 
ATOM     73  C   UNL A   1      39.256  28.873  31.198  1.00  0.00     0.173 A 
ATOM     74  C   UNL A   1      38.573  29.560  29.001  1.00  0.00     0.173 A 
ATOM     75  F   UNL A   1      40.175  28.379  32.041  1.00  0.00    -0.203 F 
ATOM     76  C   UNL A   1      37.983  29.167  31.684  1.00  0.00     0.198 A 
ATOM     77  C   UNL A   1      37.309  29.879  29.495  1.00  0.00     0.198 A 
ATOM     78  F   UNL A   1      38.830  29.761  27.701  1.00  0.00    -0.203 F 
ATOM     79  F   UNL A   1      37.694  28.947  32.974  1.00  0.00    -0.200 F 
ATOM     80  C   UNL A   1      37.014  29.676  30.833  1.00  0.00     0.200 A 
ATOM     81  F   UNL A   1      36.381  30.387  28.673  1.00  0.00    -0.200 F 
ATOM     82  F   UNL A   1      35.794  29.969  31.305  1.00  0.00    -0.200 F 
ENDBRANCH  48  72
BRANCH  60  83
ATOM     83  C   UNL A   1      45.362  32.849  28.952  1.00  0.00     0.064 A 
ATOM     84  C   UNL A   1      45.904  33.342  30.148  1.00  0.00     0.173 A 
ATOM     85  C   UNL A   1      45.124  33.766  27.915  1.00  0.00     0.173 A 
ATOM     86  F   UNL A   1      46.140  32.510  31.175  1.00  0.00    -0.203 F 
ATOM     87  C   UNL A   1      46.162  34.700  30.313  1.00  0.00     0.198 A 
ATOM     88  C   UNL A   1      45.416  35.118  28.070  1.00  0.00     0.198 A 
ATOM     89  F   UNL A   1      44.616  33.349  26.746  1.00  0.00    -0.203 F 
ATOM     90  F   UNL A   1      46.623  35.155  31.486  1.00  0.00    -0.200 F 
ATOM     91  C   UNL A   1      45.925  35.586  29.272  1.00  0.00     0.200 A 
ATOM     92  F   UNL A   1      45.201  35.969  27.057  1.00  0.00    -0.200 F 
ATOM     93  F   UNL A   1      46.176  36.893  29.432  1.00  0.00    -0.200 F 
ENDBRANCH  60  83
ENDBRANCH  34  35
ENDBRANCH  26  29
ENDBRANCH  24  25
ENDBRANCH  23  24
ENDBRANCH  22  23
ENDBRANCH   1  22
TORSDOF 17
ENDMDL
