MODEL 1
REMARK VINA RESULT:     -13.3      0.000      0.000
REMARK SMILES CC1(C)CCCC[C@H]1NC(=O)Nc1ccccc1C(=O)NCCCCNC(=O)c1ccc(-c2c3nc(c(-c4c(F)c(F)c(F)c(F)c4F)c4ccc([nH]4)c(-c4c(F)c(F)c(F)c(F)c4F)c4nc(c(-c5c(F)c(F)c(F)c(F)c5F)c5ccc2[nH]5)C=C4)C=C3)cc1
REMARK SMILES IDX 23 1 22 2 21 3 19 4 20 5 18 7 13 8 14 9 15 10 17 11 16 12
REMARK SMILES IDX 12 13 9 14 10 15 11 17 8 19 1 20 2 21 3 22 4 23 5 24 7 25
REMARK SMILES IDX 6 26 24 27 25 28 26 29 27 30 28 32 29 33 30 34 91 35 31 36
REMARK SMILES IDX 90 37 32 38 33 39 34 40 84 41 35 42 89 43 83 44 85 45 36 46
REMARK SMILES IDX 88 47 82 48 81 49 37 51 69 52 49 53 68 54 50 55 53 56 67 57
REMARK SMILES IDX 86 58 51 59 52 60 66 62 87 63 54 64 38 65 39 66 47 67 40 68
REMARK SMILES IDX 41 69 45 70 48 71 42 72 43 73 46 74 44 75 70 76 71 77 79 78
REMARK SMILES IDX 72 79 73 80 77 81 80 82 74 83 75 84 78 85 76 86 55 87 56 88
REMARK SMILES IDX 64 89 57 90 58 91 62 92 65 93 59 94 60 95 63 96 61 97
REMARK H PARENT 21 6 9 16 12 18 26 31 85 50 53 61
REMARK Flexibility Score: inf
ROOT
ATOM      1  C   UNL A   1      33.278  29.036  24.763  1.00  0.00     0.023 C 
ENDROOT
BRANCH   1   2
ATOM      2  C   UNL A   1      33.205  28.831  23.252  1.00  0.00     0.116 C 
BRANCH   2   3
ATOM      3  N   UNL A   1      31.909  29.172  22.703  1.00  0.00    -0.352 N 
ATOM      4  C   UNL A   1      30.749  28.446  22.644  1.00  0.00     0.253 C 
ATOM      5  O   UNL A   1      29.848  28.873  21.920  1.00  0.00    -0.269 OA
ATOM      6  H   UNL A   1      31.852  30.073  22.308  1.00  0.00     0.163 HD
BRANCH   4   7
ATOM      7  C   UNL A   1      30.569  27.136  23.330  1.00  0.00     0.063 A 
ATOM      8  C   UNL A   1      30.834  25.861  22.798  1.00  0.00     0.055 A 
ATOM      9  C   UNL A   1      30.453  24.722  23.531  1.00  0.00     0.027 A 
ATOM     10  C   UNL A   1      30.001  24.835  24.847  1.00  0.00     0.002 A 
ATOM     11  C   UNL A   1      30.134  27.230  24.669  1.00  0.00     0.016 A 
ATOM     12  C   UNL A   1      29.881  26.089  25.431  1.00  0.00     0.001 A 
BRANCH   8  13
ATOM     13  N   UNL A   1      31.564  25.578  21.626  1.00  0.00    -0.307 N 
ATOM     14  N   UNL A   1      33.815  25.373  22.330  1.00  0.00    -0.335 N 
ATOM     15  C   UNL A   1      32.895  25.607  21.369  1.00  0.00     0.319 C 
ATOM     16  H   UNL A   1      34.713  25.739  22.154  1.00  0.00     0.165 HD
ATOM     17  O   UNL A   1      33.278  25.752  20.206  1.00  0.00    -0.248 OA
ATOM     18  H   UNL A   1      31.010  25.312  20.858  1.00  0.00     0.171 HD
BRANCH  14  19
ATOM     19  C   UNL A   1      33.670  24.655  23.592  1.00  0.00     0.089 C 
ATOM     20  C   UNL A   1      35.568  22.953  23.223  1.00  0.00     0.013 C 
ATOM     21  C   UNL A   1      34.068  23.150  23.518  1.00  0.00    -0.015 C 
ATOM     22  C   UNL A   1      33.278  22.415  22.414  1.00  0.00     0.013 C 
ATOM     23  C   UNL A   1      33.693  22.517  24.885  1.00  0.00     0.008 C 
ATOM     24  C   UNL A   1      34.271  23.257  26.096  1.00  0.00     0.001 C 
ATOM     25  C   UNL A   1      34.403  25.377  24.728  1.00  0.00     0.025 C 
ATOM     26  C   UNL A   1      34.008  24.760  26.065  1.00  0.00     0.002 C 
ENDBRANCH  14  19
ENDBRANCH   8  13
ENDBRANCH   4   7
ENDBRANCH   2   3
ENDBRANCH   1   2
BRANCH   1  27
ATOM     27  C   UNL A   1      32.196  29.943  25.363  1.00  0.00     0.023 C 
BRANCH  27  28
ATOM     28  C   UNL A   1      32.430  30.420  26.795  1.00  0.00     0.116 C 
BRANCH  28  29
ATOM     29  N   UNL A   1      32.575  31.864  26.900  1.00  0.00    -0.352 N 
ATOM     30  C   UNL A   1      33.530  32.635  27.517  1.00  0.00     0.251 C 
ATOM     31  H   UNL A   1      31.866  32.378  26.451  1.00  0.00     0.163 HD
ATOM     32  O   UNL A   1      33.364  33.844  27.632  1.00  0.00    -0.269 OA
BRANCH  30  33
ATOM     33  C   UNL A   1      34.753  32.015  28.075  1.00  0.00     0.039 A 
ATOM     34  C   UNL A   1      35.901  32.800  28.215  1.00  0.00     0.014 A 
ATOM     35  C   UNL A   1      34.789  30.665  28.432  1.00  0.00     0.014 A 
ATOM     36  C   UNL A   1      37.049  32.255  28.794  1.00  0.00     0.010 A 
ATOM     37  C   UNL A   1      35.903  30.147  29.090  1.00  0.00     0.010 A 
ATOM     38  C   UNL A   1      37.044  30.937  29.285  1.00  0.00    -0.014 A 
BRANCH  38  39
ATOM     39  C   UNL A   1      38.211  30.402  30.035  1.00  0.00     0.031 A 
ATOM     40  C   UNL A   1      38.475  30.811  31.457  1.00  0.00     0.074 A 
ATOM     41  C   UNL A   1      39.070  29.573  29.409  1.00  0.00     0.049 A 
ATOM     42  N   UNL A   1      39.433  30.427  32.265  1.00  0.00    -0.248 NA
ATOM     43  C   UNL A   1      37.560  31.800  32.041  1.00  0.00     0.031 C 
ATOM     44  C   UNL A   1      38.965  29.151  28.012  1.00  0.00     0.029 A 
ATOM     45  N   UNL A   1      40.196  28.933  29.866  1.00  0.00    -0.354 N 
ATOM     46  C   UNL A   1      39.237  31.129  33.447  1.00  0.00     0.074 A 
ATOM     47  C   UNL A   1      38.111  32.013  33.227  1.00  0.00     0.031 C 
ATOM     48  C   UNL A   1      39.953  28.285  27.739  1.00  0.00     0.029 A 
ATOM     49  C   UNL A   1      40.783  28.120  28.929  1.00  0.00     0.049 A 
ATOM     50  H   UNL A   1      40.547  29.047  30.778  1.00  0.00     0.167 HD
ATOM     51  C   UNL A   1      39.914  31.028  34.617  1.00  0.00     0.037 A 
ATOM     52  C   UNL A   1      41.865  27.324  29.018  1.00  0.00     0.037 A 
ATOM     53  C   UNL A   1      41.035  30.148  34.834  1.00  0.00     0.049 A 
ATOM     54  C   UNL A   1      42.609  27.238  30.322  1.00  0.00     0.074 A 
ATOM     55  C   UNL A   1      41.752  29.930  35.997  1.00  0.00     0.029 A 
ATOM     56  N   UNL A   1      41.611  29.348  33.857  1.00  0.00    -0.354 N 
ATOM     57  N   UNL A   1      42.361  27.840  31.459  1.00  0.00    -0.248 NA
ATOM     58  C   UNL A   1      43.780  26.353  30.352  1.00  0.00     0.031 C 
ATOM     59  C   UNL A   1      42.797  29.045  35.710  1.00  0.00     0.029 A 
ATOM     60  C   UNL A   1      42.696  28.660  34.383  1.00  0.00     0.049 A 
ATOM     61  H   UNL A   1      41.297  29.278  32.926  1.00  0.00     0.167 HD
ATOM     62  C   UNL A   1      43.329  27.391  32.348  1.00  0.00     0.074 A 
ATOM     63  C   UNL A   1      44.152  26.446  31.621  1.00  0.00     0.031 C 
ATOM     64  C   UNL A   1      43.519  27.732  33.646  1.00  0.00     0.037 A 
BRANCH  51  65
ATOM     65  C   UNL A   1      39.458  31.905  35.752  1.00  0.00     0.064 A 
ATOM     66  C   UNL A   1      38.465  31.488  36.653  1.00  0.00     0.173 A 
ATOM     67  C   UNL A   1      40.020  33.176  35.945  1.00  0.00     0.173 A 
ATOM     68  F   UNL A   1      37.887  30.285  36.513  1.00  0.00    -0.203 F 
ATOM     69  C   UNL A   1      38.017  32.328  37.670  1.00  0.00     0.198 A 
ATOM     70  C   UNL A   1      39.597  33.999  36.986  1.00  0.00     0.198 A 
ATOM     71  F   UNL A   1      40.979  33.625  35.122  1.00  0.00    -0.203 F 
ATOM     72  F   UNL A   1      37.018  31.934  38.472  1.00  0.00    -0.200 F 
ATOM     73  C   UNL A   1      38.586  33.581  37.839  1.00  0.00     0.200 A 
ATOM     74  F   UNL A   1      40.159  35.203  37.158  1.00  0.00    -0.200 F 
ATOM     75  F   UNL A   1      38.153  34.390  38.816  1.00  0.00    -0.200 F 
ENDBRANCH  51  65
BRANCH  52  76
ATOM     76  C   UNL A   1      42.273  26.502  27.849  1.00  0.00     0.064 A 
ATOM     77  C   UNL A   1      41.654  25.270  27.589  1.00  0.00     0.173 A 
ATOM     78  C   UNL A   1      43.270  26.932  26.962  1.00  0.00     0.173 A 
ATOM     79  F   UNL A   1      40.709  24.808  28.420  1.00  0.00    -0.203 F 
ATOM     80  C   UNL A   1      42.027  24.495  26.493  1.00  0.00     0.198 A 
ATOM     81  C   UNL A   1      43.622  26.168  25.851  1.00  0.00     0.198 A 
ATOM     82  F   UNL A   1      43.890  28.104  27.164  1.00  0.00    -0.203 F 
ATOM     83  F   UNL A   1      41.446  23.305  26.290  1.00  0.00    -0.200 F 
ATOM     84  C   UNL A   1      43.005  24.948  25.621  1.00  0.00     0.200 A 
ATOM     85  F   UNL A   1      44.555  26.617  25.001  1.00  0.00    -0.200 F 
ATOM     86  F   UNL A   1      43.354  24.206  24.561  1.00  0.00    -0.200 F 
ENDBRANCH  52  76
BRANCH  64  87
ATOM     87  C   UNL A   1      44.653  27.059  34.369  1.00  0.00     0.064 A 
ATOM     88  C   UNL A   1      45.934  27.630  34.429  1.00  0.00     0.173 A 
ATOM     89  C   UNL A   1      44.458  25.825  35.009  1.00  0.00     0.173 A 
ATOM     90  F   UNL A   1      46.180  28.801  33.821  1.00  0.00    -0.203 F 
ATOM     91  C   UNL A   1      46.984  26.973  35.065  1.00  0.00     0.198 A 
ATOM     92  C   UNL A   1      45.501  25.188  35.676  1.00  0.00     0.198 A 
ATOM     93  F   UNL A   1      43.253  25.236  34.991  1.00  0.00    -0.203 F 
ATOM     94  F   UNL A   1      48.214  27.506  35.048  1.00  0.00    -0.200 F 
ATOM     95  C   UNL A   1      46.766  25.756  35.692  1.00  0.00     0.200 A 
ATOM     96  F   UNL A   1      45.286  24.019  36.295  1.00  0.00    -0.200 F 
ATOM     97  F   UNL A   1      47.778  25.123  36.301  1.00  0.00    -0.200 F 
ENDBRANCH  64  87
ENDBRANCH  38  39
ENDBRANCH  30  33
ENDBRANCH  28  29
ENDBRANCH  27  28
ENDBRANCH   1  27
TORSDOF 13
ENDMDL
MODEL 2
REMARK VINA RESULT:     -13.3      4.599      9.915
REMARK SMILES CC1(C)CCCC[C@H]1NC(=O)Nc1ccccc1C(=O)NCCCCNC(=O)c1ccc(-c2c3nc(c(-c4c(F)c(F)c(F)c(F)c4F)c4ccc([nH]4)c(-c4c(F)c(F)c(F)c(F)c4F)c4nc(c(-c5c(F)c(F)c(F)c(F)c5F)c5ccc2[nH]5)C=C4)C=C3)cc1
REMARK SMILES IDX 23 1 22 2 21 3 19 4 20 5 18 7 13 8 14 9 15 10 17 11 16 12
REMARK SMILES IDX 12 13 9 14 10 15 11 17 8 19 1 20 2 21 3 22 4 23 5 24 7 25
REMARK SMILES IDX 6 26 24 27 25 28 26 29 27 30 28 32 29 33 30 34 91 35 31 36
REMARK SMILES IDX 90 37 32 38 33 39 34 40 84 41 35 42 89 43 83 44 85 45 36 46
REMARK SMILES IDX 88 47 82 48 81 49 37 51 69 52 49 53 68 54 50 55 53 56 67 57
REMARK SMILES IDX 86 58 51 59 52 60 66 62 87 63 54 64 38 65 39 66 47 67 40 68
REMARK SMILES IDX 41 69 45 70 48 71 42 72 43 73 46 74 44 75 70 76 71 77 79 78
REMARK SMILES IDX 72 79 73 80 77 81 80 82 74 83 75 84 78 85 76 86 55 87 56 88
REMARK SMILES IDX 64 89 57 90 58 91 62 92 65 93 59 94 60 95 63 96 61 97
REMARK H PARENT 21 6 9 16 12 18 26 31 85 50 53 61
REMARK Flexibility Score: inf
ROOT
ATOM      1  C   UNL A   1      35.471  22.203  26.017  1.00  0.00     0.023 C 
ENDROOT
BRANCH   1   2
ATOM      2  C   UNL A   1      34.298  21.718  26.865  1.00  0.00     0.116 C 
BRANCH   2   3
ATOM      3  N   UNL A   1      33.619  20.579  26.282  1.00  0.00    -0.352 N 
ATOM      4  C   UNL A   1      32.753  20.506  25.223  1.00  0.00     0.253 C 
ATOM      5  O   UNL A   1      32.133  19.453  25.069  1.00  0.00    -0.269 OA
ATOM      6  H   UNL A   1      33.812  19.717  26.718  1.00  0.00     0.163 HD
BRANCH   4   7
ATOM      7  C   UNL A   1      32.462  21.658  24.325  1.00  0.00     0.063 A 
ATOM      8  C   UNL A   1      31.392  22.565  24.433  1.00  0.00     0.055 A 
ATOM      9  C   UNL A   1      31.180  23.496  23.400  1.00  0.00     0.027 A 
ATOM     10  C   UNL A   1      32.117  23.663  22.381  1.00  0.00     0.002 A 
ATOM     11  C   UNL A   1      33.412  21.856  23.300  1.00  0.00     0.016 A 
ATOM     12  C   UNL A   1      33.257  22.870  22.354  1.00  0.00     0.001 A 
BRANCH   8  13
ATOM     13  N   UNL A   1      30.545  22.730  25.547  1.00  0.00    -0.307 N 
ATOM     14  N   UNL A   1      31.594  24.376  26.887  1.00  0.00    -0.335 N 
ATOM     15  C   UNL A   1      30.743  23.335  26.743  1.00  0.00     0.319 C 
ATOM     16  H   UNL A   1      31.930  24.523  27.801  1.00  0.00     0.165 HD
ATOM     17  O   UNL A   1      30.057  22.995  27.709  1.00  0.00    -0.248 OA
ATOM     18  H   UNL A   1      29.650  22.336  25.437  1.00  0.00     0.171 HD
BRANCH  14  19
ATOM     19  C   UNL A   1      32.086  25.311  25.882  1.00  0.00     0.089 C 
ATOM     20  C   UNL A   1      31.359  27.480  27.068  1.00  0.00     0.013 C 
ATOM     21  C   UNL A   1      31.263  26.631  25.785  1.00  0.00    -0.015 C 
ATOM     22  C   UNL A   1      29.768  26.343  25.530  1.00  0.00     0.013 C 
ATOM     23  C   UNL A   1      31.817  27.419  24.567  1.00  0.00     0.008 C 
ATOM     24  C   UNL A   1      33.335  27.630  24.597  1.00  0.00     0.001 C 
ATOM     25  C   UNL A   1      33.581  25.592  26.069  1.00  0.00     0.025 C 
ATOM     26  C   UNL A   1      34.116  26.345  24.857  1.00  0.00     0.002 C 
ENDBRANCH  14  19
ENDBRANCH   8  13
ENDBRANCH   4   7
ENDBRANCH   2   3
ENDBRANCH   1   2
BRANCH   1  27
ATOM     27  C   UNL A   1      36.338  21.102  25.391  1.00  0.00     0.023 C 
BRANCH  27  28
ATOM     28  C   UNL A   1      37.802  21.454  25.137  1.00  0.00     0.116 C 
BRANCH  28  29
ATOM     29  N   UNL A   1      38.731  20.523  25.759  1.00  0.00    -0.352 N 
ATOM     30  C   UNL A   1      39.890  20.737  26.465  1.00  0.00     0.251 C 
ATOM     31  H   UNL A   1      38.486  19.575  25.658  1.00  0.00     0.163 HD
ATOM     32  O   UNL A   1      40.616  19.793  26.755  1.00  0.00    -0.269 OA
BRANCH  30  33
ATOM     33  C   UNL A   1      40.290  22.107  26.859  1.00  0.00     0.039 A 
ATOM     34  C   UNL A   1      41.252  22.265  27.859  1.00  0.00     0.014 A 
ATOM     35  C   UNL A   1      39.706  23.233  26.275  1.00  0.00     0.014 A 
ATOM     36  C   UNL A   1      41.690  23.544  28.206  1.00  0.00     0.010 A 
ATOM     37  C   UNL A   1      40.206  24.504  26.556  1.00  0.00     0.010 A 
ATOM     38  C   UNL A   1      41.208  24.674  27.521  1.00  0.00    -0.014 A 
BRANCH  38  39
ATOM     39  C   UNL A   1      41.780  26.022  27.782  1.00  0.00     0.031 A 
ATOM     40  C   UNL A   1      43.149  26.396  27.286  1.00  0.00     0.074 A 
ATOM     41  C   UNL A   1      41.073  26.903  28.517  1.00  0.00     0.049 A 
ATOM     42  N   UNL A   1      43.792  27.531  27.408  1.00  0.00    -0.248 NA
ATOM     43  C   UNL A   1      43.906  25.350  26.586  1.00  0.00     0.031 C 
ATOM     44  C   UNL A   1      39.762  26.644  29.113  1.00  0.00     0.029 A 
ATOM     45  N   UNL A   1      41.353  28.197  28.883  1.00  0.00    -0.354 N 
ATOM     46  C   UNL A   1      45.027  27.334  26.804  1.00  0.00     0.074 A 
ATOM     47  C   UNL A   1      45.068  25.950  26.379  1.00  0.00     0.031 C 
ATOM     48  C   UNL A   1      39.329  27.755  29.727  1.00  0.00     0.029 A 
ATOM     49  C   UNL A   1      40.347  28.794  29.602  1.00  0.00     0.049 A 
ATOM     50  H   UNL A   1      42.196  28.651  28.653  1.00  0.00     0.167 HD
ATOM     51  C   UNL A   1      46.024  28.228  26.596  1.00  0.00     0.037 A 
ATOM     52  C   UNL A   1      40.250  30.041  30.098  1.00  0.00     0.037 A 
ATOM     53  C   UNL A   1      45.979  29.606  27.020  1.00  0.00     0.049 A 
ATOM     54  C   UNL A   1      41.374  31.013  29.868  1.00  0.00     0.074 A 
ATOM     55  C   UNL A   1      46.912  30.607  26.810  1.00  0.00     0.029 A 
ATOM     56  N   UNL A   1      44.949  30.173  27.757  1.00  0.00    -0.354 N 
ATOM     57  N   UNL A   1      42.500  30.842  29.219  1.00  0.00    -0.248 NA
ATOM     58  C   UNL A   1      41.206  32.357  30.436  1.00  0.00     0.031 C 
ATOM     59  C   UNL A   1      46.474  31.761  27.468  1.00  0.00     0.029 A 
ATOM     60  C   UNL A   1      45.238  31.501  28.038  1.00  0.00     0.049 A 
ATOM     61  H   UNL A   1      44.132  29.702  28.041  1.00  0.00     0.167 HD
ATOM     62  C   UNL A   1      43.165  32.060  29.279  1.00  0.00     0.074 A 
ATOM     63  C   UNL A   1      42.302  32.967  30.008  1.00  0.00     0.031 C 
ATOM     64  C   UNL A   1      44.380  32.393  28.778  1.00  0.00     0.037 A 
BRANCH  51  65
ATOM     65  C   UNL A   1      47.253  27.734  25.882  1.00  0.00     0.064 A 
ATOM     66  C   UNL A   1      48.384  27.287  26.584  1.00  0.00     0.173 A 
ATOM     67  C   UNL A   1      47.302  27.706  24.480  1.00  0.00     0.173 A 
ATOM     68  F   UNL A   1      48.395  27.298  27.925  1.00  0.00    -0.203 F 
ATOM     69  C   UNL A   1      49.533  26.878  25.911  1.00  0.00     0.198 A 
ATOM     70  C   UNL A   1      48.440  27.261  23.810  1.00  0.00     0.198 A 
ATOM     71  F   UNL A   1      46.249  28.112  23.756  1.00  0.00    -0.203 F 
ATOM     72  F   UNL A   1      50.623  26.523  26.604  1.00  0.00    -0.200 F 
ATOM     73  C   UNL A   1      49.558  26.861  24.524  1.00  0.00     0.200 A 
ATOM     74  F   UNL A   1      48.457  27.229  22.470  1.00  0.00    -0.200 F 
ATOM     75  F   UNL A   1      50.666  26.470  23.878  1.00  0.00    -0.200 F 
ENDBRANCH  51  65
BRANCH  52  76
ATOM     76  C   UNL A   1      39.016  30.456  30.814  1.00  0.00     0.064 A 
ATOM     77  C   UNL A   1      37.910  30.951  30.107  1.00  0.00     0.173 A 
ATOM     78  C   UNL A   1      38.905  30.351  32.208  1.00  0.00     0.173 A 
ATOM     79  F   UNL A   1      37.975  31.088  28.774  1.00  0.00    -0.203 F 
ATOM     80  C   UNL A   1      36.747  31.337  30.768  1.00  0.00     0.198 A 
ATOM     81  C   UNL A   1      37.731  30.711  32.865  1.00  0.00     0.198 A 
ATOM     82  F   UNL A   1      39.933  29.880  32.930  1.00  0.00    -0.203 F 
ATOM     83  F   UNL A   1      35.720  31.842  30.072  1.00  0.00    -0.200 F 
ATOM     84  C   UNL A   1      36.656  31.209  32.146  1.00  0.00     0.200 A 
ATOM     85  F   UNL A   1      37.640  30.571  34.195  1.00  0.00    -0.200 F 
ATOM     86  F   UNL A   1      35.531  31.571  32.780  1.00  0.00    -0.200 F 
ENDBRANCH  52  76
BRANCH  64  87
ATOM     87  C   UNL A   1      44.836  33.811  28.985  1.00  0.00     0.064 A 
ATOM     88  C   UNL A   1      44.519  34.831  28.075  1.00  0.00     0.173 A 
ATOM     89  C   UNL A   1      45.602  34.155  30.110  1.00  0.00     0.173 A 
ATOM     90  F   UNL A   1      43.801  34.555  26.975  1.00  0.00    -0.203 F 
ATOM     91  C   UNL A   1      44.986  36.129  28.259  1.00  0.00     0.198 A 
ATOM     92  C   UNL A   1      46.038  35.463  30.311  1.00  0.00     0.198 A 
ATOM     93  F   UNL A   1      45.930  33.223  31.017  1.00  0.00    -0.203 F 
ATOM     94  F   UNL A   1      44.728  37.070  27.339  1.00  0.00    -0.200 F 
ATOM     95  C   UNL A   1      45.740  36.446  29.379  1.00  0.00     0.200 A 
ATOM     96  F   UNL A   1      46.754  35.770  31.401  1.00  0.00    -0.200 F 
ATOM     97  F   UNL A   1      46.192  37.695  29.554  1.00  0.00    -0.200 F 
ENDBRANCH  64  87
ENDBRANCH  38  39
ENDBRANCH  30  33
ENDBRANCH  28  29
ENDBRANCH  27  28
ENDBRANCH   1  27
TORSDOF 13
ENDMDL
MODEL 3
REMARK VINA RESULT:     -13.2      2.825      3.844
REMARK SMILES CC1(C)CCCC[C@H]1NC(=O)Nc1ccccc1C(=O)NCCCCNC(=O)c1ccc(-c2c3nc(c(-c4c(F)c(F)c(F)c(F)c4F)c4ccc([nH]4)c(-c4c(F)c(F)c(F)c(F)c4F)c4nc(c(-c5c(F)c(F)c(F)c(F)c5F)c5ccc2[nH]5)C=C4)C=C3)cc1
REMARK SMILES IDX 23 1 22 2 21 3 19 4 20 5 18 7 13 8 14 9 15 10 17 11 16 12
REMARK SMILES IDX 12 13 9 14 10 15 11 17 8 19 1 20 2 21 3 22 4 23 5 24 7 25
REMARK SMILES IDX 6 26 24 27 25 28 26 29 27 30 28 32 29 33 30 34 91 35 31 36
REMARK SMILES IDX 90 37 32 38 33 39 34 40 84 41 35 42 89 43 83 44 85 45 36 46
REMARK SMILES IDX 88 47 82 48 81 49 37 51 69 52 49 53 68 54 50 55 53 56 67 57
REMARK SMILES IDX 86 58 51 59 52 60 66 62 87 63 54 64 38 65 39 66 47 67 40 68
REMARK SMILES IDX 41 69 45 70 48 71 42 72 43 73 46 74 44 75 70 76 71 77 79 78
REMARK SMILES IDX 72 79 73 80 77 81 80 82 74 83 75 84 78 85 76 86 55 87 56 88
REMARK SMILES IDX 64 89 57 90 58 91 62 92 65 93 59 94 60 95 63 96 61 97
REMARK H PARENT 21 6 9 16 12 18 26 31 85 50 53 61
REMARK Flexibility Score: inf
ROOT
ATOM      1  C   UNL A   1      33.380  29.347  24.811  1.00  0.00     0.023 C 
ENDROOT
BRANCH   1   2
ATOM      2  C   UNL A   1      33.266  28.944  23.343  1.00  0.00     0.116 C 
BRANCH   2   3
ATOM      3  N   UNL A   1      31.953  29.205  22.791  1.00  0.00    -0.352 N 
ATOM      4  C   UNL A   1      30.820  28.434  22.790  1.00  0.00     0.253 C 
ATOM      5  O   UNL A   1      29.897  28.785  22.054  1.00  0.00    -0.269 OA
ATOM      6  H   UNL A   1      31.858  30.078  22.346  1.00  0.00     0.163 HD
BRANCH   4   7
ATOM      7  C   UNL A   1      30.697  27.161  23.553  1.00  0.00     0.063 A 
ATOM      8  C   UNL A   1      30.895  25.858  23.060  1.00  0.00     0.055 A 
ATOM      9  C   UNL A   1      30.577  24.762  23.882  1.00  0.00     0.027 A 
ATOM     10  C   UNL A   1      30.261  24.943  25.229  1.00  0.00     0.002 A 
ATOM     11  C   UNL A   1      30.399  27.325  24.922  1.00  0.00     0.016 A 
ATOM     12  C   UNL A   1      30.212  26.225  25.760  1.00  0.00     0.001 A 
BRANCH   8  13
ATOM     13  N   UNL A   1      31.501  25.510  21.836  1.00  0.00    -0.307 N 
ATOM     14  N   UNL A   1      33.787  25.170  22.350  1.00  0.00    -0.335 N 
ATOM     15  C   UNL A   1      32.803  25.448  21.466  1.00  0.00     0.319 C 
ATOM     16  H   UNL A   1      34.687  25.475  22.090  1.00  0.00     0.165 HD
ATOM     17  O   UNL A   1      33.093  25.549  20.272  1.00  0.00    -0.248 OA
ATOM     18  H   UNL A   1      30.866  25.268  21.124  1.00  0.00     0.171 HD
BRANCH  14  19
ATOM     19  C   UNL A   1      33.707  24.485  23.635  1.00  0.00     0.089 C 
ATOM     20  C   UNL A   1      35.489  22.686  23.160  1.00  0.00     0.013 C 
ATOM     21  C   UNL A   1      34.027  22.961  23.565  1.00  0.00    -0.015 C 
ATOM     22  C   UNL A   1      33.121  22.244  22.542  1.00  0.00     0.013 C 
ATOM     23  C   UNL A   1      33.730  22.373  24.970  1.00  0.00     0.008 C 
ATOM     24  C   UNL A   1      34.434  23.107  26.117  1.00  0.00     0.001 C 
ATOM     25  C   UNL A   1      34.558  25.191  24.695  1.00  0.00     0.025 C 
ATOM     26  C   UNL A   1      34.240  24.619  26.072  1.00  0.00     0.002 C 
ENDBRANCH  14  19
ENDBRANCH   8  13
ENDBRANCH   4   7
ENDBRANCH   2   3
ENDBRANCH   1   2
BRANCH   1  27
ATOM     27  C   UNL A   1      33.838  28.239  25.769  1.00  0.00     0.023 C 
BRANCH  27  28
ATOM     28  C   UNL A   1      33.610  28.494  27.258  1.00  0.00     0.116 C 
BRANCH  28  29
ATOM     29  N   UNL A   1      33.623  29.907  27.605  1.00  0.00    -0.352 N 
ATOM     30  C   UNL A   1      34.587  30.683  28.200  1.00  0.00     0.251 C 
ATOM     31  H   UNL A   1      32.798  30.391  27.372  1.00  0.00     0.163 HD
ATOM     32  O   UNL A   1      34.322  31.825  28.561  1.00  0.00    -0.269 OA
BRANCH  30  33
ATOM     33  C   UNL A   1      35.945  30.146  28.440  1.00  0.00     0.039 A 
ATOM     34  C   UNL A   1      36.895  30.235  27.420  1.00  0.00     0.014 A 
ATOM     35  C   UNL A   1      36.282  29.529  29.648  1.00  0.00     0.014 A 
ATOM     36  C   UNL A   1      38.199  29.790  27.642  1.00  0.00     0.010 A 
ATOM     37  C   UNL A   1      37.604  29.167  29.901  1.00  0.00     0.010 A 
ATOM     38  C   UNL A   1      38.580  29.298  28.904  1.00  0.00    -0.014 A 
BRANCH  38  39
ATOM     39  C   UNL A   1      40.000  28.964  29.192  1.00  0.00     0.031 A 
ATOM     40  C   UNL A   1      40.871  29.892  29.991  1.00  0.00     0.074 A 
ATOM     41  C   UNL A   1      40.523  27.830  28.685  1.00  0.00     0.049 A 
ATOM     42  N   UNL A   1      42.123  29.748  30.351  1.00  0.00    -0.248 NA
ATOM     43  C   UNL A   1      40.267  31.160  30.420  1.00  0.00     0.031 C 
ATOM     44  C   UNL A   1      39.804  26.876  27.839  1.00  0.00     0.029 A 
ATOM     45  N   UNL A   1      41.776  27.283  28.811  1.00  0.00    -0.354 N 
ATOM     46  C   UNL A   1      42.455  30.905  31.042  1.00  0.00     0.074 A 
ATOM     47  C   UNL A   1      41.294  31.770  30.992  1.00  0.00     0.031 C 
ATOM     48  C   UNL A   1      40.610  25.839  27.563  1.00  0.00     0.029 A 
ATOM     49  C   UNL A   1      41.912  26.071  28.179  1.00  0.00     0.049 A 
ATOM     50  H   UNL A   1      42.506  27.719  29.306  1.00  0.00     0.167 HD
ATOM     51  C   UNL A   1      43.608  31.210  31.685  1.00  0.00     0.037 A 
ATOM     52  C   UNL A   1      42.965  25.236  28.110  1.00  0.00     0.037 A 
ATOM     53  C   UNL A   1      44.763  30.347  31.734  1.00  0.00     0.049 A 
ATOM     54  C   UNL A   1      44.240  25.601  28.819  1.00  0.00     0.074 A 
ATOM     55  C   UNL A   1      45.958  30.538  32.405  1.00  0.00     0.029 A 
ATOM     56  N   UNL A   1      44.870  29.133  31.072  1.00  0.00    -0.354 N 
ATOM     57  N   UNL A   1      44.513  26.658  29.544  1.00  0.00    -0.248 NA
ATOM     58  C   UNL A   1      45.351  24.647  28.703  1.00  0.00     0.031 C 
ATOM     59  C   UNL A   1      46.809  29.470  32.101  1.00  0.00     0.029 A 
ATOM     60  C   UNL A   1      46.123  28.578  31.291  1.00  0.00     0.049 A 
ATOM     61  H   UNL A   1      44.160  28.723  30.525  1.00  0.00     0.167 HD
ATOM     62  C   UNL A   1      45.817  26.488  29.992  1.00  0.00     0.074 A 
ATOM     63  C   UNL A   1      46.270  25.212  29.474  1.00  0.00     0.031 C 
ATOM     64  C   UNL A   1      46.570  27.314  30.759  1.00  0.00     0.037 A 
BRANCH  51  65
ATOM     65  C   UNL A   1      43.676  32.543  32.382  1.00  0.00     0.064 A 
ATOM     66  C   UNL A   1      43.266  32.699  33.716  1.00  0.00     0.173 A 
ATOM     67  C   UNL A   1      44.157  33.677  31.711  1.00  0.00     0.173 A 
ATOM     68  F   UNL A   1      42.791  31.650  34.404  1.00  0.00    -0.203 F 
ATOM     69  C   UNL A   1      43.288  33.947  34.334  1.00  0.00     0.198 A 
ATOM     70  C   UNL A   1      44.214  34.917  32.344  1.00  0.00     0.198 A 
ATOM     71  F   UNL A   1      44.572  33.587  30.439  1.00  0.00    -0.203 F 
ATOM     72  F   UNL A   1      42.825  34.082  35.584  1.00  0.00    -0.200 F 
ATOM     73  C   UNL A   1      43.766  35.054  33.649  1.00  0.00     0.200 A 
ATOM     74  F   UNL A   1      44.691  35.982  31.686  1.00  0.00    -0.200 F 
ATOM     75  F   UNL A   1      43.784  36.255  34.244  1.00  0.00    -0.200 F 
ENDBRANCH  51  65
BRANCH  52  76
ATOM     76  C   UNL A   1      42.836  23.946  27.385  1.00  0.00     0.064 A 
ATOM     77  C   UNL A   1      43.209  23.841  26.037  1.00  0.00     0.173 A 
ATOM     78  C   UNL A   1      42.357  22.791  28.021  1.00  0.00     0.173 A 
ATOM     79  F   UNL A   1      43.654  24.923  25.381  1.00  0.00    -0.203 F 
ATOM     80  C   UNL A   1      43.096  22.635  25.350  1.00  0.00     0.198 A 
ATOM     81  C   UNL A   1      42.271  21.579  27.340  1.00  0.00     0.198 A 
ATOM     82  F   UNL A   1      41.990  22.837  29.310  1.00  0.00    -0.203 F 
ATOM     83  F   UNL A   1      43.424  22.573  24.053  1.00  0.00    -0.200 F 
ATOM     84  C   UNL A   1      42.635  21.503  26.005  1.00  0.00     0.200 A 
ATOM     85  F   UNL A   1      41.841  20.483  27.980  1.00  0.00    -0.200 F 
ATOM     86  F   UNL A   1      42.537  20.340  25.345  1.00  0.00    -0.200 F 
ENDBRANCH  52  76
BRANCH  64  87
ATOM     87  C   UNL A   1      47.958  26.849  31.101  1.00  0.00     0.064 A 
ATOM     88  C   UNL A   1      49.075  27.235  30.342  1.00  0.00     0.173 A 
ATOM     89  C   UNL A   1      48.177  26.007  32.201  1.00  0.00     0.173 A 
ATOM     90  F   UNL A   1      48.922  28.028  29.270  1.00  0.00    -0.203 F 
ATOM     91  C   UNL A   1      50.349  26.761  30.647  1.00  0.00     0.198 A 
ATOM     92  C   UNL A   1      49.457  25.563  32.525  1.00  0.00     0.198 A 
ATOM     93  F   UNL A   1      47.149  25.611  32.967  1.00  0.00    -0.203 F 
ATOM     94  F   UNL A   1      51.388  27.088  29.865  1.00  0.00    -0.200 F 
ATOM     95  C   UNL A   1      50.539  25.930  31.740  1.00  0.00     0.200 A 
ATOM     96  F   UNL A   1      49.642  24.773  33.592  1.00  0.00    -0.200 F 
ATOM     97  F   UNL A   1      51.765  25.472  32.030  1.00  0.00    -0.200 F 
ENDBRANCH  64  87
ENDBRANCH  38  39
ENDBRANCH  30  33
ENDBRANCH  28  29
ENDBRANCH  27  28
ENDBRANCH   1  27
TORSDOF 13
ENDMDL
