MODEL 1
REMARK VINA RESULT:     -12.0      0.000      0.000
REMARK SMILES C[NH2+][C@]1(C(=O)NCCCCNC(=O)c2ccc(-c3c4nc(c(-c5c(F)c(F)c(F)c(F)c5F)c5ccc([nH]5)c(-c5c(F)c(F)c(F)c(F)c5F)c5nc(c(-c6c(F)c(F)c(F)c(F)c6F)c6ccc3[nH]6)C=C5)C=C4)cc2)CC[C@@H](OCCCc2ccccc2)C1
REMARK SMILES IDX 7 1 6 2 4 3 5 4 3 6 77 7 90 8 78 9 79 10 2 11 1 12 80 15
REMARK SMILES IDX 81 16 82 17 83 18 84 19 85 20 89 21 86 22 88 23 87 24 8 25
REMARK SMILES IDX 9 26 10 27 11 28 12 29 13 31 14 32 15 33 76 34 16 35 75 36
REMARK SMILES IDX 17 37 18 38 19 39 69 40 20 41 74 42 68 43 70 44 21 45 73 46
REMARK SMILES IDX 67 47 66 48 22 50 54 51 34 52 53 53 35 54 38 55 52 56 71 57
REMARK SMILES IDX 36 58 37 59 51 61 72 62 39 63 23 64 24 65 32 66 25 67 26 68
REMARK SMILES IDX 30 69 33 70 27 71 28 72 31 73 29 74 55 75 56 76 64 77 57 78
REMARK SMILES IDX 58 79 62 80 65 81 59 82 60 83 63 84 61 85 40 86 41 87 49 88
REMARK SMILES IDX 42 89 43 90 47 91 50 92 44 93 45 94 48 95 46 96
REMARK H PARENT 6 5 2 13 2 14 11 30 70 49 38 60
REMARK Flexibility Score: inf
ROOT
ATOM      1  C   UNL A   1      33.134  30.133  26.967  1.00  0.00     0.116 C 
ENDROOT
BRANCH   1   2
ATOM      2  N   UNL A   1      33.799  29.838  25.508  1.00  0.00    -0.351 N 
ATOM      3  C   UNL A   1      33.452  29.042  23.754  1.00  0.00     0.281 C 
ATOM      4  O   UNL A   1      34.304  28.870  22.807  1.00  0.00    -0.268 OA
ATOM      5  H   UNL A   1      34.716  30.194  25.510  1.00  0.00     0.163 HD
BRANCH   3   6
ATOM      6  C   UNL A   1      31.902  28.260  23.048  1.00  0.00     0.177 C 
ATOM      7  C   UNL A   1      32.208  27.070  22.060  1.00  0.00     0.082 C 
ATOM      8  C   UNL A   1      30.568  27.815  23.768  1.00  0.00     0.111 C 
ATOM      9  C   UNL A   1      31.176  25.962  22.289  1.00  0.00     0.039 C 
ATOM     10  C   UNL A   1      30.355  26.322  23.513  1.00  0.00     0.125 C 
BRANCH   6  11
ATOM     11  N   UNL A   1      31.410  29.281  22.001  1.00  0.00    -0.336 N 
ATOM     12  C   UNL A   1      30.025  29.703  22.079  1.00  0.00     0.331 C 
ATOM     13  H   UNL A   1      31.990  30.116  22.092  1.00  0.00     0.346 HD
ATOM     14  H   UNL A   1      31.485  28.796  21.107  1.00  0.00     0.346 HD
ENDBRANCH   6  11
BRANCH  10  15
ATOM     15  O   UNL A   1      30.369  25.317  24.513  1.00  0.00    -0.378 OA
BRANCH  15  16
ATOM     16  C   UNL A   1      30.284  25.545  25.898  1.00  0.00     0.161 C 
BRANCH  16  17
ATOM     17  C   UNL A   1      31.353  26.438  26.501  1.00  0.00     0.033 C 
BRANCH  17  18
ATOM     18  C   UNL A   1      32.807  26.205  26.126  1.00  0.00     0.038 C 
BRANCH  18  19
ATOM     19  C   UNL A   1      33.335  24.808  25.851  1.00  0.00    -0.048 A 
ATOM     20  C   UNL A   1      33.005  23.291  26.876  1.00  0.00     0.004 A 
ATOM     21  C   UNL A   1      34.042  24.587  24.170  1.00  0.00     0.004 A 
ATOM     22  C   UNL A   1      33.395  21.637  26.219  1.00  0.00     0.000 A 
ATOM     23  C   UNL A   1      34.358  22.925  23.503  1.00  0.00     0.000 A 
ATOM     24  C   UNL A   1      34.050  21.448  24.543  1.00  0.00     0.000 A 
ENDBRANCH  18  19
ENDBRANCH  17  18
ENDBRANCH  16  17
ENDBRANCH  15  16
ENDBRANCH  10  15
ENDBRANCH   3   6
ENDBRANCH   1   2
BRANCH   1  25
ATOM     25  C   UNL A   1      31.649  30.483  26.805  1.00  0.00     0.023 C 
BRANCH  25  26
ATOM     26  C   UNL A   1      31.403  31.980  26.876  1.00  0.00     0.023 C 
BRANCH  26  27
ATOM     27  C   UNL A   1      32.701  32.766  26.880  1.00  0.00     0.116 C 
BRANCH  27  28
ATOM     28  N   UNL A   1      32.552  34.041  27.591  1.00  0.00    -0.352 N 
ATOM     29  C   UNL A   1      33.214  34.450  28.715  1.00  0.00     0.251 C 
ATOM     30  H   UNL A   1      31.900  34.676  27.215  1.00  0.00     0.163 HD
ATOM     31  O   UNL A   1      32.839  35.393  29.392  1.00  0.00    -0.269 OA
BRANCH  29  32
ATOM     32  C   UNL A   1      34.413  33.681  29.047  1.00  0.00     0.039 A 
ATOM     33  C   UNL A   1      35.667  34.232  28.810  1.00  0.00     0.014 A 
ATOM     34  C   UNL A   1      34.236  32.513  29.797  1.00  0.00     0.014 A 
ATOM     35  C   UNL A   1      36.773  33.606  29.368  1.00  0.00     0.010 A 
ATOM     36  C   UNL A   1      35.321  31.977  30.456  1.00  0.00     0.010 A 
ATOM     37  C   UNL A   1      36.601  32.498  30.217  1.00  0.00    -0.014 A 
BRANCH  37  38
ATOM     38  C   UNL A   1      37.759  31.824  30.832  1.00  0.00     0.031 A 
ATOM     39  C   UNL A   1      38.181  32.225  32.215  1.00  0.00     0.074 A 
ATOM     40  C   UNL A   1      38.441  30.901  30.130  1.00  0.00     0.049 A 
ATOM     41  N   UNL A   1      39.184  31.790  32.929  1.00  0.00    -0.248 NA
ATOM     42  C   UNL A   1      37.393  33.284  32.872  1.00  0.00     0.031 C 
ATOM     43  C   UNL A   1      38.143  30.488  28.756  1.00  0.00     0.029 A 
ATOM     44  N   UNL A   1      39.524  30.142  30.479  1.00  0.00    -0.354 N 
ATOM     45  C   UNL A   1      39.151  32.529  34.103  1.00  0.00     0.074 A 
ATOM     46  C   UNL A   1      38.088  33.495  33.977  1.00  0.00     0.031 C 
ATOM     47  C   UNL A   1      38.997  29.518  28.396  1.00  0.00     0.029 A 
ATOM     48  C   UNL A   1      39.930  29.278  29.492  1.00  0.00     0.049 A 
ATOM     49  H   UNL A   1      39.971  30.209  31.353  1.00  0.00     0.167 HD
ATOM     50  C   UNL A   1      39.920  32.384  35.205  1.00  0.00     0.037 A 
ATOM     51  C   UNL A   1      40.947  28.397  29.481  1.00  0.00     0.037 A 
ATOM     52  C   UNL A   1      40.961  31.401  35.321  1.00  0.00     0.049 A 
ATOM     53  C   UNL A   1      41.800  28.270  30.715  1.00  0.00     0.074 A 
ATOM     54  C   UNL A   1      41.767  31.124  36.408  1.00  0.00     0.029 A 
ATOM     55  N   UNL A   1      41.345  30.539  34.302  1.00  0.00    -0.354 N 
ATOM     56  N   UNL A   1      41.712  28.914  31.854  1.00  0.00    -0.248 NA
ATOM     57  C   UNL A   1      42.889  27.286  30.664  1.00  0.00     0.031 C 
ATOM     58  C   UNL A   1      42.688  30.146  36.024  1.00  0.00     0.029 A 
ATOM     59  C   UNL A   1      42.403  29.753  34.725  1.00  0.00     0.049 A 
ATOM     60  H   UNL A   1      40.927  30.493  33.412  1.00  0.00     0.167 HD
ATOM     61  C   UNL A   1      42.711  28.395  32.666  1.00  0.00     0.074 A 
ATOM     62  C   UNL A   1      43.379  27.368  31.893  1.00  0.00     0.031 C 
ATOM     63  C   UNL A   1      43.047  28.735  33.936  1.00  0.00     0.037 A 
BRANCH  50  64
ATOM     64  C   UNL A   1      39.665  33.312  36.358  1.00  0.00     0.064 A 
ATOM     65  C   UNL A   1      40.294  34.563  36.458  1.00  0.00     0.173 A 
ATOM     66  C   UNL A   1      38.763  32.950  37.370  1.00  0.00     0.173 A 
ATOM     67  F   UNL A   1      41.181  34.952  35.529  1.00  0.00    -0.203 F 
ATOM     68  C   UNL A   1      40.052  35.403  37.542  1.00  0.00     0.198 A 
ATOM     69  C   UNL A   1      38.493  33.810  38.431  1.00  0.00     0.198 A 
ATOM     70  F   UNL A   1      38.137  31.764  37.327  1.00  0.00    -0.203 F 
ATOM     71  F   UNL A   1      40.710  36.566  37.647  1.00  0.00    -0.200 F 
ATOM     72  C   UNL A   1      39.145  35.030  38.521  1.00  0.00     0.200 A 
ATOM     73  F   UNL A   1      37.606  33.453  39.369  1.00  0.00    -0.200 F 
ATOM     74  F   UNL A   1      38.903  35.844  39.558  1.00  0.00    -0.200 F 
ENDBRANCH  50  64
BRANCH  51  75
ATOM     75  C   UNL A   1      41.198  27.563  28.277  1.00  0.00     0.064 A 
ATOM     76  C   UNL A   1      40.623  26.291  28.143  1.00  0.00     0.173 A 
ATOM     77  C   UNL A   1      42.021  28.016  27.236  1.00  0.00     0.173 A 
ATOM     78  F   UNL A   1      39.838  25.805  29.116  1.00  0.00    -0.203 F 
ATOM     79  C   UNL A   1      40.886  25.494  27.032  1.00  0.00     0.198 A 
ATOM     80  C   UNL A   1      42.255  27.233  26.107  1.00  0.00     0.198 A 
ATOM     81  F   UNL A   1      42.587  29.230  27.306  1.00  0.00    -0.203 F 
ATOM     82  F   UNL A   1      40.368  24.260  26.957  1.00  0.00    -0.200 F 
ATOM     83  C   UNL A   1      41.697  25.968  26.011  1.00  0.00     0.200 A 
ATOM     84  F   UNL A   1      43.021  27.705  25.114  1.00  0.00    -0.200 F 
ATOM     85  F   UNL A   1      41.947  25.203  24.941  1.00  0.00    -0.200 F 
ENDBRANCH  51  75
BRANCH  63  86
ATOM     86  C   UNL A   1      44.159  27.960  34.583  1.00  0.00     0.064 A 
ATOM     87  C   UNL A   1      45.488  28.408  34.558  1.00  0.00     0.173 A 
ATOM     88  C   UNL A   1      43.879  26.773  35.280  1.00  0.00     0.173 A 
ATOM     89  F   UNL A   1      45.811  29.531  33.897  1.00  0.00    -0.203 F 
ATOM     90  C   UNL A   1      46.500  27.678  35.176  1.00  0.00     0.198 A 
ATOM     91  C   UNL A   1      44.886  26.069  35.932  1.00  0.00     0.198 A 
ATOM     92  F   UNL A   1      42.623  26.306  35.345  1.00  0.00    -0.203 F 
ATOM     93  F   UNL A   1      47.771  28.092  35.087  1.00  0.00    -0.200 F 
ATOM     94  C   UNL A   1      46.197  26.516  35.870  1.00  0.00     0.200 A 
ATOM     95  F   UNL A   1      44.587  24.960  36.621  1.00  0.00    -0.200 F 
ATOM     96  F   UNL A   1      47.170  25.822  36.474  1.00  0.00    -0.200 F 
ENDBRANCH  63  86
ENDBRANCH  37  38
ENDBRANCH  29  32
ENDBRANCH  27  28
ENDBRANCH  26  27
ENDBRANCH  25  26
ENDBRANCH   1  25
TORSDOF 17
ENDMDL
MODEL 2
REMARK VINA RESULT:     -11.7      5.461     10.994
REMARK SMILES C[NH2+][C@]1(C(=O)NCCCCNC(=O)c2ccc(-c3c4nc(c(-c5c(F)c(F)c(F)c(F)c5F)c5ccc([nH]5)c(-c5c(F)c(F)c(F)c(F)c5F)c5nc(c(-c6c(F)c(F)c(F)c(F)c6F)c6ccc3[nH]6)C=C5)C=C4)cc2)CC[C@@H](OCCCc2ccccc2)C1
REMARK SMILES IDX 7 1 6 2 4 3 5 4 3 6 77 7 90 8 78 9 79 10 2 11 1 12 80 15
REMARK SMILES IDX 81 16 82 17 83 18 84 19 85 20 89 21 86 22 88 23 87 24 8 25
REMARK SMILES IDX 9 26 10 27 11 28 12 29 13 31 14 32 15 33 76 34 16 35 75 36
REMARK SMILES IDX 17 37 18 38 19 39 69 40 20 41 74 42 68 43 70 44 21 45 73 46
REMARK SMILES IDX 67 47 66 48 22 50 54 51 34 52 53 53 35 54 38 55 52 56 71 57
REMARK SMILES IDX 36 58 37 59 51 61 72 62 39 63 23 64 24 65 32 66 25 67 26 68
REMARK SMILES IDX 30 69 33 70 27 71 28 72 31 73 29 74 55 75 56 76 64 77 57 78
REMARK SMILES IDX 58 79 62 80 65 81 59 82 60 83 63 84 61 85 40 86 41 87 49 88
REMARK SMILES IDX 42 89 43 90 47 91 50 92 44 93 45 94 48 95 46 96
REMARK H PARENT 6 5 2 13 2 14 11 30 70 49 38 60
REMARK Flexibility Score: inf
ROOT
ATOM      1  C   UNL A   1      38.534  22.972  26.127  1.00  0.00     0.116 C 
ENDROOT
BRANCH   1   2
ATOM      2  N   UNL A   1      37.471  21.825  25.666  1.00  0.00    -0.351 N 
ATOM      3  C   UNL A   1      35.594  21.513  25.207  1.00  0.00     0.281 C 
ATOM      4  O   UNL A   1      35.036  20.377  24.986  1.00  0.00    -0.268 OA
ATOM      5  H   UNL A   1      37.953  20.970  25.592  1.00  0.00     0.163 HD
BRANCH   3   6
ATOM      6  C   UNL A   1      34.151  22.703  25.072  1.00  0.00     0.177 C 
ATOM      7  C   UNL A   1      34.448  24.107  25.724  1.00  0.00     0.082 C 
ATOM      8  C   UNL A   1      33.233  23.051  23.835  1.00  0.00     0.111 C 
ATOM      9  C   UNL A   1      33.833  25.199  24.843  1.00  0.00     0.039 C 
ATOM     10  C   UNL A   1      33.333  24.553  23.563  1.00  0.00     0.125 C 
BRANCH   6  11
ATOM     11  N   UNL A   1      33.143  22.192  26.122  1.00  0.00    -0.336 N 
ATOM     12  C   UNL A   1      31.741  22.185  25.755  1.00  0.00     0.331 C 
ATOM     13  H   UNL A   1      33.404  21.233  26.355  1.00  0.00     0.346 HD
ATOM     14  H   UNL A   1      33.209  22.858  26.892  1.00  0.00     0.346 HD
ENDBRANCH   6  11
BRANCH  10  15
ATOM     15  O   UNL A   1      33.881  25.132  22.391  1.00  0.00    -0.378 OA
BRANCH  15  16
ATOM     16  C   UNL A   1      33.278  26.146  21.625  1.00  0.00     0.161 C 
BRANCH  16  17
ATOM     17  C   UNL A   1      31.766  26.246  21.712  1.00  0.00     0.033 C 
BRANCH  17  18
ATOM     18  C   UNL A   1      31.143  27.464  22.372  1.00  0.00     0.038 C 
BRANCH  18  19
ATOM     19  C   UNL A   1      31.429  27.805  23.824  1.00  0.00    -0.048 A 
ATOM     20  C   UNL A   1      30.682  26.977  25.312  1.00  0.00     0.004 A 
ATOM     21  C   UNL A   1      32.904  28.873  24.070  1.00  0.00     0.004 A 
ATOM     22  C   UNL A   1      31.398  27.242  26.967  1.00  0.00     0.000 A 
ATOM     23  C   UNL A   1      33.648  29.069  25.717  1.00  0.00     0.000 A 
ATOM     24  C   UNL A   1      32.876  28.264  27.172  1.00  0.00     0.000 A 
ENDBRANCH  18  19
ENDBRANCH  17  18
ENDBRANCH  16  17
ENDBRANCH  15  16
ENDBRANCH  10  15
ENDBRANCH   3   6
ENDBRANCH   1   2
BRANCH   1  25
ATOM     25  C   UNL A   1      39.874  22.324  26.502  1.00  0.00     0.023 C 
BRANCH  25  26
ATOM     26  C   UNL A   1      39.921  20.853  26.132  1.00  0.00     0.023 C 
BRANCH  26  27
ATOM     27  C   UNL A   1      40.847  20.069  27.045  1.00  0.00     0.116 C 
BRANCH  27  28
ATOM     28  N   UNL A   1      41.734  19.187  26.279  1.00  0.00    -0.352 N 
ATOM     29  C   UNL A   1      42.810  19.547  25.517  1.00  0.00     0.251 C 
ATOM     30  H   UNL A   1      41.531  18.224  26.318  1.00  0.00     0.163 HD
ATOM     31  O   UNL A   1      43.319  18.794  24.702  1.00  0.00    -0.269 OA
BRANCH  29  32
ATOM     32  C   UNL A   1      43.318  20.897  25.752  1.00  0.00     0.039 A 
ATOM     33  C   UNL A   1      43.234  21.846  24.739  1.00  0.00     0.014 A 
ATOM     34  C   UNL A   1      43.663  21.232  27.066  1.00  0.00     0.014 A 
ATOM     35  C   UNL A   1      43.475  23.173  25.063  1.00  0.00     0.010 A 
ATOM     36  C   UNL A   1      43.766  22.563  27.406  1.00  0.00     0.010 A 
ATOM     37  C   UNL A   1      43.710  23.539  26.402  1.00  0.00    -0.014 A 
BRANCH  37  38
ATOM     38  C   UNL A   1      43.956  24.945  26.774  1.00  0.00     0.031 A 
ATOM     39  C   UNL A   1      45.324  25.523  26.556  1.00  0.00     0.074 A 
ATOM     40  C   UNL A   1      42.972  25.665  27.341  1.00  0.00     0.049 A 
ATOM     41  N   UNL A   1      45.768  26.718  26.839  1.00  0.00    -0.248 NA
ATOM     42  C   UNL A   1      46.341  24.627  25.975  1.00  0.00     0.031 C 
ATOM     43  C   UNL A   1      41.627  25.171  27.648  1.00  0.00     0.029 A 
ATOM     44  N   UNL A   1      42.952  26.968  27.756  1.00  0.00    -0.354 N 
ATOM     45  C   UNL A   1      47.109  26.708  26.484  1.00  0.00     0.074 A 
ATOM     46  C   UNL A   1      47.432  25.372  26.045  1.00  0.00     0.031 C 
ATOM     47  C   UNL A   1      40.900  26.174  28.164  1.00  0.00     0.029 A 
ATOM     48  C   UNL A   1      41.740  27.362  28.269  1.00  0.00     0.049 A 
ATOM     49  H   UNL A   1      43.731  27.566  27.696  1.00  0.00     0.167 HD
ATOM     50  C   UNL A   1      47.984  27.738  26.490  1.00  0.00     0.037 A 
ATOM     51  C   UNL A   1      41.361  28.552  28.770  1.00  0.00     0.037 A 
ATOM     52  C   UNL A   1      47.639  29.068  26.911  1.00  0.00     0.049 A 
ATOM     53  C   UNL A   1      42.361  29.678  28.782  1.00  0.00     0.074 A 
ATOM     54  C   UNL A   1      48.425  30.203  26.906  1.00  0.00     0.029 A 
ATOM     55  N   UNL A   1      46.400  29.434  27.422  1.00  0.00    -0.354 N 
ATOM     56  N   UNL A   1      43.606  29.685  28.368  1.00  0.00    -0.248 NA
ATOM     57  C   UNL A   1      41.901  30.962  29.324  1.00  0.00     0.031 C 
ATOM     58  C   UNL A   1      47.688  31.241  27.484  1.00  0.00     0.029 A 
ATOM     59  C   UNL A   1      46.414  30.774  27.771  1.00  0.00     0.049 A 
ATOM     60  H   UNL A   1      45.628  28.831  27.521  1.00  0.00     0.167 HD
ATOM     61  C   UNL A   1      44.069  30.978  28.569  1.00  0.00     0.074 A 
ATOM     62  C   UNL A   1      42.962  31.731  29.125  1.00  0.00     0.031 C 
ATOM     63  C   UNL A   1      45.296  31.499  28.319  1.00  0.00     0.037 A 
BRANCH  50  64
ATOM     64  C   UNL A   1      49.388  27.461  26.036  1.00  0.00     0.064 A 
ATOM     65  C   UNL A   1      50.422  27.186  26.946  1.00  0.00     0.173 A 
ATOM     66  C   UNL A   1      49.700  27.452  24.669  1.00  0.00     0.173 A 
ATOM     67  F   UNL A   1      50.184  27.201  28.267  1.00  0.00    -0.203 F 
ATOM     68  C   UNL A   1      51.720  26.943  26.504  1.00  0.00     0.198 A 
ATOM     69  C   UNL A   1      50.991  27.170  24.230  1.00  0.00     0.198 A 
ATOM     70  F   UNL A   1      48.752  27.714  23.756  1.00  0.00    -0.203 F 
ATOM     71  F   UNL A   1      52.702  26.744  27.394  1.00  0.00    -0.200 F 
ATOM     72  C   UNL A   1      52.000  26.925  25.147  1.00  0.00     0.200 A 
ATOM     73  F   UNL A   1      51.256  27.140  22.917  1.00  0.00    -0.200 F 
ATOM     74  F   UNL A   1      53.248  26.680  24.722  1.00  0.00    -0.200 F 
ENDBRANCH  50  64
BRANCH  51  75
ATOM     75  C   UNL A   1      39.978  28.741  29.278  1.00  0.00     0.064 A 
ATOM     76  C   UNL A   1      38.944  29.161  28.429  1.00  0.00     0.173 A 
ATOM     77  C   UNL A   1      39.659  28.509  30.624  1.00  0.00     0.173 A 
ATOM     78  F   UNL A   1      39.198  29.408  27.136  1.00  0.00    -0.203 F 
ATOM     79  C   UNL A   1      37.655  29.372  28.913  1.00  0.00     0.198 A 
ATOM     80  C   UNL A   1      38.361  28.686  31.100  1.00  0.00     0.198 A 
ATOM     81  F   UNL A   1      40.607  28.094  31.478  1.00  0.00    -0.203 F 
ATOM     82  F   UNL A   1      36.700  29.828  28.091  1.00  0.00    -0.200 F 
ATOM     83  C   UNL A   1      37.363  29.129  30.246  1.00  0.00     0.200 A 
ATOM     84  F   UNL A   1      38.080  28.428  32.384  1.00  0.00    -0.200 F 
ATOM     85  F   UNL A   1      36.122  29.329  30.711  1.00  0.00    -0.200 F 
ENDBRANCH  51  75
BRANCH  63  86
ATOM     86  C   UNL A   1      45.494  32.961  28.602  1.00  0.00     0.064 A 
ATOM     87  C   UNL A   1      46.009  33.416  29.825  1.00  0.00     0.173 A 
ATOM     88  C   UNL A   1      45.207  33.916  27.614  1.00  0.00     0.173 A 
ATOM     89  F   UNL A   1      46.291  32.545  30.806  1.00  0.00    -0.203 F 
ATOM     90  C   UNL A   1      46.195  34.776  30.060  1.00  0.00     0.198 A 
ATOM     91  C   UNL A   1      45.434  35.270  27.837  1.00  0.00     0.198 A 
ATOM     92  F   UNL A   1      44.723  33.533  26.422  1.00  0.00    -0.203 F 
ATOM     93  F   UNL A   1      46.630  35.193  31.257  1.00  0.00    -0.200 F 
ATOM     94  C   UNL A   1      45.916  35.700  29.063  1.00  0.00     0.200 A 
ATOM     95  F   UNL A   1      45.186  36.158  26.865  1.00  0.00    -0.200 F 
ATOM     96  F   UNL A   1      46.107  37.007  29.287  1.00  0.00    -0.200 F 
ENDBRANCH  63  86
ENDBRANCH  37  38
ENDBRANCH  29  32
ENDBRANCH  27  28
ENDBRANCH  26  27
ENDBRANCH  25  26
ENDBRANCH   1  25
TORSDOF 17
ENDMDL
MODEL 3
REMARK VINA RESULT:     -11.7      5.544      9.632
REMARK SMILES C[NH2+][C@]1(C(=O)NCCCCNC(=O)c2ccc(-c3c4nc(c(-c5c(F)c(F)c(F)c(F)c5F)c5ccc([nH]5)c(-c5c(F)c(F)c(F)c(F)c5F)c5nc(c(-c6c(F)c(F)c(F)c(F)c6F)c6ccc3[nH]6)C=C5)C=C4)cc2)CC[C@@H](OCCCc2ccccc2)C1
REMARK SMILES IDX 7 1 6 2 4 3 5 4 3 6 77 7 90 8 78 9 79 10 2 11 1 12 80 15
REMARK SMILES IDX 81 16 82 17 83 18 84 19 85 20 89 21 86 22 88 23 87 24 8 25
REMARK SMILES IDX 9 26 10 27 11 28 12 29 13 31 14 32 15 33 76 34 16 35 75 36
REMARK SMILES IDX 17 37 18 38 19 39 69 40 20 41 74 42 68 43 70 44 21 45 73 46
REMARK SMILES IDX 67 47 66 48 22 50 54 51 34 52 53 53 35 54 38 55 52 56 71 57
REMARK SMILES IDX 36 58 37 59 51 61 72 62 39 63 23 64 24 65 32 66 25 67 26 68
REMARK SMILES IDX 30 69 33 70 27 71 28 72 31 73 29 74 55 75 56 76 64 77 57 78
REMARK SMILES IDX 58 79 62 80 65 81 59 82 60 83 63 84 61 85 40 86 41 87 49 88
REMARK SMILES IDX 42 89 43 90 47 91 50 92 44 93 45 94 48 95 46 96
REMARK H PARENT 6 5 2 13 2 14 11 30 70 49 38 60
REMARK Flexibility Score: inf
ROOT
ATOM      1  C   UNL A   1      37.573  22.710  25.450  1.00  0.00     0.116 C 
ENDROOT
BRANCH   1   2
ATOM      2  N   UNL A   1      36.332  22.688  26.506  1.00  0.00    -0.351 N 
ATOM      3  C   UNL A   1      34.410  22.355  26.668  1.00  0.00     0.281 C 
ATOM      4  O   UNL A   1      33.680  22.557  27.707  1.00  0.00    -0.268 OA
ATOM      5  H   UNL A   1      36.679  22.934  27.394  1.00  0.00     0.163 HD
BRANCH   3   6
ATOM      6  C   UNL A   1      33.154  21.782  25.400  1.00  0.00     0.177 C 
ATOM      7  C   UNL A   1      31.855  22.675  25.373  1.00  0.00     0.082 C 
ATOM      8  C   UNL A   1      33.352  21.363  23.889  1.00  0.00     0.111 C 
ATOM      9  C   UNL A   1      31.409  22.851  23.918  1.00  0.00     0.039 C 
ATOM     10  C   UNL A   1      32.483  22.271  23.017  1.00  0.00     0.125 C 
BRANCH   6  11
ATOM     11  N   UNL A   1      32.530  20.521  26.033  1.00  0.00    -0.336 N 
ATOM     12  C   UNL A   1      32.776  19.252  25.377  1.00  0.00     0.331 C 
ATOM     13  H   UNL A   1      32.887  20.448  26.986  1.00  0.00     0.346 HD
ATOM     14  H   UNL A   1      31.522  20.663  25.957  1.00  0.00     0.346 HD
ENDBRANCH   6  11
BRANCH  10  15
ATOM     15  O   UNL A   1      32.976  23.197  22.065  1.00  0.00    -0.378 OA
BRANCH  15  16
ATOM     16  C   UNL A   1      33.548  24.447  22.364  1.00  0.00     0.161 C 
BRANCH  16  17
ATOM     17  C   UNL A   1      32.897  25.657  21.720  1.00  0.00     0.033 C 
BRANCH  17  18
ATOM     18  C   UNL A   1      32.018  26.561  22.567  1.00  0.00     0.038 C 
BRANCH  18  19
ATOM     19  C   UNL A   1      32.459  27.023  23.945  1.00  0.00    -0.048 A 
ATOM     20  C   UNL A   1      33.849  28.203  24.311  1.00  0.00     0.004 A 
ATOM     21  C   UNL A   1      31.262  26.644  25.285  1.00  0.00     0.004 A 
ATOM     22  C   UNL A   1      34.013  28.942  25.969  1.00  0.00     0.000 A 
ATOM     23  C   UNL A   1      31.399  27.445  26.912  1.00  0.00     0.000 A 
ATOM     24  C   UNL A   1      32.794  28.583  27.256  1.00  0.00     0.000 A 
ENDBRANCH  18  19
ENDBRANCH  17  18
ENDBRANCH  16  17
ENDBRANCH  15  16
ENDBRANCH  10  15
ENDBRANCH   3   6
ENDBRANCH   1   2
BRANCH   1  25
ATOM     25  C   UNL A   1      38.894  22.935  26.198  1.00  0.00     0.023 C 
BRANCH  25  26
ATOM     26  C   UNL A   1      39.480  21.639  26.728  1.00  0.00     0.023 C 
BRANCH  26  27
ATOM     27  C   UNL A   1      39.703  20.625  25.621  1.00  0.00     0.116 C 
BRANCH  27  28
ATOM     28  N   UNL A   1      40.423  19.445  26.112  1.00  0.00    -0.352 N 
ATOM     29  C   UNL A   1      41.757  19.340  26.389  1.00  0.00     0.251 C 
ATOM     30  H   UNL A   1      39.883  18.634  26.259  1.00  0.00     0.163 HD
ATOM     31  O   UNL A   1      42.317  18.263  26.526  1.00  0.00    -0.269 OA
BRANCH  29  32
ATOM     32  C   UNL A   1      42.470  20.610  26.520  1.00  0.00     0.039 A 
ATOM     33  C   UNL A   1      42.747  21.360  25.382  1.00  0.00     0.014 A 
ATOM     34  C   UNL A   1      42.643  21.116  27.813  1.00  0.00     0.014 A 
ATOM     35  C   UNL A   1      43.182  22.666  25.550  1.00  0.00     0.010 A 
ATOM     36  C   UNL A   1      42.943  22.452  27.968  1.00  0.00     0.010 A 
ATOM     37  C   UNL A   1      43.250  23.226  26.840  1.00  0.00    -0.014 A 
BRANCH  37  38
ATOM     38  C   UNL A   1      43.697  24.616  27.042  1.00  0.00     0.031 A 
ATOM     39  C   UNL A   1      42.705  25.633  27.527  1.00  0.00     0.074 A 
ATOM     40  C   UNL A   1      44.964  24.957  26.748  1.00  0.00     0.049 A 
ATOM     41  N   UNL A   1      42.872  26.910  27.741  1.00  0.00    -0.248 NA
ATOM     42  C   UNL A   1      41.330  25.160  27.769  1.00  0.00     0.031 C 
ATOM     43  C   UNL A   1      45.985  24.051  26.214  1.00  0.00     0.029 A 
ATOM     44  N   UNL A   1      45.610  26.158  26.860  1.00  0.00    -0.354 N 
ATOM     45  C   UNL A   1      41.628  27.387  28.127  1.00  0.00     0.074 A 
ATOM     46  C   UNL A   1      40.697  26.289  28.038  1.00  0.00     0.031 C 
ATOM     47  C   UNL A   1      47.141  24.721  26.086  1.00  0.00     0.029 A 
ATOM     48  C   UNL A   1      46.929  26.110  26.481  1.00  0.00     0.049 A 
ATOM     49  H   UNL A   1      45.171  26.979  27.179  1.00  0.00     0.167 HD
ATOM     50  C   UNL A   1      41.302  28.627  28.553  1.00  0.00     0.037 A 
ATOM     51  C   UNL A   1      47.855  27.086  26.454  1.00  0.00     0.037 A 
ATOM     52  C   UNL A   1      42.248  29.704  28.655  1.00  0.00     0.049 A 
ATOM     53  C   UNL A   1      47.460  28.463  26.917  1.00  0.00     0.074 A 
ATOM     54  C   UNL A   1      42.047  30.985  29.128  1.00  0.00     0.029 A 
ATOM     55  N   UNL A   1      43.579  29.620  28.266  1.00  0.00    -0.354 N 
ATOM     56  N   UNL A   1      46.301  28.889  27.360  1.00  0.00    -0.248 NA
ATOM     57  C   UNL A   1      48.506  29.494  26.885  1.00  0.00     0.031 C 
ATOM     58  C   UNL A   1      43.234  31.701  28.955  1.00  0.00     0.029 A 
ATOM     59  C   UNL A   1      44.201  30.842  28.454  1.00  0.00     0.049 A 
ATOM     60  H   UNL A   1      44.015  28.812  27.910  1.00  0.00     0.167 HD
ATOM     61  C   UNL A   1      46.483  30.225  27.687  1.00  0.00     0.074 A 
ATOM     62  C   UNL A   1      47.872  30.532  27.410  1.00  0.00     0.031 C 
ATOM     63  C   UNL A   1      45.587  31.119  28.173  1.00  0.00     0.037 A 
BRANCH  50  64
ATOM     64  C   UNL A   1      39.871  28.880  28.931  1.00  0.00     0.064 A 
ATOM     65  C   UNL A   1      38.926  29.336  27.998  1.00  0.00     0.173 A 
ATOM     66  C   UNL A   1      39.434  28.643  30.243  1.00  0.00     0.173 A 
ATOM     67  F   UNL A   1      39.293  29.597  26.735  1.00  0.00    -0.203 F 
ATOM     68  C   UNL A   1      37.606  29.575  28.373  1.00  0.00     0.198 A 
ATOM     69  C   UNL A   1      38.105  28.845  30.604  1.00  0.00     0.198 A 
ATOM     70  F   UNL A   1      40.296  28.211  31.176  1.00  0.00    -0.203 F 
ATOM     71  F   UNL A   1      36.737  30.069  27.481  1.00  0.00    -0.200 F 
ATOM     72  C   UNL A   1      37.195  29.319  29.672  1.00  0.00     0.200 A 
ATOM     73  F   UNL A   1      37.707  28.585  31.856  1.00  0.00    -0.200 F 
ATOM     74  F   UNL A   1      35.922  29.538  30.029  1.00  0.00    -0.200 F 
ENDBRANCH  50  64
BRANCH  51  75
ATOM     75  C   UNL A   1      49.236  26.790  25.993  1.00  0.00     0.064 A 
ATOM     76  C   UNL A   1      50.205  26.292  26.875  1.00  0.00     0.173 A 
ATOM     77  C   UNL A   1      49.620  27.004  24.660  1.00  0.00     0.173 A 
ATOM     78  F   UNL A   1      49.892  26.082  28.163  1.00  0.00    -0.203 F 
ATOM     79  C   UNL A   1      51.509  26.049  26.452  1.00  0.00     0.198 A 
ATOM     80  C   UNL A   1      50.916  26.726  24.228  1.00  0.00     0.198 A 
ATOM     81  F   UNL A   1      48.730  27.468  23.770  1.00  0.00    -0.203 F 
ATOM     82  F   UNL A   1      52.428  25.626  27.330  1.00  0.00    -0.200 F 
ATOM     83  C   UNL A   1      51.862  26.260  25.127  1.00  0.00     0.200 A 
ATOM     84  F   UNL A   1      51.245  26.911  22.943  1.00  0.00    -0.200 F 
ATOM     85  F   UNL A   1      53.116  26.023  24.720  1.00  0.00    -0.200 F 
ENDBRANCH  51  75
BRANCH  63  86
ATOM     86  C   UNL A   1      46.089  32.502  28.478  1.00  0.00     0.064 A 
ATOM     87  C   UNL A   1      46.035  33.536  27.531  1.00  0.00     0.173 A 
ATOM     88  C   UNL A   1      46.590  32.805  29.754  1.00  0.00     0.173 A 
ATOM     89  F   UNL A   1      45.575  33.296  26.293  1.00  0.00    -0.203 F 
ATOM     90  C   UNL A   1      46.496  34.813  27.840  1.00  0.00     0.198 A 
ATOM     91  C   UNL A   1      47.010  34.093  30.072  1.00  0.00     0.198 A 
ATOM     92  F   UNL A   1      46.653  31.856  30.700  1.00  0.00    -0.203 F 
ATOM     93  F   UNL A   1      46.492  35.769  26.901  1.00  0.00    -0.200 F 
ATOM     94  C   UNL A   1      46.974  35.092  29.112  1.00  0.00     0.200 A 
ATOM     95  F   UNL A   1      47.449  34.365  31.308  1.00  0.00    -0.200 F 
ATOM     96  F   UNL A   1      47.406  36.324  29.411  1.00  0.00    -0.200 F 
ENDBRANCH  63  86
ENDBRANCH  37  38
ENDBRANCH  29  32
ENDBRANCH  27  28
ENDBRANCH  26  27
ENDBRANCH  25  26
ENDBRANCH   1  25
TORSDOF 17
ENDMDL
