MODEL 1
REMARK VINA RESULT:     -12.7      0.000      0.000
REMARK SMILES COc1ccccc1Nc1snc(C)c1C(=O)NCCCCNC(=O)c1ccc(-c2c3nc(c(-c4c(F)c(F)c(F)c(F)c4F)c4ccc([nH]4)c(-c4c(F)c(F)c(F)c(F)c4F)c4nc(c(-c5c(F)c(F)c(F)c(F)c5F)c5ccc2[nH]5)C=C4)C=C3)cc1
REMARK SMILES IDX 20 1 19 2 18 3 16 4 17 5 15 7 10 8 11 9 12 10 13 11 14 12
REMARK SMILES IDX 9 13 8 15 3 16 4 17 5 18 7 19 6 20 2 21 1 22 21 23 22 24
REMARK SMILES IDX 23 25 24 26 25 28 26 29 27 30 88 31 28 32 87 33 29 34 30 35
REMARK SMILES IDX 31 36 81 37 32 38 86 39 80 40 82 41 33 42 85 43 79 44 78 45
REMARK SMILES IDX 34 47 66 48 46 49 65 50 47 51 50 52 64 53 83 54 48 55 49 56
REMARK SMILES IDX 63 58 84 59 51 60 35 61 36 62 44 63 37 64 38 65 42 66 45 67
REMARK SMILES IDX 39 68 40 69 43 70 41 71 67 72 68 73 76 74 69 75 70 76 74 77
REMARK SMILES IDX 77 78 71 79 72 80 75 81 73 82 52 83 53 84 61 85 54 86 55 87
REMARK SMILES IDX 59 88 62 89 56 90 57 91 60 92 58 93
REMARK H PARENT 18 6 9 14 23 27 82 46 50 57
REMARK Flexibility Score: inf
ROOT
ATOM      1  C   UNL A   1      31.531  30.813  26.107  1.00  0.00     0.023 C 
ENDROOT
BRANCH   1   2
ATOM      2  C   UNL A   1      32.885  30.099  26.169  1.00  0.00     0.116 C 
BRANCH   2   3
ATOM      3  N   UNL A   1      33.479  29.642  24.934  1.00  0.00    -0.352 N 
ATOM      4  C   UNL A   1      32.904  28.940  23.883  1.00  0.00     0.256 C 
ATOM      5  O   UNL A   1      33.536  28.977  22.823  1.00  0.00    -0.269 OA
ATOM      6  H   UNL A   1      34.432  29.860  24.821  1.00  0.00     0.163 HD
BRANCH   4   7
ATOM      7  C   UNL A   1      31.694  28.103  23.999  1.00  0.00     0.097 A 
ATOM      8  C   UNL A   1      31.390  27.061  24.884  1.00  0.00     0.127 A 
ATOM      9  S   UNL A   1      29.890  26.355  24.409  1.00  0.00    -0.018 S 
ATOM     10  N   UNL A   1      29.494  27.488  23.300  1.00  0.00    -0.195 NA
ATOM     11  C   UNL A   1      30.498  28.356  23.182  1.00  0.00     0.066 A 
ATOM     12  C   UNL A   1      30.259  29.470  22.216  1.00  0.00     0.069 C 
BRANCH   8  13
ATOM     13  N   UNL A   1      31.997  26.516  25.968  1.00  0.00    -0.342 N 
ATOM     14  H   UNL A   1      31.806  26.950  26.831  1.00  0.00     0.168 HD
BRANCH  13  15
ATOM     15  C   UNL A   1      32.866  25.412  26.017  1.00  0.00     0.082 A 
ATOM     16  C   UNL A   1      32.405  24.188  26.547  1.00  0.00     0.142 A 
ATOM     17  C   UNL A   1      33.244  23.084  26.566  1.00  0.00     0.048 A 
ATOM     18  C   UNL A   1      34.534  23.189  26.050  1.00  0.00     0.004 A 
ATOM     19  C   UNL A   1      34.170  25.485  25.501  1.00  0.00     0.030 A 
ATOM     20  C   UNL A   1      35.004  24.376  25.508  1.00  0.00     0.002 A 
BRANCH  16  21
ATOM     21  O   UNL A   1      31.212  24.063  27.213  1.00  0.00    -0.495 OA
ATOM     22  C   UNL A   1      30.381  22.995  26.768  1.00  0.00     0.278 C 
ENDBRANCH  16  21
ENDBRANCH  13  15
ENDBRANCH   8  13
ENDBRANCH   4   7
ENDBRANCH   2   3
ENDBRANCH   1   2
BRANCH   1  23
ATOM     23  C   UNL A   1      31.409  32.265  26.588  1.00  0.00     0.023 C 
BRANCH  23  24
ATOM     24  C   UNL A   1      32.600  32.854  27.329  1.00  0.00     0.116 C 
BRANCH  24  25
ATOM     25  N   UNL A   1      32.447  34.228  27.831  1.00  0.00    -0.352 N 
ATOM     26  C   UNL A   1      33.094  34.806  28.930  1.00  0.00     0.251 C 
ATOM     27  H   UNL A   1      31.819  34.805  27.340  1.00  0.00     0.163 HD
ATOM     28  O   UNL A   1      32.679  35.820  29.459  1.00  0.00    -0.269 OA
BRANCH  26  29
ATOM     29  C   UNL A   1      34.348  34.176  29.402  1.00  0.00     0.039 A 
ATOM     30  C   UNL A   1      34.449  33.266  30.460  1.00  0.00     0.014 A 
ATOM     31  C   UNL A   1      35.478  34.532  28.689  1.00  0.00     0.014 A 
ATOM     32  C   UNL A   1      35.693  32.674  30.719  1.00  0.00     0.010 A 
ATOM     33  C   UNL A   1      36.627  33.815  28.798  1.00  0.00     0.010 A 
ATOM     34  C   UNL A   1      36.774  32.955  29.870  1.00  0.00    -0.014 A 
BRANCH  34  35
ATOM     35  C   UNL A   1      38.060  32.278  29.921  1.00  0.00     0.031 A 
ATOM     36  C   UNL A   1      38.043  30.926  29.324  1.00  0.00     0.074 A 
ATOM     37  C   UNL A   1      39.207  32.958  30.150  1.00  0.00     0.049 A 
ATOM     38  N   UNL A   1      38.218  29.810  29.948  1.00  0.00    -0.248 NA
ATOM     39  C   UNL A   1      37.628  30.766  27.921  1.00  0.00     0.031 C 
ATOM     40  C   UNL A   1      39.371  34.374  30.474  1.00  0.00     0.029 A 
ATOM     41  N   UNL A   1      40.497  32.547  30.033  1.00  0.00    -0.354 N 
ATOM     42  C   UNL A   1      38.169  28.823  28.974  1.00  0.00     0.074 A 
ATOM     43  C   UNL A   1      37.576  29.436  27.815  1.00  0.00     0.031 C 
ATOM     44  C   UNL A   1      40.649  34.766  30.266  1.00  0.00     0.029 A 
ATOM     45  C   UNL A   1      41.439  33.577  30.017  1.00  0.00     0.049 A 
ATOM     46  H   UNL A   1      40.747  31.597  29.965  1.00  0.00     0.167 HD
ATOM     47  C   UNL A   1      38.898  27.683  29.122  1.00  0.00     0.037 A 
ATOM     48  C   UNL A   1      42.781  33.445  29.858  1.00  0.00     0.037 A 
ATOM     49  C   UNL A   1      39.348  27.545  30.491  1.00  0.00     0.049 A 
ATOM     50  C   UNL A   1      43.106  32.037  30.200  1.00  0.00     0.074 A 
ATOM     51  C   UNL A   1      38.715  27.454  31.717  1.00  0.00     0.029 A 
ATOM     52  N   UNL A   1      40.645  27.899  30.773  1.00  0.00    -0.354 N 
ATOM     53  N   UNL A   1      42.969  31.544  31.402  1.00  0.00    -0.248 NA
ATOM     54  C   UNL A   1      43.078  31.067  29.116  1.00  0.00     0.031 C 
ATOM     55  C   UNL A   1      39.521  28.225  32.609  1.00  0.00     0.029 A 
ATOM     56  C   UNL A   1      40.640  28.674  31.905  1.00  0.00     0.049 A 
ATOM     57  H   UNL A   1      41.440  27.642  30.253  1.00  0.00     0.167 HD
ATOM     58  C   UNL A   1      42.405  30.291  31.207  1.00  0.00     0.074 A 
ATOM     59  C   UNL A   1      42.558  30.026  29.775  1.00  0.00     0.031 C 
ATOM     60  C   UNL A   1      41.595  29.730  32.154  1.00  0.00     0.037 A 
BRANCH  47  61
ATOM     61  C   UNL A   1      39.561  26.934  27.987  1.00  0.00     0.064 A 
ATOM     62  C   UNL A   1      39.533  25.524  28.012  1.00  0.00     0.173 A 
ATOM     63  C   UNL A   1      40.469  27.502  27.067  1.00  0.00     0.173 A 
ATOM     64  F   UNL A   1      38.705  24.872  28.843  1.00  0.00    -0.203 F 
ATOM     65  C   UNL A   1      40.425  24.752  27.265  1.00  0.00     0.198 A 
ATOM     66  C   UNL A   1      41.322  26.726  26.284  1.00  0.00     0.198 A 
ATOM     67  F   UNL A   1      40.659  28.820  26.958  1.00  0.00    -0.203 F 
ATOM     68  F   UNL A   1      40.456  23.424  27.434  1.00  0.00    -0.200 F 
ATOM     69  C   UNL A   1      41.328  25.355  26.411  1.00  0.00     0.200 A 
ATOM     70  F   UNL A   1      42.197  27.332  25.468  1.00  0.00    -0.200 F 
ATOM     71  F   UNL A   1      42.234  24.624  25.748  1.00  0.00    -0.200 F 
ENDBRANCH  47  61
BRANCH  48  72
ATOM     72  C   UNL A   1      43.724  34.333  29.132  1.00  0.00     0.064 A 
ATOM     73  C   UNL A   1      43.919  34.214  27.745  1.00  0.00     0.173 A 
ATOM     74  C   UNL A   1      44.226  35.505  29.733  1.00  0.00     0.173 A 
ATOM     75  F   UNL A   1      43.435  33.150  27.087  1.00  0.00    -0.203 F 
ATOM     76  C   UNL A   1      44.549  35.218  27.000  1.00  0.00     0.198 A 
ATOM     77  C   UNL A   1      44.853  36.507  28.988  1.00  0.00     0.198 A 
ATOM     78  F   UNL A   1      44.030  35.741  31.038  1.00  0.00    -0.203 F 
ATOM     79  F   UNL A   1      44.661  35.095  25.669  1.00  0.00    -0.200 F 
ATOM     80  C   UNL A   1      45.003  36.370  27.619  1.00  0.00     0.200 A 
ATOM     81  F   UNL A   1      45.252  37.635  29.593  1.00  0.00    -0.200 F 
ATOM     82  F   UNL A   1      45.544  37.362  26.898  1.00  0.00    -0.200 F 
ENDBRANCH  48  72
BRANCH  60  83
ATOM     83  C   UNL A   1      41.533  30.397  33.506  1.00  0.00     0.064 A 
ATOM     84  C   UNL A   1      40.577  31.361  33.872  1.00  0.00     0.173 A 
ATOM     85  C   UNL A   1      42.383  29.931  34.516  1.00  0.00     0.173 A 
ATOM     86  F   UNL A   1      39.664  31.793  32.999  1.00  0.00    -0.203 F 
ATOM     87  C   UNL A   1      40.503  31.862  35.173  1.00  0.00     0.198 A 
ATOM     88  C   UNL A   1      42.287  30.407  35.822  1.00  0.00     0.198 A 
ATOM     89  F   UNL A   1      43.279  28.970  34.244  1.00  0.00    -0.203 F 
ATOM     90  F   UNL A   1      39.583  32.786  35.487  1.00  0.00    -0.200 F 
ATOM     91  C   UNL A   1      41.356  31.379  36.148  1.00  0.00     0.200 A 
ATOM     92  F   UNL A   1      43.084  29.900  36.773  1.00  0.00    -0.200 F 
ATOM     93  F   UNL A   1      41.263  31.829  37.408  1.00  0.00    -0.200 F 
ENDBRANCH  60  83
ENDBRANCH  34  35
ENDBRANCH  26  29
ENDBRANCH  24  25
ENDBRANCH  23  24
ENDBRANCH   1  23
TORSDOF 14
ENDMDL
MODEL 2
REMARK VINA RESULT:     -12.1      3.038      7.327
REMARK SMILES COc1ccccc1Nc1snc(C)c1C(=O)NCCCCNC(=O)c1ccc(-c2c3nc(c(-c4c(F)c(F)c(F)c(F)c4F)c4ccc([nH]4)c(-c4c(F)c(F)c(F)c(F)c4F)c4nc(c(-c5c(F)c(F)c(F)c(F)c5F)c5ccc2[nH]5)C=C4)C=C3)cc1
REMARK SMILES IDX 20 1 19 2 18 3 16 4 17 5 15 7 10 8 11 9 12 10 13 11 14 12
REMARK SMILES IDX 9 13 8 15 3 16 4 17 5 18 7 19 6 20 2 21 1 22 21 23 22 24
REMARK SMILES IDX 23 25 24 26 25 28 26 29 27 30 88 31 28 32 87 33 29 34 30 35
REMARK SMILES IDX 31 36 81 37 32 38 86 39 80 40 82 41 33 42 85 43 79 44 78 45
REMARK SMILES IDX 34 47 66 48 46 49 65 50 47 51 50 52 64 53 83 54 48 55 49 56
REMARK SMILES IDX 63 58 84 59 51 60 35 61 36 62 44 63 37 64 38 65 42 66 45 67
REMARK SMILES IDX 39 68 40 69 43 70 41 71 67 72 68 73 76 74 69 75 70 76 74 77
REMARK SMILES IDX 77 78 71 79 72 80 75 81 73 82 52 83 53 84 61 85 54 86 55 87
REMARK SMILES IDX 59 88 62 89 56 90 57 91 60 92 58 93
REMARK H PARENT 18 6 9 14 23 27 82 46 50 57
REMARK Flexibility Score: inf
ROOT
ATOM      1  C   UNL A   1      35.622  23.029  25.861  1.00  0.00     0.023 C 
ENDROOT
BRANCH   1   2
ATOM      2  C   UNL A   1      35.060  24.029  24.846  1.00  0.00     0.116 C 
BRANCH   2   3
ATOM      3  N   UNL A   1      34.374  25.200  25.341  1.00  0.00    -0.352 N 
ATOM      4  C   UNL A   1      33.357  25.942  24.756  1.00  0.00     0.256 C 
ATOM      5  O   UNL A   1      32.732  26.672  25.530  1.00  0.00    -0.269 OA
ATOM      6  H   UNL A   1      34.671  25.518  26.224  1.00  0.00     0.163 HD
BRANCH   4   7
ATOM      7  C   UNL A   1      33.078  25.982  23.307  1.00  0.00     0.097 A 
ATOM      8  C   UNL A   1      32.349  25.100  22.498  1.00  0.00     0.127 A 
ATOM      9  S   UNL A   1      32.527  25.589  20.854  1.00  0.00    -0.018 S 
ATOM     10  N   UNL A   1      33.265  27.014  21.162  1.00  0.00    -0.195 NA
ATOM     11  C   UNL A   1      33.485  27.119  22.471  1.00  0.00     0.066 A 
ATOM     12  C   UNL A   1      34.133  28.395  22.901  1.00  0.00     0.069 C 
BRANCH   8  13
ATOM     13  N   UNL A   1      31.584  24.003  22.722  1.00  0.00    -0.342 N 
ATOM     14  H   UNL A   1      30.680  24.022  22.334  1.00  0.00     0.168 HD
BRANCH  13  15
ATOM     15  C   UNL A   1      31.918  22.840  23.439  1.00  0.00     0.082 A 
ATOM     16  C   UNL A   1      31.493  22.703  24.777  1.00  0.00     0.142 A 
ATOM     17  C   UNL A   1      31.787  21.543  25.480  1.00  0.00     0.048 A 
ATOM     18  C   UNL A   1      32.490  20.516  24.853  1.00  0.00     0.004 A 
ATOM     19  C   UNL A   1      32.621  21.785  22.834  1.00  0.00     0.030 A 
ATOM     20  C   UNL A   1      32.902  20.621  23.533  1.00  0.00     0.002 A 
BRANCH  16  21
ATOM     21  O   UNL A   1      30.943  23.733  25.498  1.00  0.00    -0.495 OA
ATOM     22  C   UNL A   1      31.278  23.746  26.882  1.00  0.00     0.278 C 
ENDBRANCH  16  21
ENDBRANCH  13  15
ENDBRANCH   8  13
ENDBRANCH   4   7
ENDBRANCH   2   3
ENDBRANCH   1   2
BRANCH   1  23
ATOM     23  C   UNL A   1      36.752  22.075  25.451  1.00  0.00     0.023 C 
BRANCH  23  24
ATOM     24  C   UNL A   1      38.178  22.586  25.594  1.00  0.00     0.116 C 
BRANCH  24  25
ATOM     25  N   UNL A   1      39.056  21.834  26.503  1.00  0.00    -0.352 N 
ATOM     26  C   UNL A   1      40.149  22.328  27.227  1.00  0.00     0.251 C 
ATOM     27  H   UNL A   1      38.854  20.878  26.615  1.00  0.00     0.163 HD
ATOM     28  O   UNL A   1      40.997  21.590  27.692  1.00  0.00    -0.269 OA
BRANCH  26  29
ATOM     29  C   UNL A   1      40.216  23.788  27.467  1.00  0.00     0.039 A 
ATOM     30  C   UNL A   1      39.197  24.702  27.181  1.00  0.00     0.014 A 
ATOM     31  C   UNL A   1      41.393  24.225  28.046  1.00  0.00     0.014 A 
ATOM     32  C   UNL A   1      39.368  26.040  27.565  1.00  0.00     0.010 A 
ATOM     33  C   UNL A   1      41.479  25.461  28.603  1.00  0.00     0.010 A 
ATOM     34  C   UNL A   1      40.517  26.402  28.285  1.00  0.00    -0.014 A 
BRANCH  34  35
ATOM     35  C   UNL A   1      40.734  27.706  28.891  1.00  0.00     0.031 A 
ATOM     36  C   UNL A   1      41.837  28.472  28.272  1.00  0.00     0.074 A 
ATOM     37  C   UNL A   1      39.795  28.286  29.673  1.00  0.00     0.049 A 
ATOM     38  N   UNL A   1      42.950  28.801  28.834  1.00  0.00    -0.248 NA
ATOM     39  C   UNL A   1      41.784  28.768  26.832  1.00  0.00     0.031 C 
ATOM     40  C   UNL A   1      38.521  27.728  30.124  1.00  0.00     0.029 A 
ATOM     41  N   UNL A   1      39.727  29.557  30.149  1.00  0.00    -0.354 N 
ATOM     42  C   UNL A   1      43.640  29.550  27.891  1.00  0.00     0.074 A 
ATOM     43  C   UNL A   1      42.995  29.296  26.631  1.00  0.00     0.031 C 
ATOM     44  C   UNL A   1      37.699  28.707  30.565  1.00  0.00     0.029 A 
ATOM     45  C   UNL A   1      38.475  29.930  30.641  1.00  0.00     0.049 A 
ATOM     46  H   UNL A   1      40.500  30.166  30.148  1.00  0.00     0.167 HD
ATOM     47  C   UNL A   1      44.483  30.541  28.292  1.00  0.00     0.037 A 
ATOM     48  C   UNL A   1      38.124  31.150  31.122  1.00  0.00     0.037 A 
ATOM     49  C   UNL A   1      44.789  30.405  29.701  1.00  0.00     0.049 A 
ATOM     50  C   UNL A   1      39.390  31.835  31.487  1.00  0.00     0.074 A 
ATOM     51  C   UNL A   1      45.368  29.418  30.478  1.00  0.00     0.029 A 
ATOM     52  N   UNL A   1      44.112  31.215  30.580  1.00  0.00    -0.354 N 
ATOM     53  N   UNL A   1      40.171  31.425  32.452  1.00  0.00    -0.248 NA
ATOM     54  C   UNL A   1      40.031  32.640  30.459  1.00  0.00     0.031 C 
ATOM     55  C   UNL A   1      44.612  29.411  31.690  1.00  0.00     0.029 A 
ATOM     56  C   UNL A   1      43.673  30.441  31.623  1.00  0.00     0.049 A 
ATOM     57  H   UNL A   1      43.968  32.183  30.479  1.00  0.00     0.167 HD
ATOM     58  C   UNL A   1      41.455  31.537  31.937  1.00  0.00     0.074 A 
ATOM     59  C   UNL A   1      41.309  32.355  30.731  1.00  0.00     0.031 C 
ATOM     60  C   UNL A   1      42.455  30.706  32.357  1.00  0.00     0.037 A 
BRANCH  47  61
ATOM     61  C   UNL A   1      44.687  31.847  27.557  1.00  0.00     0.064 A 
ATOM     62  C   UNL A   1      45.900  32.041  26.865  1.00  0.00     0.173 A 
ATOM     63  C   UNL A   1      43.911  33.011  27.750  1.00  0.00     0.173 A 
ATOM     64  F   UNL A   1      46.718  31.007  26.617  1.00  0.00    -0.203 F 
ATOM     65  C   UNL A   1      46.352  33.312  26.504  1.00  0.00     0.198 A 
ATOM     66  C   UNL A   1      44.341  34.272  27.341  1.00  0.00     0.198 A 
ATOM     67  F   UNL A   1      42.763  33.010  28.434  1.00  0.00    -0.203 F 
ATOM     68  F   UNL A   1      47.576  33.458  25.980  1.00  0.00    -0.200 F 
ATOM     69  C   UNL A   1      45.577  34.429  26.754  1.00  0.00     0.200 A 
ATOM     70  F   UNL A   1      43.578  35.343  27.603  1.00  0.00    -0.200 F 
ATOM     71  F   UNL A   1      46.037  35.655  26.478  1.00  0.00    -0.200 F 
ENDBRANCH  47  61
BRANCH  48  72
ATOM     72  C   UNL A   1      36.834  31.871  30.980  1.00  0.00     0.064 A 
ATOM     73  C   UNL A   1      36.011  32.121  32.092  1.00  0.00     0.173 A 
ATOM     74  C   UNL A   1      36.529  32.588  29.805  1.00  0.00     0.173 A 
ATOM     75  F   UNL A   1      36.258  31.514  33.261  1.00  0.00    -0.203 F 
ATOM     76  C   UNL A   1      34.966  33.052  32.041  1.00  0.00     0.198 A 
ATOM     77  C   UNL A   1      35.486  33.518  29.756  1.00  0.00     0.198 A 
ATOM     78  F   UNL A   1      37.297  32.469  28.713  1.00  0.00    -0.203 F 
ATOM     79  F   UNL A   1      34.241  33.306  33.140  1.00  0.00    -0.200 F 
ATOM     80  C   UNL A   1      34.713  33.760  30.878  1.00  0.00     0.200 A 
ATOM     81  F   UNL A   1      35.278  34.226  28.637  1.00  0.00    -0.200 F 
ATOM     82  F   UNL A   1      33.758  34.700  30.848  1.00  0.00    -0.200 F 
ENDBRANCH  48  72
BRANCH  60  83
ATOM     83  C   UNL A   1      42.185  29.837  33.560  1.00  0.00     0.064 A 
ATOM     84  C   UNL A   1      41.732  28.507  33.493  1.00  0.00     0.173 A 
ATOM     85  C   UNL A   1      42.541  30.323  34.823  1.00  0.00     0.173 A 
ATOM     86  F   UNL A   1      41.461  27.929  32.320  1.00  0.00    -0.203 F 
ATOM     87  C   UNL A   1      41.604  27.719  34.638  1.00  0.00     0.198 A 
ATOM     88  C   UNL A   1      42.445  29.526  35.962  1.00  0.00     0.198 A 
ATOM     89  F   UNL A   1      43.034  31.565  34.947  1.00  0.00    -0.203 F 
ATOM     90  F   UNL A   1      41.164  26.456  34.540  1.00  0.00    -0.200 F 
ATOM     91  C   UNL A   1      41.967  28.229  35.871  1.00  0.00     0.200 A 
ATOM     92  F   UNL A   1      42.843  30.009  37.146  1.00  0.00    -0.200 F 
ATOM     93  F   UNL A   1      41.883  27.462  36.968  1.00  0.00    -0.200 F 
ENDBRANCH  60  83
ENDBRANCH  34  35
ENDBRANCH  26  29
ENDBRANCH  24  25
ENDBRANCH  23  24
ENDBRANCH   1  23
TORSDOF 14
ENDMDL
MODEL 3
REMARK VINA RESULT:     -12.0      2.811      7.697
REMARK SMILES COc1ccccc1Nc1snc(C)c1C(=O)NCCCCNC(=O)c1ccc(-c2c3nc(c(-c4c(F)c(F)c(F)c(F)c4F)c4ccc([nH]4)c(-c4c(F)c(F)c(F)c(F)c4F)c4nc(c(-c5c(F)c(F)c(F)c(F)c5F)c5ccc2[nH]5)C=C4)C=C3)cc1
REMARK SMILES IDX 20 1 19 2 18 3 16 4 17 5 15 7 10 8 11 9 12 10 13 11 14 12
REMARK SMILES IDX 9 13 8 15 3 16 4 17 5 18 7 19 6 20 2 21 1 22 21 23 22 24
REMARK SMILES IDX 23 25 24 26 25 28 26 29 27 30 88 31 28 32 87 33 29 34 30 35
REMARK SMILES IDX 31 36 81 37 32 38 86 39 80 40 82 41 33 42 85 43 79 44 78 45
REMARK SMILES IDX 34 47 66 48 46 49 65 50 47 51 50 52 64 53 83 54 48 55 49 56
REMARK SMILES IDX 63 58 84 59 51 60 35 61 36 62 44 63 37 64 38 65 42 66 45 67
REMARK SMILES IDX 39 68 40 69 43 70 41 71 67 72 68 73 76 74 69 75 70 76 74 77
REMARK SMILES IDX 77 78 71 79 72 80 75 81 73 82 52 83 53 84 61 85 54 86 55 87
REMARK SMILES IDX 59 88 62 89 56 90 57 91 60 92 58 93
REMARK H PARENT 18 6 9 14 23 27 82 46 50 57
REMARK Flexibility Score: inf
ROOT
ATOM      1  C   UNL A   1      31.875  27.928  26.655  1.00  0.00     0.023 C 
ENDROOT
BRANCH   1   2
ATOM      2  C   UNL A   1      32.245  26.461  26.415  1.00  0.00     0.116 C 
BRANCH   2   3
ATOM      3  N   UNL A   1      31.311  25.439  26.831  1.00  0.00    -0.352 N 
ATOM      4  C   UNL A   1      31.339  24.071  26.602  1.00  0.00     0.256 C 
ATOM      5  O   UNL A   1      30.616  23.402  27.347  1.00  0.00    -0.269 OA
ATOM      6  H   UNL A   1      30.542  25.762  27.353  1.00  0.00     0.163 HD
BRANCH   4   7
ATOM      7  C   UNL A   1      32.070  23.422  25.497  1.00  0.00     0.097 A 
ATOM      8  C   UNL A   1      31.798  23.390  24.122  1.00  0.00     0.127 A 
ATOM      9  S   UNL A   1      32.921  22.322  23.365  1.00  0.00    -0.018 S 
ATOM     10  N   UNL A   1      33.889  22.116  24.665  1.00  0.00    -0.195 NA
ATOM     11  C   UNL A   1      33.357  22.746  25.711  1.00  0.00     0.066 A 
ATOM     12  C   UNL A   1      34.158  22.665  26.970  1.00  0.00     0.069 C 
BRANCH   8  13
ATOM     13  N   UNL A   1      30.886  23.982  23.312  1.00  0.00    -0.342 N 
ATOM     14  H   UNL A   1      30.392  23.380  22.710  1.00  0.00     0.168 HD
BRANCH  13  15
ATOM     15  C   UNL A   1      30.557  25.345  23.220  1.00  0.00     0.082 A 
ATOM     16  C   UNL A   1      31.342  26.198  22.415  1.00  0.00     0.142 A 
ATOM     17  C   UNL A   1      31.003  27.537  22.291  1.00  0.00     0.048 A 
ATOM     18  C   UNL A   1      29.879  28.028  22.952  1.00  0.00     0.004 A 
ATOM     19  C   UNL A   1      29.427  25.870  23.871  1.00  0.00     0.030 A 
ATOM     20  C   UNL A   1      29.081  27.206  23.734  1.00  0.00     0.002 A 
BRANCH  16  21
ATOM     21  O   UNL A   1      32.543  25.818  21.872  1.00  0.00    -0.495 OA
ATOM     22  C   UNL A   1      33.694  26.244  22.595  1.00  0.00     0.278 C 
ENDBRANCH  16  21
ENDBRANCH  13  15
ENDBRANCH   8  13
ENDBRANCH   4   7
ENDBRANCH   2   3
ENDBRANCH   1   2
BRANCH   1  23
ATOM     23  C   UNL A   1      32.831  29.042  26.205  1.00  0.00     0.023 C 
BRANCH  23  24
ATOM     24  C   UNL A   1      33.803  29.583  27.243  1.00  0.00     0.116 C 
BRANCH  24  25
ATOM     25  N   UNL A   1      34.168  31.003  27.122  1.00  0.00    -0.352 N 
ATOM     26  C   UNL A   1      35.277  31.644  27.687  1.00  0.00     0.251 C 
ATOM     27  H   UNL A   1      33.564  31.565  26.586  1.00  0.00     0.163 HD
ATOM     28  O   UNL A   1      35.329  32.854  27.804  1.00  0.00    -0.269 OA
BRANCH  26  29
ATOM     29  C   UNL A   1      36.429  30.804  28.089  1.00  0.00     0.039 A 
ATOM     30  C   UNL A   1      36.556  29.433  27.845  1.00  0.00     0.014 A 
ATOM     31  C   UNL A   1      37.445  31.486  28.733  1.00  0.00     0.014 A 
ATOM     32  C   UNL A   1      37.756  28.797  28.192  1.00  0.00     0.010 A 
ATOM     33  C   UNL A   1      38.675  30.930  28.881  1.00  0.00     0.010 A 
ATOM     34  C   UNL A   1      38.812  29.565  28.705  1.00  0.00    -0.014 A 
BRANCH  34  35
ATOM     35  C   UNL A   1      40.157  29.065  28.940  1.00  0.00     0.031 A 
ATOM     36  C   UNL A   1      40.464  28.833  30.368  1.00  0.00     0.074 A 
ATOM     37  C   UNL A   1      40.896  28.528  27.941  1.00  0.00     0.049 A 
ATOM     38  N   UNL A   1      41.328  29.472  31.079  1.00  0.00    -0.248 NA
ATOM     39  C   UNL A   1      39.615  27.913  31.142  1.00  0.00     0.031 C 
ATOM     40  C   UNL A   1      40.570  28.445  26.519  1.00  0.00     0.029 A 
ATOM     41  N   UNL A   1      42.063  27.836  28.002  1.00  0.00    -0.354 N 
ATOM     42  C   UNL A   1      41.300  28.875  32.332  1.00  0.00     0.074 A 
ATOM     43  C   UNL A   1      40.087  28.103  32.378  1.00  0.00     0.031 C 
ATOM     44  C   UNL A   1      41.354  27.531  25.902  1.00  0.00     0.029 A 
ATOM     45  C   UNL A   1      42.388  27.136  26.838  1.00  0.00     0.049 A 
ATOM     46  H   UNL A   1      42.635  27.829  28.803  1.00  0.00     0.167 HD
ATOM     47  C   UNL A   1      42.428  28.832  33.092  1.00  0.00     0.037 A 
ATOM     48  C   UNL A   1      43.463  26.329  26.652  1.00  0.00     0.037 A 
ATOM     49  C   UNL A   1      43.415  29.763  32.586  1.00  0.00     0.049 A 
ATOM     50  C   UNL A   1      44.457  26.710  27.689  1.00  0.00     0.074 A 
ATOM     51  C   UNL A   1      43.446  31.131  32.382  1.00  0.00     0.029 A 
ATOM     52  N   UNL A   1      44.433  29.254  31.815  1.00  0.00    -0.354 N 
ATOM     53  N   UNL A   1      45.048  27.875  27.716  1.00  0.00    -0.248 NA
ATOM     54  C   UNL A   1      44.393  26.007  28.960  1.00  0.00     0.031 C 
ATOM     55  C   UNL A   1      44.144  31.306  31.147  1.00  0.00     0.029 A 
ATOM     56  C   UNL A   1      44.571  30.052  30.709  1.00  0.00     0.049 A 
ATOM     57  H   UNL A   1      44.970  28.456  32.023  1.00  0.00     0.167 HD
ATOM     58  C   UNL A   1      45.035  28.244  29.054  1.00  0.00     0.074 A 
ATOM     59  C   UNL A   1      44.680  27.023  29.780  1.00  0.00     0.031 C 
ATOM     60  C   UNL A   1      45.005  29.561  29.419  1.00  0.00     0.037 A 
BRANCH  47  61
ATOM     61  C   UNL A   1      42.811  27.685  34.001  1.00  0.00     0.064 A 
ATOM     62  C   UNL A   1      42.806  27.906  35.394  1.00  0.00     0.173 A 
ATOM     63  C   UNL A   1      43.467  26.507  33.580  1.00  0.00     0.173 A 
ATOM     64  F   UNL A   1      42.208  28.989  35.911  1.00  0.00    -0.203 F 
ATOM     65  C   UNL A   1      43.504  27.079  36.277  1.00  0.00     0.198 A 
ATOM     66  C   UNL A   1      44.118  25.656  34.471  1.00  0.00     0.198 A 
ATOM     67  F   UNL A   1      43.610  26.179  32.292  1.00  0.00    -0.203 F 
ATOM     68  F   UNL A   1      43.590  27.414  37.570  1.00  0.00    -0.200 F 
ATOM     69  C   UNL A   1      44.170  25.961  35.813  1.00  0.00     0.200 A 
ATOM     70  F   UNL A   1      44.767  24.582  33.998  1.00  0.00    -0.200 F 
ATOM     71  F   UNL A   1      44.901  25.208  36.644  1.00  0.00    -0.200 F 
ENDBRANCH  47  61
BRANCH  48  72
ATOM     72  C   UNL A   1      43.556  25.065  25.879  1.00  0.00     0.064 A 
ATOM     73  C   UNL A   1      44.673  24.781  25.074  1.00  0.00     0.173 A 
ATOM     74  C   UNL A   1      42.691  23.984  26.147  1.00  0.00     0.173 A 
ATOM     75  F   UNL A   1      45.569  25.741  24.805  1.00  0.00    -0.203 F 
ATOM     76  C   UNL A   1      44.927  23.490  24.594  1.00  0.00     0.198 A 
ATOM     77  C   UNL A   1      42.946  22.697  25.668  1.00  0.00     0.198 A 
ATOM     78  F   UNL A   1      41.636  24.140  26.960  1.00  0.00    -0.203 F 
ATOM     79  F   UNL A   1      46.036  23.247  23.880  1.00  0.00    -0.200 F 
ATOM     80  C   UNL A   1      44.071  22.446  24.903  1.00  0.00     0.200 A 
ATOM     81  F   UNL A   1      42.133  21.687  26.008  1.00  0.00    -0.200 F 
ATOM     82  F   UNL A   1      44.349  21.198  24.501  1.00  0.00    -0.200 F 
ENDBRANCH  48  72
BRANCH  60  83
ATOM     83  C   UNL A   1      45.233  30.592  28.342  1.00  0.00     0.064 A 
ATOM     84  C   UNL A   1      44.210  31.181  27.578  1.00  0.00     0.173 A 
ATOM     85  C   UNL A   1      46.523  31.110  28.181  1.00  0.00     0.173 A 
ATOM     86  F   UNL A   1      42.935  30.816  27.735  1.00  0.00    -0.203 F 
ATOM     87  C   UNL A   1      44.473  32.208  26.671  1.00  0.00     0.198 A 
ATOM     88  C   UNL A   1      46.780  32.158  27.300  1.00  0.00     0.198 A 
ATOM     89  F   UNL A   1      47.533  30.629  28.922  1.00  0.00    -0.203 F 
ATOM     90  F   UNL A   1      43.474  32.745  25.954  1.00  0.00    -0.200 F 
ATOM     91  C   UNL A   1      45.758  32.700  26.538  1.00  0.00     0.200 A 
ATOM     92  F   UNL A   1      48.018  32.662  27.211  1.00  0.00    -0.200 F 
ATOM     93  F   UNL A   1      46.008  33.713  25.696  1.00  0.00    -0.200 F 
ENDBRANCH  60  83
ENDBRANCH  34  35
ENDBRANCH  26  29
ENDBRANCH  24  25
ENDBRANCH  23  24
ENDBRANCH   1  23
TORSDOF 14
ENDMDL
