MODEL 1
REMARK VINA RESULT:     -14.2      0.000      0.000
REMARK SMILES COC(=O)c1sc(SCC(=O)NCCCCNC(=O)c2ccc(-c3c4nc(c(-c5c(F)c(F)c(F)c(F)c5F)c5ccc([nH]5)c(-c5c(F)c(F)c(F)c(F)c5F)c5nc(c(-c6c(F)c(F)c(F)c(F)c6F)c6ccc3[nH]6)C=C5)C=C4)cc2)c(NC(=O)c2ccccc2)c1O
REMARK SMILES IDX 13 1 12 2 10 3 11 4 9 6 8 7 7 8 5 9 6 10 93 11 83 12 3 13
REMARK SMILES IDX 4 14 2 15 1 16 94 17 84 19 85 20 86 22 87 23 88 24 92 25
REMARK SMILES IDX 89 26 91 27 90 28 14 29 15 30 16 31 17 32 18 33 19 35 20 36
REMARK SMILES IDX 21 37 82 38 22 39 81 40 23 41 24 42 25 43 75 44 26 45 80 46
REMARK SMILES IDX 74 47 76 48 27 49 79 50 73 51 72 52 28 54 60 55 40 56 59 57
REMARK SMILES IDX 41 58 44 59 58 60 77 61 42 62 43 63 57 65 78 66 45 67 29 68
REMARK SMILES IDX 30 69 38 70 31 71 32 72 36 73 39 74 33 75 34 76 37 77 35 78
REMARK SMILES IDX 61 79 62 80 70 81 63 82 64 83 68 84 71 85 65 86 66 87 69 88
REMARK SMILES IDX 67 89 46 90 47 91 55 92 48 93 49 94 53 95 56 96 50 97 51 98
REMARK SMILES IDX 54 99 52 100
REMARK H PARENT 12 5 94 18 84 21 17 34 76 53 44 64
REMARK Flexibility Score: inf
ROOT
ATOM      1  C   UNL A   1      35.401  23.507  23.549  1.00  0.00     0.116 C 
ENDROOT
BRANCH   1   2
ATOM      2  N   UNL A   1      34.430  22.452  23.716  1.00  0.00    -0.355 N 
ATOM      3  C   UNL A   1      33.106  22.390  23.353  1.00  0.00     0.230 C 
ATOM      4  O   UNL A   1      32.588  21.272  23.453  1.00  0.00    -0.274 OA
ATOM      5  H   UNL A   1      34.772  21.645  24.164  1.00  0.00     0.163 HD
BRANCH   3   6
ATOM      6  C   UNL A   1      32.258  23.793  22.701  1.00  0.00     0.175 C 
BRANCH   6   7
ATOM      7  S   UNL A   1      30.231  25.048  23.652  1.00  0.00    -0.103 SA
BRANCH   7   8
ATOM      8  C   UNL A   1      29.952  26.834  23.128  1.00  0.00     0.089 A 
ATOM      9  C   UNL A   1      28.857  29.054  22.714  1.00  0.00     0.157 A 
ATOM     10  S   UNL A   1      28.456  27.604  23.547  1.00  0.00    -0.116 S 
ATOM     11  C   UNL A   1      30.123  28.963  22.180  1.00  0.00     0.166 A 
ATOM     12  C   UNL A   1      30.772  27.723  22.429  1.00  0.00     0.109 A 
BRANCH   9  13
ATOM     13  C   UNL A   1      27.916  30.157  22.657  1.00  0.00     0.352 C 
ATOM     14  O   UNL A   1      27.238  30.599  23.574  1.00  0.00    -0.245 OA
BRANCH  13  15
ATOM     15  O   UNL A   1      27.903  30.664  21.381  1.00  0.00    -0.465 OA
ATOM     16  C   UNL A   1      27.992  32.088  21.271  1.00  0.00     0.282 C 
ENDBRANCH  13  15
ENDBRANCH   9  13
BRANCH  11  17
ATOM     17  O   UNL A   1      30.712  29.935  21.443  1.00  0.00    -0.504 OA
ATOM     18  H   UNL A   1      30.612  29.944  20.511  1.00  0.00     0.293 HD
ENDBRANCH  11  17
BRANCH  12  19
ATOM     19  N   UNL A   1      32.053  27.521  21.923  1.00  0.00    -0.317 N 
ATOM     20  C   UNL A   1      33.219  27.788  22.570  1.00  0.00     0.255 C 
ATOM     21  H   UNL A   1      32.121  27.153  21.013  1.00  0.00     0.170 HD
ATOM     22  O   UNL A   1      34.301  27.895  22.015  1.00  0.00    -0.269 OA
BRANCH  20  23
ATOM     23  C   UNL A   1      33.071  27.983  24.009  1.00  0.00     0.040 A 
ATOM     24  C   UNL A   1      32.549  29.608  24.545  1.00  0.00     0.014 A 
ATOM     25  C   UNL A   1      32.923  26.542  25.144  1.00  0.00     0.014 A 
ATOM     26  C   UNL A   1      31.892  29.813  26.198  1.00  0.00     0.001 A 
ATOM     27  C   UNL A   1      32.218  26.790  26.787  1.00  0.00     0.001 A 
ATOM     28  C   UNL A   1      31.704  28.426  27.297  1.00  0.00     0.000 A 
ENDBRANCH  20  23
ENDBRANCH  12  19
ENDBRANCH   7   8
ENDBRANCH   6   7
ENDBRANCH   3   6
ENDBRANCH   1   2
BRANCH   1  29
ATOM     29  C   UNL A   1      36.829  23.119  23.943  1.00  0.00     0.023 C 
BRANCH  29  30
ATOM     30  C   UNL A   1      37.061  22.541  25.336  1.00  0.00     0.023 C 
BRANCH  30  31
ATOM     31  C   UNL A   1      38.054  23.310  26.185  1.00  0.00     0.116 C 
BRANCH  31  32
ATOM     32  N   UNL A   1      39.163  22.483  26.678  1.00  0.00    -0.352 N 
ATOM     33  C   UNL A   1      40.479  22.869  26.883  1.00  0.00     0.251 C 
ATOM     34  H   UNL A   1      38.947  21.546  26.888  1.00  0.00     0.163 HD
ATOM     35  O   UNL A   1      41.393  22.061  26.956  1.00  0.00    -0.269 OA
BRANCH  33  36
ATOM     36  C   UNL A   1      40.724  24.303  27.088  1.00  0.00     0.039 A 
ATOM     37  C   UNL A   1      40.437  25.297  26.156  1.00  0.00     0.014 A 
ATOM     38  C   UNL A   1      41.140  24.620  28.371  1.00  0.00     0.014 A 
ATOM     39  C   UNL A   1      40.543  26.623  26.572  1.00  0.00     0.010 A 
ATOM     40  C   UNL A   1      40.891  25.864  28.849  1.00  0.00     0.010 A 
ATOM     41  C   UNL A   1      40.771  26.888  27.935  1.00  0.00    -0.014 A 
BRANCH  41  42
ATOM     42  C   UNL A   1      40.786  28.217  28.515  1.00  0.00     0.031 A 
ATOM     43  C   UNL A   1      41.903  29.044  28.009  1.00  0.00     0.074 A 
ATOM     44  C   UNL A   1      39.741  28.698  29.232  1.00  0.00     0.049 A 
ATOM     45  N   UNL A   1      42.980  29.359  28.643  1.00  0.00    -0.248 NA
ATOM     46  C   UNL A   1      41.940  29.374  26.574  1.00  0.00     0.031 C 
ATOM     47  C   UNL A   1      38.435  28.079  29.511  1.00  0.00     0.029 A 
ATOM     48  N   UNL A   1      39.610  29.916  29.827  1.00  0.00    -0.354 N 
ATOM     49  C   UNL A   1      43.716  30.145  27.766  1.00  0.00     0.074 A 
ATOM     50  C   UNL A   1      43.153  29.921  26.462  1.00  0.00     0.031 C 
ATOM     51  C   UNL A   1      37.581  28.999  30.018  1.00  0.00     0.029 A 
ATOM     52  C   UNL A   1      38.319  30.218  30.272  1.00  0.00     0.049 A 
ATOM     53  H   UNL A   1      40.366  30.538  29.935  1.00  0.00     0.167 HD
ATOM     54  C   UNL A   1      44.522  31.131  28.250  1.00  0.00     0.037 A 
ATOM     55  C   UNL A   1      37.918  31.403  30.804  1.00  0.00     0.037 A 
ATOM     56  C   UNL A   1      44.741  30.948  29.667  1.00  0.00     0.049 A 
ATOM     57  C   UNL A   1      39.150  32.103  31.258  1.00  0.00     0.074 A 
ATOM     58  C   UNL A   1      45.321  29.959  30.439  1.00  0.00     0.029 A 
ATOM     59  N   UNL A   1      43.938  31.665  30.521  1.00  0.00    -0.354 N 
ATOM     60  N   UNL A   1      39.911  31.654  32.222  1.00  0.00    -0.248 NA
ATOM     61  C   UNL A   1      39.807  32.967  30.289  1.00  0.00     0.031 C 
ATOM     62  C   UNL A   1      44.470  29.836  31.579  1.00  0.00     0.029 A 
ATOM     63  C   UNL A   1      43.483  30.819  31.500  1.00  0.00     0.049 A 
ATOM     64  H   UNL A   1      43.727  32.623  30.444  1.00  0.00     0.167 HD
ATOM     65  C   UNL A   1      41.208  31.811  31.751  1.00  0.00     0.074 A 
ATOM     66  C   UNL A   1      41.078  32.658  30.563  1.00  0.00     0.031 C 
ATOM     67  C   UNL A   1      42.216  30.993  32.176  1.00  0.00     0.037 A 
BRANCH  54  68
ATOM     68  C   UNL A   1      44.746  32.465  27.576  1.00  0.00     0.064 A 
ATOM     69  C   UNL A   1      45.939  32.658  26.850  1.00  0.00     0.173 A 
ATOM     70  C   UNL A   1      44.013  33.639  27.855  1.00  0.00     0.173 A 
ATOM     71  F   UNL A   1      46.721  31.615  26.530  1.00  0.00    -0.203 F 
ATOM     72  C   UNL A   1      46.408  33.933  26.522  1.00  0.00     0.198 A 
ATOM     73  C   UNL A   1      44.460  34.905  27.483  1.00  0.00     0.198 A 
ATOM     74  F   UNL A   1      42.898  33.634  28.593  1.00  0.00    -0.203 F 
ATOM     75  F   UNL A   1      47.612  34.071  25.951  1.00  0.00    -0.200 F 
ATOM     76  C   UNL A   1      45.673  35.056  26.849  1.00  0.00     0.200 A 
ATOM     77  F   UNL A   1      43.738  35.983  27.824  1.00  0.00    -0.200 F 
ATOM     78  F   UNL A   1      46.149  36.281  26.595  1.00  0.00    -0.200 F 
ENDBRANCH  54  68
BRANCH  55  79
ATOM     79  C   UNL A   1      36.639  32.125  30.574  1.00  0.00     0.064 A 
ATOM     80  C   UNL A   1      35.796  32.494  31.637  1.00  0.00     0.173 A 
ATOM     81  C   UNL A   1      36.368  32.728  29.330  1.00  0.00     0.173 A 
ATOM     82  F   UNL A   1      36.020  32.014  32.870  1.00  0.00    -0.203 F 
ATOM     83  C   UNL A   1      34.754  33.417  31.468  1.00  0.00     0.198 A 
ATOM     84  C   UNL A   1      35.332  33.649  29.161  1.00  0.00     0.198 A 
ATOM     85  F   UNL A   1      37.169  32.506  28.277  1.00  0.00    -0.203 F 
ATOM     86  F   UNL A   1      34.004  33.784  32.517  1.00  0.00    -0.200 F 
ATOM     87  C   UNL A   1      34.529  34.001  30.232  1.00  0.00     0.200 A 
ATOM     88  F   UNL A   1      35.156  34.242  27.973  1.00  0.00    -0.200 F 
ATOM     89  F   UNL A   1      33.574  34.929  30.082  1.00  0.00    -0.200 F 
ENDBRANCH  55  79
BRANCH  67  90
ATOM     90  C   UNL A   1      41.933  30.069  33.334  1.00  0.00     0.064 A 
ATOM     91  C   UNL A   1      41.548  28.722  33.208  1.00  0.00     0.173 A 
ATOM     92  C   UNL A   1      42.209  30.534  34.625  1.00  0.00     0.173 A 
ATOM     93  F   UNL A   1      41.354  28.169  32.005  1.00  0.00    -0.203 F 
ATOM     94  C   UNL A   1      41.414  27.896  34.326  1.00  0.00     0.198 A 
ATOM     95  C   UNL A   1      42.108  29.701  35.736  1.00  0.00     0.198 A 
ATOM     96  F   UNL A   1      42.633  31.795  34.805  1.00  0.00    -0.203 F 
ATOM     97  F   UNL A   1      41.042  26.614  34.178  1.00  0.00    -0.200 F 
ATOM     98  C   UNL A   1      41.701  28.385  35.588  1.00  0.00     0.200 A 
ATOM     99  F   UNL A   1      42.436  30.168  36.947  1.00  0.00    -0.200 F 
ATOM    100  F   UNL A   1      41.611  27.585  36.660  1.00  0.00    -0.200 F 
ENDBRANCH  67  90
ENDBRANCH  41  42
ENDBRANCH  33  36
ENDBRANCH  31  32
ENDBRANCH  30  31
ENDBRANCH  29  30
ENDBRANCH   1  29
TORSDOF 18
ENDMDL
MODEL 2
REMARK VINA RESULT:     -14.0      3.063      4.346
REMARK SMILES COC(=O)c1sc(SCC(=O)NCCCCNC(=O)c2ccc(-c3c4nc(c(-c5c(F)c(F)c(F)c(F)c5F)c5ccc([nH]5)c(-c5c(F)c(F)c(F)c(F)c5F)c5nc(c(-c6c(F)c(F)c(F)c(F)c6F)c6ccc3[nH]6)C=C5)C=C4)cc2)c(NC(=O)c2ccccc2)c1O
REMARK SMILES IDX 13 1 12 2 10 3 11 4 9 6 8 7 7 8 5 9 6 10 93 11 83 12 3 13
REMARK SMILES IDX 4 14 2 15 1 16 94 17 84 19 85 20 86 22 87 23 88 24 92 25
REMARK SMILES IDX 89 26 91 27 90 28 14 29 15 30 16 31 17 32 18 33 19 35 20 36
REMARK SMILES IDX 21 37 82 38 22 39 81 40 23 41 24 42 25 43 75 44 26 45 80 46
REMARK SMILES IDX 74 47 76 48 27 49 79 50 73 51 72 52 28 54 60 55 40 56 59 57
REMARK SMILES IDX 41 58 44 59 58 60 77 61 42 62 43 63 57 65 78 66 45 67 29 68
REMARK SMILES IDX 30 69 38 70 31 71 32 72 36 73 39 74 33 75 34 76 37 77 35 78
REMARK SMILES IDX 61 79 62 80 70 81 63 82 64 83 68 84 71 85 65 86 66 87 69 88
REMARK SMILES IDX 67 89 46 90 47 91 55 92 48 93 49 94 53 95 56 96 50 97 51 98
REMARK SMILES IDX 54 99 52 100
REMARK H PARENT 12 5 94 18 84 21 17 34 76 53 44 64
REMARK Flexibility Score: inf
ROOT
ATOM      1  C   UNL A   1      39.252  21.343  26.093  1.00  0.00     0.116 C 
ENDROOT
BRANCH   1   2
ATOM      2  N   UNL A   1      38.530  22.479  25.572  1.00  0.00    -0.355 N 
ATOM      3  C   UNL A   1      37.179  22.696  25.443  1.00  0.00     0.230 C 
ATOM      4  O   UNL A   1      36.861  23.852  25.144  1.00  0.00    -0.274 OA
ATOM      5  H   UNL A   1      39.097  23.219  25.258  1.00  0.00     0.163 HD
BRANCH   3   6
ATOM      6  C   UNL A   1      36.001  21.427  25.782  1.00  0.00     0.175 C 
BRANCH   6   7
ATOM      7  S   UNL A   1      33.599  21.172  24.913  1.00  0.00    -0.103 SA
BRANCH   7   8
ATOM      8  C   UNL A   1      32.829  22.605  23.965  1.00  0.00     0.089 A 
ATOM      9  C   UNL A   1      32.507  24.483  22.332  1.00  0.00     0.157 A 
ATOM     10  S   UNL A   1      33.669  23.241  22.587  1.00  0.00    -0.116 S 
ATOM     11  C   UNL A   1      31.482  24.373  23.246  1.00  0.00     0.166 A 
ATOM     12  C   UNL A   1      31.632  23.296  24.162  1.00  0.00     0.109 A 
BRANCH   9  13
ATOM     13  C   UNL A   1      32.683  25.451  21.265  1.00  0.00     0.352 C 
ATOM     14  O   UNL A   1      32.983  25.222  20.101  1.00  0.00    -0.245 OA
BRANCH  13  15
ATOM     15  O   UNL A   1      32.442  26.708  21.761  1.00  0.00    -0.465 OA
ATOM     16  C   UNL A   1      33.591  27.446  22.187  1.00  0.00     0.282 C 
ENDBRANCH  13  15
ENDBRANCH   9  13
BRANCH  11  17
ATOM     17  O   UNL A   1      30.430  25.224  23.318  1.00  0.00    -0.504 OA
ATOM     18  H   UNL A   1      29.595  24.967  22.979  1.00  0.00     0.293 HD
ENDBRANCH  11  17
BRANCH  12  19
ATOM     19  N   UNL A   1      30.657  23.102  25.135  1.00  0.00    -0.317 N 
ATOM     20  C   UNL A   1      30.607  23.712  26.350  1.00  0.00     0.255 C 
ATOM     21  H   UNL A   1      29.938  22.464  24.927  1.00  0.00     0.170 HD
ATOM     22  O   UNL A   1      29.939  23.313  27.290  1.00  0.00    -0.269 OA
BRANCH  20  23
ATOM     23  C   UNL A   1      31.467  24.886  26.462  1.00  0.00     0.040 A 
ATOM     24  C   UNL A   1      33.230  24.596  26.387  1.00  0.00     0.014 A 
ATOM     25  C   UNL A   1      30.795  26.576  26.178  1.00  0.00     0.014 A 
ATOM     26  C   UNL A   1      34.328  25.967  26.042  1.00  0.00     0.001 A 
ATOM     27  C   UNL A   1      31.937  27.920  25.794  1.00  0.00     0.001 A 
ATOM     28  C   UNL A   1      33.697  27.600  25.725  1.00  0.00     0.000 A 
ENDBRANCH  20  23
ENDBRANCH  12  19
ENDBRANCH   7   8
ENDBRANCH   6   7
ENDBRANCH   3   6
ENDBRANCH   1   2
BRANCH   1  29
ATOM     29  C   UNL A   1      40.421  21.706  27.014  1.00  0.00     0.023 C 
BRANCH  29  30
ATOM     30  C   UNL A   1      41.664  20.820  26.986  1.00  0.00     0.023 C 
BRANCH  30  31
ATOM     31  C   UNL A   1      41.969  20.198  25.639  1.00  0.00     0.116 C 
BRANCH  31  32
ATOM     32  N   UNL A   1      43.382  19.835  25.470  1.00  0.00    -0.352 N 
ATOM     33  C   UNL A   1      44.437  20.673  25.141  1.00  0.00     0.251 C 
ATOM     34  H   UNL A   1      43.606  18.886  25.607  1.00  0.00     0.163 HD
ATOM     35  O   UNL A   1      45.490  20.250  24.687  1.00  0.00    -0.269 OA
BRANCH  33  36
ATOM     36  C   UNL A   1      44.264  22.101  25.436  1.00  0.00     0.039 A 
ATOM     37  C   UNL A   1      43.421  22.960  24.734  1.00  0.00     0.014 A 
ATOM     38  C   UNL A   1      44.909  22.515  26.590  1.00  0.00     0.014 A 
ATOM     39  C   UNL A   1      43.218  24.236  25.255  1.00  0.00     0.010 A 
ATOM     40  C   UNL A   1      44.430  23.594  27.255  1.00  0.00     0.010 A 
ATOM     41  C   UNL A   1      43.733  24.536  26.530  1.00  0.00    -0.014 A 
BRANCH  41  42
ATOM     42  C   UNL A   1      43.494  25.781  27.233  1.00  0.00     0.031 A 
ATOM     43  C   UNL A   1      44.439  26.847  26.835  1.00  0.00     0.074 A 
ATOM     44  C   UNL A   1      42.373  25.986  27.968  1.00  0.00     0.049 A 
ATOM     45  N   UNL A   1      45.433  27.295  27.521  1.00  0.00    -0.248 NA
ATOM     46  C   UNL A   1      44.420  27.317  25.438  1.00  0.00     0.031 C 
ATOM     47  C   UNL A   1      41.206  25.110  28.156  1.00  0.00     0.029 A 
ATOM     48  N   UNL A   1      42.012  27.095  28.671  1.00  0.00    -0.354 N 
ATOM     49  C   UNL A   1      46.013  28.287  26.740  1.00  0.00     0.074 A 
ATOM     50  C   UNL A   1      45.510  28.090  25.408  1.00  0.00     0.031 C 
ATOM     51  C   UNL A   1      40.191  25.800  28.727  1.00  0.00     0.029 A 
ATOM     52  C   UNL A   1      40.685  27.105  29.112  1.00  0.00     0.049 A 
ATOM     53  H   UNL A   1      42.637  27.834  28.855  1.00  0.00     0.167 HD
ATOM     54  C   UNL A   1      46.616  29.354  27.334  1.00  0.00     0.037 A 
ATOM     55  C   UNL A   1      40.065  28.137  29.744  1.00  0.00     0.037 A 
ATOM     56  C   UNL A   1      46.858  29.078  28.732  1.00  0.00     0.049 A 
ATOM     57  C   UNL A   1      41.141  29.007  30.292  1.00  0.00     0.074 A 
ATOM     58  C   UNL A   1      47.609  28.145  29.421  1.00  0.00     0.029 A 
ATOM     59  N   UNL A   1      45.929  29.546  29.631  1.00  0.00    -0.354 N 
ATOM     60  N   UNL A   1      41.967  28.616  31.227  1.00  0.00    -0.248 NA
ATOM     61  C   UNL A   1      41.629  30.068  29.424  1.00  0.00     0.031 C 
ATOM     62  C   UNL A   1      46.790  27.754  30.523  1.00  0.00     0.029 A 
ATOM     63  C   UNL A   1      45.636  28.538  30.514  1.00  0.00     0.049 A 
ATOM     64  H   UNL A   1      45.542  30.450  29.640  1.00  0.00     0.167 HD
ATOM     65  C   UNL A   1      43.213  29.058  30.804  1.00  0.00     0.074 A 
ATOM     66  C   UNL A   1      42.933  29.977  29.699  1.00  0.00     0.031 C 
ATOM     67  C   UNL A   1      44.355  28.406  31.173  1.00  0.00     0.037 A 
BRANCH  54  68
ATOM     68  C   UNL A   1      46.588  30.766  26.795  1.00  0.00     0.064 A 
ATOM     69  C   UNL A   1      47.786  31.510  26.801  1.00  0.00     0.173 A 
ATOM     70  C   UNL A   1      45.414  31.514  26.565  1.00  0.00     0.173 A 
ATOM     71  F   UNL A   1      48.965  30.905  27.013  1.00  0.00    -0.203 F 
ATOM     72  C   UNL A   1      47.792  32.903  26.687  1.00  0.00     0.198 A 
ATOM     73  C   UNL A   1      45.430  32.898  26.403  1.00  0.00     0.198 A 
ATOM     74  F   UNL A   1      44.193  30.969  26.598  1.00  0.00    -0.203 F 
ATOM     75  F   UNL A   1      48.942  33.575  26.833  1.00  0.00    -0.200 F 
ATOM     76  C   UNL A   1      46.612  33.597  26.499  1.00  0.00     0.200 A 
ATOM     77  F   UNL A   1      44.271  33.553  26.237  1.00  0.00    -0.200 F 
ATOM     78  F   UNL A   1      46.607  34.935  26.456  1.00  0.00    -0.200 F 
ENDBRANCH  54  68
BRANCH  55  79
ATOM     79  C   UNL A   1      38.674  28.625  29.553  1.00  0.00     0.064 A 
ATOM     80  C   UNL A   1      37.849  28.956  30.643  1.00  0.00     0.173 A 
ATOM     81  C   UNL A   1      38.233  29.060  28.287  1.00  0.00     0.173 A 
ATOM     82  F   UNL A   1      38.223  28.633  31.890  1.00  0.00    -0.203 F 
ATOM     83  C   UNL A   1      36.663  29.685  30.478  1.00  0.00     0.198 A 
ATOM     84  C   UNL A   1      37.053  29.789  28.123  1.00  0.00     0.198 A 
ATOM     85  F   UNL A   1      38.994  28.869  27.199  1.00  0.00    -0.203 F 
ATOM     86  F   UNL A   1      35.929  30.026  31.546  1.00  0.00    -0.200 F 
ATOM     87  C   UNL A   1      36.271  30.109  29.218  1.00  0.00     0.200 A 
ATOM     88  F   UNL A   1      36.711  30.234  26.906  1.00  0.00    -0.200 F 
ATOM     89  F   UNL A   1      35.171  30.859  29.065  1.00  0.00    -0.200 F 
ENDBRANCH  55  79
BRANCH  67  90
ATOM     90  C   UNL A   1      44.244  27.337  32.232  1.00  0.00     0.064 A 
ATOM     91  C   UNL A   1      44.162  25.957  31.971  1.00  0.00     0.173 A 
ATOM     92  C   UNL A   1      44.379  27.725  33.570  1.00  0.00     0.173 A 
ATOM     93  F   UNL A   1      44.123  25.493  30.716  1.00  0.00    -0.203 F 
ATOM     94  C   UNL A   1      44.177  25.019  33.005  1.00  0.00     0.198 A 
ATOM     95  C   UNL A   1      44.429  26.787  34.598  1.00  0.00     0.198 A 
ATOM     96  F   UNL A   1      44.518  29.024  33.879  1.00  0.00    -0.203 F 
ATOM     97  F   UNL A   1      44.092  23.707  32.728  1.00  0.00    -0.200 F 
ATOM     98  C   UNL A   1      44.317  25.435  34.317  1.00  0.00     0.200 A 
ATOM     99  F   UNL A   1      44.614  27.196  35.860  1.00  0.00    -0.200 F 
ATOM    100  F   UNL A   1      44.371  24.536  35.309  1.00  0.00    -0.200 F 
ENDBRANCH  67  90
ENDBRANCH  41  42
ENDBRANCH  33  36
ENDBRANCH  31  32
ENDBRANCH  30  31
ENDBRANCH  29  30
ENDBRANCH   1  29
TORSDOF 18
ENDMDL
MODEL 3
REMARK VINA RESULT:     -13.7      2.939      4.810
REMARK SMILES COC(=O)c1sc(SCC(=O)NCCCCNC(=O)c2ccc(-c3c4nc(c(-c5c(F)c(F)c(F)c(F)c5F)c5ccc([nH]5)c(-c5c(F)c(F)c(F)c(F)c5F)c5nc(c(-c6c(F)c(F)c(F)c(F)c6F)c6ccc3[nH]6)C=C5)C=C4)cc2)c(NC(=O)c2ccccc2)c1O
REMARK SMILES IDX 13 1 12 2 10 3 11 4 9 6 8 7 7 8 5 9 6 10 93 11 83 12 3 13
REMARK SMILES IDX 4 14 2 15 1 16 94 17 84 19 85 20 86 22 87 23 88 24 92 25
REMARK SMILES IDX 89 26 91 27 90 28 14 29 15 30 16 31 17 32 18 33 19 35 20 36
REMARK SMILES IDX 21 37 82 38 22 39 81 40 23 41 24 42 25 43 75 44 26 45 80 46
REMARK SMILES IDX 74 47 76 48 27 49 79 50 73 51 72 52 28 54 60 55 40 56 59 57
REMARK SMILES IDX 41 58 44 59 58 60 77 61 42 62 43 63 57 65 78 66 45 67 29 68
REMARK SMILES IDX 30 69 38 70 31 71 32 72 36 73 39 74 33 75 34 76 37 77 35 78
REMARK SMILES IDX 61 79 62 80 70 81 63 82 64 83 68 84 71 85 65 86 66 87 69 88
REMARK SMILES IDX 67 89 46 90 47 91 55 92 48 93 49 94 53 95 56 96 50 97 51 98
REMARK SMILES IDX 54 99 52 100
REMARK H PARENT 12 5 94 18 84 21 17 34 76 53 44 64
REMARK Flexibility Score: inf
ROOT
ATOM      1  C   UNL A   1      39.958  21.521  26.449  1.00  0.00     0.116 C 
ENDROOT
BRANCH   1   2
ATOM      2  N   UNL A   1      39.481  22.884  26.439  1.00  0.00    -0.355 N 
ATOM      3  C   UNL A   1      38.264  23.401  26.067  1.00  0.00     0.230 C 
ATOM      4  O   UNL A   1      38.089  24.589  26.361  1.00  0.00    -0.274 OA
ATOM      5  H   UNL A   1      40.134  23.550  26.751  1.00  0.00     0.163 HD
BRANCH   3   6
ATOM      6  C   UNL A   1      37.021  22.398  25.316  1.00  0.00     0.175 C 
BRANCH   6   7
ATOM      7  S   UNL A   1      35.728  22.784  23.132  1.00  0.00    -0.103 SA
BRANCH   7   8
ATOM      8  C   UNL A   1      34.098  23.721  23.207  1.00  0.00     0.089 A 
ATOM      9  C   UNL A   1      32.396  25.512  23.649  1.00  0.00     0.157 A 
ATOM     10  S   UNL A   1      34.108  25.373  23.738  1.00  0.00    -0.116 S 
ATOM     11  C   UNL A   1      31.846  24.343  23.174  1.00  0.00     0.166 A 
ATOM     12  C   UNL A   1      32.797  23.325  22.890  1.00  0.00     0.109 A 
BRANCH   9  13
ATOM     13  C   UNL A   1      31.735  26.744  24.038  1.00  0.00     0.352 C 
ATOM     14  O   UNL A   1      31.208  26.993  25.114  1.00  0.00    -0.245 OA
BRANCH  13  15
ATOM     15  O   UNL A   1      31.800  27.632  22.993  1.00  0.00    -0.465 OA
ATOM     16  C   UNL A   1      31.233  28.924  23.230  1.00  0.00     0.282 C 
ENDBRANCH  13  15
ENDBRANCH   9  13
BRANCH  11  17
ATOM     17  O   UNL A   1      30.516  24.133  23.018  1.00  0.00    -0.504 OA
ATOM     18  H   UNL A   1      29.970  24.008  23.769  1.00  0.00     0.293 HD
ENDBRANCH  11  17
BRANCH  12  19
ATOM     19  N   UNL A   1      32.346  22.098  22.415  1.00  0.00    -0.317 N 
ATOM     20  C   UNL A   1      32.224  20.955  23.143  1.00  0.00     0.255 C 
ATOM     21  H   UNL A   1      32.093  22.051  21.466  1.00  0.00     0.170 HD
ATOM     22  O   UNL A   1      32.125  19.840  22.656  1.00  0.00    -0.269 OA
BRANCH  20  23
ATOM     23  C   UNL A   1      32.264  21.162  24.587  1.00  0.00     0.040 A 
ATOM     24  C   UNL A   1      33.805  20.777  25.408  1.00  0.00     0.014 A 
ATOM     25  C   UNL A   1      31.011  22.222  25.421  1.00  0.00     0.014 A 
ATOM     26  C   UNL A   1      34.109  21.427  27.048  1.00  0.00     0.001 A 
ATOM     27  C   UNL A   1      31.378  22.887  27.058  1.00  0.00     0.001 A 
ATOM     28  C   UNL A   1      32.929  22.486  27.856  1.00  0.00     0.000 A 
ENDBRANCH  20  23
ENDBRANCH  12  19
ENDBRANCH   7   8
ENDBRANCH   6   7
ENDBRANCH   3   6
ENDBRANCH   1   2
BRANCH   1  29
ATOM     29  C   UNL A   1      40.955  21.209  27.569  1.00  0.00     0.023 C 
BRANCH  29  30
ATOM     30  C   UNL A   1      42.084  20.225  27.276  1.00  0.00     0.023 C 
BRANCH  30  31
ATOM     31  C   UNL A   1      42.378  20.016  25.805  1.00  0.00     0.116 C 
BRANCH  31  32
ATOM     32  N   UNL A   1      43.789  19.715  25.529  1.00  0.00    -0.352 N 
ATOM     33  C   UNL A   1      44.776  20.595  25.110  1.00  0.00     0.251 C 
ATOM     34  H   UNL A   1      44.067  18.779  25.656  1.00  0.00     0.163 HD
ATOM     35  O   UNL A   1      45.808  20.214  24.578  1.00  0.00    -0.269 OA
BRANCH  33  36
ATOM     36  C   UNL A   1      44.562  22.018  25.406  1.00  0.00     0.039 A 
ATOM     37  C   UNL A   1      43.660  22.841  24.734  1.00  0.00     0.014 A 
ATOM     38  C   UNL A   1      45.237  22.463  26.531  1.00  0.00     0.014 A 
ATOM     39  C   UNL A   1      43.430  24.112  25.258  1.00  0.00     0.010 A 
ATOM     40  C   UNL A   1      44.744  23.527  27.210  1.00  0.00     0.010 A 
ATOM     41  C   UNL A   1      43.985  24.438  26.509  1.00  0.00    -0.014 A 
BRANCH  41  42
ATOM     42  C   UNL A   1      43.728  25.677  27.216  1.00  0.00     0.031 A 
ATOM     43  C   UNL A   1      44.661  26.757  26.825  1.00  0.00     0.074 A 
ATOM     44  C   UNL A   1      42.602  25.866  27.947  1.00  0.00     0.049 A 
ATOM     45  N   UNL A   1      45.647  27.214  27.517  1.00  0.00    -0.248 NA
ATOM     46  C   UNL A   1      44.642  27.231  25.430  1.00  0.00     0.031 C 
ATOM     47  C   UNL A   1      41.444  24.975  28.127  1.00  0.00     0.029 A 
ATOM     48  N   UNL A   1      42.224  26.968  28.653  1.00  0.00    -0.354 N 
ATOM     49  C   UNL A   1      46.218  28.216  26.741  1.00  0.00     0.074 A 
ATOM     50  C   UNL A   1      45.722  28.017  25.406  1.00  0.00     0.031 C 
ATOM     51  C   UNL A   1      40.419  25.651  28.696  1.00  0.00     0.029 A 
ATOM     52  C   UNL A   1      40.895  26.960  29.089  1.00  0.00     0.049 A 
ATOM     53  H   UNL A   1      42.839  27.713  28.842  1.00  0.00     0.167 HD
ATOM     54  C   UNL A   1      46.805  29.288  27.342  1.00  0.00     0.037 A 
ATOM     55  C   UNL A   1      40.260  27.982  29.722  1.00  0.00     0.037 A 
ATOM     56  C   UNL A   1      47.045  29.010  28.739  1.00  0.00     0.049 A 
ATOM     57  C   UNL A   1      41.323  28.863  30.277  1.00  0.00     0.074 A 
ATOM     58  C   UNL A   1      47.805  28.083  29.428  1.00  0.00     0.029 A 
ATOM     59  N   UNL A   1      46.107  29.463  29.636  1.00  0.00    -0.354 N 
ATOM     60  N   UNL A   1      42.150  28.480  31.213  1.00  0.00    -0.248 NA
ATOM     61  C   UNL A   1      41.801  29.934  29.414  1.00  0.00     0.031 C 
ATOM     62  C   UNL A   1      46.987  27.679  30.526  1.00  0.00     0.029 A 
ATOM     63  C   UNL A   1      45.823  28.449  30.514  1.00  0.00     0.049 A 
ATOM     64  H   UNL A   1      45.709  30.363  29.647  1.00  0.00     0.167 HD
ATOM     65  C   UNL A   1      43.393  28.938  30.797  1.00  0.00     0.074 A 
ATOM     66  C   UNL A   1      43.106  29.858  29.694  1.00  0.00     0.031 C 
ATOM     67  C   UNL A   1      44.541  28.299  31.168  1.00  0.00     0.037 A 
BRANCH  54  68
ATOM     68  C   UNL A   1      46.762  30.701  26.807  1.00  0.00     0.064 A 
ATOM     69  C   UNL A   1      47.955  31.453  26.804  1.00  0.00     0.173 A 
ATOM     70  C   UNL A   1      45.581  31.442  26.591  1.00  0.00     0.173 A 
ATOM     71  F   UNL A   1      49.140  30.857  27.003  1.00  0.00    -0.203 F 
ATOM     72  C   UNL A   1      47.950  32.847  26.695  1.00  0.00     0.198 A 
ATOM     73  C   UNL A   1      45.585  32.826  26.433  1.00  0.00     0.198 A 
ATOM     74  F   UNL A   1      44.364  30.888  26.634  1.00  0.00    -0.203 F 
ATOM     75  F   UNL A   1      49.096  33.527  26.832  1.00  0.00    -0.200 F 
ATOM     76  C   UNL A   1      46.764  33.533  26.521  1.00  0.00     0.200 A 
ATOM     77  F   UNL A   1      44.420  33.474  26.281  1.00  0.00    -0.200 F 
ATOM     78  F   UNL A   1      46.749  34.871  26.482  1.00  0.00    -0.200 F 
ENDBRANCH  54  68
BRANCH  55  79
ATOM     79  C   UNL A   1      38.864  28.454  29.526  1.00  0.00     0.064 A 
ATOM     80  C   UNL A   1      38.014  28.719  30.615  1.00  0.00     0.173 A 
ATOM     81  C   UNL A   1      38.438  28.939  28.274  1.00  0.00     0.173 A 
ATOM     82  F   UNL A   1      38.371  28.346  31.852  1.00  0.00    -0.203 F 
ATOM     83  C   UNL A   1      36.818  29.434  30.460  1.00  0.00     0.198 A 
ATOM     84  C   UNL A   1      37.248  29.654  28.120  1.00  0.00     0.198 A 
ATOM     85  F   UNL A   1      39.222  28.812  27.193  1.00  0.00    -0.203 F 
ATOM     86  F   UNL A   1      36.059  29.713  31.529  1.00  0.00    -0.200 F 
ATOM     87  C   UNL A   1      36.441  29.909  29.214  1.00  0.00     0.200 A 
ATOM     88  F   UNL A   1      36.920  30.148  26.919  1.00  0.00    -0.200 F 
ATOM     89  F   UNL A   1      35.330  30.645  29.075  1.00  0.00    -0.200 F 
ENDBRANCH  55  79
BRANCH  67  90
ATOM     90  C   UNL A   1      44.440  27.224  32.223  1.00  0.00     0.064 A 
ATOM     91  C   UNL A   1      44.266  27.466  33.598  1.00  0.00     0.173 A 
ATOM     92  C   UNL A   1      44.366  25.893  31.796  1.00  0.00     0.173 A 
ATOM     93  F   UNL A   1      44.230  28.713  34.081  1.00  0.00    -0.203 F 
ATOM     94  C   UNL A   1      44.065  26.420  34.500  1.00  0.00     0.198 A 
ATOM     95  C   UNL A   1      44.131  24.854  32.692  1.00  0.00     0.198 A 
ATOM     96  F   UNL A   1      44.469  25.604  30.489  1.00  0.00    -0.203 F 
ATOM     97  F   UNL A   1      43.906  26.678  35.809  1.00  0.00    -0.200 F 
ATOM     98  C   UNL A   1      43.991  25.115  34.045  1.00  0.00     0.200 A 
ATOM     99  F   UNL A   1      44.012  23.600  32.236  1.00  0.00    -0.200 F 
ATOM    100  F   UNL A   1      43.760  24.112  34.903  1.00  0.00    -0.200 F 
ENDBRANCH  67  90
ENDBRANCH  41  42
ENDBRANCH  33  36
ENDBRANCH  31  32
ENDBRANCH  30  31
ENDBRANCH  29  30
ENDBRANCH   1  29
TORSDOF 18
ENDMDL
