MODEL 1
REMARK VINA RESULT:     -13.2      0.000      0.000
REMARK SMILES CC(C)Cc1cc2c(cc1Cl)C=C(C(=O)NCCCCNC(=O)c1ccc(-c3c4nc(c(-c5c(F)c(F)c(F)c(F)c5F)c5ccc([nH]5)c(-c5c(F)c(F)c(F)c(F)c5F)c5nc(c(-c6c(F)c(F)c(F)c(F)c6F)c6ccc3[nH]6)C=C5)C=C4)cc1)[C@@H](C(F)(F)F)O2
REMARK SMILES IDX 18 1 17 2 16 3 14 4 15 5 13 7 5 8 6 9 10 10 7 11 9 12 11 13
REMARK SMILES IDX 8 14 92 15 12 16 87 17 4 18 2 19 1 20 3 21 88 22 89 23 90 24
REMARK SMILES IDX 91 25 19 26 20 27 21 28 22 29 23 31 24 32 25 33 86 34 26 35
REMARK SMILES IDX 85 36 27 37 28 38 29 39 79 40 30 41 84 42 78 43 80 44 31 45
REMARK SMILES IDX 83 46 77 47 76 48 32 50 64 51 44 52 63 53 45 54 48 55 62 56
REMARK SMILES IDX 81 57 46 58 47 59 61 61 82 62 49 63 33 64 34 65 42 66 35 67
REMARK SMILES IDX 36 68 40 69 43 70 37 71 38 72 41 73 39 74 65 75 66 76 74 77
REMARK SMILES IDX 67 78 68 79 72 80 75 81 69 82 70 83 73 84 71 85 50 86 51 87
REMARK SMILES IDX 59 88 52 89 53 90 57 91 60 92 54 93 55 94 58 95 56 96
REMARK H PARENT 16 6 21 30 80 49 48 60
REMARK Flexibility Score: inf
ROOT
ATOM      1  C   UNL A   1      32.227  30.203  26.974  1.00  0.00     0.023 C 
ENDROOT
BRANCH   1   2
ATOM      2  C   UNL A   1      33.474  29.764  26.212  1.00  0.00     0.116 C 
BRANCH   2   3
ATOM      3  N   UNL A   1      33.253  29.691  24.776  1.00  0.00    -0.352 N 
ATOM      4  C   UNL A   1      32.925  28.735  23.872  1.00  0.00     0.251 C 
ATOM      5  O   UNL A   1      32.815  29.127  22.706  1.00  0.00    -0.270 OA
ATOM      6  H   UNL A   1      33.376  30.568  24.346  1.00  0.00     0.163 HD
BRANCH   4   7
ATOM      7  C   UNL A   1      32.712  27.290  24.187  1.00  0.00     0.067 C 
ATOM      8  C   UNL A   1      33.492  22.400  25.214  1.00  0.00    -0.025 A 
ATOM      9  C   UNL A   1      32.412  23.284  25.343  1.00  0.00     0.052 A 
ATOM     10  C   UNL A   1      34.643  22.859  24.558  1.00  0.00     0.045 A 
ATOM     11  C   UNL A   1      32.512  24.607  24.928  1.00  0.00     0.128 A 
ATOM     12  C   UNL A   1      34.722  24.180  24.091  1.00  0.00     0.032 A 
ATOM     13  Cl  UNL A   1      36.023  21.848  24.322  1.00  0.00    -0.084 Cl
ATOM     14  C   UNL A   1      33.664  25.070  24.304  1.00  0.00     0.019 A 
ATOM     15  O   UNL A   1      31.455  25.396  25.251  1.00  0.00    -0.475 OA
ATOM     16  C   UNL A   1      33.768  26.484  23.967  1.00  0.00     0.025 C 
ATOM     17  C   UNL A   1      31.414  26.734  24.701  1.00  0.00     0.314 C 
BRANCH   8  18
ATOM     18  C   UNL A   1      33.364  21.039  25.863  1.00  0.00     0.040 C 
BRANCH  18  19
ATOM     19  C   UNL A   1      33.309  19.874  24.845  1.00  0.00    -0.013 C 
ATOM     20  C   UNL A   1      32.799  18.558  25.448  1.00  0.00     0.008 C 
ATOM     21  C   UNL A   1      32.404  20.259  23.671  1.00  0.00     0.008 C 
ENDBRANCH  18  19
ENDBRANCH   8  18
BRANCH  17  22
ATOM     22  C   UNL A   1      30.285  26.770  23.655  1.00  0.00     0.429 C 
ATOM     23  F   UNL A   1      30.802  26.680  22.405  1.00  0.00    -0.167 F 
ATOM     24  F   UNL A   1      29.415  25.742  23.783  1.00  0.00    -0.167 F 
ATOM     25  F   UNL A   1      29.564  27.911  23.716  1.00  0.00    -0.167 F 
ENDBRANCH  17  22
ENDBRANCH   4   7
ENDBRANCH   2   3
ENDBRANCH   1   2
BRANCH   1  26
ATOM     26  C   UNL A   1      31.915  31.698  26.872  1.00  0.00     0.023 C 
BRANCH  26  27
ATOM     27  C   UNL A   1      32.930  32.629  27.532  1.00  0.00     0.116 C 
BRANCH  27  28
ATOM     28  N   UNL A   1      32.489  34.010  27.678  1.00  0.00    -0.352 N 
ATOM     29  C   UNL A   1      32.980  34.960  28.549  1.00  0.00     0.251 C 
ATOM     30  H   UNL A   1      31.756  34.298  27.088  1.00  0.00     0.163 HD
ATOM     31  O   UNL A   1      32.466  36.070  28.631  1.00  0.00    -0.269 OA
BRANCH  29  32
ATOM     32  C   UNL A   1      34.099  34.586  29.438  1.00  0.00     0.039 A 
ATOM     33  C   UNL A   1      35.399  34.530  28.935  1.00  0.00     0.014 A 
ATOM     34  C   UNL A   1      33.825  34.170  30.743  1.00  0.00     0.014 A 
ATOM     35  C   UNL A   1      36.379  33.866  29.659  1.00  0.00     0.010 A 
ATOM     36  C   UNL A   1      34.838  33.580  31.505  1.00  0.00     0.010 A 
ATOM     37  C   UNL A   1      36.103  33.356  30.939  1.00  0.00    -0.014 A 
BRANCH  37  38
ATOM     38  C   UNL A   1      37.142  32.542  31.623  1.00  0.00     0.031 A 
ATOM     39  C   UNL A   1      37.859  31.438  30.890  1.00  0.00     0.074 A 
ATOM     40  C   UNL A   1      37.521  32.878  32.870  1.00  0.00     0.049 A 
ATOM     41  N   UNL A   1      38.871  30.706  31.287  1.00  0.00    -0.248 NA
ATOM     42  C   UNL A   1      37.385  31.108  29.536  1.00  0.00     0.031 C 
ATOM     43  C   UNL A   1      36.908  33.934  33.676  1.00  0.00     0.029 A 
ATOM     44  N   UNL A   1      38.540  32.405  33.659  1.00  0.00    -0.354 N 
ATOM     45  C   UNL A   1      39.139  29.826  30.247  1.00  0.00     0.074 A 
ATOM     46  C   UNL A   1      38.168  30.090  29.209  1.00  0.00     0.031 C 
ATOM     47  C   UNL A   1      37.612  34.086  34.808  1.00  0.00     0.029 A 
ATOM     48  C   UNL A   1      38.690  33.102  34.832  1.00  0.00     0.049 A 
ATOM     49  H   UNL A   1      39.107  31.640  33.407  1.00  0.00     0.167 HD
ATOM     50  C   UNL A   1      40.119  28.896  30.157  1.00  0.00     0.037 A 
ATOM     51  C   UNL A   1      39.600  32.969  35.815  1.00  0.00     0.037 A 
ATOM     52  C   UNL A   1      41.112  28.661  31.171  1.00  0.00     0.049 A 
ATOM     53  C   UNL A   1      40.654  31.906  35.705  1.00  0.00     0.074 A 
ATOM     54  C   UNL A   1      42.171  27.771  31.148  1.00  0.00     0.029 A 
ATOM     55  N   UNL A   1      41.172  29.324  32.386  1.00  0.00    -0.354 N 
ATOM     56  N   UNL A   1      40.903  31.093  34.709  1.00  0.00    -0.248 NA
ATOM     57  C   UNL A   1      41.540  31.728  36.865  1.00  0.00     0.031 C 
ATOM     58  C   UNL A   1      42.851  27.869  32.366  1.00  0.00     0.029 A 
ATOM     59  C   UNL A   1      42.233  28.843  33.134  1.00  0.00     0.049 A 
ATOM     60  H   UNL A   1      40.551  30.032  32.675  1.00  0.00     0.167 HD
ATOM     61  C   UNL A   1      41.969  30.306  35.119  1.00  0.00     0.074 A 
ATOM     62  C   UNL A   1      42.339  30.755  36.445  1.00  0.00     0.031 C 
ATOM     63  C   UNL A   1      42.579  29.294  34.457  1.00  0.00     0.037 A 
BRANCH  50  64
ATOM     64  C   UNL A   1      40.178  28.054  28.917  1.00  0.00     0.064 A 
ATOM     65  C   UNL A   1      40.918  28.454  27.796  1.00  0.00     0.173 A 
ATOM     66  C   UNL A   1      39.552  26.799  28.881  1.00  0.00     0.173 A 
ATOM     67  F   UNL A   1      41.525  29.649  27.779  1.00  0.00    -0.203 F 
ATOM     68  C   UNL A   1      41.022  27.630  26.678  1.00  0.00     0.198 A 
ATOM     69  C   UNL A   1      39.675  25.969  27.770  1.00  0.00     0.198 A 
ATOM     70  F   UNL A   1      38.838  26.368  29.932  1.00  0.00    -0.203 F 
ATOM     71  F   UNL A   1      41.713  28.042  25.607  1.00  0.00    -0.200 F 
ATOM     72  C   UNL A   1      40.407  26.385  26.669  1.00  0.00     0.200 A 
ATOM     73  F   UNL A   1      39.090  24.763  27.767  1.00  0.00    -0.200 F 
ATOM     74  F   UNL A   1      40.520  25.589  25.597  1.00  0.00    -0.200 F 
ENDBRANCH  50  64
BRANCH  51  75
ATOM     75  C   UNL A   1      39.553  33.884  36.983  1.00  0.00     0.064 A 
ATOM     76  C   UNL A   1      40.193  35.130  36.944  1.00  0.00     0.173 A 
ATOM     77  C   UNL A   1      38.837  33.550  38.143  1.00  0.00     0.173 A 
ATOM     78  F   UNL A   1      40.903  35.484  35.863  1.00  0.00    -0.203 F 
ATOM     79  C   UNL A   1      40.119  36.009  38.022  1.00  0.00     0.198 A 
ATOM     80  C   UNL A   1      38.745  34.440  39.211  1.00  0.00     0.198 A 
ATOM     81  F   UNL A   1      38.207  32.370  38.225  1.00  0.00    -0.203 F 
ATOM     82  F   UNL A   1      40.757  37.185  37.970  1.00  0.00    -0.200 F 
ATOM     83  C   UNL A   1      39.388  35.667  39.151  1.00  0.00     0.200 A 
ATOM     84  F   UNL A   1      38.024  34.111  40.292  1.00  0.00    -0.200 F 
ATOM     85  F   UNL A   1      39.304  36.520  40.181  1.00  0.00    -0.200 F 
ENDBRANCH  51  75
BRANCH  63  86
ATOM     86  C   UNL A   1      43.696  28.583  35.156  1.00  0.00     0.064 A 
ATOM     87  C   UNL A   1      43.452  27.433  35.919  1.00  0.00     0.173 A 
ATOM     88  C   UNL A   1      45.025  28.999  34.992  1.00  0.00     0.173 A 
ATOM     89  F   UNL A   1      42.195  27.006  36.112  1.00  0.00    -0.203 F 
ATOM     90  C   UNL A   1      44.501  26.725  36.498  1.00  0.00     0.198 A 
ATOM     91  C   UNL A   1      46.073  28.278  35.556  1.00  0.00     0.198 A 
ATOM     92  F   UNL A   1      45.307  30.091  34.265  1.00  0.00    -0.203 F 
ATOM     93  F   UNL A   1      44.245  25.638  37.239  1.00  0.00    -0.200 F 
ATOM     94  C   UNL A   1      45.811  27.142  36.308  1.00  0.00     0.200 A 
ATOM     95  F   UNL A   1      47.338  28.675  35.363  1.00  0.00    -0.200 F 
ATOM     96  F   UNL A   1      46.821  26.448  36.850  1.00  0.00    -0.200 F 
ENDBRANCH  63  86
ENDBRANCH  37  38
ENDBRANCH  29  32
ENDBRANCH  27  28
ENDBRANCH  26  27
ENDBRANCH   1  26
TORSDOF 14
ENDMDL
MODEL 2
REMARK VINA RESULT:     -13.2      1.686      7.491
REMARK SMILES CC(C)Cc1cc2c(cc1Cl)C=C(C(=O)NCCCCNC(=O)c1ccc(-c3c4nc(c(-c5c(F)c(F)c(F)c(F)c5F)c5ccc([nH]5)c(-c5c(F)c(F)c(F)c(F)c5F)c5nc(c(-c6c(F)c(F)c(F)c(F)c6F)c6ccc3[nH]6)C=C5)C=C4)cc1)[C@@H](C(F)(F)F)O2
REMARK SMILES IDX 18 1 17 2 16 3 14 4 15 5 13 7 5 8 6 9 10 10 7 11 9 12 11 13
REMARK SMILES IDX 8 14 92 15 12 16 87 17 4 18 2 19 1 20 3 21 88 22 89 23 90 24
REMARK SMILES IDX 91 25 19 26 20 27 21 28 22 29 23 31 24 32 25 33 86 34 26 35
REMARK SMILES IDX 85 36 27 37 28 38 29 39 79 40 30 41 84 42 78 43 80 44 31 45
REMARK SMILES IDX 83 46 77 47 76 48 32 50 64 51 44 52 63 53 45 54 48 55 62 56
REMARK SMILES IDX 81 57 46 58 47 59 61 61 82 62 49 63 33 64 34 65 42 66 35 67
REMARK SMILES IDX 36 68 40 69 43 70 37 71 38 72 41 73 39 74 65 75 66 76 74 77
REMARK SMILES IDX 67 78 68 79 72 80 75 81 69 82 70 83 73 84 71 85 50 86 51 87
REMARK SMILES IDX 59 88 52 89 53 90 57 91 60 92 54 93 55 94 58 95 56 96
REMARK H PARENT 16 6 21 30 80 49 48 60
REMARK Flexibility Score: inf
ROOT
ATOM      1  C   UNL A   1      31.809  28.658  27.606  1.00  0.00     0.023 C 
ENDROOT
BRANCH   1   2
ATOM      2  C   UNL A   1      31.871  27.400  26.745  1.00  0.00     0.116 C 
BRANCH   2   3
ATOM      3  N   UNL A   1      32.770  27.543  25.611  1.00  0.00    -0.352 N 
ATOM      4  C   UNL A   1      33.315  26.731  24.671  1.00  0.00     0.251 C 
ATOM      5  O   UNL A   1      34.038  27.293  23.843  1.00  0.00    -0.270 OA
ATOM      6  H   UNL A   1      33.060  28.476  25.495  1.00  0.00     0.163 HD
BRANCH   4   7
ATOM      7  C   UNL A   1      33.113  25.252  24.589  1.00  0.00     0.067 C 
ATOM      8  C   UNL A   1      33.832  20.253  24.855  1.00  0.00    -0.025 A 
ATOM      9  C   UNL A   1      32.717  21.093  24.730  1.00  0.00     0.052 A 
ATOM     10  C   UNL A   1      35.106  20.838  24.796  1.00  0.00     0.045 A 
ATOM     11  C   UNL A   1      32.862  22.474  24.654  1.00  0.00     0.128 A 
ATOM     12  C   UNL A   1      35.250  22.228  24.665  1.00  0.00     0.032 A 
ATOM     13  Cl  UNL A   1      36.548  19.896  24.915  1.00  0.00    -0.084 Cl
ATOM     14  C   UNL A   1      34.123  23.055  24.625  1.00  0.00     0.019 A 
ATOM     15  O   UNL A   1      31.702  23.179  24.694  1.00  0.00    -0.475 OA
ATOM     16  C   UNL A   1      34.235  24.508  24.639  1.00  0.00     0.025 C 
ATOM     17  C   UNL A   1      31.765  24.604  24.444  1.00  0.00     0.314 C 
BRANCH   8  18
ATOM     18  C   UNL A   1      33.577  18.786  25.124  1.00  0.00     0.040 C 
BRANCH  18  19
ATOM     19  C   UNL A   1      34.107  17.855  24.007  1.00  0.00    -0.013 C 
ATOM     20  C   UNL A   1      34.687  16.536  24.534  1.00  0.00     0.008 C 
ATOM     21  C   UNL A   1      32.976  17.534  23.026  1.00  0.00     0.008 C 
ENDBRANCH  18  19
ENDBRANCH   8  18
BRANCH  17  22
ATOM     22  C   UNL A   1      31.114  24.864  23.075  1.00  0.00     0.429 C 
ATOM     23  F   UNL A   1      30.006  24.095  22.929  1.00  0.00    -0.167 F 
ATOM     24  F   UNL A   1      30.712  26.146  22.917  1.00  0.00    -0.167 F 
ATOM     25  F   UNL A   1      31.945  24.579  22.047  1.00  0.00    -0.167 F 
ENDBRANCH  17  22
ENDBRANCH   4   7
ENDBRANCH   2   3
ENDBRANCH   1   2
BRANCH   1  26
ATOM     26  C   UNL A   1      31.400  29.924  26.850  1.00  0.00     0.023 C 
BRANCH  26  27
ATOM     27  C   UNL A   1      32.537  30.886  26.514  1.00  0.00     0.116 C 
BRANCH  27  28
ATOM     28  N   UNL A   1      32.369  32.236  27.037  1.00  0.00    -0.352 N 
ATOM     29  C   UNL A   1      33.284  32.977  27.757  1.00  0.00     0.251 C 
ATOM     30  H   UNL A   1      31.504  32.669  26.857  1.00  0.00     0.163 HD
ATOM     31  O   UNL A   1      32.991  34.077  28.210  1.00  0.00    -0.269 OA
BRANCH  29  32
ATOM     32  C   UNL A   1      34.609  32.383  28.030  1.00  0.00     0.039 A 
ATOM     33  C   UNL A   1      34.708  31.046  28.409  1.00  0.00     0.014 A 
ATOM     34  C   UNL A   1      35.738  33.206  28.026  1.00  0.00     0.014 A 
ATOM     35  C   UNL A   1      35.886  30.588  28.983  1.00  0.00     0.010 A 
ATOM     36  C   UNL A   1      36.949  32.715  28.523  1.00  0.00     0.010 A 
ATOM     37  C   UNL A   1      37.011  31.426  29.075  1.00  0.00    -0.014 A 
BRANCH  37  38
ATOM     38  C   UNL A   1      38.207  30.938  29.811  1.00  0.00     0.031 A 
ATOM     39  C   UNL A   1      38.412  31.287  31.263  1.00  0.00     0.074 A 
ATOM     40  C   UNL A   1      39.046  30.080  29.201  1.00  0.00     0.049 A 
ATOM     41  N   UNL A   1      39.330  30.856  32.093  1.00  0.00    -0.248 NA
ATOM     42  C   UNL A   1      37.470  32.244  31.866  1.00  0.00     0.031 C 
ATOM     43  C   UNL A   1      38.943  29.659  27.803  1.00  0.00     0.029 A 
ATOM     44  N   UNL A   1      40.116  29.371  29.685  1.00  0.00    -0.354 N 
ATOM     45  C   UNL A   1      39.086  31.497  33.300  1.00  0.00     0.074 A 
ATOM     46  C   UNL A   1      37.953  32.371  33.094  1.00  0.00     0.031 C 
ATOM     47  C   UNL A   1      39.856  28.706  27.564  1.00  0.00     0.029 A 
ATOM     48  C   UNL A   1      40.643  28.489  28.775  1.00  0.00     0.049 A 
ATOM     49  H   UNL A   1      40.471  29.484  30.598  1.00  0.00     0.167 HD
ATOM     50  C   UNL A   1      39.735  31.354  34.480  1.00  0.00     0.037 A 
ATOM     51  C   UNL A   1      41.645  27.598  28.901  1.00  0.00     0.037 A 
ATOM     52  C   UNL A   1      40.835  30.453  34.699  1.00  0.00     0.049 A 
ATOM     53  C   UNL A   1      42.370  27.486  30.211  1.00  0.00     0.074 A 
ATOM     54  C   UNL A   1      41.526  30.208  35.872  1.00  0.00     0.029 A 
ATOM     55  N   UNL A   1      41.401  29.646  33.724  1.00  0.00    -0.354 N 
ATOM     56  N   UNL A   1      42.117  28.087  31.346  1.00  0.00    -0.248 NA
ATOM     57  C   UNL A   1      43.532  26.587  30.251  1.00  0.00     0.031 C 
ATOM     58  C   UNL A   1      42.534  29.278  35.599  1.00  0.00     0.029 A 
ATOM     59  C   UNL A   1      42.451  28.922  34.263  1.00  0.00     0.049 A 
ATOM     60  H   UNL A   1      41.100  29.596  32.787  1.00  0.00     0.167 HD
ATOM     61  C   UNL A   1      43.086  27.646  32.234  1.00  0.00     0.074 A 
ATOM     62  C   UNL A   1      43.918  26.703  31.515  1.00  0.00     0.031 C 
ATOM     63  C   UNL A   1      43.275  27.998  33.528  1.00  0.00     0.037 A 
BRANCH  50  64
ATOM     64  C   UNL A   1      39.278  32.188  35.640  1.00  0.00     0.064 A 
ATOM     65  C   UNL A   1      38.383  31.685  36.594  1.00  0.00     0.173 A 
ATOM     66  C   UNL A   1      39.802  33.474  35.840  1.00  0.00     0.173 A 
ATOM     67  F   UNL A   1      37.847  30.465  36.440  1.00  0.00    -0.203 F 
ATOM     68  C   UNL A   1      38.020  32.444  37.704  1.00  0.00     0.198 A 
ATOM     69  C   UNL A   1      39.454  34.222  36.962  1.00  0.00     0.198 A 
ATOM     70  F   UNL A   1      40.667  33.997  34.959  1.00  0.00    -0.203 F 
ATOM     71  F   UNL A   1      37.144  31.954  38.591  1.00  0.00    -0.200 F 
ATOM     72  C   UNL A   1      38.562  33.708  37.891  1.00  0.00     0.200 A 
ATOM     73  F   UNL A   1      39.986  35.437  37.147  1.00  0.00    -0.200 F 
ATOM     74  F   UNL A   1      38.222  34.431  38.967  1.00  0.00    -0.200 F 
ENDBRANCH  50  64
BRANCH  51  75
ATOM     75  C   UNL A   1      42.004  26.733  27.749  1.00  0.00     0.064 A 
ATOM     76  C   UNL A   1      43.018  27.110  26.859  1.00  0.00     0.173 A 
ATOM     77  C   UNL A   1      41.370  25.500  27.537  1.00  0.00     0.173 A 
ATOM     78  F   UNL A   1      43.639  28.288  27.012  1.00  0.00    -0.203 F 
ATOM     79  C   UNL A   1      43.386  26.285  25.799  1.00  0.00     0.198 A 
ATOM     80  C   UNL A   1      41.754  24.665  26.491  1.00  0.00     0.198 A 
ATOM     81  F   UNL A   1      40.395  25.097  28.365  1.00  0.00    -0.203 F 
ATOM     82  F   UNL A   1      44.344  26.676  24.949  1.00  0.00    -0.200 F 
ATOM     83  C   UNL A   1      42.760  25.059  25.621  1.00  0.00     0.200 A 
ATOM     84  F   UNL A   1      41.157  23.476  26.333  1.00  0.00    -0.200 F 
ATOM     85  F   UNL A   1      43.125  24.258  24.611  1.00  0.00    -0.200 F 
ENDBRANCH  51  75
BRANCH  63  86
ATOM     86  C   UNL A   1      44.434  27.385  34.252  1.00  0.00     0.064 A 
ATOM     87  C   UNL A   1      44.315  26.133  34.871  1.00  0.00     0.173 A 
ATOM     88  C   UNL A   1      45.690  28.008  34.252  1.00  0.00     0.173 A 
ATOM     89  F   UNL A   1      43.130  25.507  34.905  1.00  0.00    -0.203 F 
ATOM     90  C   UNL A   1      45.416  25.526  35.468  1.00  0.00     0.198 A 
ATOM     91  C   UNL A   1      46.793  27.389  34.834  1.00  0.00     0.198 A 
ATOM     92  F   UNL A   1      45.852  29.204  33.666  1.00  0.00    -0.203 F 
ATOM     93  F   UNL A   1      45.278  24.337  36.071  1.00  0.00    -0.200 F 
ATOM     94  C   UNL A   1      46.655  26.150  35.441  1.00  0.00     0.200 A 
ATOM     95  F   UNL A   1      47.991  27.987  34.797  1.00  0.00    -0.200 F 
ATOM     96  F   UNL A   1      47.718  25.555  36.001  1.00  0.00    -0.200 F 
ENDBRANCH  63  86
ENDBRANCH  37  38
ENDBRANCH  29  32
ENDBRANCH  27  28
ENDBRANCH  26  27
ENDBRANCH   1  26
TORSDOF 14
ENDMDL
MODEL 3
REMARK VINA RESULT:     -13.1      0.184      1.251
REMARK SMILES CC(C)Cc1cc2c(cc1Cl)C=C(C(=O)NCCCCNC(=O)c1ccc(-c3c4nc(c(-c5c(F)c(F)c(F)c(F)c5F)c5ccc([nH]5)c(-c5c(F)c(F)c(F)c(F)c5F)c5nc(c(-c6c(F)c(F)c(F)c(F)c6F)c6ccc3[nH]6)C=C5)C=C4)cc1)[C@@H](C(F)(F)F)O2
REMARK SMILES IDX 18 1 17 2 16 3 14 4 15 5 13 7 5 8 6 9 10 10 7 11 9 12 11 13
REMARK SMILES IDX 8 14 92 15 12 16 87 17 4 18 2 19 1 20 3 21 88 22 89 23 90 24
REMARK SMILES IDX 91 25 19 26 20 27 21 28 22 29 23 31 24 32 25 33 86 34 26 35
REMARK SMILES IDX 85 36 27 37 28 38 29 39 79 40 30 41 84 42 78 43 80 44 31 45
REMARK SMILES IDX 83 46 77 47 76 48 32 50 64 51 44 52 63 53 45 54 48 55 62 56
REMARK SMILES IDX 81 57 46 58 47 59 61 61 82 62 49 63 33 64 34 65 42 66 35 67
REMARK SMILES IDX 36 68 40 69 43 70 37 71 38 72 41 73 39 74 65 75 66 76 74 77
REMARK SMILES IDX 67 78 68 79 72 80 75 81 69 82 70 83 73 84 71 85 50 86 51 87
REMARK SMILES IDX 59 88 52 89 53 90 57 91 60 92 54 93 55 94 58 95 56 96
REMARK H PARENT 16 6 21 30 80 49 48 60
REMARK Flexibility Score: inf
ROOT
ATOM      1  C   UNL A   1      32.345  30.214  26.994  1.00  0.00     0.023 C 
ENDROOT
BRANCH   1   2
ATOM      2  C   UNL A   1      33.547  29.782  26.159  1.00  0.00     0.116 C 
BRANCH   2   3
ATOM      3  N   UNL A   1      33.244  29.715  24.738  1.00  0.00    -0.352 N 
ATOM      4  C   UNL A   1      32.864  28.763  23.850  1.00  0.00     0.251 C 
ATOM      5  O   UNL A   1      32.688  29.159  22.694  1.00  0.00    -0.270 OA
ATOM      6  H   UNL A   1      33.343  30.594  24.305  1.00  0.00     0.163 HD
BRANCH   4   7
ATOM      7  C   UNL A   1      32.667  27.316  24.171  1.00  0.00     0.067 C 
ATOM      8  C   UNL A   1      33.503  22.434  25.190  1.00  0.00    -0.025 A 
ATOM      9  C   UNL A   1      32.419  23.310  25.338  1.00  0.00     0.052 A 
ATOM     10  C   UNL A   1      34.638  22.901  24.512  1.00  0.00     0.045 A 
ATOM     11  C   UNL A   1      32.502  24.633  24.919  1.00  0.00     0.128 A 
ATOM     12  C   UNL A   1      34.698  24.222  24.042  1.00  0.00     0.032 A 
ATOM     13  Cl  UNL A   1      36.021  21.899  24.251  1.00  0.00    -0.084 Cl
ATOM     14  C   UNL A   1      33.638  25.104  24.273  1.00  0.00     0.019 A 
ATOM     15  O   UNL A   1      31.444  25.415  25.262  1.00  0.00    -0.475 OA
ATOM     16  C   UNL A   1      33.725  26.518  23.932  1.00  0.00     0.025 C 
ATOM     17  C   UNL A   1      31.383  26.752  24.710  1.00  0.00     0.314 C 
BRANCH   8  18
ATOM     18  C   UNL A   1      33.397  21.073  25.843  1.00  0.00     0.040 C 
BRANCH  18  19
ATOM     19  C   UNL A   1      32.439  20.108  25.103  1.00  0.00    -0.013 C 
ATOM     20  C   UNL A   1      32.451  20.284  23.578  1.00  0.00     0.008 C 
ATOM     21  C   UNL A   1      32.812  18.660  25.432  1.00  0.00     0.008 C 
ENDBRANCH  18  19
ENDBRANCH   8  18
BRANCH  17  22
ATOM     22  C   UNL A   1      30.235  26.778  23.686  1.00  0.00     0.429 C 
ATOM     23  F   UNL A   1      29.229  25.962  24.089  1.00  0.00    -0.167 F 
ATOM     24  F   UNL A   1      29.691  28.008  23.535  1.00  0.00    -0.167 F 
ATOM     25  F   UNL A   1      30.628  26.365  22.461  1.00  0.00    -0.167 F 
ENDBRANCH  17  22
ENDBRANCH   4   7
ENDBRANCH   2   3
ENDBRANCH   1   2
BRANCH   1  26
ATOM     26  C   UNL A   1      31.994  31.699  26.880  1.00  0.00     0.023 C 
BRANCH  26  27
ATOM     27  C   UNL A   1      33.000  32.662  27.506  1.00  0.00     0.116 C 
BRANCH  27  28
ATOM     28  N   UNL A   1      32.514  34.025  27.679  1.00  0.00    -0.352 N 
ATOM     29  C   UNL A   1      32.964  34.968  28.581  1.00  0.00     0.251 C 
ATOM     30  H   UNL A   1      31.781  34.306  27.086  1.00  0.00     0.163 HD
ATOM     31  O   UNL A   1      32.416  36.059  28.683  1.00  0.00    -0.269 OA
BRANCH  29  32
ATOM     32  C   UNL A   1      34.083  34.606  29.476  1.00  0.00     0.039 A 
ATOM     33  C   UNL A   1      35.382  34.542  28.975  1.00  0.00     0.014 A 
ATOM     34  C   UNL A   1      33.807  34.208  30.787  1.00  0.00     0.014 A 
ATOM     35  C   UNL A   1      36.361  33.887  29.709  1.00  0.00     0.010 A 
ATOM     36  C   UNL A   1      34.819  33.630  31.558  1.00  0.00     0.010 A 
ATOM     37  C   UNL A   1      36.084  33.396  30.997  1.00  0.00    -0.014 A 
BRANCH  37  38
ATOM     38  C   UNL A   1      37.122  32.591  31.693  1.00  0.00     0.031 A 
ATOM     39  C   UNL A   1      37.832  31.470  30.979  1.00  0.00     0.074 A 
ATOM     40  C   UNL A   1      37.506  32.950  32.932  1.00  0.00     0.049 A 
ATOM     41  N   UNL A   1      38.842  30.742  31.388  1.00  0.00    -0.248 NA
ATOM     42  C   UNL A   1      37.352  31.116  29.634  1.00  0.00     0.031 C 
ATOM     43  C   UNL A   1      36.901  34.025  33.719  1.00  0.00     0.029 A 
ATOM     44  N   UNL A   1      38.526  32.488  33.726  1.00  0.00    -0.354 N 
ATOM     45  C   UNL A   1      39.103  29.840  30.364  1.00  0.00     0.074 A 
ATOM     46  C   UNL A   1      38.130  30.088  29.324  1.00  0.00     0.031 C 
ATOM     47  C   UNL A   1      37.609  34.195  34.845  1.00  0.00     0.029 A 
ATOM     48  C   UNL A   1      38.683  33.207  34.885  1.00  0.00     0.049 A 
ATOM     49  H   UNL A   1      39.089  31.716  33.488  1.00  0.00     0.167 HD
ATOM     50  C   UNL A   1      40.078  28.904  30.289  1.00  0.00     0.037 A 
ATOM     51  C   UNL A   1      39.595  33.090  35.868  1.00  0.00     0.037 A 
ATOM     52  C   UNL A   1      41.074  28.685  31.305  1.00  0.00     0.049 A 
ATOM     53  C   UNL A   1      40.645  32.020  35.776  1.00  0.00     0.074 A 
ATOM     54  C   UNL A   1      42.129  27.790  31.296  1.00  0.00     0.029 A 
ATOM     55  N   UNL A   1      41.140  29.372  32.507  1.00  0.00    -0.354 N 
ATOM     56  N   UNL A   1      40.887  31.187  34.795  1.00  0.00    -0.248 NA
ATOM     57  C   UNL A   1      41.533  31.861  36.936  1.00  0.00     0.031 C 
ATOM     58  C   UNL A   1      42.813  27.910  32.509  1.00  0.00     0.029 A 
ATOM     59  C   UNL A   1      42.203  28.901  33.260  1.00  0.00     0.049 A 
ATOM     60  H   UNL A   1      40.524  30.088  32.784  1.00  0.00     0.167 HD
ATOM     61  C   UNL A   1      41.950  30.403  35.217  1.00  0.00     0.074 A 
ATOM     62  C   UNL A   1      42.327  30.877  36.532  1.00  0.00     0.031 C 
ATOM     63  C   UNL A   1      42.554  29.376  34.573  1.00  0.00     0.037 A 
BRANCH  50  64
ATOM     64  C   UNL A   1      40.130  28.038  29.066  1.00  0.00     0.064 A 
ATOM     65  C   UNL A   1      40.866  28.413  27.935  1.00  0.00     0.173 A 
ATOM     66  C   UNL A   1      39.500  26.784  29.058  1.00  0.00     0.173 A 
ATOM     67  F   UNL A   1      41.477  29.606  27.892  1.00  0.00    -0.203 F 
ATOM     68  C   UNL A   1      40.963  27.567  26.832  1.00  0.00     0.198 A 
ATOM     69  C   UNL A   1      39.616  25.932  27.962  1.00  0.00     0.198 A 
ATOM     70  F   UNL A   1      38.789  26.377  30.120  1.00  0.00    -0.203 F 
ATOM     71  F   UNL A   1      41.651  27.956  25.751  1.00  0.00    -0.200 F 
ATOM     72  C   UNL A   1      40.345  26.325  26.850  1.00  0.00     0.200 A 
ATOM     73  F   UNL A   1      39.028  24.729  27.986  1.00  0.00    -0.200 F 
ATOM     74  F   UNL A   1      40.451  25.507  25.794  1.00  0.00    -0.200 F 
ENDBRANCH  50  64
BRANCH  51  75
ATOM     75  C   UNL A   1      39.556  34.028  37.018  1.00  0.00     0.064 A 
ATOM     76  C   UNL A   1      38.857  33.701  38.187  1.00  0.00     0.173 A 
ATOM     77  C   UNL A   1      40.245  35.249  36.986  1.00  0.00     0.173 A 
ATOM     78  F   UNL A   1      38.168  32.552  38.256  1.00  0.00    -0.203 F 
ATOM     79  C   UNL A   1      38.848  34.560  39.283  1.00  0.00     0.198 A 
ATOM     80  C   UNL A   1      40.256  36.097  38.092  1.00  0.00     0.198 A 
ATOM     81  F   UNL A   1      40.930  35.604  35.890  1.00  0.00    -0.203 F 
ATOM     82  F   UNL A   1      38.155  34.235  40.382  1.00  0.00    -0.200 F 
ATOM     83  C   UNL A   1      39.555  35.753  39.238  1.00  0.00     0.200 A 
ATOM     84  F   UNL A   1      40.953  37.241  38.048  1.00  0.00    -0.200 F 
ATOM     85  F   UNL A   1      39.560  36.572  40.299  1.00  0.00    -0.200 F 
ENDBRANCH  51  75
BRANCH  63  86
ATOM     86  C   UNL A   1      43.671  28.674  35.282  1.00  0.00     0.064 A 
ATOM     87  C   UNL A   1      43.415  27.590  36.132  1.00  0.00     0.173 A 
ATOM     88  C   UNL A   1      45.006  29.029  35.045  1.00  0.00     0.173 A 
ATOM     89  F   UNL A   1      42.152  27.223  36.396  1.00  0.00    -0.203 F 
ATOM     90  C   UNL A   1      44.459  26.885  36.723  1.00  0.00     0.198 A 
ATOM     91  C   UNL A   1      46.049  28.310  35.623  1.00  0.00     0.198 A 
ATOM     92  F   UNL A   1      45.299  30.057  34.234  1.00  0.00    -0.203 F 
ATOM     93  F   UNL A   1      44.193  25.862  37.547  1.00  0.00    -0.200 F 
ATOM     94  C   UNL A   1      45.774  27.239  36.461  1.00  0.00     0.200 A 
ATOM     95  F   UNL A   1      47.319  28.646  35.360  1.00  0.00    -0.200 F 
ATOM     96  F   UNL A   1      46.779  26.548  37.016  1.00  0.00    -0.200 F 
ENDBRANCH  63  86
ENDBRANCH  37  38
ENDBRANCH  29  32
ENDBRANCH  27  28
ENDBRANCH  26  27
ENDBRANCH   1  26
TORSDOF 14
ENDMDL
