MODEL 1
REMARK VINA RESULT:     -13.8      0.000      0.000
REMARK SMILES O=C(NCCCCNC(=O)C1(n2ccnc2)CCN(C(=O)C2(c3ccccc3)CC2)CC1)c1ccc(-c2c3nc(c(-c4c(F)c(F)c(F)c(F)c4F)c4ccc([nH]4)c(-c4c(F)c(F)c(F)c(F)c4F)c4nc(c(-c5c(F)c(F)c(F)c(F)c5F)c5ccc2[nH]5)C=C4)C=C3)cc1
REMARK SMILES IDX 5 1 4 2 3 3 1 4 2 5 33 7 34 8 95 9 35 10 94 11 36 12 37 13
REMARK SMILES IDX 38 14 88 15 39 16 93 17 87 18 89 19 40 20 92 21 86 22 85 23
REMARK SMILES IDX 41 25 73 26 53 27 72 28 54 29 57 30 71 31 90 32 55 33 56 34
REMARK SMILES IDX 70 36 91 37 58 38 42 39 43 40 51 41 44 42 45 43 49 44 52 45
REMARK SMILES IDX 46 46 47 47 50 48 48 49 74 50 75 51 83 52 76 53 77 54 81 55
REMARK SMILES IDX 84 56 78 57 79 58 82 59 80 60 59 61 60 62 68 63 61 64 62 65
REMARK SMILES IDX 66 66 69 67 63 68 64 69 67 70 65 71 6 72 7 73 8 74 9 75
REMARK SMILES IDX 10 77 11 78 17 79 32 80 18 81 31 82 19 83 20 84 21 85 12 86
REMARK SMILES IDX 13 87 16 88 14 89 15 90 22 91 29 92 30 93 23 94 24 95 28 96
REMARK SMILES IDX 25 97 27 98 26 99
REMARK H PARENT 3 6 89 24 57 35 8 76
REMARK Flexibility Score: inf
ROOT
ATOM      1  C   UNL A   1      39.286  22.138  26.460  1.00  0.00     0.023 C 
ENDROOT
BRANCH   1   2
ATOM      2  C   UNL A   1      40.645  21.420  26.480  1.00  0.00     0.116 C 
BRANCH   2   3
ATOM      3  N   UNL A   1      41.610  21.817  25.470  1.00  0.00    -0.352 N 
ATOM      4  O   UNL A   1      43.404  22.719  24.526  1.00  0.00    -0.269 OA
ATOM      5  C   UNL A   1      42.520  22.838  25.378  1.00  0.00     0.251 C 
ATOM      6  H   UNL A   1      41.610  21.226  24.683  1.00  0.00     0.163 HD
BRANCH   5   7
ATOM      7  C   UNL A   1      42.442  24.101  26.153  1.00  0.00     0.039 A 
ATOM      8  C   UNL A   1      43.118  24.348  27.345  1.00  0.00     0.014 A 
ATOM      9  C   UNL A   1      41.568  25.086  25.652  1.00  0.00     0.014 A 
ATOM     10  C   UNL A   1      42.818  25.472  28.100  1.00  0.00     0.010 A 
ATOM     11  C   UNL A   1      41.293  26.235  26.383  1.00  0.00     0.010 A 
ATOM     12  C   UNL A   1      41.888  26.402  27.629  1.00  0.00    -0.014 A 
BRANCH  12  13
ATOM     13  C   UNL A   1      41.773  27.655  28.363  1.00  0.00     0.031 A 
ATOM     14  C   UNL A   1      42.924  28.568  28.117  1.00  0.00     0.074 A 
ATOM     15  C   UNL A   1      40.695  28.012  29.089  1.00  0.00     0.049 A 
ATOM     16  N   UNL A   1      43.784  29.016  28.973  1.00  0.00    -0.248 NA
ATOM     17  C   UNL A   1      43.255  28.893  26.717  1.00  0.00     0.031 C 
ATOM     18  C   UNL A   1      39.413  27.313  29.176  1.00  0.00     0.029 A 
ATOM     19  N   UNL A   1      40.479  29.137  29.830  1.00  0.00    -0.354 N 
ATOM     20  C   UNL A   1      44.644  29.840  28.250  1.00  0.00     0.074 A 
ATOM     21  C   UNL A   1      44.387  29.582  26.860  1.00  0.00     0.031 C 
ATOM     22  C   UNL A   1      38.492  28.138  29.726  1.00  0.00     0.029 A 
ATOM     23  C   UNL A   1      39.143  29.370  30.138  1.00  0.00     0.049 A 
ATOM     24  H   UNL A   1      41.207  29.734  30.122  1.00  0.00     0.167 HD
ATOM     25  C   UNL A   1      45.286  30.872  28.860  1.00  0.00     0.037 A 
ATOM     26  C   UNL A   1      38.606  30.519  30.627  1.00  0.00     0.037 A 
ATOM     27  C   UNL A   1      45.369  30.654  30.283  1.00  0.00     0.049 A 
ATOM     28  C   UNL A   1      39.710  31.314  31.211  1.00  0.00     0.074 A 
ATOM     29  C   UNL A   1      45.935  29.696  31.101  1.00  0.00     0.029 A 
ATOM     30  N   UNL A   1      44.491  31.348  31.073  1.00  0.00    -0.354 N 
ATOM     31  N   UNL A   1      40.353  30.987  32.296  1.00  0.00    -0.248 NA
ATOM     32  C   UNL A   1      40.382  32.279  30.354  1.00  0.00     0.031 C 
ATOM     33  C   UNL A   1      45.042  29.575  32.209  1.00  0.00     0.029 A 
ATOM     34  C   UNL A   1      44.017  30.505  32.038  1.00  0.00     0.049 A 
ATOM     35  H   UNL A   1      44.243  32.294  30.963  1.00  0.00     0.167 HD
ATOM     36  C   UNL A   1      41.669  31.329  32.034  1.00  0.00     0.074 A 
ATOM     37  C   UNL A   1      41.606  32.226  30.883  1.00  0.00     0.031 C 
ATOM     38  C   UNL A   1      42.690  30.617  32.595  1.00  0.00     0.037 A 
BRANCH  25  39
ATOM     39  C   UNL A   1      45.383  32.264  28.256  1.00  0.00     0.064 A 
ATOM     40  C   UNL A   1      44.190  32.918  27.881  1.00  0.00     0.173 A 
ATOM     41  C   UNL A   1      46.566  32.821  27.720  1.00  0.00     0.173 A 
ATOM     42  F   UNL A   1      43.002  32.480  28.323  1.00  0.00    -0.203 F 
ATOM     43  C   UNL A   1      44.178  33.958  26.946  1.00  0.00     0.198 A 
ATOM     44  C   UNL A   1      46.553  33.892  26.829  1.00  0.00     0.198 A 
ATOM     45  F   UNL A   1      47.776  32.295  27.937  1.00  0.00    -0.203 F 
ATOM     46  F   UNL A   1      43.008  34.439  26.504  1.00  0.00    -0.200 F 
ATOM     47  C   UNL A   1      45.359  34.434  26.410  1.00  0.00     0.200 A 
ATOM     48  F   UNL A   1      47.710  34.327  26.309  1.00  0.00    -0.200 F 
ATOM     49  F   UNL A   1      45.346  35.375  25.458  1.00  0.00    -0.200 F 
ENDBRANCH  25  39
BRANCH  26  50
ATOM     50  C   UNL A   1      37.274  31.120  30.364  1.00  0.00     0.064 A 
ATOM     51  C   UNL A   1      36.425  31.494  31.422  1.00  0.00     0.173 A 
ATOM     52  C   UNL A   1      36.929  31.611  29.090  1.00  0.00     0.173 A 
ATOM     53  F   UNL A   1      36.702  31.112  32.677  1.00  0.00    -0.203 F 
ATOM     54  C   UNL A   1      35.321  32.332  31.222  1.00  0.00     0.198 A 
ATOM     55  C   UNL A   1      35.823  32.438  28.890  1.00  0.00     0.198 A 
ATOM     56  F   UNL A   1      37.715  31.381  28.029  1.00  0.00    -0.203 F 
ATOM     57  F   UNL A   1      34.579  32.724  32.268  1.00  0.00    -0.200 F 
ATOM     58  C   UNL A   1      35.028  32.812  29.957  1.00  0.00     0.200 A 
ATOM     59  F   UNL A   1      35.573  32.927  27.666  1.00  0.00    -0.200 F 
ATOM     60  F   UNL A   1      34.012  33.666  29.773  1.00  0.00    -0.200 F 
ENDBRANCH  26  50
BRANCH  38  61
ATOM     61  C   UNL A   1      42.358  29.723  33.754  1.00  0.00     0.064 A 
ATOM     62  C   UNL A   1      41.897  28.400  33.635  1.00  0.00     0.173 A 
ATOM     63  C   UNL A   1      42.623  30.202  35.044  1.00  0.00     0.173 A 
ATOM     64  F   UNL A   1      41.717  27.834  32.435  1.00  0.00    -0.203 F 
ATOM     65  C   UNL A   1      41.664  27.616  34.765  1.00  0.00     0.198 A 
ATOM     66  C   UNL A   1      42.430  29.403  36.165  1.00  0.00     0.198 A 
ATOM     67  F   UNL A   1      43.114  31.439  35.213  1.00  0.00    -0.203 F 
ATOM     68  F   UNL A   1      41.203  26.363  34.630  1.00  0.00    -0.200 F 
ATOM     69  C   UNL A   1      41.937  28.116  36.027  1.00  0.00     0.200 A 
ATOM     70  F   UNL A   1      42.744  29.875  37.380  1.00  0.00    -0.200 F 
ATOM     71  F   UNL A   1      41.749  27.350  37.111  1.00  0.00    -0.200 F 
ENDBRANCH  38  61
ENDBRANCH  12  13
ENDBRANCH   5   7
ENDBRANCH   2   3
ENDBRANCH   1   2
BRANCH   1  72
ATOM     72  C   UNL A   1      38.218  21.571  25.528  1.00  0.00     0.023 C 
BRANCH  72  73
ATOM     73  C   UNL A   1      37.046  22.490  25.230  1.00  0.00     0.116 C 
BRANCH  73  74
ATOM     74  N   UNL A   1      36.177  22.838  26.345  1.00  0.00    -0.354 N 
ATOM     75  C   UNL A   1      34.833  22.649  26.557  1.00  0.00     0.246 C 
ATOM     76  H   UNL A   1      36.640  23.293  27.086  1.00  0.00     0.163 HD
ATOM     77  O   UNL A   1      34.507  22.570  27.750  1.00  0.00    -0.272 OA
BRANCH  75  78
ATOM     78  C   UNL A   1      33.714  22.653  25.453  1.00  0.00     0.127 C 
ATOM     79  C   UNL A   1      34.234  23.364  24.154  1.00  0.00     0.061 C 
ATOM     80  C   UNL A   1      32.414  23.387  25.772  1.00  0.00     0.061 C 
ATOM     81  C   UNL A   1      34.356  24.892  24.266  1.00  0.00     0.122 C 
ATOM     82  C   UNL A   1      32.670  24.840  26.062  1.00  0.00     0.122 C 
ATOM     83  N   UNL A   1      33.249  25.546  24.967  1.00  0.00    -0.342 N 
ATOM     84  C   UNL A   1      33.165  26.939  24.926  1.00  0.00     0.233 C 
ATOM     85  O   UNL A   1      33.993  27.613  24.306  1.00  0.00    -0.274 OA
BRANCH  78  86
ATOM     86  N   UNL A   1      33.413  21.228  25.147  1.00  0.00    -0.322 N 
ATOM     87  C   UNL A   1      34.321  20.216  24.957  1.00  0.00     0.108 A 
ATOM     88  C   UNL A   1      32.172  20.662  25.009  1.00  0.00     0.200 A 
ATOM     89  C   UNL A   1      33.575  19.105  24.641  1.00  0.00     0.130 A 
ATOM     90  N   UNL A   1      32.242  19.394  24.675  1.00  0.00    -0.245 NA
ENDBRANCH  78  86
BRANCH  84  91
ATOM     91  C   UNL A   1      31.993  27.672  25.589  1.00  0.00     0.074 C 
ATOM     92  C   UNL A   1      31.562  27.646  27.065  1.00  0.00     0.023 C 
ATOM     93  C   UNL A   1      32.442  28.743  26.596  1.00  0.00     0.023 C 
BRANCH  91  94
ATOM     94  C   UNL A   1      30.903  28.017  24.571  1.00  0.00    -0.032 A 
ATOM     95  C   UNL A   1      30.744  29.316  24.056  1.00  0.00     0.005 A 
ATOM     96  C   UNL A   1      29.924  27.064  24.243  1.00  0.00     0.005 A 
ATOM     97  C   UNL A   1      29.616  29.661  23.307  1.00  0.00     0.000 A 
ATOM     98  C   UNL A   1      28.791  27.407  23.509  1.00  0.00     0.000 A 
ATOM     99  C   UNL A   1      28.628  28.710  23.057  1.00  0.00     0.000 A 
ENDBRANCH  91  94
ENDBRANCH  84  91
ENDBRANCH  75  78
ENDBRANCH  73  74
ENDBRANCH  72  73
ENDBRANCH   1  72
TORSDOF 14
ENDMDL
MODEL 2
REMARK VINA RESULT:     -13.8      0.504      1.199
REMARK SMILES O=C(NCCCCNC(=O)C1(n2ccnc2)CCN(C(=O)C2(c3ccccc3)CC2)CC1)c1ccc(-c2c3nc(c(-c4c(F)c(F)c(F)c(F)c4F)c4ccc([nH]4)c(-c4c(F)c(F)c(F)c(F)c4F)c4nc(c(-c5c(F)c(F)c(F)c(F)c5F)c5ccc2[nH]5)C=C4)C=C3)cc1
REMARK SMILES IDX 5 1 4 2 3 3 1 4 2 5 33 7 34 8 95 9 35 10 94 11 36 12 37 13
REMARK SMILES IDX 38 14 88 15 39 16 93 17 87 18 89 19 40 20 92 21 86 22 85 23
REMARK SMILES IDX 41 25 73 26 53 27 72 28 54 29 57 30 71 31 90 32 55 33 56 34
REMARK SMILES IDX 70 36 91 37 58 38 42 39 43 40 51 41 44 42 45 43 49 44 52 45
REMARK SMILES IDX 46 46 47 47 50 48 48 49 74 50 75 51 83 52 76 53 77 54 81 55
REMARK SMILES IDX 84 56 78 57 79 58 82 59 80 60 59 61 60 62 68 63 61 64 62 65
REMARK SMILES IDX 66 66 69 67 63 68 64 69 67 70 65 71 6 72 7 73 8 74 9 75
REMARK SMILES IDX 10 77 11 78 17 79 32 80 18 81 31 82 19 83 20 84 21 85 12 86
REMARK SMILES IDX 13 87 16 88 14 89 15 90 22 91 29 92 30 93 23 94 24 95 28 96
REMARK SMILES IDX 25 97 27 98 26 99
REMARK H PARENT 3 6 89 24 57 35 8 76
REMARK Flexibility Score: inf
ROOT
ATOM      1  C   UNL A   1      39.348  22.260  26.472  1.00  0.00     0.023 C 
ENDROOT
BRANCH   1   2
ATOM      2  C   UNL A   1      40.690  21.510  26.443  1.00  0.00     0.116 C 
BRANCH   2   3
ATOM      3  N   UNL A   1      41.654  21.933  25.443  1.00  0.00    -0.352 N 
ATOM      4  O   UNL A   1      43.442  22.868  24.520  1.00  0.00    -0.269 OA
ATOM      5  C   UNL A   1      42.554  22.965  25.370  1.00  0.00     0.251 C 
ATOM      6  H   UNL A   1      41.664  21.354  24.646  1.00  0.00     0.163 HD
BRANCH   5   7
ATOM      7  C   UNL A   1      42.460  24.215  26.164  1.00  0.00     0.039 A 
ATOM      8  C   UNL A   1      43.096  24.435  27.383  1.00  0.00     0.014 A 
ATOM      9  C   UNL A   1      41.613  25.217  25.650  1.00  0.00     0.014 A 
ATOM     10  C   UNL A   1      42.779  25.548  28.147  1.00  0.00     0.010 A 
ATOM     11  C   UNL A   1      41.322  26.355  26.392  1.00  0.00     0.010 A 
ATOM     12  C   UNL A   1      41.874  26.495  27.660  1.00  0.00    -0.014 A 
BRANCH  12  13
ATOM     13  C   UNL A   1      41.744  27.736  28.413  1.00  0.00     0.031 A 
ATOM     14  C   UNL A   1      42.867  28.680  28.153  1.00  0.00     0.074 A 
ATOM     15  C   UNL A   1      40.674  28.057  29.166  1.00  0.00     0.049 A 
ATOM     16  N   UNL A   1      43.734  29.140  28.996  1.00  0.00    -0.248 NA
ATOM     17  C   UNL A   1      43.159  29.030  26.750  1.00  0.00     0.031 C 
ATOM     18  C   UNL A   1      39.412  27.326  29.272  1.00  0.00     0.029 A 
ATOM     19  N   UNL A   1      40.447  29.168  29.924  1.00  0.00    -0.354 N 
ATOM     20  C   UNL A   1      44.557  29.993  28.264  1.00  0.00     0.074 A 
ATOM     21  C   UNL A   1      44.276  29.745  26.877  1.00  0.00     0.031 C 
ATOM     22  C   UNL A   1      38.483  28.121  29.852  1.00  0.00     0.029 A 
ATOM     23  C   UNL A   1      39.113  29.364  30.264  1.00  0.00     0.049 A 
ATOM     24  H   UNL A   1      41.166  29.779  30.208  1.00  0.00     0.167 HD
ATOM     25  C   UNL A   1      45.187  31.034  28.873  1.00  0.00     0.037 A 
ATOM     26  C   UNL A   1      38.558  30.493  30.779  1.00  0.00     0.037 A 
ATOM     27  C   UNL A   1      45.307  30.801  30.291  1.00  0.00     0.049 A 
ATOM     28  C   UNL A   1      39.655  31.309  31.349  1.00  0.00     0.074 A 
ATOM     29  C   UNL A   1      45.913  29.848  31.085  1.00  0.00     0.029 A 
ATOM     30  N   UNL A   1      44.429  31.464  31.108  1.00  0.00    -0.354 N 
ATOM     31  N   UNL A   1      40.329  30.985  32.416  1.00  0.00    -0.248 NA
ATOM     32  C   UNL A   1      40.283  32.300  30.490  1.00  0.00     0.031 C 
ATOM     33  C   UNL A   1      45.049  29.692  32.210  1.00  0.00     0.029 A 
ATOM     34  C   UNL A   1      43.997  30.598  32.072  1.00  0.00     0.049 A 
ATOM     35  H   UNL A   1      44.155  32.405  31.015  1.00  0.00     0.167 HD
ATOM     36  C   UNL A   1      41.631  31.363  32.129  1.00  0.00     0.074 A 
ATOM     37  C   UNL A   1      41.520  32.272  30.992  1.00  0.00     0.031 C 
ATOM     38  C   UNL A   1      42.680  30.670  32.659  1.00  0.00     0.037 A 
BRANCH  25  39
ATOM     39  C   UNL A   1      45.236  32.434  28.284  1.00  0.00     0.064 A 
ATOM     40  C   UNL A   1      46.494  33.056  28.131  1.00  0.00     0.173 A 
ATOM     41  C   UNL A   1      44.124  33.302  28.195  1.00  0.00     0.173 A 
ATOM     42  F   UNL A   1      47.625  32.337  28.200  1.00  0.00    -0.203 F 
ATOM     43  C   UNL A   1      46.627  34.444  28.030  1.00  0.00     0.198 A 
ATOM     44  C   UNL A   1      44.260  34.680  28.042  1.00  0.00     0.198 A 
ATOM     45  F   UNL A   1      42.865  32.885  28.364  1.00  0.00    -0.203 F 
ATOM     46  F   UNL A   1      47.848  34.997  28.048  1.00  0.00    -0.200 F 
ATOM     47  C   UNL A   1      45.510  35.256  28.000  1.00  0.00     0.200 A 
ATOM     48  F   UNL A   1      43.162  35.450  28.031  1.00  0.00    -0.200 F 
ATOM     49  F   UNL A   1      45.634  36.589  27.982  1.00  0.00    -0.200 F 
ENDBRANCH  25  39
BRANCH  26  50
ATOM     50  C   UNL A   1      37.207  31.064  30.553  1.00  0.00     0.064 A 
ATOM     51  C   UNL A   1      36.379  31.420  31.633  1.00  0.00     0.173 A 
ATOM     52  C   UNL A   1      36.816  31.545  29.288  1.00  0.00     0.173 A 
ATOM     53  F   UNL A   1      36.699  31.046  32.881  1.00  0.00    -0.203 F 
ATOM     54  C   UNL A   1      35.251  32.233  31.463  1.00  0.00     0.198 A 
ATOM     55  C   UNL A   1      35.686  32.347  29.118  1.00  0.00     0.198 A 
ATOM     56  F   UNL A   1      37.577  31.331  28.206  1.00  0.00    -0.203 F 
ATOM     57  F   UNL A   1      34.529  32.609  32.528  1.00  0.00    -0.200 F 
ATOM     58  C   UNL A   1      34.913  32.704  30.206  1.00  0.00     0.200 A 
ATOM     59  F   UNL A   1      35.392  32.829  27.901  1.00  0.00    -0.200 F 
ATOM     60  F   UNL A   1      33.873  33.535  30.050  1.00  0.00    -0.200 F 
ENDBRANCH  26  50
BRANCH  38  61
ATOM     61  C   UNL A   1      42.396  29.754  33.815  1.00  0.00     0.064 A 
ATOM     62  C   UNL A   1      41.955  28.425  33.689  1.00  0.00     0.173 A 
ATOM     63  C   UNL A   1      42.689  30.220  35.103  1.00  0.00     0.173 A 
ATOM     64  F   UNL A   1      41.751  27.873  32.486  1.00  0.00    -0.203 F 
ATOM     65  C   UNL A   1      41.766  27.621  34.813  1.00  0.00     0.198 A 
ATOM     66  C   UNL A   1      42.541  29.402  36.218  1.00  0.00     0.198 A 
ATOM     67  F   UNL A   1      43.164  31.463  35.277  1.00  0.00    -0.203 F 
ATOM     68  F   UNL A   1      41.323  26.363  34.673  1.00  0.00    -0.200 F 
ATOM     69  C   UNL A   1      42.066  28.108  36.075  1.00  0.00     0.200 A 
ATOM     70  F   UNL A   1      42.881  29.862  37.430  1.00  0.00    -0.200 F 
ATOM     71  F   UNL A   1      41.922  27.324  37.152  1.00  0.00    -0.200 F 
ENDBRANCH  38  61
ENDBRANCH  12  13
ENDBRANCH   5   7
ENDBRANCH   2   3
ENDBRANCH   1   2
BRANCH   1  72
ATOM     72  C   UNL A   1      38.191  21.636  25.696  1.00  0.00     0.023 C 
BRANCH  72  73
ATOM     73  C   UNL A   1      37.035  22.566  25.373  1.00  0.00     0.116 C 
BRANCH  73  74
ATOM     74  N   UNL A   1      36.118  22.884  26.458  1.00  0.00    -0.354 N 
ATOM     75  C   UNL A   1      34.769  22.674  26.612  1.00  0.00     0.246 C 
ATOM     76  H   UNL A   1      36.544  23.331  27.225  1.00  0.00     0.163 HD
ATOM     77  O   UNL A   1      34.396  22.569  27.790  1.00  0.00    -0.272 OA
BRANCH  75  78
ATOM     78  C   UNL A   1      33.695  22.684  25.465  1.00  0.00     0.127 C 
ATOM     79  C   UNL A   1      34.263  23.409  24.194  1.00  0.00     0.061 C 
ATOM     80  C   UNL A   1      32.380  23.410  25.737  1.00  0.00     0.061 C 
ATOM     81  C   UNL A   1      34.374  24.937  24.325  1.00  0.00     0.122 C 
ATOM     82  C   UNL A   1      32.618  24.861  26.051  1.00  0.00     0.122 C 
ATOM     83  N   UNL A   1      33.237  25.579  24.986  1.00  0.00    -0.342 N 
ATOM     84  C   UNL A   1      33.149  26.973  24.955  1.00  0.00     0.233 C 
ATOM     85  O   UNL A   1      33.999  27.655  24.374  1.00  0.00    -0.274 OA
BRANCH  78  86
ATOM     86  N   UNL A   1      33.413  21.261  25.134  1.00  0.00    -0.322 N 
ATOM     87  C   UNL A   1      34.333  20.263  24.930  1.00  0.00     0.108 A 
ATOM     88  C   UNL A   1      32.179  20.682  24.981  1.00  0.00     0.200 A 
ATOM     89  C   UNL A   1      33.603  19.148  24.592  1.00  0.00     0.130 A 
ATOM     90  N   UNL A   1      32.266  19.421  24.626  1.00  0.00    -0.245 NA
ENDBRANCH  78  86
BRANCH  84  91
ATOM     91  C   UNL A   1      31.949  27.694  25.576  1.00  0.00     0.074 C 
ATOM     92  C   UNL A   1      31.497  27.705  27.046  1.00  0.00     0.023 C 
ATOM     93  C   UNL A   1      32.353  28.810  26.554  1.00  0.00     0.023 C 
BRANCH  91  94
ATOM     94  C   UNL A   1      30.865  27.977  24.532  1.00  0.00    -0.032 A 
ATOM     95  C   UNL A   1      30.715  29.239  23.932  1.00  0.00     0.005 A 
ATOM     96  C   UNL A   1      29.883  27.009  24.263  1.00  0.00     0.005 A 
ATOM     97  C   UNL A   1      29.592  29.539  23.156  1.00  0.00     0.000 A 
ATOM     98  C   UNL A   1      28.755  27.307  23.503  1.00  0.00     0.000 A 
ATOM     99  C   UNL A   1      28.601  28.579  22.964  1.00  0.00     0.000 A 
ENDBRANCH  91  94
ENDBRANCH  84  91
ENDBRANCH  75  78
ENDBRANCH  73  74
ENDBRANCH  72  73
ENDBRANCH   1  72
TORSDOF 14
ENDMDL
MODEL 3
REMARK VINA RESULT:     -13.8      2.809      8.844
REMARK SMILES O=C(NCCCCNC(=O)C1(n2ccnc2)CCN(C(=O)C2(c3ccccc3)CC2)CC1)c1ccc(-c2c3nc(c(-c4c(F)c(F)c(F)c(F)c4F)c4ccc([nH]4)c(-c4c(F)c(F)c(F)c(F)c4F)c4nc(c(-c5c(F)c(F)c(F)c(F)c5F)c5ccc2[nH]5)C=C4)C=C3)cc1
REMARK SMILES IDX 5 1 4 2 3 3 1 4 2 5 33 7 34 8 95 9 35 10 94 11 36 12 37 13
REMARK SMILES IDX 38 14 88 15 39 16 93 17 87 18 89 19 40 20 92 21 86 22 85 23
REMARK SMILES IDX 41 25 73 26 53 27 72 28 54 29 57 30 71 31 90 32 55 33 56 34
REMARK SMILES IDX 70 36 91 37 58 38 42 39 43 40 51 41 44 42 45 43 49 44 52 45
REMARK SMILES IDX 46 46 47 47 50 48 48 49 74 50 75 51 83 52 76 53 77 54 81 55
REMARK SMILES IDX 84 56 78 57 79 58 82 59 80 60 59 61 60 62 68 63 61 64 62 65
REMARK SMILES IDX 66 66 69 67 63 68 64 69 67 70 65 71 6 72 7 73 8 74 9 75
REMARK SMILES IDX 10 77 11 78 17 79 32 80 18 81 31 82 19 83 20 84 21 85 12 86
REMARK SMILES IDX 13 87 16 88 14 89 15 90 22 91 29 92 30 93 23 94 24 95 28 96
REMARK SMILES IDX 25 97 27 98 26 99
REMARK H PARENT 3 6 89 24 57 35 8 76
REMARK Flexibility Score: inf
ROOT
ATOM      1  C   UNL A   1      33.949  30.779  27.533  1.00  0.00     0.023 C 
ENDROOT
BRANCH   1   2
ATOM      2  C   UNL A   1      34.231  32.168  28.128  1.00  0.00     0.116 C 
BRANCH   2   3
ATOM      3  N   UNL A   1      34.073  32.309  29.565  1.00  0.00    -0.352 N 
ATOM      4  O   UNL A   1      34.542  32.727  31.693  1.00  0.00    -0.269 OA
ATOM      5  C   UNL A   1      34.944  32.265  30.623  1.00  0.00     0.251 C 
ATOM      6  H   UNL A   1      33.141  32.470  29.837  1.00  0.00     0.163 HD
BRANCH   5   7
ATOM      7  C   UNL A   1      36.276  31.610  30.585  1.00  0.00     0.039 A 
ATOM      8  C   UNL A   1      37.492  32.281  30.501  1.00  0.00     0.014 A 
ATOM      9  C   UNL A   1      36.276  30.201  30.578  1.00  0.00     0.014 A 
ATOM     10  C   UNL A   1      38.664  31.580  30.259  1.00  0.00     0.010 A 
ATOM     11  C   UNL A   1      37.452  29.489  30.378  1.00  0.00     0.010 A 
ATOM     12  C   UNL A   1      38.638  30.185  30.174  1.00  0.00    -0.014 A 
BRANCH  12  13
ATOM     13  C   UNL A   1      39.923  29.500  30.128  1.00  0.00     0.031 A 
ATOM     14  C   UNL A   1      40.557  29.387  31.472  1.00  0.00     0.074 A 
ATOM     15  C   UNL A   1      40.433  28.921  29.024  1.00  0.00     0.049 A 
ATOM     16  N   UNL A   1      41.685  29.882  31.865  1.00  0.00    -0.248 NA
ATOM     17  C   UNL A   1      39.761  28.784  32.557  1.00  0.00     0.031 C 
ATOM     18  C   UNL A   1      39.775  28.742  27.730  1.00  0.00     0.029 A 
ATOM     19  N   UNL A   1      41.623  28.274  28.853  1.00  0.00    -0.354 N 
ATOM     20  C   UNL A   1      41.832  29.482  33.192  1.00  0.00     0.074 A 
ATOM     21  C   UNL A   1      40.554  28.976  33.611  1.00  0.00     0.031 C 
ATOM     22  C   UNL A   1      40.470  27.842  26.996  1.00  0.00     0.029 A 
ATOM     23  C   UNL A   1      41.679  27.475  27.715  1.00  0.00     0.049 A 
ATOM     24  H   UNL A   1      42.377  28.365  29.479  1.00  0.00     0.167 HD
ATOM     25  C   UNL A   1      43.070  29.333  33.735  1.00  0.00     0.037 A 
ATOM     26  C   UNL A   1      42.612  26.531  27.425  1.00  0.00     0.037 A 
ATOM     27  C   UNL A   1      44.047  30.100  33.001  1.00  0.00     0.049 A 
ATOM     28  C   UNL A   1      43.800  26.805  28.268  1.00  0.00     0.074 A 
ATOM     29  C   UNL A   1      44.232  31.437  32.709  1.00  0.00     0.029 A 
ATOM     30  N   UNL A   1      44.856  29.413  32.135  1.00  0.00    -0.354 N 
ATOM     31  N   UNL A   1      44.585  27.832  28.113  1.00  0.00    -0.248 NA
ATOM     32  C   UNL A   1      43.884  26.143  29.560  1.00  0.00     0.031 C 
ATOM     33  C   UNL A   1      44.793  31.460  31.396  1.00  0.00     0.029 A 
ATOM     34  C   UNL A   1      44.974  30.140  30.984  1.00  0.00     0.049 A 
ATOM     35  H   UNL A   1      45.280  28.543  32.311  1.00  0.00     0.167 HD
ATOM     36  C   UNL A   1      44.905  28.220  29.404  1.00  0.00     0.074 A 
ATOM     37  C   UNL A   1      44.549  27.078  30.242  1.00  0.00     0.031 C 
ATOM     38  C   UNL A   1      45.150  29.533  29.686  1.00  0.00     0.037 A 
BRANCH  25  39
ATOM     39  C   UNL A   1      43.466  28.138  34.586  1.00  0.00     0.064 A 
ATOM     40  C   UNL A   1      43.218  26.843  34.084  1.00  0.00     0.173 A 
ATOM     41  C   UNL A   1      43.742  28.201  35.971  1.00  0.00     0.173 A 
ATOM     42  F   UNL A   1      42.940  26.655  32.785  1.00  0.00    -0.203 F 
ATOM     43  C   UNL A   1      43.126  25.728  34.923  1.00  0.00     0.198 A 
ATOM     44  C   UNL A   1      43.701  27.078  36.795  1.00  0.00     0.198 A 
ATOM     45  F   UNL A   1      43.953  29.353  36.615  1.00  0.00    -0.203 F 
ATOM     46  F   UNL A   1      42.732  24.550  34.419  1.00  0.00    -0.200 F 
ATOM     47  C   UNL A   1      43.353  25.850  36.279  1.00  0.00     0.200 A 
ATOM     48  F   UNL A   1      43.909  27.222  38.111  1.00  0.00    -0.200 F 
ATOM     49  F   UNL A   1      43.190  24.801  37.096  1.00  0.00    -0.200 F 
ENDBRANCH  25  39
BRANCH  26  50
ATOM     50  C   UNL A   1      42.455  25.242  26.706  1.00  0.00     0.064 A 
ATOM     51  C   UNL A   1      43.256  24.929  25.593  1.00  0.00     0.173 A 
ATOM     52  C   UNL A   1      41.728  24.174  27.267  1.00  0.00     0.173 A 
ATOM     53  F   UNL A   1      44.019  25.873  25.023  1.00  0.00    -0.203 F 
ATOM     54  C   UNL A   1      43.349  23.623  25.095  1.00  0.00     0.198 A 
ATOM     55  C   UNL A   1      41.814  22.875  26.764  1.00  0.00     0.198 A 
ATOM     56  F   UNL A   1      40.997  24.347  28.377  1.00  0.00    -0.203 F 
ATOM     57  F   UNL A   1      44.179  23.352  24.078  1.00  0.00    -0.200 F 
ATOM     58  C   UNL A   1      42.636  22.596  25.688  1.00  0.00     0.200 A 
ATOM     59  F   UNL A   1      41.148  21.882  27.372  1.00  0.00    -0.200 F 
ATOM     60  F   UNL A   1      42.773  21.335  25.255  1.00  0.00    -0.200 F 
ENDBRANCH  26  50
BRANCH  38  61
ATOM     61  C   UNL A   1      45.420  30.454  28.532  1.00  0.00     0.064 A 
ATOM     62  C   UNL A   1      44.425  31.070  27.752  1.00  0.00     0.173 A 
ATOM     63  C   UNL A   1      46.752  30.807  28.278  1.00  0.00     0.173 A 
ATOM     64  F   UNL A   1      43.125  30.864  27.999  1.00  0.00    -0.203 F 
ATOM     65  C   UNL A   1      44.760  31.957  26.730  1.00  0.00     0.198 A 
ATOM     66  C   UNL A   1      47.079  31.724  27.286  1.00  0.00     0.198 A 
ATOM     67  F   UNL A   1      47.739  30.290  29.026  1.00  0.00    -0.203 F 
ATOM     68  F   UNL A   1      43.796  32.516  25.983  1.00  0.00    -0.200 F 
ATOM     69  C   UNL A   1      46.085  32.289  26.503  1.00  0.00     0.200 A 
ATOM     70  F   UNL A   1      48.359  32.080  27.104  1.00  0.00    -0.200 F 
ATOM     71  F   UNL A   1      46.405  33.171  25.546  1.00  0.00    -0.200 F 
ENDBRANCH  38  61
ENDBRANCH  12  13
ENDBRANCH   5   7
ENDBRANCH   2   3
ENDBRANCH   1   2
BRANCH   1  72
ATOM     72  C   UNL A   1      32.495  30.451  27.203  1.00  0.00     0.023 C 
BRANCH  72  73
ATOM     73  C   UNL A   1      32.211  30.092  25.755  1.00  0.00     0.116 C 
BRANCH  73  74
ATOM     74  N   UNL A   1      33.254  29.375  25.034  1.00  0.00    -0.354 N 
ATOM     75  C   UNL A   1      33.199  28.418  24.050  1.00  0.00     0.246 C 
ATOM     76  H   UNL A   1      34.168  29.622  25.303  1.00  0.00     0.163 HD
ATOM     77  O   UNL A   1      34.187  28.395  23.301  1.00  0.00    -0.272 OA
BRANCH  75  78
ATOM     78  C   UNL A   1      32.086  27.320  23.887  1.00  0.00     0.127 C 
ATOM     79  C   UNL A   1      31.704  26.724  25.288  1.00  0.00     0.061 C 
ATOM     80  C   UNL A   1      32.428  26.089  23.052  1.00  0.00     0.061 C 
ATOM     81  C   UNL A   1      32.762  25.792  25.899  1.00  0.00     0.122 C 
ATOM     82  C   UNL A   1      33.609  25.357  23.627  1.00  0.00     0.122 C 
ATOM     83  N   UNL A   1      33.389  24.871  24.949  1.00  0.00    -0.342 N 
ATOM     84  C   UNL A   1      34.197  23.848  25.449  1.00  0.00     0.233 C 
ATOM     85  O   UNL A   1      34.375  23.707  26.663  1.00  0.00    -0.274 OA
BRANCH  78  86
ATOM     86  N   UNL A   1      30.900  28.000  23.301  1.00  0.00    -0.322 N 
ATOM     87  C   UNL A   1      29.580  27.742  23.579  1.00  0.00     0.108 A 
ATOM     88  C   UNL A   1      30.906  29.017  22.382  1.00  0.00     0.200 A 
ATOM     89  C   UNL A   1      28.859  28.571  22.754  1.00  0.00     0.130 A 
ATOM     90  N   UNL A   1      29.693  29.358  22.014  1.00  0.00    -0.245 NA
ENDBRANCH  78  86
BRANCH  84  91
ATOM     91  C   UNL A   1      34.827  22.818  24.505  1.00  0.00     0.074 C 
ATOM     92  C   UNL A   1      35.856  23.050  23.387  1.00  0.00     0.023 C 
ATOM     93  C   UNL A   1      36.338  22.639  24.727  1.00  0.00     0.023 C 
BRANCH  91  94
ATOM     94  C   UNL A   1      33.944  21.575  24.365  1.00  0.00    -0.032 A 
ATOM     95  C   UNL A   1      34.282  20.345  24.956  1.00  0.00     0.005 A 
ATOM     96  C   UNL A   1      32.838  21.597  23.497  1.00  0.00     0.005 A 
ATOM     97  C   UNL A   1      33.587  19.176  24.634  1.00  0.00     0.000 A 
ATOM     98  C   UNL A   1      32.152  20.432  23.162  1.00  0.00     0.000 A 
ATOM     99  C   UNL A   1      32.538  19.218  23.718  1.00  0.00     0.000 A 
ENDBRANCH  91  94
ENDBRANCH  84  91
ENDBRANCH  75  78
ENDBRANCH  73  74
ENDBRANCH  72  73
ENDBRANCH   1  72
TORSDOF 14
ENDMDL
