MODEL 1
REMARK VINA RESULT:     -12.2      0.000      0.000
REMARK SMILES Cc1cccc2nc(C(=O)NCC(=O)NCCCCNC(=O)c3ccc(-c4c5nc(c(-c6c(F)c(F)c(F)c(F)c6F)c6ccc([nH]6)c(-c6c(F)c(F)c(F)c(F)c6F)c6nc(c(-c7c(F)c(F)c(F)c(F)c7F)c7ccc4[nH]7)C=C6)C=C5)cc3)cn12
REMARK SMILES IDX 17 1 16 2 15 3 13 4 14 5 12 7 11 8 9 9 10 10 8 12 1 13 2 14
REMARK SMILES IDX 3 15 87 16 4 17 6 18 86 19 5 20 7 21 18 22 19 23 20 24 21 25
REMARK SMILES IDX 22 27 23 28 24 29 85 30 25 31 84 32 26 33 27 34 28 35 78 36
REMARK SMILES IDX 29 37 83 38 77 39 79 40 30 41 82 42 76 43 75 44 31 46 63 47
REMARK SMILES IDX 43 48 62 49 44 50 47 51 61 52 80 53 45 54 46 55 60 57 81 58
REMARK SMILES IDX 48 59 32 60 33 61 41 62 34 63 35 64 39 65 42 66 36 67 37 68
REMARK SMILES IDX 40 69 38 70 64 71 65 72 73 73 66 74 67 75 71 76 74 77 68 78
REMARK SMILES IDX 69 79 72 80 70 81 49 82 50 83 58 84 51 85 52 86 56 87 59 88
REMARK SMILES IDX 53 89 54 90 57 91 55 92
REMARK H PARENT 15 6 11 11 20 26 79 45 47 56
REMARK Flexibility Score: inf
ROOT
ATOM      1  C   UNL A   1      42.373  20.111  26.038  1.00  0.00     0.023 C 
ENDROOT
BRANCH   1   2
ATOM      2  C   UNL A   1      43.329  18.921  26.156  1.00  0.00     0.116 C 
BRANCH   2   3
ATOM      3  N   UNL A   1      44.058  18.687  24.929  1.00  0.00    -0.355 N 
ATOM      4  C   UNL A   1      45.169  19.310  24.441  1.00  0.00     0.239 C 
ATOM      5  O   UNL A   1      45.672  18.836  23.417  1.00  0.00    -0.273 OA
ATOM      6  H   UNL A   1      43.700  17.968  24.360  1.00  0.00     0.163 HD
BRANCH   4   7
ATOM      7  C   UNL A   1      45.868  20.449  25.199  1.00  0.00     0.216 C 
BRANCH   7   8
ATOM      8  N   UNL A   1      46.288  21.580  24.384  1.00  0.00    -0.342 N 
ATOM      9  C   UNL A   1      46.281  22.932  24.625  1.00  0.00     0.271 C 
ATOM     10  O   UNL A   1      46.719  23.666  23.738  1.00  0.00    -0.267 OA
ATOM     11  H   UNL A   1      46.641  21.330  23.500  1.00  0.00     0.164 HD
BRANCH   9  12
ATOM     12  C   UNL A   1      45.716  23.484  25.863  1.00  0.00     0.147 A 
ATOM     13  C   UNL A   1      47.155  25.586  29.438  1.00  0.00     0.065 C 
ATOM     14  C   UNL A   1      45.764  25.228  29.013  1.00  0.00     0.021 A 
ATOM     15  C   UNL A   1      44.681  25.537  29.759  1.00  0.00     0.022 A 
ATOM     16  N   UNL A   1      45.557  24.539  27.805  1.00  0.00    -0.304 N 
ATOM     17  C   UNL A   1      43.353  25.168  29.294  1.00  0.00     0.006 A 
ATOM     18  C   UNL A   1      44.298  24.165  27.340  1.00  0.00     0.137 A 
ATOM     19  C   UNL A   1      46.452  24.106  26.858  1.00  0.00     0.127 A 
ATOM     20  C   UNL A   1      43.172  24.510  28.134  1.00  0.00     0.048 A 
ATOM     21  N   UNL A   1      44.374  23.537  26.188  1.00  0.00    -0.223 NA
ENDBRANCH   9  12
ENDBRANCH   7   8
ENDBRANCH   4   7
ENDBRANCH   2   3
ENDBRANCH   1   2
BRANCH   1  22
ATOM     22  C   UNL A   1      41.678  20.503  27.350  1.00  0.00     0.023 C 
BRANCH  22  23
ATOM     23  C   UNL A   1      41.102  21.913  27.346  1.00  0.00     0.116 C 
BRANCH  23  24
ATOM     24  N   UNL A   1      39.915  22.033  26.505  1.00  0.00    -0.352 N 
ATOM     25  C   UNL A   1      39.002  23.069  26.482  1.00  0.00     0.251 C 
ATOM     26  H   UNL A   1      39.744  21.289  25.883  1.00  0.00     0.163 HD
ATOM     27  O   UNL A   1      37.879  22.924  26.032  1.00  0.00    -0.269 OA
BRANCH  25  28
ATOM     28  C   UNL A   1      39.435  24.380  26.991  1.00  0.00     0.039 A 
ATOM     29  C   UNL A   1      40.120  25.286  26.174  1.00  0.00     0.014 A 
ATOM     30  C   UNL A   1      39.156  24.676  28.325  1.00  0.00     0.014 A 
ATOM     31  C   UNL A   1      40.487  26.518  26.705  1.00  0.00     0.010 A 
ATOM     32  C   UNL A   1      39.403  25.931  28.810  1.00  0.00     0.010 A 
ATOM     33  C   UNL A   1      40.124  26.822  28.024  1.00  0.00    -0.014 A 
BRANCH  33  34
ATOM     34  C   UNL A   1      40.470  28.095  28.625  1.00  0.00     0.031 A 
ATOM     35  C   UNL A   1      41.706  28.737  28.104  1.00  0.00     0.074 A 
ATOM     36  C   UNL A   1      39.590  28.746  29.411  1.00  0.00     0.049 A 
ATOM     37  N   UNL A   1      42.787  29.015  28.751  1.00  0.00    -0.248 NA
ATOM     38  C   UNL A   1      41.789  29.015  26.661  1.00  0.00     0.031 C 
ATOM     39  C   UNL A   1      38.205  28.386  29.738  1.00  0.00     0.029 A 
ATOM     40  N   UNL A   1      39.737  29.948  30.019  1.00  0.00    -0.354 N 
ATOM     41  C   UNL A   1      43.639  29.644  27.843  1.00  0.00     0.074 A 
ATOM     42  C   UNL A   1      43.036  29.477  26.547  1.00  0.00     0.031 C 
ATOM     43  C   UNL A   1      37.583  29.447  30.302  1.00  0.00     0.029 A 
ATOM     44  C   UNL A   1      38.563  30.495  30.516  1.00  0.00     0.049 A 
ATOM     45  H   UNL A   1      40.609  30.399  30.101  1.00  0.00     0.167 HD
ATOM     46  C   UNL A   1      44.676  30.422  28.265  1.00  0.00     0.037 A 
ATOM     47  C   UNL A   1      38.423  31.742  31.029  1.00  0.00     0.037 A 
ATOM     48  C   UNL A   1      44.964  30.185  29.657  1.00  0.00     0.049 A 
ATOM     49  C   UNL A   1      39.784  32.215  31.400  1.00  0.00     0.074 A 
ATOM     50  C   UNL A   1      45.383  29.080  30.374  1.00  0.00     0.029 A 
ATOM     51  N   UNL A   1      44.446  31.055  30.586  1.00  0.00    -0.354 N 
ATOM     52  N   UNL A   1      40.492  31.685  32.361  1.00  0.00    -0.248 NA
ATOM     53  C   UNL A   1      40.548  32.926  30.382  1.00  0.00     0.031 C 
ATOM     54  C   UNL A   1      44.631  29.126  31.585  1.00  0.00     0.029 A 
ATOM     55  C   UNL A   1      43.864  30.293  31.569  1.00  0.00     0.049 A 
ATOM     56  H   UNL A   1      44.485  32.038  30.553  1.00  0.00     0.167 HD
ATOM     57  C   UNL A   1      41.787  31.632  31.865  1.00  0.00     0.074 A 
ATOM     58  C   UNL A   1      41.772  32.472  30.668  1.00  0.00     0.031 C 
ATOM     59  C   UNL A   1      42.675  30.684  32.290  1.00  0.00     0.037 A 
BRANCH  46  60
ATOM     60  C   UNL A   1      45.231  31.613  27.525  1.00  0.00     0.064 A 
ATOM     61  C   UNL A   1      46.560  31.574  27.051  1.00  0.00     0.173 A 
ATOM     62  C   UNL A   1      44.621  32.885  27.506  1.00  0.00     0.173 A 
ATOM     63  F   UNL A   1      47.248  30.421  27.034  1.00  0.00    -0.203 F 
ATOM     64  C   UNL A   1      47.243  32.730  26.665  1.00  0.00     0.198 A 
ATOM     65  C   UNL A   1      45.289  34.028  27.067  1.00  0.00     0.198 A 
ATOM     66  F   UNL A   1      43.401  33.096  28.012  1.00  0.00    -0.203 F 
ATOM     67  F   UNL A   1      48.542  32.658  26.341  1.00  0.00    -0.200 F 
ATOM     68  C   UNL A   1      46.609  33.957  26.678  1.00  0.00     0.200 A 
ATOM     69  F   UNL A   1      44.660  35.211  27.103  1.00  0.00    -0.200 F 
ATOM     70  F   UNL A   1      47.277  35.074  26.366  1.00  0.00    -0.200 F 
ENDBRANCH  46  60
BRANCH  47  71
ATOM     71  C   UNL A   1      37.249  32.640  30.927  1.00  0.00     0.064 A 
ATOM     72  C   UNL A   1      36.940  33.309  29.734  1.00  0.00     0.173 A 
ATOM     73  C   UNL A   1      36.257  32.655  31.928  1.00  0.00     0.173 A 
ATOM     74  F   UNL A   1      37.810  33.303  28.713  1.00  0.00    -0.203 F 
ATOM     75  C   UNL A   1      35.707  33.946  29.548  1.00  0.00     0.198 A 
ATOM     76  C   UNL A   1      35.029  33.292  31.744  1.00  0.00     0.198 A 
ATOM     77  F   UNL A   1      36.425  31.974  33.072  1.00  0.00    -0.203 F 
ATOM     78  F   UNL A   1      35.427  34.533  28.376  1.00  0.00    -0.200 F 
ATOM     79  C   UNL A   1      34.750  33.929  30.549  1.00  0.00     0.200 A 
ATOM     80  F   UNL A   1      34.100  33.236  32.708  1.00  0.00    -0.200 F 
ATOM     81  F   UNL A   1      33.548  34.490  30.352  1.00  0.00    -0.200 F 
ENDBRANCH  47  71
BRANCH  59  82
ATOM     82  C   UNL A   1      42.279  29.806  33.448  1.00  0.00     0.064 A 
ATOM     83  C   UNL A   1      41.678  28.543  33.300  1.00  0.00     0.173 A 
ATOM     84  C   UNL A   1      42.701  30.163  34.735  1.00  0.00     0.173 A 
ATOM     85  F   UNL A   1      41.336  28.079  32.094  1.00  0.00    -0.203 F 
ATOM     86  C   UNL A   1      41.485  27.693  34.389  1.00  0.00     0.198 A 
ATOM     87  C   UNL A   1      42.540  29.298  35.816  1.00  0.00     0.198 A 
ATOM     88  F   UNL A   1      43.334  31.329  34.932  1.00  0.00    -0.203 F 
ATOM     89  F   UNL A   1      40.913  26.492  34.211  1.00  0.00    -0.200 F 
ATOM     90  C   UNL A   1      41.928  28.068  35.645  1.00  0.00     0.200 A 
ATOM     91  F   UNL A   1      43.018  29.644  37.019  1.00  0.00    -0.200 F 
ATOM     92  F   UNL A   1      41.793  27.231  36.683  1.00  0.00    -0.200 F 
ENDBRANCH  59  82
ENDBRANCH  33  34
ENDBRANCH  25  28
ENDBRANCH  23  24
ENDBRANCH  22  23
ENDBRANCH   1  22
TORSDOF 13
ENDMDL
MODEL 2
REMARK VINA RESULT:     -12.2      1.711      2.975
REMARK SMILES Cc1cccc2nc(C(=O)NCC(=O)NCCCCNC(=O)c3ccc(-c4c5nc(c(-c6c(F)c(F)c(F)c(F)c6F)c6ccc([nH]6)c(-c6c(F)c(F)c(F)c(F)c6F)c6nc(c(-c7c(F)c(F)c(F)c(F)c7F)c7ccc4[nH]7)C=C6)C=C5)cc3)cn12
REMARK SMILES IDX 17 1 16 2 15 3 13 4 14 5 12 7 11 8 9 9 10 10 8 12 1 13 2 14
REMARK SMILES IDX 3 15 87 16 4 17 6 18 86 19 5 20 7 21 18 22 19 23 20 24 21 25
REMARK SMILES IDX 22 27 23 28 24 29 85 30 25 31 84 32 26 33 27 34 28 35 78 36
REMARK SMILES IDX 29 37 83 38 77 39 79 40 30 41 82 42 76 43 75 44 31 46 63 47
REMARK SMILES IDX 43 48 62 49 44 50 47 51 61 52 80 53 45 54 46 55 60 57 81 58
REMARK SMILES IDX 48 59 32 60 33 61 41 62 34 63 35 64 39 65 42 66 36 67 37 68
REMARK SMILES IDX 40 69 38 70 64 71 65 72 73 73 66 74 67 75 71 76 74 77 68 78
REMARK SMILES IDX 69 79 72 80 70 81 49 82 50 83 58 84 51 85 52 86 56 87 59 88
REMARK SMILES IDX 53 89 54 90 57 91 55 92
REMARK H PARENT 15 6 11 11 20 26 79 45 47 56
REMARK Flexibility Score: inf
ROOT
ATOM      1  C   UNL A   1      44.594  24.763  25.090  1.00  0.00     0.023 C 
ENDROOT
BRANCH   1   2
ATOM      2  C   UNL A   1      44.177  26.181  25.487  1.00  0.00     0.116 C 
BRANCH   2   3
ATOM      3  N   UNL A   1      44.928  27.188  24.770  1.00  0.00    -0.355 N 
ATOM      4  C   UNL A   1      46.071  27.841  25.123  1.00  0.00     0.239 C 
ATOM      5  O   UNL A   1      46.582  28.577  24.270  1.00  0.00    -0.273 OA
ATOM      6  H   UNL A   1      44.557  27.440  23.893  1.00  0.00     0.163 HD
BRANCH   4   7
ATOM      7  C   UNL A   1      46.793  27.570  26.451  1.00  0.00     0.216 C 
BRANCH   7   8
ATOM      8  N   UNL A   1      47.550  26.327  26.512  1.00  0.00    -0.342 N 
ATOM      9  C   UNL A   1      47.660  25.371  27.492  1.00  0.00     0.271 C 
ATOM     10  O   UNL A   1      48.377  24.398  27.253  1.00  0.00    -0.267 OA
ATOM     11  H   UNL A   1      48.078  26.137  25.703  1.00  0.00     0.164 HD
BRANCH   9  12
ATOM     12  C   UNL A   1      46.999  25.532  28.793  1.00  0.00     0.147 A 
ATOM     13  C   UNL A   1      48.090  26.763  32.863  1.00  0.00     0.065 C 
ATOM     14  C   UNL A   1      46.758  26.403  32.279  1.00  0.00     0.021 A 
ATOM     15  C   UNL A   1      45.624  26.411  33.012  1.00  0.00     0.022 A 
ATOM     16  N   UNL A   1      46.665  26.032  30.925  1.00  0.00    -0.304 N 
ATOM     17  C   UNL A   1      44.358  26.056  32.390  1.00  0.00     0.006 A 
ATOM     18  C   UNL A   1      45.469  25.679  30.306  1.00  0.00     0.137 A 
ATOM     19  C   UNL A   1      47.633  25.940  29.956  1.00  0.00     0.127 A 
ATOM     20  C   UNL A   1      44.286  25.705  31.094  1.00  0.00     0.048 A 
ATOM     21  N   UNL A   1      45.648  25.378  29.040  1.00  0.00    -0.223 NA
ENDBRANCH   9  12
ENDBRANCH   7   8
ENDBRANCH   4   7
ENDBRANCH   2   3
ENDBRANCH   1   2
BRANCH   1  22
ATOM     22  C   UNL A   1      43.432  23.851  24.666  1.00  0.00     0.023 C 
BRANCH  22  23
ATOM     23  C   UNL A   1      43.121  22.744  25.664  1.00  0.00     0.116 C 
BRANCH  23  24
ATOM     24  N   UNL A   1      41.732  22.299  25.596  1.00  0.00    -0.352 N 
ATOM     25  C   UNL A   1      40.678  22.712  26.384  1.00  0.00     0.251 C 
ATOM     26  H   UNL A   1      41.524  21.625  24.909  1.00  0.00     0.163 HD
ATOM     27  O   UNL A   1      39.666  22.044  26.504  1.00  0.00    -0.269 OA
BRANCH  25  28
ATOM     28  C   UNL A   1      40.792  24.014  27.061  1.00  0.00     0.039 A 
ATOM     29  C   UNL A   1      41.593  24.175  28.196  1.00  0.00     0.014 A 
ATOM     30  C   UNL A   1      40.052  25.076  26.541  1.00  0.00     0.014 A 
ATOM     31  C   UNL A   1      41.677  25.433  28.782  1.00  0.00     0.010 A 
ATOM     32  C   UNL A   1      40.231  26.339  27.038  1.00  0.00     0.010 A 
ATOM     33  C   UNL A   1      40.988  26.501  28.192  1.00  0.00    -0.014 A 
BRANCH  33  34
ATOM     34  C   UNL A   1      41.048  27.837  28.753  1.00  0.00     0.031 A 
ATOM     35  C   UNL A   1      42.151  28.697  28.250  1.00  0.00     0.074 A 
ATOM     36  C   UNL A   1      40.024  28.323  29.483  1.00  0.00     0.049 A 
ATOM     37  N   UNL A   1      43.128  29.207  28.921  1.00  0.00    -0.248 NA
ATOM     38  C   UNL A   1      42.237  28.938  26.800  1.00  0.00     0.031 C 
ATOM     39  C   UNL A   1      38.726  27.703  29.776  1.00  0.00     0.029 A 
ATOM     40  N   UNL A   1      39.903  29.550  30.046  1.00  0.00    -0.354 N 
ATOM     41  C   UNL A   1      43.873  29.964  28.018  1.00  0.00     0.074 A 
ATOM     42  C   UNL A   1      43.370  29.638  26.710  1.00  0.00     0.031 C 
ATOM     43  C   UNL A   1      37.883  28.636  30.276  1.00  0.00     0.029 A 
ATOM     44  C   UNL A   1      38.624  29.866  30.481  1.00  0.00     0.049 A 
ATOM     45  H   UNL A   1      40.664  30.168  30.140  1.00  0.00     0.167 HD
ATOM     46  C   UNL A   1      44.716  30.948  28.443  1.00  0.00     0.037 A 
ATOM     47  C   UNL A   1      38.217  31.075  30.938  1.00  0.00     0.037 A 
ATOM     48  C   UNL A   1      44.988  30.819  29.853  1.00  0.00     0.049 A 
ATOM     49  C   UNL A   1      39.440  31.824  31.336  1.00  0.00     0.074 A 
ATOM     50  C   UNL A   1      45.589  29.845  30.628  1.00  0.00     0.029 A 
ATOM     51  N   UNL A   1      44.269  31.597  30.728  1.00  0.00    -0.354 N 
ATOM     52  N   UNL A   1      40.199  31.478  32.341  1.00  0.00    -0.248 NA
ATOM     53  C   UNL A   1      40.088  32.639  30.316  1.00  0.00     0.031 C 
ATOM     54  C   UNL A   1      44.793  29.779  31.809  1.00  0.00     0.029 A 
ATOM     55  C   UNL A   1      43.811  30.766  31.720  1.00  0.00     0.049 A 
ATOM     56  H   UNL A   1      44.113  32.567  30.657  1.00  0.00     0.167 HD
ATOM     57  C   UNL A   1      41.498  31.670  31.892  1.00  0.00     0.074 A 
ATOM     58  C   UNL A   1      41.365  32.450  30.662  1.00  0.00     0.031 C 
ATOM     59  C   UNL A   1      42.538  30.934  32.385  1.00  0.00     0.037 A 
BRANCH  46  60
ATOM     60  C   UNL A   1      45.053  32.202  27.675  1.00  0.00     0.064 A 
ATOM     61  C   UNL A   1      46.288  32.286  26.999  1.00  0.00     0.173 A 
ATOM     62  C   UNL A   1      44.350  33.418  27.804  1.00  0.00     0.173 A 
ATOM     63  F   UNL A   1      47.052  31.196  26.827  1.00  0.00    -0.203 F 
ATOM     64  C   UNL A   1      46.810  33.505  26.558  1.00  0.00     0.198 A 
ATOM     65  C   UNL A   1      44.850  34.625  27.313  1.00  0.00     0.198 A 
ATOM     66  F   UNL A   1      43.214  33.513  28.502  1.00  0.00    -0.203 F 
ATOM     67  F   UNL A   1      48.043  33.552  26.033  1.00  0.00    -0.200 F 
ATOM     68  C   UNL A   1      46.093  34.675  26.721  1.00  0.00     0.200 A 
ATOM     69  F   UNL A   1      44.144  35.751  27.496  1.00  0.00    -0.200 F 
ATOM     70  F   UNL A   1      46.614  35.852  26.354  1.00  0.00    -0.200 F 
ENDBRANCH  46  60
BRANCH  47  71
ATOM     71  C   UNL A   1      36.893  31.715  30.760  1.00  0.00     0.064 A 
ATOM     72  C   UNL A   1      36.005  31.872  31.834  1.00  0.00     0.173 A 
ATOM     73  C   UNL A   1      36.580  32.420  29.580  1.00  0.00     0.173 A 
ATOM     74  F   UNL A   1      36.254  31.274  33.008  1.00  0.00    -0.203 F 
ATOM     75  C   UNL A   1      34.876  32.696  31.738  1.00  0.00     0.198 A 
ATOM     76  C   UNL A   1      35.454  33.238  29.484  1.00  0.00     0.198 A 
ATOM     77  F   UNL A   1      37.410  32.400  28.527  1.00  0.00    -0.203 F 
ATOM     78  F   UNL A   1      34.076  32.862  32.801  1.00  0.00    -0.200 F 
ATOM     79  C   UNL A   1      34.607  33.385  30.566  1.00  0.00     0.200 A 
ATOM     80  F   UNL A   1      35.227  33.926  28.357  1.00  0.00    -0.200 F 
ATOM     81  F   UNL A   1      33.558  34.217  30.492  1.00  0.00    -0.200 F 
ENDBRANCH  47  71
BRANCH  59  82
ATOM     82  C   UNL A   1      42.278  30.033  33.562  1.00  0.00     0.064 A 
ATOM     83  C   UNL A   1      41.924  28.676  33.444  1.00  0.00     0.173 A 
ATOM     84  C   UNL A   1      42.591  30.499  34.846  1.00  0.00     0.173 A 
ATOM     85  F   UNL A   1      41.707  28.122  32.247  1.00  0.00    -0.203 F 
ATOM     86  C   UNL A   1      41.860  27.838  34.557  1.00  0.00     0.198 A 
ATOM     87  C   UNL A   1      42.562  29.652  35.951  1.00  0.00     0.198 A 
ATOM     88  F   UNL A   1      42.994  31.767  35.017  1.00  0.00    -0.203 F 
ATOM     89  F   UNL A   1      41.523  26.548  34.408  1.00  0.00    -0.200 F 
ATOM     90  C   UNL A   1      42.191  28.325  35.809  1.00  0.00     0.200 A 
ATOM     91  F   UNL A   1      42.934  30.115  37.153  1.00  0.00    -0.200 F 
ATOM     92  F   UNL A   1      42.183  27.508  36.872  1.00  0.00    -0.200 F 
ENDBRANCH  59  82
ENDBRANCH  33  34
ENDBRANCH  25  28
ENDBRANCH  23  24
ENDBRANCH  22  23
ENDBRANCH   1  22
TORSDOF 13
ENDMDL
MODEL 3
REMARK VINA RESULT:     -12.1      3.089      6.119
REMARK SMILES Cc1cccc2nc(C(=O)NCC(=O)NCCCCNC(=O)c3ccc(-c4c5nc(c(-c6c(F)c(F)c(F)c(F)c6F)c6ccc([nH]6)c(-c6c(F)c(F)c(F)c(F)c6F)c6nc(c(-c7c(F)c(F)c(F)c(F)c7F)c7ccc4[nH]7)C=C6)C=C5)cc3)cn12
REMARK SMILES IDX 17 1 16 2 15 3 13 4 14 5 12 7 11 8 9 9 10 10 8 12 1 13 2 14
REMARK SMILES IDX 3 15 87 16 4 17 6 18 86 19 5 20 7 21 18 22 19 23 20 24 21 25
REMARK SMILES IDX 22 27 23 28 24 29 85 30 25 31 84 32 26 33 27 34 28 35 78 36
REMARK SMILES IDX 29 37 83 38 77 39 79 40 30 41 82 42 76 43 75 44 31 46 63 47
REMARK SMILES IDX 43 48 62 49 44 50 47 51 61 52 80 53 45 54 46 55 60 57 81 58
REMARK SMILES IDX 48 59 32 60 33 61 41 62 34 63 35 64 39 65 42 66 36 67 37 68
REMARK SMILES IDX 40 69 38 70 64 71 65 72 73 73 66 74 67 75 71 76 74 77 68 78
REMARK SMILES IDX 69 79 72 80 70 81 49 82 50 83 58 84 51 85 52 86 56 87 59 88
REMARK SMILES IDX 53 89 54 90 57 91 55 92
REMARK H PARENT 15 6 11 11 20 26 79 45 47 56
REMARK Flexibility Score: inf
ROOT
ATOM      1  C   UNL A   1      41.262  21.230  27.524  1.00  0.00     0.023 C 
ENDROOT
BRANCH   1   2
ATOM      2  C   UNL A   1      40.050  21.350  26.598  1.00  0.00     0.116 C 
BRANCH   2   3
ATOM      3  N   UNL A   1      39.413  22.644  26.702  1.00  0.00    -0.355 N 
ATOM      4  C   UNL A   1      38.226  23.077  26.189  1.00  0.00     0.239 C 
ATOM      5  O   UNL A   1      37.847  24.204  26.527  1.00  0.00    -0.273 OA
ATOM      6  H   UNL A   1      39.911  23.314  27.223  1.00  0.00     0.163 HD
BRANCH   4   7
ATOM      7  C   UNL A   1      37.312  22.165  25.356  1.00  0.00     0.216 C 
BRANCH   7   8
ATOM      8  N   UNL A   1      36.121  21.678  26.039  1.00  0.00    -0.342 N 
ATOM      9  C   UNL A   1      34.819  22.115  26.027  1.00  0.00     0.271 C 
ATOM     10  O   UNL A   1      34.006  21.485  26.706  1.00  0.00    -0.267 OA
ATOM     11  H   UNL A   1      36.278  20.893  26.612  1.00  0.00     0.164 HD
BRANCH   9  12
ATOM     12  C   UNL A   1      34.424  23.319  25.285  1.00  0.00     0.147 A 
ATOM     13  C   UNL A   1      33.851  27.595  26.095  1.00  0.00     0.065 C 
ATOM     14  C   UNL A   1      33.766  26.827  24.811  1.00  0.00     0.021 A 
ATOM     15  C   UNL A   1      33.468  27.421  23.635  1.00  0.00     0.022 A 
ATOM     16  N   UNL A   1      33.992  25.439  24.810  1.00  0.00    -0.304 N 
ATOM     17  C   UNL A   1      33.404  26.626  22.419  1.00  0.00     0.006 A 
ATOM     18  C   UNL A   1      33.928  24.651  23.663  1.00  0.00     0.137 A 
ATOM     19  C   UNL A   1      34.312  24.585  25.836  1.00  0.00     0.127 A 
ATOM     20  C   UNL A   1      33.625  25.299  22.435  1.00  0.00     0.048 A 
ATOM     21  N   UNL A   1      34.182  23.389  23.927  1.00  0.00    -0.223 NA
ENDBRANCH   9  12
ENDBRANCH   7   8
ENDBRANCH   4   7
ENDBRANCH   2   3
ENDBRANCH   1   2
BRANCH   1  22
ATOM     22  C   UNL A   1      42.228  20.090  27.167  1.00  0.00     0.023 C 
BRANCH  22  23
ATOM     23  C   UNL A   1      42.250  19.742  25.685  1.00  0.00     0.116 C 
BRANCH  23  24
ATOM     24  N   UNL A   1      43.605  19.640  25.151  1.00  0.00    -0.352 N 
ATOM     25  C   UNL A   1      44.452  20.674  24.805  1.00  0.00     0.251 C 
ATOM     26  H   UNL A   1      43.954  18.729  25.021  1.00  0.00     0.163 HD
ATOM     27  O   UNL A   1      45.390  20.508  24.047  1.00  0.00    -0.269 OA
BRANCH  25  28
ATOM     28  C   UNL A   1      44.210  21.994  25.409  1.00  0.00     0.039 A 
ATOM     29  C   UNL A   1      43.296  22.893  24.849  1.00  0.00     0.014 A 
ATOM     30  C   UNL A   1      44.944  22.324  26.548  1.00  0.00     0.014 A 
ATOM     31  C   UNL A   1      43.096  24.118  25.475  1.00  0.00     0.010 A 
ATOM     32  C   UNL A   1      44.657  23.473  27.235  1.00  0.00     0.010 A 
ATOM     33  C   UNL A   1      43.786  24.392  26.663  1.00  0.00    -0.014 A 
BRANCH  33  34
ATOM     34  C   UNL A   1      43.607  25.649  27.364  1.00  0.00     0.031 A 
ATOM     35  C   UNL A   1      44.587  26.717  27.030  1.00  0.00     0.074 A 
ATOM     36  C   UNL A   1      42.484  25.889  28.069  1.00  0.00     0.049 A 
ATOM     37  N   UNL A   1      45.435  27.288  27.817  1.00  0.00    -0.248 NA
ATOM     38  C   UNL A   1      44.708  27.133  25.623  1.00  0.00     0.031 C 
ATOM     39  C   UNL A   1      41.286  25.053  28.206  1.00  0.00     0.029 A 
ATOM     40  N   UNL A   1      42.144  27.011  28.749  1.00  0.00    -0.354 N 
ATOM     41  C   UNL A   1      46.099  28.246  27.051  1.00  0.00     0.074 A 
ATOM     42  C   UNL A   1      45.721  28.000  25.685  1.00  0.00     0.031 C 
ATOM     43  C   UNL A   1      40.282  25.784  28.742  1.00  0.00     0.029 A 
ATOM     44  C   UNL A   1      40.810  27.080  29.126  1.00  0.00     0.049 A 
ATOM     45  H   UNL A   1      42.792  27.722  28.959  1.00  0.00     0.167 HD
ATOM     46  C   UNL A   1      46.754  29.290  27.634  1.00  0.00     0.037 A 
ATOM     47  C   UNL A   1      40.196  28.154  29.679  1.00  0.00     0.037 A 
ATOM     48  C   UNL A   1      46.970  29.043  29.038  1.00  0.00     0.049 A 
ATOM     49  C   UNL A   1      41.264  29.027  30.235  1.00  0.00     0.074 A 
ATOM     50  C   UNL A   1      47.675  28.088  29.745  1.00  0.00     0.029 A 
ATOM     51  N   UNL A   1      46.094  29.599  29.939  1.00  0.00    -0.354 N 
ATOM     52  N   UNL A   1      42.016  28.687  31.248  1.00  0.00    -0.248 NA
ATOM     53  C   UNL A   1      41.828  30.042  29.354  1.00  0.00     0.031 C 
ATOM     54  C   UNL A   1      46.840  27.768  30.856  1.00  0.00     0.029 A 
ATOM     55  C   UNL A   1      45.721  28.601  30.804  1.00  0.00     0.049 A 
ATOM     56  H   UNL A   1      45.792  30.536  29.960  1.00  0.00     0.167 HD
ATOM     57  C   UNL A   1      43.290  29.122  30.912  1.00  0.00     0.074 A 
ATOM     58  C   UNL A   1      43.099  30.009  29.764  1.00  0.00     0.031 C 
ATOM     59  C   UNL A   1      44.406  28.499  31.394  1.00  0.00     0.037 A 
BRANCH  46  60
ATOM     60  C   UNL A   1      46.929  30.660  27.027  1.00  0.00     0.064 A 
ATOM     61  C   UNL A   1      48.208  31.257  27.028  1.00  0.00     0.173 A 
ATOM     62  C   UNL A   1      45.861  31.521  26.702  1.00  0.00     0.173 A 
ATOM     63  F   UNL A   1      49.300  30.539  27.335  1.00  0.00    -0.203 F 
ATOM     64  C   UNL A   1      48.388  32.623  26.799  1.00  0.00     0.198 A 
ATOM     65  C   UNL A   1      46.050  32.874  26.419  1.00  0.00     0.198 A 
ATOM     66  F   UNL A   1      44.585  31.123  26.754  1.00  0.00    -0.203 F 
ATOM     67  F   UNL A   1      49.605  33.167  26.933  1.00  0.00    -0.200 F 
ATOM     68  C   UNL A   1      47.308  33.432  26.500  1.00  0.00     0.200 A 
ATOM     69  F   UNL A   1      44.987  33.644  26.147  1.00  0.00    -0.200 F 
ATOM     70  F   UNL A   1      47.467  34.752  26.338  1.00  0.00    -0.200 F 
ENDBRANCH  46  60
BRANCH  47  71
ATOM     71  C   UNL A   1      38.799  28.605  29.479  1.00  0.00     0.064 A 
ATOM     72  C   UNL A   1      37.946  28.853  30.564  1.00  0.00     0.173 A 
ATOM     73  C   UNL A   1      38.353  29.050  28.218  1.00  0.00     0.173 A 
ATOM     74  F   UNL A   1      38.316  28.504  31.806  1.00  0.00    -0.203 F 
ATOM     75  C   UNL A   1      36.725  29.518  30.401  1.00  0.00     0.198 A 
ATOM     76  C   UNL A   1      37.134  29.711  28.056  1.00  0.00     0.198 A 
ATOM     77  F   UNL A   1      39.132  28.934  27.133  1.00  0.00    -0.203 F 
ATOM     78  F   UNL A   1      35.959  29.783  31.469  1.00  0.00    -0.200 F 
ATOM     79  C   UNL A   1      36.325  29.955  29.149  1.00  0.00     0.200 A 
ATOM     80  F   UNL A   1      36.778  30.159  26.844  1.00  0.00    -0.200 F 
ATOM     81  F   UNL A   1      35.183  30.641  29.000  1.00  0.00    -0.200 F 
ENDBRANCH  47  71
BRANCH  59  82
ATOM     82  C   UNL A   1      44.230  27.439  32.450  1.00  0.00     0.064 A 
ATOM     83  C   UNL A   1      44.173  26.061  32.172  1.00  0.00     0.173 A 
ATOM     84  C   UNL A   1      44.324  27.813  33.797  1.00  0.00     0.173 A 
ATOM     85  F   UNL A   1      44.183  25.611  30.914  1.00  0.00    -0.203 F 
ATOM     86  C   UNL A   1      44.181  25.110  33.191  1.00  0.00     0.198 A 
ATOM     87  C   UNL A   1      44.368  26.860  34.812  1.00  0.00     0.198 A 
ATOM     88  F   UNL A   1      44.441  29.109  34.125  1.00  0.00    -0.203 F 
ATOM     89  F   UNL A   1      44.130  23.803  32.890  1.00  0.00    -0.200 F 
ATOM     90  C   UNL A   1      44.290  25.511  34.510  1.00  0.00     0.200 A 
ATOM     91  F   UNL A   1      44.527  27.251  36.084  1.00  0.00    -0.200 F 
ATOM     92  F   UNL A   1      44.354  24.596  35.488  1.00  0.00    -0.200 F 
ENDBRANCH  59  82
ENDBRANCH  33  34
ENDBRANCH  25  28
ENDBRANCH  23  24
ENDBRANCH  22  23
ENDBRANCH   1  22
TORSDOF 13
ENDMDL
