MODEL 1
REMARK VINA RESULT:     -13.0      0.000      0.000
REMARK SMILES O=C(NCCCCNC(=O)c1ccc(S(=O)(=O)N[C@@H]2CC[N@H+]3CCC[C@H]23)cc1)c1ccc(-c2c3nc(c(-c4c(F)c(F)c(F)c(F)c4F)c4ccc([nH]4)c(-c4c(F)c(F)c(F)c(F)c4F)c4nc(c(-c5c(F)c(F)c(F)c(F)c5F)c5ccc2[nH]5)C=C4)C=C3)cc1
REMARK SMILES IDX 6 1 5 2 4 3 3 4 1 5 2 6 29 8 30 9 91 10 31 11 90 12 32 13
REMARK SMILES IDX 33 14 34 15 84 16 35 17 89 18 83 19 85 20 36 21 88 22 82 23
REMARK SMILES IDX 81 24 37 26 69 27 49 28 68 29 50 30 53 31 67 32 86 33 51 34
REMARK SMILES IDX 52 35 66 37 87 38 54 39 38 40 39 41 47 42 40 43 41 44 45 45
REMARK SMILES IDX 48 46 42 47 43 48 46 49 44 50 70 51 71 52 79 53 72 54 73 55
REMARK SMILES IDX 77 56 80 57 74 58 75 59 78 60 76 61 55 62 56 63 64 64 57 65
REMARK SMILES IDX 58 66 62 67 65 68 59 69 60 70 63 71 61 72 7 73 8 74 9 75
REMARK SMILES IDX 10 77 11 78 12 79 28 80 13 81 27 82 14 83 15 84 16 85 17 86
REMARK SMILES IDX 18 87 19 89 20 90 26 91 21 92 22 93 25 94 23 95 24 97
REMARK H PARENT 3 7 85 25 53 36 8 76 18 88 22 96
REMARK Flexibility Score: inf
ROOT
ATOM      1  C   UNL A   1      37.004  21.410  24.642  1.00  0.00     0.023 C 
ENDROOT
BRANCH   1   2
ATOM      2  C   UNL A   1      37.840  20.195  25.025  1.00  0.00     0.023 C 
BRANCH   2   3
ATOM      3  C   UNL A   1      39.112  20.500  25.805  1.00  0.00     0.116 C 
BRANCH   3   4
ATOM      4  N   UNL A   1      40.056  19.390  25.831  1.00  0.00    -0.352 N 
ATOM      5  O   UNL A   1      42.064  18.360  25.951  1.00  0.00    -0.269 OA
ATOM      6  C   UNL A   1      41.407  19.387  26.090  1.00  0.00     0.251 C 
ATOM      7  H   UNL A   1      39.667  18.507  25.633  1.00  0.00     0.163 HD
BRANCH   6   8
ATOM      8  C   UNL A   1      42.077  20.641  26.494  1.00  0.00     0.039 A 
ATOM      9  C   UNL A   1      42.251  20.949  27.843  1.00  0.00     0.014 A 
ATOM     10  C   UNL A   1      42.493  21.540  25.508  1.00  0.00     0.014 A 
ATOM     11  C   UNL A   1      42.641  22.232  28.206  1.00  0.00     0.010 A 
ATOM     12  C   UNL A   1      42.985  22.795  25.879  1.00  0.00     0.010 A 
ATOM     13  C   UNL A   1      43.004  23.174  27.229  1.00  0.00    -0.014 A 
BRANCH  13  14
ATOM     14  C   UNL A   1      43.393  24.543  27.656  1.00  0.00     0.031 A 
ATOM     15  C   UNL A   1      44.831  24.990  27.616  1.00  0.00     0.074 A 
ATOM     16  C   UNL A   1      42.429  25.409  28.022  1.00  0.00     0.049 A 
ATOM     17  N   UNL A   1      45.338  26.165  27.896  1.00  0.00    -0.248 NA
ATOM     18  C   UNL A   1      45.832  23.989  27.217  1.00  0.00     0.031 C 
ATOM     19  C   UNL A   1      41.003  25.091  28.107  1.00  0.00     0.029 A 
ATOM     20  N   UNL A   1      42.495  26.738  28.356  1.00  0.00    -0.354 N 
ATOM     21  C   UNL A   1      46.712  26.035  27.744  1.00  0.00     0.074 A 
ATOM     22  C   UNL A   1      46.965  24.663  27.359  1.00  0.00     0.031 C 
ATOM     23  C   UNL A   1      40.321  26.206  28.406  1.00  0.00     0.029 A 
ATOM     24  C   UNL A   1      41.267  27.303  28.589  1.00  0.00     0.049 A 
ATOM     25  H   UNL A   1      43.341  27.236  28.422  1.00  0.00     0.167 HD
ATOM     26  C   UNL A   1      47.673  26.977  27.902  1.00  0.00     0.037 A 
ATOM     27  C   UNL A   1      40.935  28.566  28.914  1.00  0.00     0.037 A 
ATOM     28  C   UNL A   1      47.417  28.353  28.243  1.00  0.00     0.049 A 
ATOM     29  C   UNL A   1      42.019  29.592  29.063  1.00  0.00     0.074 A 
ATOM     30  C   UNL A   1      48.321  29.392  28.384  1.00  0.00     0.029 A 
ATOM     31  N   UNL A   1      46.159  28.883  28.490  1.00  0.00    -0.354 N 
ATOM     32  N   UNL A   1      43.311  29.461  28.890  1.00  0.00    -0.248 NA
ATOM     33  C   UNL A   1      41.597  30.943  29.456  1.00  0.00     0.031 C 
ATOM     34  C   UNL A   1      47.614  30.543  28.751  1.00  0.00     0.029 A 
ATOM     35  C   UNL A   1      46.266  30.230  28.798  1.00  0.00     0.049 A 
ATOM     36  H   UNL A   1      45.316  28.377  28.454  1.00  0.00     0.167 HD
ATOM     37  C   UNL A   1      43.856  30.713  29.133  1.00  0.00     0.074 A 
ATOM     38  C   UNL A   1      42.751  31.596  29.448  1.00  0.00     0.031 C 
ATOM     39  C   UNL A   1      45.156  31.095  29.100  1.00  0.00     0.037 A 
BRANCH  26  40
ATOM     40  C   UNL A   1      49.103  26.552  27.727  1.00  0.00     0.064 A 
ATOM     41  C   UNL A   1      49.684  26.415  26.459  1.00  0.00     0.173 A 
ATOM     42  C   UNL A   1      49.914  26.321  28.849  1.00  0.00     0.173 A 
ATOM     43  F   UNL A   1      48.948  26.611  25.354  1.00  0.00    -0.203 F 
ATOM     44  C   UNL A   1      51.020  26.044  26.319  1.00  0.00     0.198 A 
ATOM     45  C   UNL A   1      51.255  25.975  28.707  1.00  0.00     0.198 A 
ATOM     46  F   UNL A   1      49.409  26.445  30.085  1.00  0.00    -0.203 F 
ATOM     47  F   UNL A   1      51.544  25.881  25.096  1.00  0.00    -0.200 F 
ATOM     48  C   UNL A   1      51.805  25.831  27.442  1.00  0.00     0.200 A 
ATOM     49  F   UNL A   1      52.014  25.779  29.793  1.00  0.00    -0.200 F 
ATOM     50  F   UNL A   1      53.091  25.479  27.306  1.00  0.00    -0.200 F 
ENDBRANCH  26  40
BRANCH  27  51
ATOM     51  C   UNL A   1      39.507  28.925  29.095  1.00  0.00     0.064 A 
ATOM     52  C   UNL A   1      38.729  29.352  28.010  1.00  0.00     0.173 A 
ATOM     53  C   UNL A   1      38.885  28.829  30.348  1.00  0.00     0.173 A 
ATOM     54  F   UNL A   1      39.287  29.475  26.796  1.00  0.00    -0.203 F 
ATOM     55  C   UNL A   1      37.386  29.679  28.173  1.00  0.00     0.198 A 
ATOM     56  C   UNL A   1      37.534  29.131  30.506  1.00  0.00     0.198 A 
ATOM     57  F   UNL A   1      39.585  28.420  31.416  1.00  0.00    -0.203 F 
ATOM     58  F   UNL A   1      36.672  30.115  27.126  1.00  0.00    -0.200 F 
ATOM     59  C   UNL A   1      36.788  29.560  29.418  1.00  0.00     0.200 A 
ATOM     60  F   UNL A   1      36.956  28.999  31.707  1.00  0.00    -0.200 F 
ATOM     61  F   UNL A   1      35.491  29.864  29.573  1.00  0.00    -0.200 F 
ENDBRANCH  27  51
BRANCH  39  62
ATOM     62  C   UNL A   1      45.445  32.540  29.381  1.00  0.00     0.064 A 
ATOM     63  C   UNL A   1      45.734  32.991  30.676  1.00  0.00     0.173 A 
ATOM     64  C   UNL A   1      45.450  33.477  28.337  1.00  0.00     0.173 A 
ATOM     65  F   UNL A   1      45.723  32.136  31.708  1.00  0.00    -0.203 F 
ATOM     66  C   UNL A   1      45.991  34.338  30.921  1.00  0.00     0.198 A 
ATOM     67  C   UNL A   1      45.732  34.817  28.582  1.00  0.00     0.198 A 
ATOM     68  F   UNL A   1      45.184  33.090  27.080  1.00  0.00    -0.203 F 
ATOM     69  F   UNL A   1      46.216  34.757  32.174  1.00  0.00    -0.200 F 
ATOM     70  C   UNL A   1      45.994  35.248  29.874  1.00  0.00     0.200 A 
ATOM     71  F   UNL A   1      45.743  35.694  27.568  1.00  0.00    -0.200 F 
ATOM     72  F   UNL A   1      46.240  36.543  30.112  1.00  0.00    -0.200 F 
ENDBRANCH  39  62
ENDBRANCH  13  14
ENDBRANCH   6   8
ENDBRANCH   3   4
ENDBRANCH   2   3
ENDBRANCH   1   2
BRANCH   1  73
ATOM     73  C   UNL A   1      36.886  22.481  25.716  1.00  0.00     0.116 C 
BRANCH  73  74
ATOM     74  N   UNL A   1      35.718  22.331  26.571  1.00  0.00    -0.352 N 
ATOM     75  C   UNL A   1      34.488  22.938  26.454  1.00  0.00     0.251 C 
ATOM     76  H   UNL A   1      35.821  21.715  27.332  1.00  0.00     0.163 HD
ATOM     77  O   UNL A   1      33.631  22.776  27.316  1.00  0.00    -0.269 OA
BRANCH  75  78
ATOM     78  C   UNL A   1      34.214  23.810  25.291  1.00  0.00     0.039 A 
ATOM     79  C   UNL A   1      33.715  23.252  24.108  1.00  0.00     0.015 A 
ATOM     80  C   UNL A   1      34.422  25.188  25.385  1.00  0.00     0.015 A 
ATOM     81  C   UNL A   1      33.379  24.083  23.036  1.00  0.00     0.022 A 
ATOM     82  C   UNL A   1      34.004  26.020  24.356  1.00  0.00     0.022 A 
ATOM     83  C   UNL A   1      33.518  25.469  23.171  1.00  0.00     0.082 A 
BRANCH  83  84
ATOM     84  S   UNL A   1      33.122  26.519  21.798  1.00  0.00     0.241 S 
ATOM     85  O   UNL A   1      33.972  27.688  21.856  1.00  0.00    -0.207 OA
ATOM     86  O   UNL A   1      33.064  25.664  20.635  1.00  0.00    -0.207 OA
BRANCH  84  87
ATOM     87  N   UNL A   1      31.544  27.000  22.079  1.00  0.00    -0.202 NA
ATOM     88  H   UNL A   1      30.957  26.215  21.797  1.00  0.00     0.141 HD
BRANCH  87  89
ATOM     89  C   UNL A   1      31.051  27.419  23.413  1.00  0.00     0.133 C 
ATOM     90  C   UNL A   1      30.158  26.381  24.138  1.00  0.00     0.087 C 
ATOM     91  C   UNL A   1      30.052  28.575  23.295  1.00  0.00     0.202 C 
ATOM     92  C   UNL A   1      28.690  26.806  23.901  1.00  0.00     0.264 C 
ATOM     93  N   UNL A   1      28.828  27.862  22.919  1.00  0.00    -0.331 N 
ATOM     94  C   UNL A   1      30.077  29.639  22.222  1.00  0.00     0.072 C 
ATOM     95  C   UNL A   1      27.805  28.872  22.774  1.00  0.00     0.262 C 
ATOM     96  H   UNL A   1      28.795  27.371  22.025  1.00  0.00     0.348 HD
ATOM     97  C   UNL A   1      28.583  29.995  22.069  1.00  0.00     0.068 C 
ENDBRANCH  87  89
ENDBRANCH  84  87
ENDBRANCH  83  84
ENDBRANCH  75  78
ENDBRANCH  73  74
ENDBRANCH   1  73
TORSDOF 14
ENDMDL
MODEL 2
REMARK VINA RESULT:     -13.0      0.794      1.810
REMARK SMILES O=C(NCCCCNC(=O)c1ccc(S(=O)(=O)N[C@@H]2CC[N@H+]3CCC[C@H]23)cc1)c1ccc(-c2c3nc(c(-c4c(F)c(F)c(F)c(F)c4F)c4ccc([nH]4)c(-c4c(F)c(F)c(F)c(F)c4F)c4nc(c(-c5c(F)c(F)c(F)c(F)c5F)c5ccc2[nH]5)C=C4)C=C3)cc1
REMARK SMILES IDX 6 1 5 2 4 3 3 4 1 5 2 6 29 8 30 9 91 10 31 11 90 12 32 13
REMARK SMILES IDX 33 14 34 15 84 16 35 17 89 18 83 19 85 20 36 21 88 22 82 23
REMARK SMILES IDX 81 24 37 26 69 27 49 28 68 29 50 30 53 31 67 32 86 33 51 34
REMARK SMILES IDX 52 35 66 37 87 38 54 39 38 40 39 41 47 42 40 43 41 44 45 45
REMARK SMILES IDX 48 46 42 47 43 48 46 49 44 50 70 51 71 52 79 53 72 54 73 55
REMARK SMILES IDX 77 56 80 57 74 58 75 59 78 60 76 61 55 62 56 63 64 64 57 65
REMARK SMILES IDX 58 66 62 67 65 68 59 69 60 70 63 71 61 72 7 73 8 74 9 75
REMARK SMILES IDX 10 77 11 78 12 79 28 80 13 81 27 82 14 83 15 84 16 85 17 86
REMARK SMILES IDX 18 87 19 89 20 90 26 91 21 92 22 93 25 94 23 95 24 97
REMARK H PARENT 3 7 85 25 53 36 8 76 18 88 22 96
REMARK Flexibility Score: inf
ROOT
ATOM      1  C   UNL A   1      37.231  21.338  24.580  1.00  0.00     0.023 C 
ENDROOT
BRANCH   1   2
ATOM      2  C   UNL A   1      38.019  20.104  25.000  1.00  0.00     0.023 C 
BRANCH   2   3
ATOM      3  C   UNL A   1      39.230  20.374  25.882  1.00  0.00     0.116 C 
BRANCH   3   4
ATOM      4  N   UNL A   1      40.191  19.279  25.900  1.00  0.00    -0.352 N 
ATOM      5  O   UNL A   1      42.218  18.280  25.956  1.00  0.00    -0.269 OA
ATOM      6  C   UNL A   1      41.553  19.303  26.091  1.00  0.00     0.251 C 
ATOM      7  H   UNL A   1      39.806  18.384  25.754  1.00  0.00     0.163 HD
BRANCH   6   8
ATOM      8  C   UNL A   1      42.224  20.580  26.415  1.00  0.00     0.039 A 
ATOM      9  C   UNL A   1      42.346  20.998  27.740  1.00  0.00     0.014 A 
ATOM     10  C   UNL A   1      42.693  21.387  25.376  1.00  0.00     0.014 A 
ATOM     11  C   UNL A   1      42.739  22.303  28.011  1.00  0.00     0.010 A 
ATOM     12  C   UNL A   1      43.187  22.664  25.661  1.00  0.00     0.010 A 
ATOM     13  C   UNL A   1      43.155  23.155  26.974  1.00  0.00    -0.014 A 
BRANCH  13  14
ATOM     14  C   UNL A   1      43.546  24.551  27.300  1.00  0.00     0.031 A 
ATOM     15  C   UNL A   1      44.921  25.070  26.971  1.00  0.00     0.074 A 
ATOM     16  C   UNL A   1      42.627  25.375  27.841  1.00  0.00     0.049 A 
ATOM     17  N   UNL A   1      45.409  26.275  27.133  1.00  0.00    -0.248 NA
ATOM     18  C   UNL A   1      45.876  24.113  26.392  1.00  0.00     0.031 C 
ATOM     19  C   UNL A   1      41.266  24.986  28.211  1.00  0.00     0.029 A 
ATOM     20  N   UNL A   1      42.686  26.711  28.141  1.00  0.00    -0.354 N 
ATOM     21  C   UNL A   1      46.731  26.213  26.712  1.00  0.00     0.074 A 
ATOM     22  C   UNL A   1      46.977  24.848  26.299  1.00  0.00     0.031 C 
ATOM     23  C   UNL A   1      40.597  26.070  28.627  1.00  0.00     0.029 A 
ATOM     24  C   UNL A   1      41.499  27.218  28.607  1.00  0.00     0.049 A 
ATOM     25  H   UNL A   1      43.500  27.254  28.033  1.00  0.00     0.167 HD
ATOM     26  C   UNL A   1      47.652  27.206  26.666  1.00  0.00     0.037 A 
ATOM     27  C   UNL A   1      41.170  28.468  28.978  1.00  0.00     0.037 A 
ATOM     28  C   UNL A   1      47.393  28.574  27.036  1.00  0.00     0.049 A 
ATOM     29  C   UNL A   1      42.204  29.552  28.898  1.00  0.00     0.074 A 
ATOM     30  C   UNL A   1      48.249  29.661  26.984  1.00  0.00     0.029 A 
ATOM     31  N   UNL A   1      46.182  29.044  27.522  1.00  0.00    -0.354 N 
ATOM     32  N   UNL A   1      43.442  29.484  28.473  1.00  0.00    -0.248 NA
ATOM     33  C   UNL A   1      41.795  30.888  29.351  1.00  0.00     0.031 C 
ATOM     34  C   UNL A   1      47.567  30.781  27.471  1.00  0.00     0.029 A 
ATOM     35  C   UNL A   1      46.274  30.401  27.788  1.00  0.00     0.049 A 
ATOM     36  H   UNL A   1      45.377  28.495  27.660  1.00  0.00     0.167 HD
ATOM     37  C   UNL A   1      43.955  30.767  28.590  1.00  0.00     0.074 A 
ATOM     38  C   UNL A   1      42.888  31.598  29.108  1.00  0.00     0.031 C 
ATOM     39  C   UNL A   1      45.200  31.215  28.296  1.00  0.00     0.037 A 
BRANCH  26  40
ATOM     40  C   UNL A   1      49.039  26.851  26.215  1.00  0.00     0.064 A 
ATOM     41  C   UNL A   1      50.001  26.353  27.105  1.00  0.00     0.173 A 
ATOM     42  C   UNL A   1      49.395  26.970  24.863  1.00  0.00     0.173 A 
ATOM     43  F   UNL A   1      49.716  26.231  28.411  1.00  0.00    -0.203 F 
ATOM     44  C   UNL A   1      51.276  26.005  26.661  1.00  0.00     0.198 A 
ATOM     45  C   UNL A   1      50.661  26.599  24.418  1.00  0.00     0.198 A 
ATOM     46  F   UNL A   1      48.509  27.435  23.970  1.00  0.00    -0.203 F 
ATOM     47  F   UNL A   1      52.192  25.568  27.536  1.00  0.00    -0.200 F 
ATOM     48  C   UNL A   1      51.602  26.122  25.318  1.00  0.00     0.200 A 
ATOM     49  F   UNL A   1      50.971  26.703  23.119  1.00  0.00    -0.200 F 
ATOM     50  F   UNL A   1      52.827  25.783  24.892  1.00  0.00    -0.200 F 
ENDBRANCH  26  40
BRANCH  27  51
ATOM     51  C   UNL A   1      39.788  28.758  29.435  1.00  0.00     0.064 A 
ATOM     52  C   UNL A   1      38.802  29.172  28.528  1.00  0.00     0.173 A 
ATOM     53  C   UNL A   1      39.419  28.607  30.779  1.00  0.00     0.173 A 
ATOM     54  F   UNL A   1      39.115  29.347  27.236  1.00  0.00    -0.203 F 
ATOM     55  C   UNL A   1      37.502  29.433  28.951  1.00  0.00     0.198 A 
ATOM     56  C   UNL A   1      38.111  28.842  31.197  1.00  0.00     0.198 A 
ATOM     57  F   UNL A   1      40.324  28.206  31.683  1.00  0.00    -0.203 F 
ATOM     58  F   UNL A   1      36.586  29.859  28.070  1.00  0.00    -0.200 F 
ATOM     59  C   UNL A   1      37.155  29.261  30.282  1.00  0.00     0.200 A 
ATOM     60  F   UNL A   1      37.776  28.658  32.481  1.00  0.00    -0.200 F 
ATOM     61  F   UNL A   1      35.900  29.501  30.687  1.00  0.00    -0.200 F 
ENDBRANCH  27  51
BRANCH  39  62
ATOM     62  C   UNL A   1      45.460  32.677  28.497  1.00  0.00     0.064 A 
ATOM     63  C   UNL A   1      45.204  33.614  27.485  1.00  0.00     0.173 A 
ATOM     64  C   UNL A   1      45.953  33.147  29.724  1.00  0.00     0.173 A 
ATOM     65  F   UNL A   1      44.749  33.210  26.291  1.00  0.00    -0.203 F 
ATOM     66  C   UNL A   1      45.461  34.968  27.685  1.00  0.00     0.198 A 
ATOM     67  C   UNL A   1      46.185  34.503  29.928  1.00  0.00     0.198 A 
ATOM     68  F   UNL A   1      46.209  32.289  30.723  1.00  0.00    -0.203 F 
ATOM     69  F   UNL A   1      45.256  35.840  26.689  1.00  0.00    -0.200 F 
ATOM     70  C   UNL A   1      45.946  35.411  28.907  1.00  0.00     0.200 A 
ATOM     71  F   UNL A   1      46.646  34.932  31.111  1.00  0.00    -0.200 F 
ATOM     72  F   UNL A   1      46.193  36.715  29.097  1.00  0.00    -0.200 F 
ENDBRANCH  39  62
ENDBRANCH  13  14
ENDBRANCH   6   8
ENDBRANCH   3   4
ENDBRANCH   2   3
ENDBRANCH   1   2
BRANCH   1  73
ATOM     73  C   UNL A   1      37.042  22.388  25.665  1.00  0.00     0.116 C 
BRANCH  73  74
ATOM     74  N   UNL A   1      35.867  22.170  26.495  1.00  0.00    -0.352 N 
ATOM     75  C   UNL A   1      34.617  22.736  26.376  1.00  0.00     0.251 C 
ATOM     76  H   UNL A   1      35.980  21.536  27.240  1.00  0.00     0.163 HD
ATOM     77  O   UNL A   1      33.753  22.517  27.218  1.00  0.00    -0.269 OA
BRANCH  75  78
ATOM     78  C   UNL A   1      34.330  23.632  25.235  1.00  0.00     0.039 A 
ATOM     79  C   UNL A   1      33.895  23.089  24.020  1.00  0.00     0.015 A 
ATOM     80  C   UNL A   1      34.462  25.015  25.380  1.00  0.00     0.015 A 
ATOM     81  C   UNL A   1      33.546  23.939  22.965  1.00  0.00     0.022 A 
ATOM     82  C   UNL A   1      34.029  25.859  24.368  1.00  0.00     0.022 A 
ATOM     83  C   UNL A   1      33.607  25.324  23.151  1.00  0.00     0.082 A 
BRANCH  83  84
ATOM     84  S   UNL A   1      33.194  26.399  21.802  1.00  0.00     0.241 S 
ATOM     85  O   UNL A   1      34.028  27.578  21.885  1.00  0.00    -0.207 OA
ATOM     86  O   UNL A   1      33.147  25.570  20.620  1.00  0.00    -0.207 OA
BRANCH  84  87
ATOM     87  N   UNL A   1      31.610  26.852  22.095  1.00  0.00    -0.202 NA
ATOM     88  H   UNL A   1      31.036  26.052  21.830  1.00  0.00     0.141 HD
BRANCH  87  89
ATOM     89  C   UNL A   1      31.124  27.278  23.429  1.00  0.00     0.133 C 
ATOM     90  C   UNL A   1      30.162  26.284  24.126  1.00  0.00     0.087 C 
ATOM     91  C   UNL A   1      30.196  28.492  23.317  1.00  0.00     0.202 C 
ATOM     92  C   UNL A   1      28.725  26.798  23.877  1.00  0.00     0.264 C 
ATOM     93  N   UNL A   1      28.939  27.858  22.914  1.00  0.00    -0.331 N 
ATOM     94  C   UNL A   1      30.298  29.571  22.263  1.00  0.00     0.072 C 
ATOM     95  C   UNL A   1      27.978  28.929  22.772  1.00  0.00     0.262 C 
ATOM     96  H   UNL A   1      28.889  27.384  22.012  1.00  0.00     0.348 HD
ATOM     97  C   UNL A   1      28.831  30.016  22.096  1.00  0.00     0.068 C 
ENDBRANCH  87  89
ENDBRANCH  84  87
ENDBRANCH  83  84
ENDBRANCH  75  78
ENDBRANCH  73  74
ENDBRANCH   1  73
TORSDOF 14
ENDMDL
MODEL 3
REMARK VINA RESULT:     -12.9      5.345     10.841
REMARK SMILES O=C(NCCCCNC(=O)c1ccc(S(=O)(=O)N[C@@H]2CC[N@H+]3CCC[C@H]23)cc1)c1ccc(-c2c3nc(c(-c4c(F)c(F)c(F)c(F)c4F)c4ccc([nH]4)c(-c4c(F)c(F)c(F)c(F)c4F)c4nc(c(-c5c(F)c(F)c(F)c(F)c5F)c5ccc2[nH]5)C=C4)C=C3)cc1
REMARK SMILES IDX 6 1 5 2 4 3 3 4 1 5 2 6 29 8 30 9 91 10 31 11 90 12 32 13
REMARK SMILES IDX 33 14 34 15 84 16 35 17 89 18 83 19 85 20 36 21 88 22 82 23
REMARK SMILES IDX 81 24 37 26 69 27 49 28 68 29 50 30 53 31 67 32 86 33 51 34
REMARK SMILES IDX 52 35 66 37 87 38 54 39 38 40 39 41 47 42 40 43 41 44 45 45
REMARK SMILES IDX 48 46 42 47 43 48 46 49 44 50 70 51 71 52 79 53 72 54 73 55
REMARK SMILES IDX 77 56 80 57 74 58 75 59 78 60 76 61 55 62 56 63 64 64 57 65
REMARK SMILES IDX 58 66 62 67 65 68 59 69 60 70 63 71 61 72 7 73 8 74 9 75
REMARK SMILES IDX 10 77 11 78 12 79 28 80 13 81 27 82 14 83 15 84 16 85 17 86
REMARK SMILES IDX 18 87 19 89 20 90 26 91 21 92 22 93 25 94 23 95 24 97
REMARK H PARENT 3 7 85 25 53 36 8 76 18 88 22 96
REMARK Flexibility Score: inf
ROOT
ATOM      1  C   UNL A   1      31.922  30.446  26.650  1.00  0.00     0.023 C 
ENDROOT
BRANCH   1   2
ATOM      2  C   UNL A   1      31.696  31.951  26.716  1.00  0.00     0.023 C 
BRANCH   2   3
ATOM      3  C   UNL A   1      32.839  32.755  27.322  1.00  0.00     0.116 C 
BRANCH   3   4
ATOM      4  N   UNL A   1      32.460  34.111  27.696  1.00  0.00    -0.352 N 
ATOM      5  O   UNL A   1      32.465  36.022  28.902  1.00  0.00    -0.269 OA
ATOM      6  C   UNL A   1      32.998  34.947  28.648  1.00  0.00     0.251 C 
ATOM      7  H   UNL A   1      31.704  34.488  27.190  1.00  0.00     0.163 HD
BRANCH   6   8
ATOM      8  C   UNL A   1      34.197  34.522  29.401  1.00  0.00     0.039 A 
ATOM      9  C   UNL A   1      35.469  34.673  28.849  1.00  0.00     0.014 A 
ATOM     10  C   UNL A   1      34.040  33.922  30.653  1.00  0.00     0.014 A 
ATOM     11  C   UNL A   1      36.552  34.041  29.446  1.00  0.00     0.010 A 
ATOM     12  C   UNL A   1      35.151  33.377  31.303  1.00  0.00     0.010 A 
ATOM     13  C   UNL A   1      36.405  33.377  30.676  1.00  0.00    -0.014 A 
BRANCH  13  14
ATOM     14  C   UNL A   1      37.582  32.692  31.272  1.00  0.00     0.031 A 
ATOM     15  C   UNL A   1      38.042  33.014  32.669  1.00  0.00     0.074 A 
ATOM     16  C   UNL A   1      38.199  31.726  30.566  1.00  0.00     0.049 A 
ATOM     17  N   UNL A   1      39.012  32.472  33.364  1.00  0.00    -0.248 NA
ATOM     18  C   UNL A   1      37.329  34.088  33.378  1.00  0.00     0.031 C 
ATOM     19  C   UNL A   1      37.849  31.330  29.201  1.00  0.00     0.029 A 
ATOM     20  N   UNL A   1      39.223  30.880  30.906  1.00  0.00    -0.354 N 
ATOM     21  C   UNL A   1      39.048  33.159  34.570  1.00  0.00     0.074 A 
ATOM     22  C   UNL A   1      38.013  34.168  34.512  1.00  0.00     0.031 C 
ATOM     23  C   UNL A   1      38.599  30.278  28.842  1.00  0.00     0.029 A 
ATOM     24  C   UNL A   1      39.519  29.962  29.930  1.00  0.00     0.049 A 
ATOM     25  H   UNL A   1      39.698  30.927  31.767  1.00  0.00     0.167 HD
ATOM     26  C   UNL A   1      39.865  32.959  35.633  1.00  0.00     0.037 A 
ATOM     27  C   UNL A   1      40.432  28.974  29.910  1.00  0.00     0.037 A 
ATOM     28  C   UNL A   1      40.867  31.926  35.707  1.00  0.00     0.049 A 
ATOM     29  C   UNL A   1      41.310  28.763  31.109  1.00  0.00     0.074 A 
ATOM     30  C   UNL A   1      41.714  31.617  36.758  1.00  0.00     0.029 A 
ATOM     31  N   UNL A   1      41.150  31.028  34.689  1.00  0.00    -0.354 N 
ATOM     32  N   UNL A   1      41.315  29.403  32.252  1.00  0.00    -0.248 NA
ATOM     33  C   UNL A   1      42.311  27.693  31.012  1.00  0.00     0.031 C 
ATOM     34  C   UNL A   1      42.534  30.554  36.362  1.00  0.00     0.029 A 
ATOM     35  C   UNL A   1      42.170  30.175  35.081  1.00  0.00     0.049 A 
ATOM     36  H   UNL A   1      40.695  31.001  33.817  1.00  0.00     0.167 HD
ATOM     37  C   UNL A   1      42.303  28.804  33.019  1.00  0.00     0.074 A 
ATOM     38  C   UNL A   1      42.864  27.736  32.216  1.00  0.00     0.031 C 
ATOM     39  C   UNL A   1      42.710  29.113  34.274  1.00  0.00     0.037 A 
BRANCH  26  40
ATOM     40  C   UNL A   1      39.728  33.889  36.804  1.00  0.00     0.064 A 
ATOM     41  C   UNL A   1      40.356  35.143  36.830  1.00  0.00     0.173 A 
ATOM     42  C   UNL A   1      38.919  33.537  37.894  1.00  0.00     0.173 A 
ATOM     43  F   UNL A   1      41.150  35.523  35.818  1.00  0.00    -0.203 F 
ATOM     44  C   UNL A   1      40.195  36.002  37.916  1.00  0.00     0.198 A 
ATOM     45  C   UNL A   1      38.740  34.407  38.967  1.00  0.00     0.198 A 
ATOM     46  F   UNL A   1      38.291  32.352  37.915  1.00  0.00    -0.203 F 
ATOM     47  F   UNL A   1      40.836  37.178  37.938  1.00  0.00    -0.200 F 
ATOM     48  C   UNL A   1      39.382  35.636  38.979  1.00  0.00     0.200 A 
ATOM     49  F   UNL A   1      37.947  34.057  39.988  1.00  0.00    -0.200 F 
ATOM     50  F   UNL A   1      39.225  36.466  40.020  1.00  0.00    -0.200 F 
ENDBRANCH  26  40
BRANCH  27  51
ATOM     51  C   UNL A   1      40.538  28.097  28.718  1.00  0.00     0.064 A 
ATOM     52  C   UNL A   1      39.848  26.879  28.657  1.00  0.00     0.173 A 
ATOM     53  C   UNL A   1      41.310  28.468  27.608  1.00  0.00     0.173 A 
ATOM     54  F   UNL A   1      39.111  26.476  29.703  1.00  0.00    -0.203 F 
ATOM     55  C   UNL A   1      39.935  26.059  27.535  1.00  0.00     0.198 A 
ATOM     56  C   UNL A   1      41.376  27.660  26.475  1.00  0.00     0.198 A 
ATOM     57  F   UNL A   1      41.983  29.627  27.615  1.00  0.00    -0.203 F 
ATOM     58  F   UNL A   1      39.292  24.884  27.515  1.00  0.00    -0.200 F 
ATOM     59  C   UNL A   1      40.692  26.453  26.443  1.00  0.00     0.200 A 
ATOM     60  F   UNL A   1      42.094  28.053  25.415  1.00  0.00    -0.200 F 
ATOM     61  F   UNL A   1      40.766  25.669  25.358  1.00  0.00    -0.200 F 
ENDBRANCH  27  51
BRANCH  39  62
ATOM     62  C   UNL A   1      43.793  28.260  34.865  1.00  0.00     0.064 A 
ATOM     63  C   UNL A   1      45.146  28.606  34.744  1.00  0.00     0.173 A 
ATOM     64  C   UNL A   1      43.469  27.094  35.574  1.00  0.00     0.173 A 
ATOM     65  F   UNL A   1      45.505  29.702  34.060  1.00  0.00    -0.203 F 
ATOM     66  C   UNL A   1      46.140  27.798  35.291  1.00  0.00     0.198 A 
ATOM     67  C   UNL A   1      44.464  26.303  36.140  1.00  0.00     0.198 A 
ATOM     68  F   UNL A   1      42.187  26.725  35.719  1.00  0.00    -0.203 F 
ATOM     69  F   UNL A   1      47.430  28.121  35.123  1.00  0.00    -0.200 F 
ATOM     70  C   UNL A   1      45.798  26.651  35.991  1.00  0.00     0.200 A 
ATOM     71  F   UNL A   1      44.132  25.199  36.824  1.00  0.00    -0.200 F 
ATOM     72  F   UNL A   1      46.756  25.874  36.515  1.00  0.00    -0.200 F 
ENDBRANCH  39  62
ENDBRANCH  13  14
ENDBRANCH   6   8
ENDBRANCH   3   4
ENDBRANCH   2   3
ENDBRANCH   1   2
BRANCH   1  73
ATOM     73  C   UNL A   1      31.472  29.778  25.359  1.00  0.00     0.116 C 
BRANCH  73  74
ATOM     74  N   UNL A   1      32.492  29.757  24.321  1.00  0.00    -0.352 N 
ATOM     75  C   UNL A   1      33.226  28.686  23.864  1.00  0.00     0.251 C 
ATOM     76  H   UNL A   1      32.682  30.622  23.891  1.00  0.00     0.163 HD
ATOM     77  O   UNL A   1      34.120  28.851  23.041  1.00  0.00    -0.269 OA
BRANCH  75  78
ATOM     78  C   UNL A   1      32.945  27.333  24.391  1.00  0.00     0.039 A 
ATOM     79  C   UNL A   1      33.566  26.907  25.572  1.00  0.00     0.015 A 
ATOM     80  C   UNL A   1      32.041  26.498  23.731  1.00  0.00     0.015 A 
ATOM     81  C   UNL A   1      33.243  25.660  26.115  1.00  0.00     0.022 A 
ATOM     82  C   UNL A   1      31.652  25.303  24.318  1.00  0.00     0.022 A 
ATOM     83  C   UNL A   1      32.276  24.867  25.487  1.00  0.00     0.082 A 
BRANCH  83  84
ATOM     84  S   UNL A   1      31.890  23.272  26.161  1.00  0.00     0.241 S 
ATOM     85  O   UNL A   1      31.550  23.436  27.557  1.00  0.00    -0.207 OA
ATOM     86  O   UNL A   1      30.999  22.637  25.218  1.00  0.00    -0.207 OA
BRANCH  84  87
ATOM     87  N   UNL A   1      33.326  22.418  26.066  1.00  0.00    -0.202 NA
ATOM     88  H   UNL A   1      33.202  21.595  26.656  1.00  0.00     0.141 HD
BRANCH  87  89
ATOM     89  C   UNL A   1      33.890  21.922  24.788  1.00  0.00     0.133 C 
ATOM     90  C   UNL A   1      34.131  20.393  24.726  1.00  0.00     0.087 C 
ATOM     91  C   UNL A   1      35.328  22.413  24.590  1.00  0.00     0.202 C 
ATOM     92  C   UNL A   1      35.632  20.161  25.020  1.00  0.00     0.264 C 
ATOM     93  N   UNL A   1      36.072  21.477  25.436  1.00  0.00    -0.331 N 
ATOM     94  C   UNL A   1      35.876  23.725  25.103  1.00  0.00     0.072 C 
ATOM     95  C   UNL A   1      37.462  21.857  25.327  1.00  0.00     0.262 C 
ATOM     96  H   UNL A   1      35.910  21.482  26.443  1.00  0.00     0.348 HD
ATOM     97  C   UNL A   1      37.361  23.391  25.354  1.00  0.00     0.068 C 
ENDBRANCH  87  89
ENDBRANCH  84  87
ENDBRANCH  83  84
ENDBRANCH  75  78
ENDBRANCH  73  74
ENDBRANCH   1  73
TORSDOF 14
ENDMDL
